MODEL 1
REMARK VINA RESULT: -5.519173443      0.000      0.000
REMARK  8 active torsions:
REMARK  status: ('A' for Active; 'I' for Inactive)
REMARK    1  A    between atoms: C2_2  and  C3_3 
REMARK    2  A    between atoms: C3_3  and  N1_4 
REMARK    3  A    between atoms: C6_7  and  C7_8 
REMARK    4  A    between atoms: C7_8  and  C8_9 
REMARK    5  A    between atoms: C8_9  and  N2_10 
REMARK    6  A    between atoms: N2_10  and  C9_12 
REMARK    7  A    between atoms: C9_12  and  C10_13 
REMARK    8  A    between atoms: C10_13  and  C11_14 
ROOT
HETATM    1  N1  UNL     1      -3.815   1.540  10.893  1.00  0.00     0.092 N 
HETATM    2  C4  UNL     1      -3.188   2.819  10.942  1.00  0.00     0.273 C 
HETATM    3  C5  UNL     1      -3.198   3.191  12.399  1.00  0.00     0.036 C 
HETATM    4  C6  UNL     1      -4.455   2.553  12.931  1.00  0.00     0.017 C 
HETATM    5  C12 UNL     1      -4.770   1.507  11.970  1.00  0.00     0.277 C 
ENDROOT
BRANCH   4   6
HETATM    6  C7  UNL     1      -5.477   3.585  13.234  1.00  0.00     0.026 C 
BRANCH   6   7
HETATM    7  C8  UNL     1      -5.799   3.829  14.648  1.00  0.00     0.119 C 
BRANCH   7   8
HETATM    8  N2  UNL     1      -5.837   2.620  15.398  1.00  0.00    -0.402 N 
ATOM      9  H2  UNL     1      -5.268   1.808  15.157  1.00  0.00     0.158 HD
BRANCH   8  10
HETATM   10  C9  UNL     1      -6.715   2.628  16.496  1.00  0.00     0.062 C 
BRANCH  10  11
HETATM   11  C10 UNL     1      -7.140   1.256  16.960  1.00  0.00     0.113 C 
BRANCH  11  12
HETATM   12  C11 UNL     1      -5.945   0.452  17.263  1.00  0.00     0.236 C 
HETATM   13  O1  UNL     1      -5.500  -0.352  16.495  1.00  0.00    -0.307 OA
ENDBRANCH  11  12
ENDBRANCH  10  11
ENDBRANCH   8  10
ENDBRANCH   7   8
ENDBRANCH   6   7
ENDBRANCH   4   6
BRANCH   1  14
HETATM   14  C3  UNL     1      -2.914   0.426  10.885  1.00  0.00     0.299 C 
BRANCH  14  15
HETATM   15  C2  UNL     1      -3.718  -0.804  11.223  1.00  0.00    -0.007 C 
HETATM   16  C1  UNL     1      -3.132  -1.996  11.201  1.00  0.00     0.008 C 
ENDBRANCH  14  15
ENDBRANCH   1  14
TORSDOF 8
ENDMDL
MODEL 2
REMARK VINA RESULT: -5.476497737      2.137      5.405
REMARK  8 active torsions:
REMARK  status: ('A' for Active; 'I' for Inactive)
REMARK    1  A    between atoms: C2_2  and  C3_3 
REMARK    2  A    between atoms: C3_3  and  N1_4 
REMARK    3  A    between atoms: C6_7  and  C7_8 
REMARK    4  A    between atoms: C7_8  and  C8_9 
REMARK    5  A    between atoms: C8_9  and  N2_10 
REMARK    6  A    between atoms: N2_10  and  C9_12 
REMARK    7  A    between atoms: C9_12  and  C10_13 
REMARK    8  A    between atoms: C10_13  and  C11_14 
ROOT
HETATM    1  N1  UNL     1      -5.686   2.665  15.024  1.00  0.00     0.092 N 
HETATM    2  C4  UNL     1      -4.326   2.439  15.383  1.00  0.00     0.273 C 
HETATM    3  C5  UNL     1      -3.607   3.688  14.953  1.00  0.00     0.036 C 
HETATM    4  C6  UNL     1      -4.368   4.149  13.739  1.00  0.00     0.017 C 
HETATM    5  C12 UNL     1      -5.669   3.509  13.857  1.00  0.00     0.277 C 
ENDROOT
BRANCH   4   6
HETATM    6  C7  UNL     1      -3.567   3.933  12.508  1.00  0.00     0.026 C 
BRANCH   6   7
HETATM    7  C8  UNL     1      -3.962   2.823  11.626  1.00  0.00     0.119 C 
BRANCH   7   8
HETATM    8  N2  UNL     1      -3.277   1.619  11.951  1.00  0.00    -0.402 N 
ATOM      9  H2  UNL     1      -2.259   1.557  11.971  1.00  0.00     0.158 HD
BRANCH   8  10
HETATM   10  C9  UNL     1      -4.108   0.523  12.243  1.00  0.00     0.062 C 
BRANCH  10  11
HETATM   11  C10 UNL     1      -3.716  -0.755  11.542  1.00  0.00     0.113 C 
BRANCH  11  12
HETATM   12  C11 UNL     1      -3.761  -0.548  10.086  1.00  0.00     0.236 C 
HETATM   13  O1  UNL     1      -4.652   0.045   9.549  1.00  0.00    -0.307 OA
ENDBRANCH  11  12
ENDBRANCH  10  11
ENDBRANCH   8  10
ENDBRANCH   7   8
ENDBRANCH   6   7
ENDBRANCH   4   6
BRANCH   1  14
HETATM   14  C3  UNL     1      -6.516   3.160  16.081  1.00  0.00     0.299 C 
BRANCH  14  15
HETATM   15  C2  UNL     1      -6.547   2.105  17.159  1.00  0.00    -0.007 C 
HETATM   16  C1  UNL     1      -7.267   1.004  16.978  1.00  0.00     0.008 C 
ENDBRANCH  14  15
ENDBRANCH   1  14
TORSDOF 8
ENDMDL
MODEL 3
REMARK VINA RESULT: -5.391665518      2.059      5.320
REMARK  8 active torsions:
REMARK  status: ('A' for Active; 'I' for Inactive)
REMARK    1  A    between atoms: C2_2  and  C3_3 
REMARK    2  A    between atoms: C3_3  and  N1_4 
REMARK    3  A    between atoms: C6_7  and  C7_8 
REMARK    4  A    between atoms: C7_8  and  C8_9 
REMARK    5  A    between atoms: C8_9  and  N2_10 
REMARK    6  A    between atoms: N2_10  and  C9_12 
REMARK    7  A    between atoms: C9_12  and  C10_13 
REMARK    8  A    between atoms: C10_13  and  C11_14 
ROOT
HETATM    1  N1  UNL     1      -5.899   2.884  14.943  1.00  0.00     0.092 N 
HETATM    2  C4  UNL     1      -4.512   2.560  14.975  1.00  0.00     0.273 C 
HETATM    3  C5  UNL     1      -3.811   3.860  14.691  1.00  0.00     0.036 C 
HETATM    4  C6  UNL     1      -4.755   4.592  13.775  1.00  0.00     0.017 C 
HETATM    5  C12 UNL     1      -6.048   3.966  14.003  1.00  0.00     0.277 C 
ENDROOT
BRANCH   4   6
HETATM    6  C7  UNL     1      -4.211   4.640  12.395  1.00  0.00     0.026 C 
BRANCH   6   7
HETATM    7  C8  UNL     1      -2.917   3.984  12.152  1.00  0.00     0.119 C 
BRANCH   7   8
HETATM    8  N2  UNL     1      -2.961   3.131  11.014  1.00  0.00    -0.402 N 
ATOM      9  H2  UNL     1      -3.266   3.457  10.097  1.00  0.00     0.158 HD
BRANCH   8  10
HETATM   10  C9  UNL     1      -2.554   1.805  11.248  1.00  0.00     0.062 C 
BRANCH  10  11
HETATM   11  C10 UNL     1      -3.625   0.924  11.844  1.00  0.00     0.113 C 
BRANCH  11  12
HETATM   12  C11 UNL     1      -4.798   0.914  10.956  1.00  0.00     0.236 C 
HETATM   13  O1  UNL     1      -5.679   1.720  11.045  1.00  0.00    -0.307 OA
ENDBRANCH  11  12
ENDBRANCH  10  11
ENDBRANCH   8  10
ENDBRANCH   7   8
ENDBRANCH   6   7
ENDBRANCH   4   6
BRANCH   1  14
HETATM   14  C3  UNL     1      -6.487   3.147  16.222  1.00  0.00     0.299 C 
BRANCH  14  15
HETATM   15  C2  UNL     1      -6.298   1.911  17.066  1.00  0.00    -0.007 C 
HETATM   16  C1  UNL     1      -7.203   0.940  17.019  1.00  0.00     0.008 C 
ENDBRANCH  14  15
ENDBRANCH   1  14
TORSDOF 8
ENDMDL
MODEL 4
REMARK VINA RESULT: -5.365732961      3.133      4.858
REMARK  8 active torsions:
REMARK  status: ('A' for Active; 'I' for Inactive)
REMARK    1  A    between atoms: C2_2  and  C3_3 
REMARK    2  A    between atoms: C3_3  and  N1_4 
REMARK    3  A    between atoms: C6_7  and  C7_8 
REMARK    4  A    between atoms: C7_8  and  C8_9 
REMARK    5  A    between atoms: C8_9  and  N2_10 
REMARK    6  A    between atoms: N2_10  and  C9_12 
REMARK    7  A    between atoms: C9_12  and  C10_13 
REMARK    8  A    between atoms: C10_13  and  C11_14 
ROOT
HETATM    1  N1  UNL     1      -3.188   5.997  13.161  1.00  0.00     0.092 N 
HETATM    2  C4  UNL     1      -4.102   5.802  12.085  1.00  0.00     0.273 C 
HETATM    3  C5  UNL     1      -5.462   5.973  12.707  1.00  0.00     0.036 C 
HETATM    4  C6  UNL     1      -5.286   5.469  14.115  1.00  0.00     0.017 C 
HETATM    5  C12 UNL     1      -3.853   5.542  14.355  1.00  0.00     0.277 C 
ENDROOT
BRANCH   4   6
HETATM    6  C7  UNL     1      -5.981   4.170  14.295  1.00  0.00     0.026 C 
BRANCH   6   7
HETATM    7  C8  UNL     1      -5.148   2.964  14.416  1.00  0.00     0.119 C 
BRANCH   7   8
HETATM    8  N2  UNL     1      -5.302   2.339  15.685  1.00  0.00    -0.402 N 
ATOM      9  H2  UNL     1      -4.557   1.798  16.123  1.00  0.00     0.158 HD
BRANCH   8  10
HETATM   10  C9  UNL     1      -6.557   2.524  16.291  1.00  0.00     0.062 C 
BRANCH  10  11
HETATM   11  C10 UNL     1      -7.103   1.294  16.975  1.00  0.00     0.113 C 
BRANCH  11  12
HETATM   12  C11 UNL     1      -5.987   0.422  17.373  1.00  0.00     0.236 C 
HETATM   13  O1  UNL     1      -5.588  -0.470  16.679  1.00  0.00    -0.307 OA
ENDBRANCH  11  12
ENDBRANCH  10  11
ENDBRANCH   8  10
ENDBRANCH   7   8
ENDBRANCH   6   7
ENDBRANCH   4   6
BRANCH   1  14
HETATM   14  C3  UNL     1      -2.654   7.321  13.267  1.00  0.00     0.299 C 
BRANCH  14  15
HETATM   15  C2  UNL     1      -2.111   7.477  14.665  1.00  0.00    -0.007 C 
HETATM   16  C1  UNL     1      -1.825   8.690  15.126  1.00  0.00     0.008 C 
ENDBRANCH  14  15
ENDBRANCH   1  14
TORSDOF 8
ENDMDL
MODEL 5
REMARK VINA RESULT: -5.360338650      1.659      2.203
REMARK  8 active torsions:
REMARK  status: ('A' for Active; 'I' for Inactive)
REMARK    1  A    between atoms: C2_2  and  C3_3 
REMARK    2  A    between atoms: C3_3  and  N1_4 
REMARK    3  A    between atoms: C6_7  and  C7_8 
REMARK    4  A    between atoms: C7_8  and  C8_9 
REMARK    5  A    between atoms: C8_9  and  N2_10 
REMARK    6  A    between atoms: N2_10  and  C9_12 
REMARK    7  A    between atoms: C9_12  and  C10_13 
REMARK    8  A    between atoms: C10_13  and  C11_14 
ROOT
HETATM    1  N1  UNL     1      -2.934   0.654  11.573  1.00  0.00     0.092 N 
HETATM    2  C4  UNL     1      -4.238   0.632  12.148  1.00  0.00     0.273 C 
HETATM    3  C5  UNL     1      -4.968   1.764  11.479  1.00  0.00     0.036 C 
HETATM    4  C6  UNL     1      -3.893   2.785  11.212  1.00  0.00     0.017 C 
HETATM    5  C12 UNL     1      -2.651   2.028  11.246  1.00  0.00     0.277 C 
ENDROOT
BRANCH   4   6
HETATM    6  C7  UNL     1      -4.050   3.954  12.112  1.00  0.00     0.026 C 
BRANCH   6   7
HETATM    7  C8  UNL     1      -3.060   4.121  13.188  1.00  0.00     0.119 C 
BRANCH   7   8
HETATM    8  N2  UNL     1      -3.454   3.449  14.379  1.00  0.00    -0.402 N 
ATOM      9  H2  UNL     1      -2.796   2.922  14.953  1.00  0.00     0.158 HD
BRANCH   8  10
HETATM   10  C9  UNL     1      -4.816   3.568  14.705  1.00  0.00     0.062 C 
BRANCH  10  11
HETATM   11  C10 UNL     1      -5.321   2.505  15.651  1.00  0.00     0.113 C 
BRANCH  11  12
HETATM   12  C11 UNL     1      -4.468   1.311  15.545  1.00  0.00     0.236 C 
HETATM   13  O1  UNL     1      -3.526   1.128  16.262  1.00  0.00    -0.307 OA
ENDBRANCH  11  12
ENDBRANCH  10  11
ENDBRANCH   8  10
ENDBRANCH   7   8
ENDBRANCH   6   7
ENDBRANCH   4   6
BRANCH   1  14
HETATM   14  C3  UNL     1      -2.741  -0.251  10.480  1.00  0.00     0.299 C 
BRANCH  14  15
HETATM   15  C2  UNL     1      -3.445  -1.538  10.832  1.00  0.00    -0.007 C 
HETATM   16  C1  UNL     1      -2.729  -2.603  11.178  1.00  0.00     0.008 C 
ENDBRANCH  14  15
ENDBRANCH   1  14
TORSDOF 8
ENDMDL
