MODEL 1
REMARK VINA RESULT: -5.972202323      0.000      0.000
REMARK  9 active torsions:
REMARK  status: ('A' for Active; 'I' for Inactive)
REMARK    1  A    between atoms: C2_2  and  C3_3 
REMARK    2  A    between atoms: C3_3  and  O1_4 
REMARK    3  A    between atoms: O1_4  and  C4_5 
REMARK    4  A    between atoms: C4_5  and  C5_7 
REMARK    5  A    between atoms: C5_7  and  C6_8 
REMARK    6  A    between atoms: C5_7  and  N1_10 
REMARK    7  A    between atoms: N1_10  and  C8_13 
REMARK    8  A    between atoms: C8_13  and  C9_14 
REMARK    9  A    between atoms: C9_14  and  C10_15 
ROOT
HETATM    1  C5  UNL     1      -4.374   2.609  14.551  1.00  0.00     0.306 C 
ENDROOT
BRANCH   1   2
HETATM    2  C4  UNL     1      -4.322   1.509  15.544  1.00  0.00     0.293 C 
HETATM    3  O2  UNL     1      -3.311   1.318  16.226  1.00  0.00    -0.263 OA
BRANCH   2   4
HETATM    4  O1  UNL     1      -5.440   0.715  15.673  1.00  0.00    -0.316 OA
BRANCH   4   5
HETATM    5  C3  UNL     1      -5.949   0.290  16.924  1.00  0.00     0.205 C 
BRANCH   5   6
HETATM    6  C2  UNL     1      -6.828   1.388  17.427  1.00  0.00    -0.011 C 
HETATM    7  C1  UNL     1      -6.439   2.177  18.419  1.00  0.00     0.009 C 
ENDBRANCH   5   6
ENDBRANCH   4   5
ENDBRANCH   2   4
ENDBRANCH   1   2
BRANCH   1   8
HETATM    8  C6  UNL     1      -5.782   3.125  14.433  1.00  0.00     0.006 C 
HETATM    9  C7  UNL     1      -6.049   4.278  15.030  1.00  0.00     0.009 C 
ENDBRANCH   1   8
BRANCH   1  10
HETATM   10  N1  UNL     1      -3.851   2.143  13.310  1.00  0.00    -0.059 N 
ATOM     11  H12 UNL     1      -2.969   2.597  13.071  1.00  0.00     0.278 HD
ATOM     12  H11 UNL     1      -3.511   1.183  13.374  1.00  0.00     0.278 HD
BRANCH  10  13
HETATM   13  C8  UNL     1      -4.832   2.298  12.279  1.00  0.00     0.234 C 
BRANCH  13  14
HETATM   14  C9  UNL     1      -4.843   1.165  11.281  1.00  0.00     0.032 C 
BRANCH  14  15
HETATM   15  C10 UNL     1      -3.727   0.206  11.648  1.00  0.00    -0.013 A 
HETATM   16  C11 UNL     1      -2.987  -0.360  10.466  1.00  0.00     0.005 A 
HETATM   17  C12 UNL     1      -3.823  -1.236  11.327  1.00  0.00     0.005 A 
ENDBRANCH  14  15
ENDBRANCH  13  14
ENDBRANCH  10  13
ENDBRANCH   1  10
TORSDOF 9
ENDMDL
MODEL 2
REMARK VINA RESULT: -5.940418290      1.710      5.384
REMARK  9 active torsions:
REMARK  status: ('A' for Active; 'I' for Inactive)
REMARK    1  A    between atoms: C2_2  and  C3_3 
REMARK    2  A    between atoms: C3_3  and  O1_4 
REMARK    3  A    between atoms: O1_4  and  C4_5 
REMARK    4  A    between atoms: C4_5  and  C5_7 
REMARK    5  A    between atoms: C5_7  and  C6_8 
REMARK    6  A    between atoms: C5_7  and  N1_10 
REMARK    7  A    between atoms: N1_10  and  C8_13 
REMARK    8  A    between atoms: C8_13  and  C9_14 
REMARK    9  A    between atoms: C9_14  and  C10_15 
ROOT
HETATM    1  C5  UNL     1      -5.083   2.479  14.010  1.00  0.00     0.306 C 
ENDROOT
BRANCH   1   2
HETATM    2  C4  UNL     1      -4.647   2.071  12.652  1.00  0.00     0.293 C 
HETATM    3  O2  UNL     1      -5.457   1.991  11.724  1.00  0.00    -0.263 OA
BRANCH   2   4
HETATM    4  O1  UNL     1      -3.312   1.787  12.472  1.00  0.00    -0.316 OA
BRANCH   4   5
HETATM    5  C3  UNL     1      -2.680   1.810  11.205  1.00  0.00     0.205 C 
BRANCH   5   6
HETATM    6  C2  UNL     1      -2.245   0.410  10.915  1.00  0.00    -0.011 C 
HETATM    7  C1  UNL     1      -3.106  -0.498  10.481  1.00  0.00     0.009 C 
ENDBRANCH   5   6
ENDBRANCH   4   5
ENDBRANCH   2   4
ENDBRANCH   1   2
BRANCH   1   8
HETATM    8  C6  UNL     1      -5.973   3.689  13.919  1.00  0.00     0.006 C 
HETATM    9  C7  UNL     1      -6.018   4.480  14.981  1.00  0.00     0.009 C 
ENDBRANCH   1   8
BRANCH   1  10
HETATM   10  N1  UNL     1      -3.934   2.699  14.822  1.00  0.00    -0.059 N 
ATOM     11  H12 UNL     1      -3.066   2.581  14.299  1.00  0.00     0.278 HD
ATOM     12  H11 UNL     1      -3.824   3.681  15.073  1.00  0.00     0.278 HD
BRANCH  10  13
HETATM   13  C8  UNL     1      -3.984   1.853  15.977  1.00  0.00     0.234 C 
BRANCH  13  14
HETATM   14  C9  UNL     1      -4.966   0.713  15.847  1.00  0.00     0.032 C 
BRANCH  14  15
HETATM   15  C10 UNL     1      -5.777   0.643  17.126  1.00  0.00    -0.013 A 
HETATM   16  C11 UNL     1      -7.221   1.035  16.963  1.00  0.00     0.005 A 
HETATM   17  C12 UNL     1      -6.296   1.872  17.769  1.00  0.00     0.005 A 
ENDBRANCH  14  15
ENDBRANCH  13  14
ENDBRANCH  10  13
ENDBRANCH   1  10
TORSDOF 9
ENDMDL
MODEL 3
REMARK VINA RESULT: -5.889259318      1.590      5.232
REMARK  9 active torsions:
REMARK  status: ('A' for Active; 'I' for Inactive)
REMARK    1  A    between atoms: C2_2  and  C3_3 
REMARK    2  A    between atoms: C3_3  and  O1_4 
REMARK    3  A    between atoms: O1_4  and  C4_5 
REMARK    4  A    between atoms: C4_5  and  C5_7 
REMARK    5  A    between atoms: C5_7  and  C6_8 
REMARK    6  A    between atoms: C5_7  and  N1_10 
REMARK    7  A    between atoms: N1_10  and  C8_13 
REMARK    8  A    between atoms: C8_13  and  C9_14 
REMARK    9  A    between atoms: C9_14  and  C10_15 
ROOT
HETATM    1  C5  UNL     1      -4.871   2.327  14.133  1.00  0.00     0.306 C 
ENDROOT
BRANCH   1   2
HETATM    2  C4  UNL     1      -4.146   1.905  12.910  1.00  0.00     0.293 C 
HETATM    3  O2  UNL     1      -3.186   2.554  12.486  1.00  0.00    -0.263 OA
BRANCH   2   4
HETATM    4  O1  UNL     1      -4.585   0.765  12.273  1.00  0.00    -0.316 OA
BRANCH   4   5
HETATM    5  C3  UNL     1      -4.593   0.620  10.864  1.00  0.00     0.205 C 
BRANCH   5   6
HETATM    6  C2  UNL     1      -3.484  -0.320  10.522  1.00  0.00    -0.011 C 
HETATM    7  C1  UNL     1      -3.340  -1.472  11.163  1.00  0.00     0.009 C 
ENDBRANCH   5   6
ENDBRANCH   4   5
ENDBRANCH   2   4
ENDBRANCH   1   2
BRANCH   1   8
HETATM    8  C6  UNL     1      -5.783   3.481  13.814  1.00  0.00     0.006 C 
HETATM    9  C7  UNL     1      -5.994   4.362  14.781  1.00  0.00     0.009 C 
ENDBRANCH   1   8
BRANCH   1  10
HETATM   10  N1  UNL     1      -3.925   2.637  15.153  1.00  0.00    -0.059 N 
ATOM     11  H12 UNL     1      -2.993   2.804  14.773  1.00  0.00     0.278 HD
ATOM     12  H11 UNL     1      -4.086   3.559  15.558  1.00  0.00     0.278 HD
BRANCH  10  13
HETATM   13  C8  UNL     1      -3.924   1.607  16.147  1.00  0.00     0.234 C 
BRANCH  13  14
HETATM   14  C9  UNL     1      -5.019   0.584  15.956  1.00  0.00     0.032 C 
BRANCH  14  15
HETATM   15  C10 UNL     1      -5.891   0.594  17.196  1.00  0.00    -0.013 A 
HETATM   16  C11 UNL     1      -7.289   1.100  16.961  1.00  0.00     0.005 A 
HETATM   17  C12 UNL     1      -6.337   1.867  17.806  1.00  0.00     0.005 A 
ENDBRANCH  14  15
ENDBRANCH  13  14
ENDBRANCH  10  13
ENDBRANCH   1  10
TORSDOF 9
ENDMDL
MODEL 4
REMARK VINA RESULT: -5.818924793      2.084      5.659
REMARK  9 active torsions:
REMARK  status: ('A' for Active; 'I' for Inactive)
REMARK    1  A    between atoms: C2_2  and  C3_3 
REMARK    2  A    between atoms: C3_3  and  O1_4 
REMARK    3  A    between atoms: O1_4  and  C4_5 
REMARK    4  A    between atoms: C4_5  and  C5_7 
REMARK    5  A    between atoms: C5_7  and  C6_8 
REMARK    6  A    between atoms: C5_7  and  N1_10 
REMARK    7  A    between atoms: N1_10  and  C8_13 
REMARK    8  A    between atoms: C8_13  and  C9_14 
REMARK    9  A    between atoms: C9_14  and  C10_15 
ROOT
HETATM    1  C5  UNL     1      -4.634   2.452  12.768  1.00  0.00     0.306 C 
ENDROOT
BRANCH   1   2
HETATM    2  C4  UNL     1      -4.807   1.422  11.715  1.00  0.00     0.293 C 
HETATM    3  O2  UNL     1      -5.674   1.545  10.845  1.00  0.00    -0.263 OA
BRANCH   2   4
HETATM    4  O1  UNL     1      -3.967   0.331  11.747  1.00  0.00    -0.316 OA
BRANCH   4   5
HETATM    5  C3  UNL     1      -3.149  -0.049  10.656  1.00  0.00     0.205 C 
BRANCH   5   6
HETATM    6  C2  UNL     1      -1.783   0.488  10.934  1.00  0.00    -0.011 C 
HETATM    7  C1  UNL     1      -1.345   1.588  10.337  1.00  0.00     0.009 C 
ENDBRANCH   5   6
ENDBRANCH   4   5
ENDBRANCH   2   4
ENDBRANCH   1   2
BRANCH   1   8
HETATM    8  C6  UNL     1      -3.777   3.574  12.250  1.00  0.00     0.006 C 
HETATM    9  C7  UNL     1      -4.396   4.704  11.937  1.00  0.00     0.009 C 
ENDBRANCH   1   8
BRANCH   1  10
HETATM   10  N1  UNL     1      -4.092   1.838  13.935  1.00  0.00    -0.059 N 
ATOM     11  H12 UNL     1      -4.451   0.893  14.073  1.00  0.00     0.278 HD
ATOM     12  H11 UNL     1      -3.105   1.608  13.824  1.00  0.00     0.278 HD
BRANCH  10  13
HETATM   13  C8  UNL     1      -4.324   2.672  15.076  1.00  0.00     0.234 C 
BRANCH  13  14
HETATM   14  C9  UNL     1      -5.746   2.619  15.583  1.00  0.00     0.032 C 
BRANCH  14  15
HETATM   15  C10 UNL     1      -5.859   1.450  16.542  1.00  0.00    -0.013 A 
HETATM   16  C11 UNL     1      -7.270   1.124  16.953  1.00  0.00     0.005 A 
HETATM   17  C12 UNL     1      -6.295   1.651  17.943  1.00  0.00     0.005 A 
ENDBRANCH  14  15
ENDBRANCH  13  14
ENDBRANCH  10  13
ENDBRANCH   1  10
TORSDOF 9
ENDMDL
MODEL 5
REMARK VINA RESULT: -5.767042405      1.786      5.370
REMARK  9 active torsions:
REMARK  status: ('A' for Active; 'I' for Inactive)
REMARK    1  A    between atoms: C2_2  and  C3_3 
REMARK    2  A    between atoms: C3_3  and  O1_4 
REMARK    3  A    between atoms: O1_4  and  C4_5 
REMARK    4  A    between atoms: C4_5  and  C5_7 
REMARK    5  A    between atoms: C5_7  and  C6_8 
REMARK    6  A    between atoms: C5_7  and  N1_10 
REMARK    7  A    between atoms: N1_10  and  C8_13 
REMARK    8  A    between atoms: C8_13  and  C9_14 
REMARK    9  A    between atoms: C9_14  and  C10_15 
ROOT
HETATM    1  C5  UNL     1      -4.852   2.354  13.700  1.00  0.00     0.306 C 
ENDROOT
BRANCH   1   2
HETATM    2  C4  UNL     1      -4.652   1.755  12.358  1.00  0.00     0.293 C 
HETATM    3  O2  UNL     1      -5.519   1.850  11.485  1.00  0.00    -0.263 OA
BRANCH   2   4
HETATM    4  O1  UNL     1      -3.466   1.093  12.128  1.00  0.00    -0.316 OA
BRANCH   4   5
HETATM    5  C3  UNL     1      -3.242   0.277  10.992  1.00  0.00     0.205 C 
BRANCH   5   6
HETATM    6  C2  UNL     1      -3.754  -1.084  11.332  1.00  0.00    -0.011 C 
HETATM    7  C1  UNL     1      -2.976  -2.153  11.236  1.00  0.00     0.009 C 
ENDBRANCH   5   6
ENDBRANCH   4   5
ENDBRANCH   2   4
ENDBRANCH   1   2
BRANCH   1   8
HETATM    8  C6  UNL     1      -5.076   3.836  13.570  1.00  0.00     0.006 C 
HETATM    9  C7  UNL     1      -6.236   4.306  14.007  1.00  0.00     0.009 C 
ENDBRANCH   1   8
BRANCH   1  10
HETATM   10  N1  UNL     1      -3.735   2.035  14.525  1.00  0.00    -0.059 N 
ATOM     11  H12 UNL     1      -3.273   1.175  14.228  1.00  0.00     0.278 HD
ATOM     12  H11 UNL     1      -2.957   2.678  14.382  1.00  0.00     0.278 HD
BRANCH  10  13
HETATM   13  C8  UNL     1      -4.142   1.980  15.897  1.00  0.00     0.234 C 
BRANCH  13  14
HETATM   14  C9  UNL     1      -5.011   0.789  16.221  1.00  0.00     0.032 C 
BRANCH  14  15
HETATM   15  C10 UNL     1      -6.004   1.209  17.288  1.00  0.00    -0.013 A 
HETATM   16  C11 UNL     1      -7.445   1.041  16.888  1.00  0.00     0.005 A 
HETATM   17  C12 UNL     1      -6.870   2.395  17.101  1.00  0.00     0.005 A 
ENDBRANCH  14  15
ENDBRANCH  13  14
ENDBRANCH  10  13
ENDBRANCH   1  10
TORSDOF 9
ENDMDL
