MODEL 1
REMARK VINA RESULT: -5.532493320      0.000      0.000
REMARK  9 active torsions:
REMARK  status: ('A' for Active; 'I' for Inactive)
REMARK    1  A    between atoms: O1_1  and  C1_3 
REMARK    2  A    between atoms: C1_3  and  C2_4 
REMARK    3  A    between atoms: C1_3  and  C7_10 
REMARK    4  A    between atoms: C2_4  and  O2_5 
REMARK    5  A    between atoms: O2_5  and  C3_6 
REMARK    6  A    between atoms: C3_6  and  C4_7 
REMARK    7  A    between atoms: C7_10  and  O3_11 
REMARK    8  A    between atoms: O3_11  and  C8_12 
REMARK    9  A    between atoms: C8_12  and  C9_13 
ROOT
HETATM    1  C1  UNL     1      -4.940   3.715  13.473  1.00  0.00     0.165 C 
ENDROOT
BRANCH   1   2
HETATM    2  O1  UNL     1      -6.314   3.711  13.471  1.00  0.00    -0.391 OA
ATOM      3  H1  UNL     1      -6.675   3.787  12.595  1.00  0.00     0.210 HD
ENDBRANCH   1   2
BRANCH   1   4
HETATM    4  C2  UNL     1      -4.367   3.225  14.779  1.00  0.00     0.201 C 
BRANCH   4   5
HETATM    5  O2  UNL     1      -4.160   1.895  14.864  1.00  0.00    -0.388 OA
BRANCH   5   6
HETATM    6  C3  UNL     1      -4.859   1.153  15.762  1.00  0.00     0.172 C 
BRANCH   6   7
HETATM    7  C4  UNL     1      -5.956   1.886  16.465  1.00  0.00     0.009 A 
HETATM    8  C5  UNL     1      -6.178   1.626  17.935  1.00  0.00     0.007 A 
HETATM    9  C6  UNL     1      -7.125   1.063  16.927  1.00  0.00     0.007 A 
ENDBRANCH   6   7
ENDBRANCH   5   6
ENDBRANCH   4   5
ENDBRANCH   1   4
BRANCH   1  10
HETATM   10  C7  UNL     1      -4.377   2.795  12.394  1.00  0.00     0.201 C 
BRANCH  10  11
HETATM   11  O3  UNL     1      -5.330   2.102  11.707  1.00  0.00    -0.388 OA
BRANCH  11  12
HETATM   12  C8  UNL     1      -4.908   1.092  10.889  1.00  0.00     0.172 C 
BRANCH  12  13
HETATM   13  C9  UNL     1      -3.801   0.349  11.639  1.00  0.00     0.009 A 
HETATM   14  C10 UNL     1      -3.720  -1.131  11.300  1.00  0.00     0.007 A 
HETATM   15  C11 UNL     1      -2.626  -0.166  10.913  1.00  0.00     0.007 A 
ENDBRANCH  12  13
ENDBRANCH  11  12
ENDBRANCH  10  11
ENDBRANCH   1  10
TORSDOF 9
ENDMDL
MODEL 2
REMARK VINA RESULT: -5.516437814      1.223      1.794
REMARK  9 active torsions:
REMARK  status: ('A' for Active; 'I' for Inactive)
REMARK    1  A    between atoms: O1_1  and  C1_3 
REMARK    2  A    between atoms: C1_3  and  C2_4 
REMARK    3  A    between atoms: C1_3  and  C7_10 
REMARK    4  A    between atoms: C2_4  and  O2_5 
REMARK    5  A    between atoms: O2_5  and  C3_6 
REMARK    6  A    between atoms: C3_6  and  C4_7 
REMARK    7  A    between atoms: C7_10  and  O3_11 
REMARK    8  A    between atoms: O3_11  and  C8_12 
REMARK    9  A    between atoms: C8_12  and  C9_13 
ROOT
HETATM    1  C1  UNL     1      -4.678   2.428  11.996  1.00  0.00     0.165 C 
ENDROOT
BRANCH   1   2
HETATM    2  O1  UNL     1      -5.576   1.768  11.193  1.00  0.00    -0.391 OA
ATOM      3  H1  UNL     1      -5.230   1.599  10.324  1.00  0.00     0.210 HD
ENDBRANCH   1   2
BRANCH   1   4
HETATM    4  C2  UNL     1      -4.514   1.767  13.340  1.00  0.00     0.201 C 
BRANCH   4   5
HETATM    5  O2  UNL     1      -5.093   2.405  14.379  1.00  0.00    -0.388 OA
BRANCH   5   6
HETATM    6  C3  UNL     1      -5.128   1.818  15.605  1.00  0.00     0.172 C 
BRANCH   6   7
HETATM    7  C4  UNL     1      -6.312   2.180  16.441  1.00  0.00     0.009 A 
HETATM    8  C5  UNL     1      -6.308   1.814  17.906  1.00  0.00     0.007 A 
HETATM    9  C6  UNL     1      -7.151   1.040  16.946  1.00  0.00     0.007 A 
ENDBRANCH   6   7
ENDBRANCH   5   6
ENDBRANCH   4   5
ENDBRANCH   1   4
BRANCH   1  10
HETATM   10  C7  UNL     1      -3.287   2.460  11.369  1.00  0.00     0.201 C 
BRANCH  10  11
HETATM   11  O3  UNL     1      -3.111   1.550  10.370  1.00  0.00    -0.388 OA
BRANCH  11  12
HETATM   12  C8  UNL     1      -2.316   0.469  10.633  1.00  0.00     0.172 C 
BRANCH  12  13
HETATM   13  C9  UNL     1      -3.172  -0.776  10.393  1.00  0.00     0.009 A 
HETATM   14  C10 UNL     1      -2.656  -2.017  11.105  1.00  0.00     0.007 A 
HETATM   15  C11 UNL     1      -3.959  -1.362  11.493  1.00  0.00     0.007 A 
ENDBRANCH  12  13
ENDBRANCH  11  12
ENDBRANCH  10  11
ENDBRANCH   1  10
TORSDOF 9
ENDMDL
MODEL 3
REMARK VINA RESULT: -5.456039994      0.676      5.186
REMARK  9 active torsions:
REMARK  status: ('A' for Active; 'I' for Inactive)
REMARK    1  A    between atoms: O1_1  and  C1_3 
REMARK    2  A    between atoms: C1_3  and  C2_4 
REMARK    3  A    between atoms: C1_3  and  C7_10 
REMARK    4  A    between atoms: C2_4  and  O2_5 
REMARK    5  A    between atoms: O2_5  and  C3_6 
REMARK    6  A    between atoms: C3_6  and  C4_7 
REMARK    7  A    between atoms: C7_10  and  O3_11 
REMARK    8  A    between atoms: O3_11  and  C8_12 
REMARK    9  A    between atoms: C8_12  and  C9_13 
ROOT
HETATM    1  C1  UNL     1      -5.290   2.908  13.516  1.00  0.00     0.165 C 
ENDROOT
BRANCH   1   2
HETATM    2  O1  UNL     1      -6.309   3.829  13.527  1.00  0.00    -0.391 OA
ATOM      3  H1  UNL     1      -6.025   4.687  13.233  1.00  0.00     0.210 HD
ENDBRANCH   1   2
BRANCH   1   4
HETATM    4  C2  UNL     1      -4.754   2.660  12.129  1.00  0.00     0.201 C 
BRANCH   4   5
HETATM    5  O2  UNL     1      -5.455   1.783  11.380  1.00  0.00    -0.388 OA
BRANCH   5   6
HETATM    6  C3  UNL     1      -4.813   0.774  10.735  1.00  0.00     0.172 C 
BRANCH   6   7
HETATM    7  C4  UNL     1      -3.691   0.151  11.501  1.00  0.00     0.009 A 
HETATM    8  C5  UNL     1      -2.318   0.109  10.875  1.00  0.00     0.007 A 
HETATM    9  C6  UNL     1      -3.138  -1.136  10.956  1.00  0.00     0.007 A 
ENDBRANCH   6   7
ENDBRANCH   5   6
ENDBRANCH   4   5
ENDBRANCH   1   4
BRANCH   1  10
HETATM   10  C7  UNL     1      -4.102   3.380  14.349  1.00  0.00     0.201 C 
BRANCH  10  11
HETATM   11  O3  UNL     1      -3.774   2.538  15.370  1.00  0.00    -0.388 OA
BRANCH  11  12
HETATM   12  C8  UNL     1      -4.527   1.406  15.520  1.00  0.00     0.172 C 
BRANCH  12  13
HETATM   13  C9  UNL     1      -5.268   1.543  16.851  1.00  0.00     0.009 A 
HETATM   14  C10 UNL     1      -6.779   1.629  16.702  1.00  0.00     0.007 A 
HETATM   15  C11 UNL     1      -6.111   0.441  17.350  1.00  0.00     0.007 A 
ENDBRANCH  12  13
ENDBRANCH  11  12
ENDBRANCH  10  11
ENDBRANCH   1  10
TORSDOF 9
ENDMDL
MODEL 4
REMARK VINA RESULT: -5.435862062      0.853      5.256
REMARK  9 active torsions:
REMARK  status: ('A' for Active; 'I' for Inactive)
REMARK    1  A    between atoms: O1_1  and  C1_3 
REMARK    2  A    between atoms: C1_3  and  C2_4 
REMARK    3  A    between atoms: C1_3  and  C7_10 
REMARK    4  A    between atoms: C2_4  and  O2_5 
REMARK    5  A    between atoms: O2_5  and  C3_6 
REMARK    6  A    between atoms: C3_6  and  C4_7 
REMARK    7  A    between atoms: C7_10  and  O3_11 
REMARK    8  A    between atoms: O3_11  and  C8_12 
REMARK    9  A    between atoms: C8_12  and  C9_13 
ROOT
HETATM    1  C1  UNL     1      -4.113   3.499  13.691  1.00  0.00     0.165 C 
ENDROOT
BRANCH   1   2
HETATM    2  O1  UNL     1      -2.874   3.418  13.103  1.00  0.00    -0.391 OA
ATOM      3  H1  UNL     1      -2.492   2.552  13.180  1.00  0.00     0.210 HD
ENDBRANCH   1   2
BRANCH   1   4
HETATM    4  C2  UNL     1      -5.170   2.765  12.906  1.00  0.00     0.201 C 
BRANCH   4   5
HETATM    5  O2  UNL     1      -4.911   2.597  11.593  1.00  0.00    -0.388 OA
BRANCH   5   6
HETATM    6  C3  UNL     1      -4.886   1.348  11.058  1.00  0.00     0.172 C 
BRANCH   6   7
HETATM    7  C4  UNL     1      -3.926   0.405  11.707  1.00  0.00     0.009 A 
HETATM    8  C5  UNL     1      -2.676   0.009  10.958  1.00  0.00     0.007 A 
HETATM    9  C6  UNL     1      -3.805  -0.961  11.092  1.00  0.00     0.007 A 
ENDBRANCH   6   7
ENDBRANCH   5   6
ENDBRANCH   4   5
ENDBRANCH   1   4
BRANCH   1  10
HETATM   10  C7  UNL     1      -4.112   2.875  15.084  1.00  0.00     0.201 C 
BRANCH  10  11
HETATM   11  O3  UNL     1      -4.103   1.512  15.078  1.00  0.00    -0.388 OA
BRANCH  11  12
HETATM   12  C8  UNL     1      -4.727   0.873  16.113  1.00  0.00     0.172 C 
BRANCH  12  13
HETATM   13  C9  UNL     1      -5.863   1.786  16.575  1.00  0.00     0.009 A 
HETATM   14  C10 UNL     1      -7.137   1.039  16.938  1.00  0.00     0.007 A 
HETATM   15  C11 UNL     1      -6.315   1.761  17.978  1.00  0.00     0.007 A 
ENDBRANCH  12  13
ENDBRANCH  11  12
ENDBRANCH  10  11
ENDBRANCH   1  10
TORSDOF 9
ENDMDL
MODEL 5
REMARK VINA RESULT: -5.348608024      1.162      5.546
REMARK  9 active torsions:
REMARK  status: ('A' for Active; 'I' for Inactive)
REMARK    1  A    between atoms: O1_1  and  C1_3 
REMARK    2  A    between atoms: C1_3  and  C2_4 
REMARK    3  A    between atoms: C1_3  and  C7_10 
REMARK    4  A    between atoms: C2_4  and  O2_5 
REMARK    5  A    between atoms: O2_5  and  C3_6 
REMARK    6  A    between atoms: C3_6  and  C4_7 
REMARK    7  A    between atoms: C7_10  and  O3_11 
REMARK    8  A    between atoms: O3_11  and  C8_12 
REMARK    9  A    between atoms: C8_12  and  C9_13 
ROOT
HETATM    1  C1  UNL     1      -4.700   1.845  12.067  1.00  0.00     0.165 C 
ENDROOT
BRANCH   1   2
HETATM    2  O1  UNL     1      -5.742   1.810  11.172  1.00  0.00    -0.391 OA
ATOM      3  H1  UNL     1      -5.448   1.876  10.271  1.00  0.00     0.210 HD
ENDBRANCH   1   2
BRANCH   1   4
HETATM    4  C2  UNL     1      -3.421   2.338  11.440  1.00  0.00     0.201 C 
BRANCH   4   5
HETATM    5  O2  UNL     1      -2.894   1.543  10.486  1.00  0.00    -0.388 OA
BRANCH   5   6
HETATM    6  C3  UNL     1      -2.312   0.363  10.827  1.00  0.00     0.172 C 
BRANCH   6   7
HETATM    7  C4  UNL     1      -3.093  -0.854  10.451  1.00  0.00     0.009 A 
HETATM    8  C5  UNL     1      -3.912  -1.550  11.511  1.00  0.00     0.007 A 
HETATM    9  C6  UNL     1      -2.632  -2.157  11.040  1.00  0.00     0.007 A 
ENDBRANCH   6   7
ENDBRANCH   5   6
ENDBRANCH   4   5
ENDBRANCH   1   4
BRANCH   1  10
HETATM   10  C7  UNL     1      -4.993   2.791  13.228  1.00  0.00     0.201 C 
BRANCH  10  11
HETATM   11  O3  UNL     1      -4.865   2.212  14.456  1.00  0.00    -0.388 OA
BRANCH  11  12
HETATM   12  C8  UNL     1      -5.733   2.611  15.435  1.00  0.00     0.172 C 
BRANCH  12  13
HETATM   13  C9  UNL     1      -5.896   1.426  16.388  1.00  0.00     0.009 A 
HETATM   14  C10 UNL     1      -6.252   1.832  17.810  1.00  0.00     0.007 A 
HETATM   15  C11 UNL     1      -7.225   1.085  16.931  1.00  0.00     0.007 A 
ENDBRANCH  12  13
ENDBRANCH  11  12
ENDBRANCH  10  11
ENDBRANCH   1  10
TORSDOF 9
ENDMDL
