MODEL 1
REMARK VINA RESULT: -5.911942000      0.000      0.000
REMARK  8 active torsions:
REMARK  status: ('A' for Active; 'I' for Inactive)
REMARK    1  A    between atoms: C2_2  and  C3_3 
REMARK    2  A    between atoms: C3_3  and  C4_4 
REMARK    3  A    between atoms: C4_4  and  C5_5 
REMARK    4  A    between atoms: C6_7  and  C7_8 
REMARK    5  A    between atoms: C7_8  and  N1_9 
REMARK    6  A    between atoms: N1_9  and  C8_12 
REMARK    7  A    between atoms: C8_12  and  C9_13 
REMARK    8  A    between atoms: N2_14  and  C10_16 
ROOT
HETATM    1  N1  UNL     1      -3.408   3.031  13.674  1.00  0.00    -0.068 N 
ATOM      2  H11 UNL     1      -2.688   3.746  13.576  1.00  0.00     0.277 HD
ATOM      3  H12 UNL     1      -2.822   2.198  13.622  1.00  0.00     0.277 HD
ENDROOT
BRANCH   1   4
HETATM    4  C7  UNL     1      -4.330   3.079  12.586  1.00  0.00     0.267 C 
BRANCH   4   5
HETATM    5  C6  UNL     1      -4.809   1.709  12.136  1.00  0.00     0.176 A 
HETATM    6  C5  UNL     1      -4.381   1.299  10.829  1.00  0.00     0.153 A 
HETATM    7  O1  UNL     1      -5.758   1.802  11.075  1.00  0.00    -0.374 OA
BRANCH   6   8
HETATM    8  C4  UNL     1      -4.475  -0.090  10.263  1.00  0.00     0.038 C 
BRANCH   8   9
HETATM    9  C3  UNL     1      -3.157  -0.779  10.616  1.00  0.00     0.029 C 
BRANCH   9  10
HETATM   10  C2  UNL     1      -3.372  -2.015  11.419  1.00  0.00    -0.037 C 
HETATM   11  C1  UNL     1      -2.696  -3.135  11.215  1.00  0.00     0.007 C 
ENDBRANCH   9  10
ENDBRANCH   8   9
ENDBRANCH   6   8
ENDBRANCH   4   5
ENDBRANCH   1   4
BRANCH   1  12
HETATM   12  C8  UNL     1      -4.065   3.125  14.960  1.00  0.00     0.276 C 
BRANCH  12  13
HETATM   13  C9  UNL     1      -3.922   1.827  15.654  1.00  0.00     0.083 C 
HETATM   14  N2  UNL     1      -4.843   1.336  16.350  1.00  0.00    -0.396 N 
ATOM     15  H2  UNL     1      -4.680   0.436  16.802  1.00  0.00     0.159 HD
BRANCH  14  16
HETATM   16  C10 UNL     1      -6.087   1.960  16.538  1.00  0.00     0.081 A 
HETATM   17  C11 UNL     1      -6.614   2.067  17.928  1.00  0.00     0.027 A 
HETATM   18  C12 UNL     1      -7.232   1.064  16.981  1.00  0.00     0.027 A 
ENDBRANCH  14  16
ENDBRANCH  12  13
ENDBRANCH   1  12
TORSDOF 8
ENDMDL
MODEL 2
REMARK VINA RESULT: -5.673780868      0.989      1.539
REMARK  8 active torsions:
REMARK  status: ('A' for Active; 'I' for Inactive)
REMARK    1  A    between atoms: C2_2  and  C3_3 
REMARK    2  A    between atoms: C3_3  and  C4_4 
REMARK    3  A    between atoms: C4_4  and  C5_5 
REMARK    4  A    between atoms: C6_7  and  C7_8 
REMARK    5  A    between atoms: C7_8  and  N1_9 
REMARK    6  A    between atoms: N1_9  and  C8_12 
REMARK    7  A    between atoms: C8_12  and  C9_13 
REMARK    8  A    between atoms: N2_14  and  C10_16 
ROOT
HETATM    1  N1  UNL     1      -3.610   3.227  13.676  1.00  0.00    -0.068 N 
ATOM      2  H11 UNL     1      -2.999   4.011  13.446  1.00  0.00     0.277 HD
ATOM      3  H12 UNL     1      -2.969   2.456  13.486  1.00  0.00     0.277 HD
ENDROOT
BRANCH   1   4
HETATM    4  C7  UNL     1      -4.739   3.183  12.805  1.00  0.00     0.267 C 
BRANCH   4   5
HETATM    5  C6  UNL     1      -5.072   1.785  12.314  1.00  0.00     0.176 A 
HETATM    6  C5  UNL     1      -4.338   1.338  11.164  1.00  0.00     0.153 A 
HETATM    7  O1  UNL     1      -5.743   1.811  11.055  1.00  0.00    -0.374 OA
BRANCH   6   8
HETATM    8  C4  UNL     1      -4.269  -0.074  10.653  1.00  0.00     0.038 C 
BRANCH   8   9
HETATM    9  C3  UNL     1      -2.807  -0.315  10.279  1.00  0.00     0.029 C 
BRANCH   9  10
HETATM   10  C2  UNL     1      -1.890   0.630  10.977  1.00  0.00    -0.037 C 
HETATM   11  C1  UNL     1      -1.149   1.521  10.336  1.00  0.00     0.007 C 
ENDBRANCH   9  10
ENDBRANCH   8   9
ENDBRANCH   6   8
ENDBRANCH   4   5
ENDBRANCH   1   4
BRANCH   1  12
HETATM   12  C8  UNL     1      -3.990   3.256  15.072  1.00  0.00     0.276 C 
BRANCH  12  13
HETATM   13  C9  UNL     1      -3.836   1.893  15.626  1.00  0.00     0.083 C 
HETATM   14  N2  UNL     1      -4.746   1.333  16.284  1.00  0.00    -0.396 N 
ATOM     15  H2  UNL     1      -4.576   0.391  16.639  1.00  0.00     0.159 HD
BRANCH  14  16
HETATM   16  C10 UNL     1      -5.985   1.934  16.558  1.00  0.00     0.081 A 
HETATM   17  C11 UNL     1      -6.482   1.908  17.963  1.00  0.00     0.027 A 
HETATM   18  C12 UNL     1      -7.120   0.998  16.938  1.00  0.00     0.027 A 
ENDBRANCH  14  16
ENDBRANCH  12  13
ENDBRANCH   1  12
TORSDOF 8
ENDMDL
MODEL 3
REMARK VINA RESULT: -5.643020242      1.504      1.617
REMARK  8 active torsions:
REMARK  status: ('A' for Active; 'I' for Inactive)
REMARK    1  A    between atoms: C2_2  and  C3_3 
REMARK    2  A    between atoms: C3_3  and  C4_4 
REMARK    3  A    between atoms: C4_4  and  C5_5 
REMARK    4  A    between atoms: C6_7  and  C7_8 
REMARK    5  A    between atoms: C7_8  and  N1_9 
REMARK    6  A    between atoms: N1_9  and  C8_12 
REMARK    7  A    between atoms: C8_12  and  C9_13 
REMARK    8  A    between atoms: N2_14  and  C10_16 
ROOT
HETATM    1  N1  UNL     1      -3.361   3.192  13.582  1.00  0.00    -0.068 N 
ATOM      2  H11 UNL     1      -2.840   3.883  14.121  1.00  0.00     0.277 HD
ATOM      3  H12 UNL     1      -2.693   2.421  13.612  1.00  0.00     0.277 HD
ENDROOT
BRANCH   1   4
HETATM    4  C7  UNL     1      -3.572   3.637  12.243  1.00  0.00     0.267 C 
BRANCH   4   5
HETATM    5  C6  UNL     1      -2.791   2.842  11.210  1.00  0.00     0.176 A 
HETATM    6  C5  UNL     1      -2.604   1.450  11.507  1.00  0.00     0.153 A 
HETATM    7  O1  UNL     1      -1.514   2.441  11.704  1.00  0.00    -0.374 OA
BRANCH   6   8
HETATM    8  C4  UNL     1      -2.124   0.398  10.548  1.00  0.00     0.038 C 
BRANCH   8   9
HETATM    9  C3  UNL     1      -3.340  -0.475  10.238  1.00  0.00     0.029 C 
BRANCH   9  10
HETATM   10  C2  UNL     1      -3.527  -1.549  11.253  1.00  0.00    -0.037 C 
HETATM   11  C1  UNL     1      -2.857  -2.691  11.228  1.00  0.00     0.007 C 
ENDBRANCH   9  10
ENDBRANCH   8   9
ENDBRANCH   6   8
ENDBRANCH   4   5
ENDBRANCH   1   4
BRANCH   1  12
HETATM   12  C8  UNL     1      -4.596   2.836  14.247  1.00  0.00     0.276 C 
BRANCH  12  13
HETATM   13  C9  UNL     1      -4.459   1.465  14.784  1.00  0.00     0.083 C 
HETATM   14  N2  UNL     1      -5.137   1.058  15.758  1.00  0.00    -0.396 N 
ATOM     15  H2  UNL     1      -4.995   0.100  16.079  1.00  0.00     0.159 HD
BRANCH  14  16
HETATM   16  C10 UNL     1      -6.084   1.850  16.427  1.00  0.00     0.081 A 
HETATM   17  C11 UNL     1      -6.239   1.666  17.897  1.00  0.00     0.027 A 
HETATM   18  C12 UNL     1      -7.306   1.129  16.971  1.00  0.00     0.027 A 
ENDBRANCH  14  16
ENDBRANCH  12  13
ENDBRANCH   1  12
TORSDOF 8
ENDMDL
MODEL 4
REMARK VINA RESULT: -5.602487213      3.238      5.625
REMARK  8 active torsions:
REMARK  status: ('A' for Active; 'I' for Inactive)
REMARK    1  A    between atoms: C2_2  and  C3_3 
REMARK    2  A    between atoms: C3_3  and  C4_4 
REMARK    3  A    between atoms: C4_4  and  C5_5 
REMARK    4  A    between atoms: C6_7  and  C7_8 
REMARK    5  A    between atoms: C7_8  and  N1_9 
REMARK    6  A    between atoms: N1_9  and  C8_12 
REMARK    7  A    between atoms: C8_12  and  C9_13 
REMARK    8  A    between atoms: N2_14  and  C10_16 
ROOT
HETATM    1  N1  UNL     1      -3.538   2.673  14.264  1.00  0.00    -0.068 N 
ATOM      2  H11 UNL     1      -2.847   2.404  14.965  1.00  0.00     0.277 HD
ATOM      3  H12 UNL     1      -2.945   2.660  13.434  1.00  0.00     0.277 HD
ENDROOT
BRANCH   1   4
HETATM    4  C7  UNL     1      -4.040   3.984  14.515  1.00  0.00     0.267 C 
BRANCH   4   5
HETATM    5  C6  UNL     1      -5.403   4.241  13.894  1.00  0.00     0.176 A 
HETATM    6  C5  UNL     1      -5.796   5.619  13.804  1.00  0.00     0.153 A 
HETATM    7  O1  UNL     1      -6.342   4.721  14.855  1.00  0.00    -0.374 OA
BRANCH   6   8
HETATM    8  C4  UNL     1      -6.943   6.160  12.998  1.00  0.00     0.038 C 
BRANCH   8   9
HETATM    9  C3  UNL     1      -6.318   6.826  11.772  1.00  0.00     0.029 C 
BRANCH   9  10
HETATM   10  C2  UNL     1      -7.110   8.003  11.314  1.00  0.00    -0.037 C 
HETATM   11  C1  UNL     1      -6.552   9.117  10.866  1.00  0.00     0.007 C 
ENDBRANCH   9  10
ENDBRANCH   8   9
ENDBRANCH   6   8
ENDBRANCH   4   5
ENDBRANCH   1   4
BRANCH   1  12
HETATM   12  C8  UNL     1      -4.592   1.686  14.167  1.00  0.00     0.276 C 
BRANCH  12  13
HETATM   13  C9  UNL     1      -4.358   0.651  15.197  1.00  0.00     0.083 C 
HETATM   14  N2  UNL     1      -4.969   0.648  16.293  1.00  0.00    -0.396 N 
ATOM     15  H2  UNL     1      -4.761  -0.096  16.960  1.00  0.00     0.159 HD
BRANCH  14  16
HETATM   16  C10 UNL     1      -5.924   1.613  16.648  1.00  0.00     0.081 A 
HETATM   17  C11 UNL     1      -6.357   1.681  18.073  1.00  0.00     0.027 A 
HETATM   18  C12 UNL     1      -7.296   1.092  17.045  1.00  0.00     0.027 A 
ENDBRANCH  14  16
ENDBRANCH  12  13
ENDBRANCH   1  12
TORSDOF 8
ENDMDL
MODEL 5
REMARK VINA RESULT: -5.591466949      1.618      1.853
REMARK  8 active torsions:
REMARK  status: ('A' for Active; 'I' for Inactive)
REMARK    1  A    between atoms: C2_2  and  C3_3 
REMARK    2  A    between atoms: C3_3  and  C4_4 
REMARK    3  A    between atoms: C4_4  and  C5_5 
REMARK    4  A    between atoms: C6_7  and  C7_8 
REMARK    5  A    between atoms: C7_8  and  N1_9 
REMARK    6  A    between atoms: N1_9  and  C8_12 
REMARK    7  A    between atoms: C8_12  and  C9_13 
REMARK    8  A    between atoms: N2_14  and  C10_16 
ROOT
HETATM    1  N1  UNL     1      -3.732   2.599  13.648  1.00  0.00    -0.068 N 
ATOM      2  H11 UNL     1      -2.966   1.945  13.812  1.00  0.00     0.277 HD
ATOM      3  H12 UNL     1      -4.468   1.934  13.406  1.00  0.00     0.277 HD
ENDROOT
BRANCH   1   4
HETATM    4  C7  UNL     1      -3.443   3.465  12.553  1.00  0.00     0.267 C 
BRANCH   4   5
HETATM    5  C6  UNL     1      -2.808   2.755  11.370  1.00  0.00     0.176 A 
HETATM    6  C5  UNL     1      -2.587   1.346  11.535  1.00  0.00     0.153 A 
HETATM    7  O1  UNL     1      -1.477   2.327  11.660  1.00  0.00    -0.374 OA
BRANCH   6   8
HETATM    8  C4  UNL     1      -2.241   0.371  10.445  1.00  0.00     0.038 C 
BRANCH   8   9
HETATM    9  C3  UNL     1      -3.479  -0.506  10.255  1.00  0.00     0.029 C 
BRANCH   9  10
HETATM   10  C2  UNL     1      -3.569  -1.572  11.291  1.00  0.00    -0.037 C 
HETATM   11  C1  UNL     1      -2.874  -2.698  11.231  1.00  0.00     0.007 C 
ENDBRANCH   9  10
ENDBRANCH   8   9
ENDBRANCH   6   8
ENDBRANCH   4   5
ENDBRANCH   1   4
BRANCH   1  12
HETATM   12  C8  UNL     1      -4.063   3.325  14.855  1.00  0.00     0.276 C 
BRANCH  12  13
HETATM   13  C9  UNL     1      -5.530   3.513  14.900  1.00  0.00     0.083 C 
HETATM   14  N2  UNL     1      -6.269   2.829  15.647  1.00  0.00    -0.396 N 
ATOM     15  H2  UNL     1      -7.273   3.009  15.630  1.00  0.00     0.159 HD
BRANCH  14  16
HETATM   16  C10 UNL     1      -5.787   1.828  16.505  1.00  0.00     0.081 A 
HETATM   17  C11 UNL     1      -6.739   0.774  16.959  1.00  0.00     0.027 A 
HETATM   18  C12 UNL     1      -6.313   1.850  17.931  1.00  0.00     0.027 A 
ENDBRANCH  14  16
ENDBRANCH  12  13
ENDBRANCH   1  12
TORSDOF 8
ENDMDL
