MODEL 1
REMARK VINA RESULT: -5.990339167      0.000      0.000
REMARK  8 active torsions:
REMARK  status: ('A' for Active; 'I' for Inactive)
REMARK    1  A    between atoms: C2_3  and  C3_4 
REMARK    2  A    between atoms: C3_4  and  N2_5 
REMARK    3  A    between atoms: N2_5  and  C4_8 
REMARK    4  A    between atoms: C4_8  and  C5_9 
REMARK    5  A    between atoms: C5_9  and  N3_10 
REMARK    6  A    between atoms: N3_10  and  C6_11 
REMARK    7  A    between atoms: N3_10  and  C10_15 
REMARK    8  A    between atoms: C6_11  and  C7_12 
ROOT
HETATM    1  N1  UNL     1      -2.605  -3.149  11.258  1.00  0.00    -0.197 NA
HETATM    2  C1  UNL     1      -3.113  -2.098  11.252  1.00  0.00     0.060 C 
HETATM    3  C2  UNL     1      -3.764  -0.797  11.242  1.00  0.00     0.151 C 
ENDROOT
BRANCH   3   4
HETATM    4  C3  UNL     1      -2.741   0.274  11.003  1.00  0.00     0.246 C 
BRANCH   4   5
HETATM    5  N2  UNL     1      -2.978   1.395  11.860  1.00  0.00    -0.073 N 
ATOM      6  H22 UNL     1      -2.158   1.598  12.432  1.00  0.00     0.277 HD
ATOM      7  H21 UNL     1      -3.024   2.261  11.324  1.00  0.00     0.277 HD
BRANCH   5   8
HETATM    8  C4  UNL     1      -4.161   1.233  12.688  1.00  0.00     0.262 C 
BRANCH   8   9
HETATM    9  C5  UNL     1      -4.918   2.503  12.805  1.00  0.00     0.300 C 
BRANCH   9  10
HETATM   10  N3  UNL     1      -5.359   2.863  14.138  1.00  0.00     0.095 N 
BRANCH  10  11
HETATM   11  C6  UNL     1      -4.857   1.951  15.051  1.00  0.00     0.277 C 
BRANCH  11  12
HETATM   12  C7  UNL     1      -5.230   1.794  16.443  1.00  0.00     0.014 A 
HETATM   13  C8  UNL     1      -5.900   0.570  16.992  1.00  0.00     0.007 A 
HETATM   14  C9  UNL     1      -6.483   1.931  17.152  1.00  0.00     0.007 A 
ENDBRANCH  11  12
ENDBRANCH  10  11
BRANCH  10  15
HETATM   15  C10 UNL     1      -5.030   4.251  14.286  1.00  0.00     0.223 A 
HETATM   16  C11 UNL     1      -6.008   5.172  14.969  1.00  0.00     0.038 A 
HETATM   17  C12 UNL     1      -5.718   5.345  13.548  1.00  0.00     0.038 A 
ENDBRANCH  10  15
ENDBRANCH   9  10
ENDBRANCH   8   9
ENDBRANCH   5   8
ENDBRANCH   4   5
ENDBRANCH   3   4
TORSDOF 8
ENDMDL
MODEL 2
REMARK VINA RESULT: -5.799882378      1.517      1.891
REMARK  8 active torsions:
REMARK  status: ('A' for Active; 'I' for Inactive)
REMARK    1  A    between atoms: C2_3  and  C3_4 
REMARK    2  A    between atoms: C3_4  and  N2_5 
REMARK    3  A    between atoms: N2_5  and  C4_8 
REMARK    4  A    between atoms: C4_8  and  C5_9 
REMARK    5  A    between atoms: C5_9  and  N3_10 
REMARK    6  A    between atoms: N3_10  and  C6_11 
REMARK    7  A    between atoms: N3_10  and  C10_15 
REMARK    8  A    between atoms: C6_11  and  C7_12 
ROOT
HETATM    1  N1  UNL     1      -1.038   1.711  11.271  1.00  0.00    -0.197 NA
HETATM    2  C1  UNL     1      -1.794   0.870  10.979  1.00  0.00     0.060 C 
HETATM    3  C2  UNL     1      -2.725  -0.181  10.598  1.00  0.00     0.151 C 
ENDROOT
BRANCH   3   4
HETATM    4  C3  UNL     1      -3.985  -0.050  11.402  1.00  0.00     0.246 C 
BRANCH   4   5
HETATM    5  N2  UNL     1      -3.811   0.903  12.456  1.00  0.00    -0.073 N 
ATOM      6  H22 UNL     1      -3.819   0.445  13.367  1.00  0.00     0.277 HD
ATOM      7  H21 UNL     1      -2.860   1.269  12.463  1.00  0.00     0.277 HD
BRANCH   5   8
HETATM    8  C4  UNL     1      -4.783   1.982  12.407  1.00  0.00     0.262 C 
BRANCH   8   9
HETATM    9  C5  UNL     1      -4.515   2.998  13.454  1.00  0.00     0.300 C 
BRANCH   9  10
HETATM   10  N3  UNL     1      -5.623   3.316  14.333  1.00  0.00     0.095 N 
BRANCH  10  11
HETATM   11  C6  UNL     1      -5.529   2.554  15.486  1.00  0.00     0.277 C 
BRANCH  11  12
HETATM   12  C7  UNL     1      -6.562   2.312  16.474  1.00  0.00     0.014 A 
HETATM   13  C8  UNL     1      -6.292   1.752  17.839  1.00  0.00     0.007 A 
HETATM   14  C9  UNL     1      -7.262   1.121  16.901  1.00  0.00     0.007 A 
ENDBRANCH  11  12
ENDBRANCH  10  11
BRANCH  10  15
HETATM   15  C10 UNL     1      -5.623   4.747  14.442  1.00  0.00     0.223 A 
HETATM   16  C11 UNL     1      -6.666   5.541  13.699  1.00  0.00     0.038 A 
HETATM   17  C12 UNL     1      -5.260   5.657  13.323  1.00  0.00     0.038 A 
ENDBRANCH  10  15
ENDBRANCH   9  10
ENDBRANCH   8   9
ENDBRANCH   5   8
ENDBRANCH   4   5
ENDBRANCH   3   4
TORSDOF 8
ENDMDL
MODEL 3
REMARK VINA RESULT: -5.745523715      1.049      1.242
REMARK  8 active torsions:
REMARK  status: ('A' for Active; 'I' for Inactive)
REMARK    1  A    between atoms: C2_3  and  C3_4 
REMARK    2  A    between atoms: C3_4  and  N2_5 
REMARK    3  A    between atoms: N2_5  and  C4_8 
REMARK    4  A    between atoms: C4_8  and  C5_9 
REMARK    5  A    between atoms: C5_9  and  N3_10 
REMARK    6  A    between atoms: N3_10  and  C6_11 
REMARK    7  A    between atoms: N3_10  and  C10_15 
REMARK    8  A    between atoms: C6_11  and  C7_12 
ROOT
HETATM    1  N1  UNL     1      -2.995  -1.917  11.342  1.00  0.00    -0.197 NA
HETATM    2  C1  UNL     1      -3.640  -1.063  10.872  1.00  0.00     0.060 C 
HETATM    3  C2  UNL     1      -4.440  -0.009  10.269  1.00  0.00     0.151 C 
ENDROOT
BRANCH   3   4
HETATM    4  C3  UNL     1      -4.635   1.101  11.259  1.00  0.00     0.246 C 
BRANCH   4   5
HETATM    5  N2  UNL     1      -3.820   0.890  12.416  1.00  0.00    -0.073 N 
ATOM      6  H22 UNL     1      -3.635  -0.103  12.557  1.00  0.00     0.277 HD
ATOM      7  H21 UNL     1      -2.866   1.214  12.255  1.00  0.00     0.277 HD
BRANCH   5   8
HETATM    8  C4  UNL     1      -4.377   1.491  13.616  1.00  0.00     0.262 C 
BRANCH   8   9
HETATM    9  C5  UNL     1      -5.020   2.794  13.320  1.00  0.00     0.300 C 
BRANCH   9  10
HETATM   10  N3  UNL     1      -5.864   3.342  14.363  1.00  0.00     0.095 N 
BRANCH  10  11
HETATM   11  C6  UNL     1      -5.638   2.656  15.545  1.00  0.00     0.277 C 
BRANCH  11  12
HETATM   12  C7  UNL     1      -6.605   2.310  16.567  1.00  0.00     0.014 A 
HETATM   13  C8  UNL     1      -6.246   1.639  17.860  1.00  0.00     0.007 A 
HETATM   14  C9  UNL     1      -7.262   1.073  16.929  1.00  0.00     0.007 A 
ENDBRANCH  11  12
ENDBRANCH  10  11
BRANCH  10  15
HETATM   15  C10 UNL     1      -5.643   4.759  14.326  1.00  0.00     0.223 A 
HETATM   16  C11 UNL     1      -6.634   5.640  13.610  1.00  0.00     0.038 A 
HETATM   17  C12 UNL     1      -5.275   5.503  13.092  1.00  0.00     0.038 A 
ENDBRANCH  10  15
ENDBRANCH   9  10
ENDBRANCH   8   9
ENDBRANCH   5   8
ENDBRANCH   4   5
ENDBRANCH   3   4
TORSDOF 8
ENDMDL
MODEL 4
REMARK VINA RESULT: -5.714373770      1.992      5.373
REMARK  8 active torsions:
REMARK  status: ('A' for Active; 'I' for Inactive)
REMARK    1  A    between atoms: C2_3  and  C3_4 
REMARK    2  A    between atoms: C3_4  and  N2_5 
REMARK    3  A    between atoms: N2_5  and  C4_8 
REMARK    4  A    between atoms: C4_8  and  C5_9 
REMARK    5  A    between atoms: C5_9  and  N3_10 
REMARK    6  A    between atoms: N3_10  and  C6_11 
REMARK    7  A    between atoms: N3_10  and  C10_15 
REMARK    8  A    between atoms: C6_11  and  C7_12 
ROOT
HETATM    1  N1  UNL     1      -5.668  -0.233  17.210  1.00  0.00    -0.197 NA
HETATM    2  C1  UNL     1      -6.241   0.773  17.054  1.00  0.00     0.060 C 
HETATM    3  C2  UNL     1      -6.970   2.018  16.870  1.00  0.00     0.151 C 
ENDROOT
BRANCH   3   4
HETATM    4  C3  UNL     1      -6.291   2.848  15.821  1.00  0.00     0.246 C 
BRANCH   4   5
HETATM    5  N2  UNL     1      -4.935   2.423  15.646  1.00  0.00    -0.073 N 
ATOM      6  H22 UNL     1      -4.423   2.463  16.527  1.00  0.00     0.277 HD
ATOM      7  H21 UNL     1      -4.887   1.419  15.473  1.00  0.00     0.277 HD
BRANCH   5   8
HETATM    8  C4  UNL     1      -4.241   3.164  14.606  1.00  0.00     0.262 C 
BRANCH   8   9
HETATM    9  C5  UNL     1      -4.810   2.876  13.267  1.00  0.00     0.300 C 
BRANCH   9  10
HETATM   10  N3  UNL     1      -3.920   2.236  12.319  1.00  0.00     0.095 N 
BRANCH  10  11
HETATM   11  C6  UNL     1      -4.109   0.865  12.364  1.00  0.00     0.277 C 
BRANCH  11  12
HETATM   12  C7  UNL     1      -4.149  -0.061  11.249  1.00  0.00     0.014 A 
HETATM   13  C8  UNL     1      -3.709  -1.492  11.339  1.00  0.00     0.007 A 
HETATM   14  C9  UNL     1      -3.142  -0.550  10.333  1.00  0.00     0.007 A 
ENDBRANCH  11  12
ENDBRANCH  10  11
BRANCH  10  15
HETATM   15  C10 UNL     1      -4.123   2.928  11.079  1.00  0.00     0.223 A 
HETATM   16  C11 UNL     1      -2.933   3.486  10.343  1.00  0.00     0.038 A 
HETATM   17  C12 UNL     1      -3.926   4.393  10.911  1.00  0.00     0.038 A 
ENDBRANCH  10  15
ENDBRANCH   9  10
ENDBRANCH   8   9
ENDBRANCH   5   8
ENDBRANCH   4   5
ENDBRANCH   3   4
TORSDOF 8
ENDMDL
MODEL 5
REMARK VINA RESULT: -5.697879478      0.883      3.261
REMARK  8 active torsions:
REMARK  status: ('A' for Active; 'I' for Inactive)
REMARK    1  A    between atoms: C2_3  and  C3_4 
REMARK    2  A    between atoms: C3_4  and  N2_5 
REMARK    3  A    between atoms: N2_5  and  C4_8 
REMARK    4  A    between atoms: C4_8  and  C5_9 
REMARK    5  A    between atoms: C5_9  and  N3_10 
REMARK    6  A    between atoms: N3_10  and  C6_11 
REMARK    7  A    between atoms: N3_10  and  C10_15 
REMARK    8  A    between atoms: C6_11  and  C7_12 
ROOT
HETATM    1  N1  UNL     1      -2.817  -3.059  11.309  1.00  0.00    -0.197 NA
HETATM    2  C1  UNL     1      -2.864  -1.902  11.156  1.00  0.00     0.060 C 
HETATM    3  C2  UNL     1      -2.904  -0.462  10.957  1.00  0.00     0.151 C 
ENDROOT
BRANCH   3   4
HETATM    4  C3  UNL     1      -4.033   0.123  11.754  1.00  0.00     0.246 C 
BRANCH   4   5
HETATM    5  N2  UNL     1      -3.573   1.229  12.538  1.00  0.00    -0.073 N 
ATOM      6  H22 UNL     1      -2.841   0.938  13.186  1.00  0.00     0.277 HD
ATOM      7  H21 UNL     1      -3.038   1.883  11.967  1.00  0.00     0.277 HD
BRANCH   5   8
HETATM    8  C4  UNL     1      -4.648   1.909  13.240  1.00  0.00     0.262 C 
BRANCH   8   9
HETATM    9  C5  UNL     1      -4.585   1.656  14.700  1.00  0.00     0.300 C 
BRANCH   9  10
HETATM   10  N3  UNL     1      -5.451   2.472  15.528  1.00  0.00     0.095 N 
BRANCH  10  11
HETATM   11  C6  UNL     1      -6.080   3.421  14.739  1.00  0.00     0.277 C 
BRANCH  11  12
HETATM   12  C7  UNL     1      -5.863   4.854  14.733  1.00  0.00     0.014 A 
HETATM   13  C8  UNL     1      -5.663   5.660  13.484  1.00  0.00     0.007 A 
HETATM   14  C9  UNL     1      -4.679   5.674  14.602  1.00  0.00     0.007 A 
ENDBRANCH  11  12
ENDBRANCH  10  11
BRANCH  10  15
HETATM   15  C10 UNL     1      -6.250   1.544  16.274  1.00  0.00     0.223 A 
HETATM   16  C11 UNL     1      -6.351   1.696  17.770  1.00  0.00     0.038 A 
HETATM   17  C12 UNL     1      -5.682   0.529  17.202  1.00  0.00     0.038 A 
ENDBRANCH  10  15
ENDBRANCH   9  10
ENDBRANCH   8   9
ENDBRANCH   5   8
ENDBRANCH   4   5
ENDBRANCH   3   4
TORSDOF 8
ENDMDL
