MODEL 1
REMARK VINA RESULT: -6.318993749      0.000      0.000
REMARK  13 active torsions:
REMARK  status: ('A' for Active; 'I' for Inactive)
REMARK    1  A    between atoms: C2_2  and  C3_3 
REMARK    2  A    between atoms: C3_3  and  C4_4 
REMARK    3  A    between atoms: C4_4  and  C5_5 
REMARK    4  A    between atoms: C7_9  and  C8_10 
REMARK    5  A    between atoms: C8_10  and  C9_11 
REMARK    6  A    between atoms: C9_11  and  N2_12 
REMARK    7  A    between atoms: N2_12  and  C11_14 
REMARK    8  A    between atoms: C11_14  and  C12_15 
REMARK    9  A    between atoms: C12_15  and  O1_16 
REMARK   10  A    between atoms: C12_15  and  C13_18 
REMARK   11  A    between atoms: C13_18  and  N3_19 
REMARK   12  A    between atoms: N3_19  and  O2_20 
REMARK   13  A    between atoms: N3_19  and  C14_22 
ROOT
HETATM    1  C9  UNL     1      -3.170   6.177  11.559  1.00  0.00     0.278 C 
ENDROOT
BRANCH   1   2
HETATM    2  C8  UNL     1      -3.700   6.476  12.944  1.00  0.00     0.089 C 
BRANCH   2   3
HETATM    3  C7  UNL     1      -3.758   5.256  13.805  1.00  0.00     0.029 A 
HETATM    4  C6  UNL     1      -2.705   4.550  14.352  1.00  0.00     0.114 A 
HETATM    5  N1  UNL     1      -3.239   3.518  15.065  1.00  0.00    -0.354 N 
HETATM    6  C5  UNL     1      -4.581   3.557  14.979  1.00  0.00     0.083 A 
ATOM      7  H1  UNL     1      -2.703   2.822  15.584  1.00  0.00     0.166 HD
HETATM    8  N4  UNL     1      -4.872   4.634  14.200  1.00  0.00    -0.343 N 
HETATM    9  C15 UNL     1      -6.209   5.036  13.862  1.00  0.00     0.157 C 
BRANCH   6  10
HETATM   10  C4  UNL     1      -5.581   2.631  15.595  1.00  0.00     0.080 C 
BRANCH  10  11
HETATM   11  C3  UNL     1      -4.913   1.502  16.322  1.00  0.00     0.033 C 
BRANCH  11  12
HETATM   12  C2  UNL     1      -5.922   0.851  17.197  1.00  0.00    -0.037 C 
HETATM   13  C1  UNL     1      -7.218   1.116  17.087  1.00  0.00     0.007 C 
ENDBRANCH  11  12
ENDBRANCH  10  11
ENDBRANCH   6  10
ENDBRANCH   2   3
ENDBRANCH   1   2
BRANCH   1  14
HETATM   14  N2  UNL     1      -4.026   5.266  10.895  1.00  0.00     0.087 N 
HETATM   15  C10 UNL     1      -4.737   6.003   9.845  1.00  0.00     0.310 C 
BRANCH  14  16
HETATM   16  C11 UNL     1      -3.508   4.040  10.424  1.00  0.00     0.305 C 
BRANCH  16  17
HETATM   17  C12 UNL     1      -4.070   2.832  11.085  1.00  0.00     0.166 C 
BRANCH  17  18
HETATM   18  O1  UNL     1      -4.995   2.255  10.181  1.00  0.00    -0.392 OA
ATOM     19  H1  UNL     1      -5.637   1.784  10.700  1.00  0.00     0.210 HD
ENDBRANCH  17  18
BRANCH  17  20
HETATM   20  C13 UNL     1      -3.140   1.808  11.607  1.00  0.00     0.192 C 
BRANCH  20  21
HETATM   21  N3  UNL     1      -3.611   0.473  11.676  1.00  0.00    -0.234 N 
BRANCH  21  22
HETATM   22  O2  UNL     1      -4.506   0.188  12.706  1.00  0.00    -0.285 OA
ATOM     23  H2  UNL     1      -4.338  -0.607  13.200  1.00  0.00     0.245 HD
ENDBRANCH  21  22
BRANCH  21  24
HETATM   24  C14 UNL     1      -3.250  -0.556  10.808  1.00  0.00     0.376 C 
HETATM   25  O3  UNL     1      -3.518  -0.556   9.577  1.00  0.00    -0.281 OA
ENDBRANCH  21  24
ENDBRANCH  20  21
ENDBRANCH  17  20
ENDBRANCH  16  17
ENDBRANCH  14  16
ENDBRANCH   1  14
TORSDOF 13
ENDMDL
MODEL 2
REMARK VINA RESULT: -6.186502247      0.389      1.100
REMARK  13 active torsions:
REMARK  status: ('A' for Active; 'I' for Inactive)
REMARK    1  A    between atoms: C2_2  and  C3_3 
REMARK    2  A    between atoms: C3_3  and  C4_4 
REMARK    3  A    between atoms: C4_4  and  C5_5 
REMARK    4  A    between atoms: C7_9  and  C8_10 
REMARK    5  A    between atoms: C8_10  and  C9_11 
REMARK    6  A    between atoms: C9_11  and  N2_12 
REMARK    7  A    between atoms: N2_12  and  C11_14 
REMARK    8  A    between atoms: C11_14  and  C12_15 
REMARK    9  A    between atoms: C12_15  and  O1_16 
REMARK   10  A    between atoms: C12_15  and  C13_18 
REMARK   11  A    between atoms: C13_18  and  N3_19 
REMARK   12  A    between atoms: N3_19  and  O2_20 
REMARK   13  A    between atoms: N3_19  and  C14_22 
ROOT
HETATM    1  C9  UNL     1      -3.072   6.083  11.506  1.00  0.00     0.278 C 
ENDROOT
BRANCH   1   2
HETATM    2  C8  UNL     1      -3.653   6.408  12.864  1.00  0.00     0.089 C 
BRANCH   2   3
HETATM    3  C7  UNL     1      -3.723   5.209  13.753  1.00  0.00     0.029 A 
HETATM    4  C6  UNL     1      -2.678   4.516  14.331  1.00  0.00     0.114 A 
HETATM    5  N1  UNL     1      -3.221   3.501  15.061  1.00  0.00    -0.354 N 
HETATM    6  C5  UNL     1      -4.562   3.538  14.956  1.00  0.00     0.083 A 
ATOM      7  H1  UNL     1      -2.692   2.818  15.603  1.00  0.00     0.166 HD
HETATM    8  N4  UNL     1      -4.842   4.596  14.148  1.00  0.00    -0.343 N 
HETATM    9  C15 UNL     1      -6.174   4.989  13.782  1.00  0.00     0.157 C 
BRANCH   6  10
HETATM   10  C4  UNL     1      -5.570   2.626  15.580  1.00  0.00     0.080 C 
BRANCH  10  11
HETATM   11  C3  UNL     1      -4.912   1.497  16.316  1.00  0.00     0.033 C 
BRANCH  11  12
HETATM   12  C2  UNL     1      -5.929   0.858  17.192  1.00  0.00    -0.037 C 
HETATM   13  C1  UNL     1      -7.219   1.156  17.098  1.00  0.00     0.007 C 
ENDBRANCH  11  12
ENDBRANCH  10  11
ENDBRANCH   6  10
ENDBRANCH   2   3
ENDBRANCH   1   2
BRANCH   1  14
HETATM   14  N2  UNL     1      -3.894   5.146  10.836  1.00  0.00     0.087 N 
HETATM   15  C10 UNL     1      -4.671   5.873   9.826  1.00  0.00     0.310 C 
BRANCH  14  16
HETATM   16  C11 UNL     1      -3.322   3.965  10.315  1.00  0.00     0.305 C 
BRANCH  16  17
HETATM   17  C12 UNL     1      -3.832   2.706  10.921  1.00  0.00     0.166 C 
BRANCH  17  18
HETATM   18  O1  UNL     1      -4.997   2.341  10.204  1.00  0.00    -0.392 OA
ATOM     19  H1  UNL     1      -5.266   1.487  10.523  1.00  0.00     0.210 HD
ENDBRANCH  17  18
BRANCH  17  20
HETATM   20  C13 UNL     1      -2.914   1.554  11.049  1.00  0.00     0.192 C 
BRANCH  20  21
HETATM   21  N3  UNL     1      -3.458   0.260  10.854  1.00  0.00    -0.234 N 
BRANCH  21  22
HETATM   22  O2  UNL     1      -3.459  -0.216   9.544  1.00  0.00    -0.285 OA
ATOM     23  H2  UNL     1      -4.118  -0.867   9.335  1.00  0.00     0.245 HD
ENDBRANCH  21  22
BRANCH  21  24
HETATM   24  C14 UNL     1      -3.984  -0.552  11.856  1.00  0.00     0.376 C 
HETATM   25  O3  UNL     1      -4.525  -0.107  12.903  1.00  0.00    -0.281 OA
ENDBRANCH  21  24
ENDBRANCH  20  21
ENDBRANCH  17  20
ENDBRANCH  16  17
ENDBRANCH  14  16
ENDBRANCH   1  14
TORSDOF 13
ENDMDL
MODEL 3
REMARK VINA RESULT: -6.091514901      1.001      1.021
REMARK  13 active torsions:
REMARK  status: ('A' for Active; 'I' for Inactive)
REMARK    1  A    between atoms: C2_2  and  C3_3 
REMARK    2  A    between atoms: C3_3  and  C4_4 
REMARK    3  A    between atoms: C4_4  and  C5_5 
REMARK    4  A    between atoms: C7_9  and  C8_10 
REMARK    5  A    between atoms: C8_10  and  C9_11 
REMARK    6  A    between atoms: C9_11  and  N2_12 
REMARK    7  A    between atoms: N2_12  and  C11_14 
REMARK    8  A    between atoms: C11_14  and  C12_15 
REMARK    9  A    between atoms: C12_15  and  O1_16 
REMARK   10  A    between atoms: C12_15  and  C13_18 
REMARK   11  A    between atoms: C13_18  and  N3_19 
REMARK   12  A    between atoms: N3_19  and  O2_20 
REMARK   13  A    between atoms: N3_19  and  C14_22 
ROOT
HETATM    1  C9  UNL     1      -2.823   5.975  11.620  1.00  0.00     0.278 C 
ENDROOT
BRANCH   1   2
HETATM    2  C8  UNL     1      -3.541   6.324  12.904  1.00  0.00     0.089 C 
BRANCH   2   3
HETATM    3  C7  UNL     1      -3.658   5.153  13.825  1.00  0.00     0.029 A 
HETATM    4  C6  UNL     1      -2.642   4.461  14.453  1.00  0.00     0.114 A 
HETATM    5  N1  UNL     1      -3.223   3.477  15.197  1.00  0.00    -0.354 N 
HETATM    6  C5  UNL     1      -4.559   3.533  15.052  1.00  0.00     0.083 A 
ATOM      7  H1  UNL     1      -2.721   2.802  15.774  1.00  0.00     0.166 HD
HETATM    8  N4  UNL     1      -4.798   4.571  14.206  1.00  0.00    -0.343 N 
HETATM    9  C15 UNL     1      -6.112   4.975  13.790  1.00  0.00     0.157 C 
BRANCH   6  10
HETATM   10  C4  UNL     1      -5.601   2.657  15.673  1.00  0.00     0.080 C 
BRANCH  10  11
HETATM   11  C3  UNL     1      -4.984   1.534  16.452  1.00  0.00     0.033 C 
BRANCH  11  12
HETATM   12  C2  UNL     1      -6.064   0.838  17.199  1.00  0.00    -0.037 C 
HETATM   13  C1  UNL     1      -7.344   1.140  17.020  1.00  0.00     0.007 C 
ENDBRANCH  11  12
ENDBRANCH  10  11
ENDBRANCH   6  10
ENDBRANCH   2   3
ENDBRANCH   1   2
BRANCH   1  14
HETATM   14  N2  UNL     1      -3.486   4.910  10.964  1.00  0.00     0.087 N 
HETATM   15  C10 UNL     1      -4.491   5.492  10.067  1.00  0.00     0.310 C 
BRANCH  14  16
HETATM   16  C11 UNL     1      -2.728   3.904  10.327  1.00  0.00     0.305 C 
BRANCH  16  17
HETATM   17  C12 UNL     1      -2.840   2.555  10.944  1.00  0.00     0.166 C 
BRANCH  17  18
HETATM   18  O1  UNL     1      -1.745   2.411  11.831  1.00  0.00    -0.392 OA
ATOM     19  H1  UNL     1      -2.005   1.785  12.497  1.00  0.00     0.210 HD
ENDBRANCH  17  18
BRANCH  17  20
HETATM   20  C13 UNL     1      -4.105   2.179  11.609  1.00  0.00     0.192 C 
BRANCH  20  21
HETATM   21  N3  UNL     1      -4.363   0.797  11.788  1.00  0.00    -0.234 N 
BRANCH  21  22
HETATM   22  O2  UNL     1      -4.538   0.369  13.103  1.00  0.00    -0.285 OA
ATOM     23  H2  UNL     1      -3.827   0.559  13.704  1.00  0.00     0.245 HD
ENDBRANCH  21  22
BRANCH  21  24
HETATM   24  C14 UNL     1      -4.449  -0.147  10.767  1.00  0.00     0.376 C 
HETATM   25  O3  UNL     1      -5.018   0.070   9.663  1.00  0.00    -0.281 OA
ENDBRANCH  21  24
ENDBRANCH  20  21
ENDBRANCH  17  20
ENDBRANCH  16  17
ENDBRANCH  14  16
ENDBRANCH   1  14
TORSDOF 13
ENDMDL
MODEL 4
REMARK VINA RESULT: -5.959358701      2.103      4.908
REMARK  13 active torsions:
REMARK  status: ('A' for Active; 'I' for Inactive)
REMARK    1  A    between atoms: C2_2  and  C3_3 
REMARK    2  A    between atoms: C3_3  and  C4_4 
REMARK    3  A    between atoms: C4_4  and  C5_5 
REMARK    4  A    between atoms: C7_9  and  C8_10 
REMARK    5  A    between atoms: C8_10  and  C9_11 
REMARK    6  A    between atoms: C9_11  and  N2_12 
REMARK    7  A    between atoms: N2_12  and  C11_14 
REMARK    8  A    between atoms: C11_14  and  C12_15 
REMARK    9  A    between atoms: C12_15  and  O1_16 
REMARK   10  A    between atoms: C12_15  and  C13_18 
REMARK   11  A    between atoms: C13_18  and  N3_19 
REMARK   12  A    between atoms: N3_19  and  O2_20 
REMARK   13  A    between atoms: N3_19  and  C14_22 
ROOT
HETATM    1  C9  UNL     1      -3.564   6.126  13.802  1.00  0.00     0.278 C 
ENDROOT
BRANCH   1   2
HETATM    2  C8  UNL     1      -3.549   5.771  12.332  1.00  0.00     0.089 C 
BRANCH   2   3
HETATM    3  C7  UNL     1      -2.541   4.715  12.012  1.00  0.00     0.029 A 
HETATM    4  C6  UNL     1      -1.235   4.627  12.449  1.00  0.00     0.114 A 
HETATM    5  N1  UNL     1      -0.702   3.496  11.905  1.00  0.00    -0.354 N 
HETATM    6  C5  UNL     1      -1.629   2.882  11.147  1.00  0.00     0.083 A 
ATOM      7  H1  UNL     1       0.252   3.166  12.050  1.00  0.00     0.166 HD
HETATM    8  N4  UNL     1      -2.747   3.652  11.232  1.00  0.00    -0.343 N 
HETATM    9  C15 UNL     1      -3.981   3.342  10.563  1.00  0.00     0.157 C 
BRANCH   6  10
HETATM   10  C4  UNL     1      -1.498   1.617  10.359  1.00  0.00     0.080 C 
BRANCH  10  11
HETATM   11  C3  UNL     1      -1.963   0.427  11.145  1.00  0.00     0.033 C 
BRANCH  11  12
HETATM   12  C2  UNL     1      -3.122  -0.175  10.436  1.00  0.00    -0.037 C 
HETATM   13  C1  UNL     1      -4.289  -0.364  11.040  1.00  0.00     0.007 C 
ENDBRANCH  11  12
ENDBRANCH  10  11
ENDBRANCH   6  10
ENDBRANCH   2   3
ENDBRANCH   1   2
BRANCH   1  14
HETATM   14  N2  UNL     1      -4.229   5.118  14.540  1.00  0.00     0.087 N 
HETATM   15  C10 UNL     1      -5.483   4.807  13.845  1.00  0.00     0.310 C 
BRANCH  14  16
HETATM   16  C11 UNL     1      -3.528   3.951  14.915  1.00  0.00     0.305 C 
BRANCH  16  17
HETATM   17  C12 UNL     1      -4.362   2.722  14.991  1.00  0.00     0.166 C 
BRANCH  17  18
HETATM   18  O1  UNL     1      -4.050   1.936  13.855  1.00  0.00    -0.392 OA
ATOM     19  H1  UNL     1      -4.066   1.027  14.130  1.00  0.00     0.210 HD
ENDBRANCH  17  18
BRANCH  17  20
HETATM   20  C13 UNL     1      -4.314   1.903  16.222  1.00  0.00     0.192 C 
BRANCH  20  21
HETATM   21  N3  UNL     1      -5.209   0.809  16.313  1.00  0.00    -0.234 N 
BRANCH  21  22
HETATM   22  O2  UNL     1      -4.945  -0.273  15.475  1.00  0.00    -0.285 OA
ATOM     23  H2  UNL     1      -4.721  -1.091  15.904  1.00  0.00     0.245 HD
ENDBRANCH  21  22
BRANCH  21  24
HETATM   24  C14 UNL     1      -6.313   0.738  17.160  1.00  0.00     0.376 C 
HETATM   25  O3  UNL     1      -7.467   0.406  16.777  1.00  0.00    -0.281 OA
ENDBRANCH  21  24
ENDBRANCH  20  21
ENDBRANCH  17  20
ENDBRANCH  16  17
ENDBRANCH  14  16
ENDBRANCH   1  14
TORSDOF 13
ENDMDL
MODEL 5
REMARK VINA RESULT: -5.951204967      1.180      1.981
REMARK  13 active torsions:
REMARK  status: ('A' for Active; 'I' for Inactive)
REMARK    1  A    between atoms: C2_2  and  C3_3 
REMARK    2  A    between atoms: C3_3  and  C4_4 
REMARK    3  A    between atoms: C4_4  and  C5_5 
REMARK    4  A    between atoms: C7_9  and  C8_10 
REMARK    5  A    between atoms: C8_10  and  C9_11 
REMARK    6  A    between atoms: C9_11  and  N2_12 
REMARK    7  A    between atoms: N2_12  and  C11_14 
REMARK    8  A    between atoms: C11_14  and  C12_15 
REMARK    9  A    between atoms: C12_15  and  O1_16 
REMARK   10  A    between atoms: C12_15  and  C13_18 
REMARK   11  A    between atoms: C13_18  and  N3_19 
REMARK   12  A    between atoms: N3_19  and  O2_20 
REMARK   13  A    between atoms: N3_19  and  C14_22 
ROOT
HETATM    1  C9  UNL     1      -3.513   6.199  11.518  1.00  0.00     0.278 C 
ENDROOT
BRANCH   1   2
HETATM    2  C8  UNL     1      -3.633   6.423  13.009  1.00  0.00     0.089 C 
BRANCH   2   3
HETATM    3  C7  UNL     1      -4.645   5.523  13.639  1.00  0.00     0.029 A 
HETATM    4  C6  UNL     1      -6.020   5.582  13.530  1.00  0.00     0.114 A 
HETATM    5  N1  UNL     1      -6.529   4.557  14.271  1.00  0.00    -0.354 N 
HETATM    6  C5  UNL     1      -5.521   3.865  14.835  1.00  0.00     0.083 A 
ATOM      7  H1  UNL     1      -7.521   4.346  14.382  1.00  0.00     0.166 HD
HETATM    8  N4  UNL     1      -4.377   4.480  14.429  1.00  0.00    -0.343 N 
HETATM    9  C15 UNL     1      -3.061   4.047  14.809  1.00  0.00     0.157 C 
BRANCH   6  10
HETATM   10  C4  UNL     1      -5.598   2.667  15.726  1.00  0.00     0.080 C 
BRANCH  10  11
HETATM   11  C3  UNL     1      -6.841   2.684  16.566  1.00  0.00     0.033 C 
BRANCH  11  12
HETATM   12  C2  UNL     1      -7.079   1.307  17.071  1.00  0.00    -0.037 C 
HETATM   13  C1  UNL     1      -6.077   0.497  17.392  1.00  0.00     0.007 C 
ENDBRANCH  11  12
ENDBRANCH  10  11
ENDBRANCH   6  10
ENDBRANCH   2   3
ENDBRANCH   1   2
BRANCH   1  14
HETATM   14  N2  UNL     1      -2.261   5.613  11.213  1.00  0.00     0.087 N 
HETATM   15  C10 UNL     1      -1.320   5.985  12.275  1.00  0.00     0.310 C 
BRANCH  14  16
HETATM   16  C11 UNL     1      -2.193   4.237  10.904  1.00  0.00     0.305 C 
BRANCH  16  17
HETATM   17  C12 UNL     1      -3.507   3.539  10.876  1.00  0.00     0.166 C 
BRANCH  17  18
HETATM   18  O1  UNL     1      -3.868   3.387   9.514  1.00  0.00    -0.392 OA
ATOM     19  H1  UNL     1      -4.293   4.193   9.246  1.00  0.00     0.210 HD
ENDBRANCH  17  18
BRANCH  17  20
HETATM   20  C13 UNL     1      -3.650   2.259  11.602  1.00  0.00     0.192 C 
BRANCH  20  21
HETATM   21  N3  UNL     1      -4.593   1.327  11.102  1.00  0.00    -0.234 N 
BRANCH  21  22
HETATM   22  O2  UNL     1      -5.895   1.798  10.937  1.00  0.00    -0.285 OA
ATOM     23  H2  UNL     1      -6.521   1.181  10.574  1.00  0.00     0.245 HD
ENDBRANCH  21  22
BRANCH  21  24
HETATM   24  C14 UNL     1      -4.321   0.001  10.775  1.00  0.00     0.376 C 
HETATM   25  O3  UNL     1      -3.613  -0.343   9.790  1.00  0.00    -0.281 OA
ENDBRANCH  21  24
ENDBRANCH  20  21
ENDBRANCH  17  20
ENDBRANCH  16  17
ENDBRANCH  14  16
ENDBRANCH   1  14
TORSDOF 13
ENDMDL
