MODEL 1
REMARK VINA RESULT: -6.230566421      0.000      0.000
REMARK  14 active torsions:
REMARK  status: ('A' for Active; 'I' for Inactive)
REMARK    1  A    between atoms: C2_2  and  C3_3 
REMARK    2  A    between atoms: C3_3  and  C4_4 
REMARK    3  A    between atoms: C3_3  and  N2_14 
REMARK    4  A    between atoms: C4_4  and  O1_5 
REMARK    5  A    between atoms: O1_5  and  C5_6 
REMARK    6  A    between atoms: C5_6  and  C6_7 
REMARK    7  A    between atoms: C6_7  and  N1_8 
REMARK    8  A    between atoms: N1_8  and  C7_9 
REMARK    9  A    between atoms: N1_8  and  C8_11 
REMARK   10  A    between atoms: N2_14  and  C11_16 
REMARK   11  A    between atoms: C11_16  and  C12_17 
REMARK   12  A    between atoms: C12_17  and  O3_18 
REMARK   13  A    between atoms: C12_17  and  C13_20 
REMARK   14  A    between atoms: C13_20  and  N3_21 
ROOT
HETATM    1  C3  UNL     1      -4.668   6.093  13.082  1.00  0.00     0.100 C 
ENDROOT
BRANCH   1   2
HETATM    2  C2  UNL     1      -3.317   5.894  13.706  1.00  0.00     0.022 C 
HETATM    3  C1  UNL     1      -2.785   7.082  14.415  1.00  0.00     0.007 C 
ENDBRANCH   1   2
BRANCH   1   4
HETATM    4  C4  UNL     1      -5.764   5.499  13.984  1.00  0.00     0.192 C 
BRANCH   4   5
HETATM    5  O1  UNL     1      -6.247   4.343  13.423  1.00  0.00    -0.388 OA
BRANCH   5   6
HETATM    6  C5  UNL     1      -5.855   3.170  14.060  1.00  0.00     0.187 C 
BRANCH   6   7
HETATM    7  C6  UNL     1      -6.158   3.194  15.531  1.00  0.00     0.151 C 
BRANCH   7   8
HETATM    8  N1  UNL     1      -5.541   2.062  16.173  1.00  0.00    -0.353 N 
BRANCH   8   9
HETATM    9  C7  UNL     1      -4.159   1.799  15.915  1.00  0.00     0.351 C 
HETATM   10  O2  UNL     1      -3.604   0.718  16.250  1.00  0.00    -0.284 OA
ENDBRANCH   8   9
BRANCH   8  11
HETATM   11  C8  UNL     1      -6.221   1.207  17.098  1.00  0.00     0.078 C 
HETATM   12  C9  UNL     1      -6.084   1.867  18.475  1.00  0.00     0.032 C 
HETATM   13  C10 UNL     1      -7.681   1.132  16.804  1.00  0.00     0.032 C 
ENDBRANCH   8  11
ENDBRANCH   7   8
ENDBRANCH   6   7
ENDBRANCH   5   6
ENDBRANCH   4   5
ENDBRANCH   1   4
BRANCH   1  14
HETATM   14  N2  UNL     1      -4.813   5.580  11.777  1.00  0.00    -0.413 N 
ATOM     15  H2  UNL     1      -5.689   5.655  11.260  1.00  0.00     0.153 HD
BRANCH  14  16
HETATM   16  C11 UNL     1      -3.662   4.952  11.224  1.00  0.00     0.147 C 
BRANCH  16  17
HETATM   17  C12 UNL     1      -3.846   3.495  10.930  1.00  0.00     0.153 C 
BRANCH  17  18
HETATM   18  O3  UNL     1      -3.779   3.290   9.550  1.00  0.00    -0.392 OA
ATOM     19  H3  UNL     1      -3.856   2.361   9.366  1.00  0.00     0.210 HD
ENDBRANCH  17  18
BRANCH  17  20
HETATM   20  C13 UNL     1      -2.820   2.634  11.621  1.00  0.00     0.162 C 
BRANCH  20  21
HETATM   21  N3  UNL     1      -3.077   1.218  11.484  1.00  0.00    -0.349 N 
HETATM   22  C14 UNL     1      -2.325   0.335  10.794  1.00  0.00     0.108 A 
HETATM   23  C15 UNL     1      -2.928  -0.890  10.929  1.00  0.00     0.106 A 
HETATM   24  N4  UNL     1      -4.024  -0.771  11.683  1.00  0.00    -0.361 N 
HETATM   25  C16 UNL     1      -4.108   0.545  12.025  1.00  0.00     0.182 A 
ATOM     26  H4  UNL     1      -4.667  -1.515  11.950  1.00  0.00     0.166 HD
ENDBRANCH  20  21
ENDBRANCH  17  20
ENDBRANCH  16  17
ENDBRANCH  14  16
ENDBRANCH   1  14
TORSDOF 14
ENDMDL
MODEL 2
REMARK VINA RESULT: -6.176913211      2.047      2.386
REMARK  14 active torsions:
REMARK  status: ('A' for Active; 'I' for Inactive)
REMARK    1  A    between atoms: C2_2  and  C3_3 
REMARK    2  A    between atoms: C3_3  and  C4_4 
REMARK    3  A    between atoms: C3_3  and  N2_14 
REMARK    4  A    between atoms: C4_4  and  O1_5 
REMARK    5  A    between atoms: O1_5  and  C5_6 
REMARK    6  A    between atoms: C5_6  and  C6_7 
REMARK    7  A    between atoms: C6_7  and  N1_8 
REMARK    8  A    between atoms: N1_8  and  C7_9 
REMARK    9  A    between atoms: N1_8  and  C8_11 
REMARK   10  A    between atoms: N2_14  and  C11_16 
REMARK   11  A    between atoms: C11_16  and  C12_17 
REMARK   12  A    between atoms: C12_17  and  O3_18 
REMARK   13  A    between atoms: C12_17  and  C13_20 
REMARK   14  A    between atoms: C13_20  and  N3_21 
ROOT
HETATM    1  C3  UNL     1      -1.364   4.795  12.541  1.00  0.00     0.100 C 
ENDROOT
BRANCH   1   2
HETATM    2  C2  UNL     1      -0.674   6.124  12.444  1.00  0.00     0.022 C 
HETATM    3  C1  UNL     1      -1.227   7.173  13.334  1.00  0.00     0.007 C 
ENDBRANCH   1   2
BRANCH   1   4
HETATM    4  C4  UNL     1      -2.047   4.648  13.912  1.00  0.00     0.192 C 
BRANCH   4   5
HETATM    5  O1  UNL     1      -2.950   3.616  13.870  1.00  0.00    -0.388 OA
BRANCH   5   6
HETATM    6  C5  UNL     1      -3.783   3.516  14.980  1.00  0.00     0.187 C 
BRANCH   6   7
HETATM    7  C6  UNL     1      -5.101   2.878  14.645  1.00  0.00     0.151 C 
BRANCH   7   8
HETATM    8  N1  UNL     1      -5.393   1.837  15.597  1.00  0.00    -0.353 N 
BRANCH   8   9
HETATM    9  C7  UNL     1      -4.488   0.734  15.705  1.00  0.00     0.351 C 
HETATM   10  O2  UNL     1      -4.712  -0.377  15.155  1.00  0.00    -0.284 OA
ENDBRANCH   8   9
BRANCH   8  11
HETATM   11  C8  UNL     1      -6.518   1.865  16.482  1.00  0.00     0.078 C 
HETATM   12  C9  UNL     1      -6.017   1.337  17.832  1.00  0.00     0.032 C 
HETATM   13  C10 UNL     1      -6.995   3.259  16.718  1.00  0.00     0.032 C 
ENDBRANCH   8  11
ENDBRANCH   7   8
ENDBRANCH   6   7
ENDBRANCH   5   6
ENDBRANCH   4   5
ENDBRANCH   1   4
BRANCH   1  14
HETATM   14  N2  UNL     1      -0.547   3.670  12.307  1.00  0.00    -0.413 N 
ATOM     15  H2  UNL     1      -0.144   3.126  13.071  1.00  0.00     0.153 HD
BRANCH  14  16
HETATM   16  C11 UNL     1      -0.319   3.340  10.942  1.00  0.00     0.147 C 
BRANCH  16  17
HETATM   17  C12 UNL     1      -1.465   2.633  10.288  1.00  0.00     0.153 C 
BRANCH  17  18
HETATM   18  O3  UNL     1      -1.558   3.037   8.955  1.00  0.00    -0.392 OA
ATOM     19  H3  UNL     1      -0.951   2.529   8.428  1.00  0.00     0.210 HD
ENDBRANCH  17  18
BRANCH  17  20
HETATM   20  C13 UNL     1      -1.330   1.133  10.355  1.00  0.00     0.162 C 
BRANCH  20  21
HETATM   21  N3  UNL     1      -2.470   0.482  10.960  1.00  0.00    -0.349 N 
HETATM   22  C14 UNL     1      -2.835  -0.806  10.792  1.00  0.00     0.108 A 
HETATM   23  C15 UNL     1      -3.965  -1.000  11.544  1.00  0.00     0.106 A 
HETATM   24  N4  UNL     1      -4.292   0.137  12.164  1.00  0.00    -0.361 N 
HETATM   25  C16 UNL     1      -3.356   1.054  11.795  1.00  0.00     0.182 A 
ATOM     26  H4  UNL     1      -5.084   0.288  12.788  1.00  0.00     0.166 HD
ENDBRANCH  20  21
ENDBRANCH  17  20
ENDBRANCH  16  17
ENDBRANCH  14  16
ENDBRANCH   1  14
TORSDOF 14
ENDMDL
MODEL 3
REMARK VINA RESULT: -6.124070051      2.352      4.523
REMARK  14 active torsions:
REMARK  status: ('A' for Active; 'I' for Inactive)
REMARK    1  A    between atoms: C2_2  and  C3_3 
REMARK    2  A    between atoms: C3_3  and  C4_4 
REMARK    3  A    between atoms: C3_3  and  N2_14 
REMARK    4  A    between atoms: C4_4  and  O1_5 
REMARK    5  A    between atoms: O1_5  and  C5_6 
REMARK    6  A    between atoms: C5_6  and  C6_7 
REMARK    7  A    between atoms: C6_7  and  N1_8 
REMARK    8  A    between atoms: N1_8  and  C7_9 
REMARK    9  A    between atoms: N1_8  and  C8_11 
REMARK   10  A    between atoms: N2_14  and  C11_16 
REMARK   11  A    between atoms: C11_16  and  C12_17 
REMARK   12  A    between atoms: C12_17  and  O3_18 
REMARK   13  A    between atoms: C12_17  and  C13_20 
REMARK   14  A    between atoms: C13_20  and  N3_21 
ROOT
HETATM    1  C3  UNL     1      -3.537   0.384  11.401  1.00  0.00     0.100 C 
ENDROOT
BRANCH   1   2
HETATM    2  C2  UNL     1      -3.957  -1.051  11.526  1.00  0.00     0.022 C 
HETATM    3  C1  UNL     1      -2.886  -2.034  11.236  1.00  0.00     0.007 C 
ENDBRANCH   1   2
BRANCH   1   4
HETATM    4  C4  UNL     1      -4.752   1.267  11.062  1.00  0.00     0.192 C 
BRANCH   4   5
HETATM    5  O1  UNL     1      -5.423   1.591  12.214  1.00  0.00    -0.388 OA
BRANCH   5   6
HETATM    6  C5  UNL     1      -4.651   2.212  13.191  1.00  0.00     0.187 C 
BRANCH   6   7
HETATM    7  C6  UNL     1      -5.488   2.767  14.308  1.00  0.00     0.151 C 
BRANCH   7   8
HETATM    8  N1  UNL     1      -5.370   1.925  15.470  1.00  0.00    -0.353 N 
BRANCH   8   9
HETATM    9  C7  UNL     1      -4.447   0.832  15.432  1.00  0.00     0.351 C 
HETATM   10  O2  UNL     1      -3.526   0.699  16.281  1.00  0.00    -0.284 OA
ENDBRANCH   8   9
BRANCH   8  11
HETATM   11  C8  UNL     1      -6.090   2.147  16.686  1.00  0.00     0.078 C 
HETATM   12  C9  UNL     1      -6.908   3.427  16.476  1.00  0.00     0.032 C 
HETATM   13  C10 UNL     1      -7.069   1.053  16.951  1.00  0.00     0.032 C 
ENDBRANCH   8  11
ENDBRANCH   7   8
ENDBRANCH   6   7
ENDBRANCH   5   6
ENDBRANCH   4   5
ENDBRANCH   1   4
BRANCH   1  14
HETATM   14  N2  UNL     1      -2.508   0.635  10.470  1.00  0.00    -0.413 N 
ATOM     15  H2  UNL     1      -2.622   0.448   9.474  1.00  0.00     0.153 HD
BRANCH  14  16
HETATM   16  C11 UNL     1      -1.300   1.164  11.006  1.00  0.00     0.147 C 
BRANCH  16  17
HETATM   17  C12 UNL     1      -1.269   2.660  11.070  1.00  0.00     0.153 C 
BRANCH  17  18
HETATM   18  O3  UNL     1      -0.474   3.060  12.147  1.00  0.00    -0.392 OA
ATOM     19  H3  UNL     1      -0.264   3.983  12.057  1.00  0.00     0.210 HD
ENDBRANCH  17  18
BRANCH  17  20
HETATM   20  C13 UNL     1      -0.748   3.280   9.798  1.00  0.00     0.162 C 
BRANCH  20  21
HETATM   21  N3  UNL     1      -1.780   3.916   9.009  1.00  0.00    -0.349 N 
HETATM   22  C14 UNL     1      -1.653   4.362   7.742  1.00  0.00     0.108 A 
HETATM   23  C15 UNL     1      -2.867   4.891   7.384  1.00  0.00     0.106 A 
HETATM   24  N4  UNL     1      -3.725   4.774   8.401  1.00  0.00    -0.361 N 
HETATM   25  C16 UNL     1      -3.040   4.166   9.408  1.00  0.00     0.182 A 
ATOM     26  H4  UNL     1      -4.697   5.080   8.419  1.00  0.00     0.166 HD
ENDBRANCH  20  21
ENDBRANCH  17  20
ENDBRANCH  16  17
ENDBRANCH  14  16
ENDBRANCH   1  14
TORSDOF 14
ENDMDL
MODEL 4
REMARK VINA RESULT: -6.086270168      1.891      5.405
REMARK  14 active torsions:
REMARK  status: ('A' for Active; 'I' for Inactive)
REMARK    1  A    between atoms: C2_2  and  C3_3 
REMARK    2  A    between atoms: C3_3  and  C4_4 
REMARK    3  A    between atoms: C3_3  and  N2_14 
REMARK    4  A    between atoms: C4_4  and  O1_5 
REMARK    5  A    between atoms: O1_5  and  C5_6 
REMARK    6  A    between atoms: C5_6  and  C6_7 
REMARK    7  A    between atoms: C6_7  and  N1_8 
REMARK    8  A    between atoms: N1_8  and  C7_9 
REMARK    9  A    between atoms: N1_8  and  C8_11 
REMARK   10  A    between atoms: N2_14  and  C11_16 
REMARK   11  A    between atoms: C11_16  and  C12_17 
REMARK   12  A    between atoms: C12_17  and  O3_18 
REMARK   13  A    between atoms: C12_17  and  C13_20 
REMARK   14  A    between atoms: C13_20  and  N3_21 
ROOT
HETATM    1  C3  UNL     1      -5.970   2.692  15.573  1.00  0.00     0.100 C 
ENDROOT
BRANCH   1   2
HETATM    2  C2  UNL     1      -6.885   2.498  16.748  1.00  0.00     0.022 C 
HETATM    3  C1  UNL     1      -7.107   1.082  17.128  1.00  0.00     0.007 C 
ENDBRANCH   1   2
BRANCH   1   4
HETATM    4  C4  UNL     1      -4.670   1.894  15.773  1.00  0.00     0.192 C 
BRANCH   4   5
HETATM    5  O1  UNL     1      -3.878   2.015  14.659  1.00  0.00    -0.388 OA
BRANCH   5   6
HETATM    6  C5  UNL     1      -4.387   1.426  13.506  1.00  0.00     0.187 C 
BRANCH   6   7
HETATM    7  C6  UNL     1      -3.693   1.912  12.266  1.00  0.00     0.151 C 
BRANCH   7   8
HETATM    8  N1  UNL     1      -3.129   0.794  11.555  1.00  0.00    -0.353 N 
BRANCH   8   9
HETATM    9  C7  UNL     1      -1.801   0.912  11.037  1.00  0.00     0.351 C 
HETATM   10  O2  UNL     1      -0.958   1.714  11.520  1.00  0.00    -0.284 OA
ENDBRANCH   8   9
BRANCH   8  11
HETATM   11  C8  UNL     1      -3.805  -0.455  11.376  1.00  0.00     0.078 C 
HETATM   12  C9  UNL     1      -4.714  -0.282  10.154  1.00  0.00     0.032 C 
HETATM   13  C10 UNL     1      -2.851  -1.553  11.049  1.00  0.00     0.032 C 
ENDBRANCH   8  11
ENDBRANCH   7   8
ENDBRANCH   6   7
ENDBRANCH   5   6
ENDBRANCH   4   5
ENDBRANCH   1   4
BRANCH   1  14
HETATM   14  N2  UNL     1      -5.650   4.032  15.271  1.00  0.00    -0.413 N 
ATOM     15  H2  UNL     1      -4.993   4.571  15.835  1.00  0.00     0.153 HD
BRANCH  14  16
HETATM   16  C11 UNL     1      -6.298   4.585  14.132  1.00  0.00     0.147 C 
BRANCH  16  17
HETATM   17  C12 UNL     1      -5.363   5.214  13.146  1.00  0.00     0.153 C 
BRANCH  17  18
HETATM   18  O3  UNL     1      -6.060   6.149  12.378  1.00  0.00    -0.392 OA
ATOM     19  H3  UNL     1      -6.442   6.805  12.951  1.00  0.00     0.210 HD
ENDBRANCH  17  18
BRANCH  17  20
HETATM   20  C13 UNL     1      -4.187   5.881  13.813  1.00  0.00     0.162 C 
BRANCH  20  21
HETATM   21  N3  UNL     1      -2.910   5.398  13.337  1.00  0.00    -0.349 N 
HETATM   22  C14 UNL     1      -2.417   5.546  12.090  1.00  0.00     0.108 A 
HETATM   23  C15 UNL     1      -1.186   4.942  12.076  1.00  0.00     0.106 A 
HETATM   24  N4  UNL     1      -0.921   4.435  13.283  1.00  0.00    -0.361 N 
HETATM   25  C16 UNL     1      -1.999   4.724  14.062  1.00  0.00     0.182 A 
ATOM     26  H4  UNL     1      -0.079   3.932  13.564  1.00  0.00     0.166 HD
ENDBRANCH  20  21
ENDBRANCH  17  20
ENDBRANCH  16  17
ENDBRANCH  14  16
ENDBRANCH   1  14
TORSDOF 14
ENDMDL
MODEL 5
REMARK VINA RESULT: -6.017498105      1.828      5.179
REMARK  14 active torsions:
REMARK  status: ('A' for Active; 'I' for Inactive)
REMARK    1  A    between atoms: C2_2  and  C3_3 
REMARK    2  A    between atoms: C3_3  and  C4_4 
REMARK    3  A    between atoms: C3_3  and  N2_14 
REMARK    4  A    between atoms: C4_4  and  O1_5 
REMARK    5  A    between atoms: O1_5  and  C5_6 
REMARK    6  A    between atoms: C5_6  and  C6_7 
REMARK    7  A    between atoms: C6_7  and  N1_8 
REMARK    8  A    between atoms: N1_8  and  C7_9 
REMARK    9  A    between atoms: N1_8  and  C8_11 
REMARK   10  A    between atoms: N2_14  and  C11_16 
REMARK   11  A    between atoms: C11_16  and  C12_17 
REMARK   12  A    between atoms: C12_17  and  O3_18 
REMARK   13  A    between atoms: C12_17  and  C13_20 
REMARK   14  A    between atoms: C13_20  and  N3_21 
ROOT
HETATM    1  C3  UNL     1      -2.020   5.417  14.123  1.00  0.00     0.100 C 
ENDROOT
BRANCH   1   2
HETATM    2  C2  UNL     1      -2.428   6.834  13.844  1.00  0.00     0.022 C 
HETATM    3  C1  UNL     1      -1.880   7.832  14.794  1.00  0.00     0.007 C 
ENDBRANCH   1   2
BRANCH   1   4
HETATM    4  C4  UNL     1      -1.358   4.800  12.878  1.00  0.00     0.192 C 
BRANCH   4   5
HETATM    5  O1  UNL     1      -1.831   3.526  12.687  1.00  0.00    -0.388 OA
BRANCH   5   6
HETATM    6  C5  UNL     1      -2.153   3.207  11.372  1.00  0.00     0.187 C 
BRANCH   6   7
HETATM    7  C6  UNL     1      -2.156   1.724  11.131  1.00  0.00     0.151 C 
BRANCH   7   8
HETATM    8  N1  UNL     1      -3.512   1.239  11.104  1.00  0.00    -0.353 N 
BRANCH   8   9
HETATM    9  C7  UNL     1      -4.566   2.168  10.836  1.00  0.00     0.351 C 
HETATM   10  O2  UNL     1      -5.752   1.967  11.209  1.00  0.00    -0.284 OA
ENDBRANCH   8   9
BRANCH   8  11
HETATM   11  C8  UNL     1      -3.864  -0.137  11.281  1.00  0.00     0.078 C 
HETATM   12  C9  UNL     1      -2.658  -0.956  10.807  1.00  0.00     0.032 C 
HETATM   13  C10 UNL     1      -4.068  -0.469  12.721  1.00  0.00     0.032 C 
ENDBRANCH   8  11
ENDBRANCH   7   8
ENDBRANCH   6   7
ENDBRANCH   5   6
ENDBRANCH   4   5
ENDBRANCH   1   4
BRANCH   1  14
HETATM   14  N2  UNL     1      -3.052   4.567  14.569  1.00  0.00    -0.413 N 
ATOM     15  H2  UNL     1      -2.864   3.631  14.930  1.00  0.00     0.153 HD
BRANCH  14  16
HETATM   16  C11 UNL     1      -4.371   5.093  14.484  1.00  0.00     0.147 C 
BRANCH  16  17
HETATM   17  C12 UNL     1      -5.444   4.048  14.490  1.00  0.00     0.153 C 
BRANCH  17  18
HETATM   18  O3  UNL     1      -6.190   4.143  13.314  1.00  0.00    -0.392 OA
ATOM     19  H3  UNL     1      -6.037   3.371  12.781  1.00  0.00     0.210 HD
ENDBRANCH  17  18
BRANCH  17  20
HETATM   20  C13 UNL     1      -4.888   2.653  14.627  1.00  0.00     0.162 C 
BRANCH  20  21
HETATM   21  N3  UNL     1      -5.474   1.908  15.719  1.00  0.00    -0.349 N 
HETATM   22  C14 UNL     1      -6.574   2.254  16.420  1.00  0.00     0.108 A 
HETATM   23  C15 UNL     1      -6.774   1.271  17.355  1.00  0.00     0.106 A 
HETATM   24  N4  UNL     1      -5.825   0.339  17.237  1.00  0.00    -0.361 N 
HETATM   25  C16 UNL     1      -5.020   0.744  16.216  1.00  0.00     0.182 A 
ATOM     26  H4  UNL     1      -5.723  -0.505  17.799  1.00  0.00     0.166 HD
ENDBRANCH  20  21
ENDBRANCH  17  20
ENDBRANCH  16  17
ENDBRANCH  14  16
ENDBRANCH   1  14
TORSDOF 14
ENDMDL
