MODEL 1
REMARK VINA RESULT: -6.451875676      0.000      0.000
REMARK  14 active torsions:
REMARK  status: ('A' for Active; 'I' for Inactive)
REMARK    1  A    between atoms: C2_2  and  C3_3 
REMARK    2  A    between atoms: C3_3  and  C4_4 
REMARK    3  A    between atoms: C4_4  and  N1_5 
REMARK    4  A    between atoms: C5_7  and  N2_8 
REMARK    5  A    between atoms: N2_8  and  C6_9 
REMARK    6  A    between atoms: N2_8  and  C13_26 
REMARK    7  A    between atoms: C6_9  and  C7_10 
REMARK    8  A    between atoms: C7_10  and  O1_11 
REMARK    9  A    between atoms: C7_10  and  C8_13 
REMARK   10  A    between atoms: C8_13  and  N3_14 
REMARK   11  A    between atoms: N3_14  and  C9_17 
REMARK   12  A    between atoms: C9_17  and  C10_18 
REMARK   13  A    between atoms: C10_18  and  N4_19 
REMARK   14  A    between atoms: C13_26  and  C14_27 
ROOT
HETATM    1  C7  UNL     1      -4.704   1.439  12.210  1.00  0.00     0.161 C 
ENDROOT
BRANCH   1   2
HETATM    2  C6  UNL     1      -4.209   2.342  13.260  1.00  0.00     0.157 C 
BRANCH   2   3
HETATM    3  N2  UNL     1      -5.078   2.593  14.369  1.00  0.00    -0.374 N 
BRANCH   3   4
HETATM    4  C5  UNL     1      -5.775   3.819  14.368  1.00  0.00     0.173 C 
HETATM    5  N1  UNL     1      -5.681   4.612  13.369  1.00  0.00    -0.386 N 
ATOM      6  H1  UNL     1      -5.097   4.342  12.577  1.00  0.00     0.160 HD
BRANCH   5   7
HETATM    7  C4  UNL     1      -6.374   5.876  13.328  1.00  0.00     0.120 C 
BRANCH   7   8
HETATM    8  C3  UNL     1      -6.035   6.755  12.181  1.00  0.00     0.019 C 
BRANCH   8   9
HETATM    9  C2  UNL     1      -7.132   7.729  11.821  1.00  0.00    -0.003 C 
HETATM   10  C1  UNL     1      -6.479   8.869  11.022  1.00  0.00     0.005 C 
ENDBRANCH   8   9
ENDBRANCH   7   8
ENDBRANCH   5   7
ENDBRANCH   3   4
BRANCH   3  11
HETATM   11  C13 UNL     1      -5.269   1.717  15.493  1.00  0.00     0.128 C 
BRANCH  11  12
HETATM   12  C14 UNL     1      -6.352   2.141  16.436  1.00  0.00     0.004 A 
HETATM   13  C15 UNL     1      -6.178   1.619  17.853  1.00  0.00     0.007 A 
HETATM   14  C16 UNL     1      -7.282   1.065  16.997  1.00  0.00     0.007 A 
ENDBRANCH  11  12
ENDBRANCH   3  11
ENDBRANCH   2   3
ENDBRANCH   1   2
BRANCH   1  15
HETATM   15  O1  UNL     1      -5.749   1.892  11.428  1.00  0.00    -0.392 OA
ATOM     16  H1  UNL     1      -6.383   1.249  11.135  1.00  0.00     0.210 HD
ENDBRANCH   1  15
BRANCH   1  17
HETATM   17  C8  UNL     1      -3.597   1.099  11.233  1.00  0.00     0.265 C 
BRANCH  17  18
HETATM   18  N3  UNL     1      -2.313   1.443  11.763  1.00  0.00    -0.071 N 
ATOM     19  H32 UNL     1      -2.404   2.020  12.599  1.00  0.00     0.277 HD
ATOM     20  H31 UNL     1      -1.855   0.629  12.173  1.00  0.00     0.277 HD
BRANCH  18  21
HETATM   21  C9  UNL     1      -1.458   2.081  10.783  1.00  0.00     0.254 C 
BRANCH  21  22
HETATM   22  C10 UNL     1      -0.553   3.107  11.386  1.00  0.00     0.177 C 
BRANCH  22  23
HETATM   23  N4  UNL     1      -1.215   4.118  12.159  1.00  0.00    -0.285 N 
HETATM   24  C11 UNL     1      -2.059   5.105  11.730  1.00  0.00     0.201 A 
HETATM   25  N5  UNL     1      -2.436   5.806  12.805  1.00  0.00    -0.346 N 
HETATM   26  C12 UNL     1      -1.842   5.266  13.875  1.00  0.00     0.198 A 
ATOM     27  H5  UNL     1      -3.065   6.609  12.809  1.00  0.00     0.167 HD
HETATM   28  N6  UNL     1      -1.082   4.219  13.483  1.00  0.00    -0.293 N 
ATOM     29  H6  UNL     1      -0.516   3.620  14.084  1.00  0.00     0.188 HD
ENDBRANCH  22  23
ENDBRANCH  21  22
ENDBRANCH  18  21
ENDBRANCH  17  18
ENDBRANCH   1  17
TORSDOF 14
ENDMDL
MODEL 2
REMARK VINA RESULT: -6.212784625      2.342      3.041
REMARK  14 active torsions:
REMARK  status: ('A' for Active; 'I' for Inactive)
REMARK    1  A    between atoms: C2_2  and  C3_3 
REMARK    2  A    between atoms: C3_3  and  C4_4 
REMARK    3  A    between atoms: C4_4  and  N1_5 
REMARK    4  A    between atoms: C5_7  and  N2_8 
REMARK    5  A    between atoms: N2_8  and  C6_9 
REMARK    6  A    between atoms: N2_8  and  C13_26 
REMARK    7  A    between atoms: C6_9  and  C7_10 
REMARK    8  A    between atoms: C7_10  and  O1_11 
REMARK    9  A    between atoms: C7_10  and  C8_13 
REMARK   10  A    between atoms: C8_13  and  N3_14 
REMARK   11  A    between atoms: N3_14  and  C9_17 
REMARK   12  A    between atoms: C9_17  and  C10_18 
REMARK   13  A    between atoms: C10_18  and  N4_19 
REMARK   14  A    between atoms: C13_26  and  C14_27 
ROOT
HETATM    1  C7  UNL     1      -5.043   2.247  12.262  1.00  0.00     0.161 C 
ENDROOT
BRANCH   1   2
HETATM    2  C6  UNL     1      -4.413   1.775  13.505  1.00  0.00     0.157 C 
BRANCH   2   3
HETATM    3  N2  UNL     1      -4.618   2.564  14.681  1.00  0.00    -0.374 N 
BRANCH   3   4
HETATM    4  C5  UNL     1      -3.552   3.395  15.083  1.00  0.00     0.173 C 
HETATM    5  N1  UNL     1      -2.892   4.061  14.214  1.00  0.00    -0.386 N 
ATOM      6  H1  UNL     1      -3.149   3.982  13.231  1.00  0.00     0.160 HD
BRANCH   5   7
HETATM    7  C4  UNL     1      -1.794   4.921  14.583  1.00  0.00     0.120 C 
BRANCH   7   8
HETATM    8  C3  UNL     1      -1.784   6.258  13.939  1.00  0.00     0.019 C 
BRANCH   8   9
HETATM    9  C2  UNL     1      -2.789   7.220  14.527  1.00  0.00    -0.003 C 
HETATM   10  C1  UNL     1      -1.993   8.322  15.246  1.00  0.00     0.005 C 
ENDBRANCH   8   9
ENDBRANCH   7   8
ENDBRANCH   5   7
ENDBRANCH   3   4
BRANCH   3  11
HETATM   11  C13 UNL     1      -5.801   2.549  15.498  1.00  0.00     0.128 C 
BRANCH  11  12
HETATM   12  C14 UNL     1      -5.902   1.378  16.427  1.00  0.00     0.004 A 
HETATM   13  C15 UNL     1      -7.291   1.166  17.005  1.00  0.00     0.007 A 
HETATM   14  C16 UNL     1      -6.188   1.651  17.904  1.00  0.00     0.007 A 
ENDBRANCH  11  12
ENDBRANCH   3  11
ENDBRANCH   2   3
ENDBRANCH   1   2
BRANCH   1  15
HETATM   15  O1  UNL     1      -4.504   3.373  11.669  1.00  0.00    -0.392 OA
ATOM     16  H1  UNL     1      -5.080   3.893  11.123  1.00  0.00     0.210 HD
ENDBRANCH   1  15
BRANCH   1  17
HETATM   17  C8  UNL     1      -4.988   1.173  11.195  1.00  0.00     0.265 C 
BRANCH  17  18
HETATM   18  N3  UNL     1      -4.087   0.122  11.560  1.00  0.00    -0.071 N 
ATOM     19  H32 UNL     1      -3.667   0.301  12.472  1.00  0.00     0.277 HD
ATOM     20  H31 UNL     1      -4.593  -0.736  11.777  1.00  0.00     0.277 HD
BRANCH  18  21
HETATM   21  C9  UNL     1      -3.069  -0.114  10.557  1.00  0.00     0.254 C 
BRANCH  21  22
HETATM   22  C10 UNL     1      -1.711   0.333  10.996  1.00  0.00     0.177 C 
BRANCH  22  23
HETATM   23  N4  UNL     1      -1.413   1.712  10.732  1.00  0.00    -0.285 N 
HETATM   24  C11 UNL     1      -1.228   2.330   9.527  1.00  0.00     0.201 A 
HETATM   25  N5  UNL     1      -0.978   3.621   9.772  1.00  0.00    -0.346 N 
HETATM   26  C12 UNL     1      -1.008   3.799  11.097  1.00  0.00     0.198 A 
ATOM     27  H5  UNL     1      -0.798   4.341   9.072  1.00  0.00     0.167 HD
HETATM   28  N6  UNL     1      -1.276   2.620  11.701  1.00  0.00    -0.293 N 
ATOM     29  H6  UNL     1      -1.359   2.455  12.704  1.00  0.00     0.188 HD
ENDBRANCH  22  23
ENDBRANCH  21  22
ENDBRANCH  18  21
ENDBRANCH  17  18
ENDBRANCH   1  17
TORSDOF 14
ENDMDL
MODEL 3
REMARK VINA RESULT: -6.172094915      1.466      1.945
REMARK  14 active torsions:
REMARK  status: ('A' for Active; 'I' for Inactive)
REMARK    1  A    between atoms: C2_2  and  C3_3 
REMARK    2  A    between atoms: C3_3  and  C4_4 
REMARK    3  A    between atoms: C4_4  and  N1_5 
REMARK    4  A    between atoms: C5_7  and  N2_8 
REMARK    5  A    between atoms: N2_8  and  C6_9 
REMARK    6  A    between atoms: N2_8  and  C13_26 
REMARK    7  A    between atoms: C6_9  and  C7_10 
REMARK    8  A    between atoms: C7_10  and  O1_11 
REMARK    9  A    between atoms: C7_10  and  C8_13 
REMARK   10  A    between atoms: C8_13  and  N3_14 
REMARK   11  A    between atoms: N3_14  and  C9_17 
REMARK   12  A    between atoms: C9_17  and  C10_18 
REMARK   13  A    between atoms: C10_18  and  N4_19 
REMARK   14  A    between atoms: C13_26  and  C14_27 
ROOT
HETATM    1  C7  UNL     1      -4.782   1.410  12.130  1.00  0.00     0.161 C 
ENDROOT
BRANCH   1   2
HETATM    2  C6  UNL     1      -4.220   2.218  13.222  1.00  0.00     0.157 C 
BRANCH   2   3
HETATM    3  N2  UNL     1      -5.074   2.495  14.336  1.00  0.00    -0.374 N 
BRANCH   3   4
HETATM    4  C5  UNL     1      -5.834   3.682  14.277  1.00  0.00     0.173 C 
HETATM    5  N1  UNL     1      -5.520   4.607  13.452  1.00  0.00    -0.386 N 
ATOM      6  H1  UNL     1      -4.716   4.470  12.839  1.00  0.00     0.160 HD
BRANCH   5   7
HETATM    7  C4  UNL     1      -6.268   5.837  13.361  1.00  0.00     0.120 C 
BRANCH   7   8
HETATM    8  C3  UNL     1      -5.956   6.690  12.187  1.00  0.00     0.019 C 
BRANCH   8   9
HETATM    9  C2  UNL     1      -7.062   7.654  11.829  1.00  0.00    -0.003 C 
HETATM   10  C1  UNL     1      -6.424   8.791  11.014  1.00  0.00     0.005 C 
ENDBRANCH   8   9
ENDBRANCH   7   8
ENDBRANCH   5   7
ENDBRANCH   3   4
BRANCH   3  11
HETATM   11  C13 UNL     1      -5.192   1.684  15.518  1.00  0.00     0.128 C 
BRANCH  11  12
HETATM   12  C14 UNL     1      -6.289   2.097  16.449  1.00  0.00     0.004 A 
HETATM   13  C15 UNL     1      -6.125   1.576  17.868  1.00  0.00     0.007 A 
HETATM   14  C16 UNL     1      -7.215   1.012  17.000  1.00  0.00     0.007 A 
ENDBRANCH  11  12
ENDBRANCH   3  11
ENDBRANCH   2   3
ENDBRANCH   1   2
BRANCH   1  15
HETATM   15  O1  UNL     1      -5.770   1.990  11.358  1.00  0.00    -0.392 OA
ATOM     16  H1  UNL     1      -5.590   2.099  10.432  1.00  0.00     0.210 HD
ENDBRANCH   1  15
BRANCH   1  17
HETATM   17  C8  UNL     1      -3.698   1.008  11.151  1.00  0.00     0.265 C 
BRANCH  17  18
HETATM   18  N3  UNL     1      -2.403   1.393  11.623  1.00  0.00    -0.071 N 
ATOM     19  H32 UNL     1      -2.393   2.372  11.905  1.00  0.00     0.277 HD
ATOM     20  H31 UNL     1      -2.197   0.959  12.523  1.00  0.00     0.277 HD
BRANCH  18  21
HETATM   21  C9  UNL     1      -1.354   1.117  10.662  1.00  0.00     0.254 C 
BRANCH  21  22
HETATM   22  C10 UNL     1      -1.042   2.294   9.795  1.00  0.00     0.177 C 
BRANCH  22  23
HETATM   23  N4  UNL     1       0.055   3.103  10.244  1.00  0.00    -0.285 N 
HETATM   24  C11 UNL     1       0.183   3.791  11.418  1.00  0.00     0.201 A 
HETATM   25  N5  UNL     1       1.376   4.396  11.401  1.00  0.00    -0.346 N 
HETATM   26  C12 UNL     1       1.974   4.089  10.244  1.00  0.00     0.198 A 
ATOM     27  H5  UNL     1       1.762   4.986  12.139  1.00  0.00     0.167 HD
HETATM   28  N6  UNL     1       1.161   3.287   9.520  1.00  0.00    -0.293 N 
ATOM     29  H6  UNL     1       1.356   2.898   8.598  1.00  0.00     0.188 HD
ENDBRANCH  22  23
ENDBRANCH  21  22
ENDBRANCH  18  21
ENDBRANCH  17  18
ENDBRANCH   1  17
TORSDOF 14
ENDMDL
MODEL 4
REMARK VINA RESULT: -6.078916648      2.308      3.074
REMARK  14 active torsions:
REMARK  status: ('A' for Active; 'I' for Inactive)
REMARK    1  A    between atoms: C2_2  and  C3_3 
REMARK    2  A    between atoms: C3_3  and  C4_4 
REMARK    3  A    between atoms: C4_4  and  N1_5 
REMARK    4  A    between atoms: C5_7  and  N2_8 
REMARK    5  A    between atoms: N2_8  and  C6_9 
REMARK    6  A    between atoms: N2_8  and  C13_26 
REMARK    7  A    between atoms: C6_9  and  C7_10 
REMARK    8  A    between atoms: C7_10  and  O1_11 
REMARK    9  A    between atoms: C7_10  and  C8_13 
REMARK   10  A    between atoms: C8_13  and  N3_14 
REMARK   11  A    between atoms: N3_14  and  C9_17 
REMARK   12  A    between atoms: C9_17  and  C10_18 
REMARK   13  A    between atoms: C10_18  and  N4_19 
REMARK   14  A    between atoms: C13_26  and  C14_27 
ROOT
HETATM    1  C7  UNL     1      -4.858   1.824  11.974  1.00  0.00     0.161 C 
ENDROOT
BRANCH   1   2
HETATM    2  C6  UNL     1      -5.145   2.836  13.002  1.00  0.00     0.157 C 
BRANCH   2   3
HETATM    3  N2  UNL     1      -4.606   2.612  14.307  1.00  0.00    -0.374 N 
BRANCH   3   4
HETATM    4  C5  UNL     1      -3.697   3.574  14.795  1.00  0.00     0.173 C 
HETATM    5  N1  UNL     1      -2.707   3.946  14.076  1.00  0.00    -0.386 N 
ATOM      6  H1  UNL     1      -2.589   3.539  13.149  1.00  0.00     0.160 HD
BRANCH   5   7
HETATM    7  C4  UNL     1      -1.753   4.925  14.538  1.00  0.00     0.120 C 
BRANCH   7   8
HETATM    8  C3  UNL     1      -1.846   6.261  13.898  1.00  0.00     0.019 C 
BRANCH   8   9
HETATM    9  C2  UNL     1      -2.746   7.223  14.636  1.00  0.00    -0.003 C 
HETATM   10  C1  UNL     1      -1.856   8.366  15.153  1.00  0.00     0.005 C 
ENDBRANCH   8   9
ENDBRANCH   7   8
ENDBRANCH   5   7
ENDBRANCH   3   4
BRANCH   3  11
HETATM   11  C13 UNL     1      -4.886   1.474  15.141  1.00  0.00     0.128 C 
BRANCH  11  12
HETATM   12  C14 UNL     1      -5.462   1.812  16.482  1.00  0.00     0.004 A 
HETATM   13  C15 UNL     1      -5.877   0.600  17.300  1.00  0.00     0.007 A 
HETATM   14  C16 UNL     1      -6.937   1.502  16.733  1.00  0.00     0.007 A 
ENDBRANCH  11  12
ENDBRANCH   3  11
ENDBRANCH   2   3
ENDBRANCH   1   2
BRANCH   1  15
HETATM   15  O1  UNL     1      -5.774   1.686  10.949  1.00  0.00    -0.392 OA
ATOM     16  H1  UNL     1      -6.009   2.470  10.468  1.00  0.00     0.210 HD
ENDBRANCH   1  15
BRANCH   1  17
HETATM   17  C8  UNL     1      -3.539   2.118  11.289  1.00  0.00     0.265 C 
BRANCH  17  18
HETATM   18  N3  UNL     1      -2.502   1.252  11.764  1.00  0.00    -0.071 N 
ATOM     19  H32 UNL     1      -2.142   1.572  12.662  1.00  0.00     0.277 HD
ATOM     20  H31 UNL     1      -2.881   0.349  12.050  1.00  0.00     0.277 HD
BRANCH  18  21
HETATM   21  C9  UNL     1      -1.431   1.085  10.803  1.00  0.00     0.254 C 
BRANCH  21  22
HETATM   22  C10 UNL     1      -1.235   2.290   9.941  1.00  0.00     0.177 C 
BRANCH  22  23
HETATM   23  N4  UNL     1      -0.012   3.005  10.168  1.00  0.00    -0.285 N 
HETATM   24  C11 UNL     1       0.945   3.369   9.262  1.00  0.00     0.201 A 
HETATM   25  N5  UNL     1       1.903   4.023   9.930  1.00  0.00    -0.346 N 
HETATM   26  C12 UNL     1       1.547   4.064  11.219  1.00  0.00     0.198 A 
ATOM     27  H5  UNL     1       2.752   4.420   9.528  1.00  0.00     0.167 HD
HETATM   28  N6  UNL     1       0.361   3.434  11.376  1.00  0.00    -0.293 N 
ATOM     29  H6  UNL     1      -0.151   3.312  12.249  1.00  0.00     0.188 HD
ENDBRANCH  22  23
ENDBRANCH  21  22
ENDBRANCH  18  21
ENDBRANCH  17  18
ENDBRANCH   1  17
TORSDOF 14
ENDMDL
MODEL 5
REMARK VINA RESULT: -6.066244314      2.140      4.736
REMARK  14 active torsions:
REMARK  status: ('A' for Active; 'I' for Inactive)
REMARK    1  A    between atoms: C2_2  and  C3_3 
REMARK    2  A    between atoms: C3_3  and  C4_4 
REMARK    3  A    between atoms: C4_4  and  N1_5 
REMARK    4  A    between atoms: C5_7  and  N2_8 
REMARK    5  A    between atoms: N2_8  and  C6_9 
REMARK    6  A    between atoms: N2_8  and  C13_26 
REMARK    7  A    between atoms: C6_9  and  C7_10 
REMARK    8  A    between atoms: C7_10  and  O1_11 
REMARK    9  A    between atoms: C7_10  and  C8_13 
REMARK   10  A    between atoms: C8_13  and  N3_14 
REMARK   11  A    between atoms: N3_14  and  C9_17 
REMARK   12  A    between atoms: C9_17  and  C10_18 
REMARK   13  A    between atoms: C10_18  and  N4_19 
REMARK   14  A    between atoms: C13_26  and  C14_27 
ROOT
HETATM    1  C7  UNL     1      -3.572   4.637  14.597  1.00  0.00     0.161 C 
ENDROOT
BRANCH   1   2
HETATM    2  C6  UNL     1      -4.710   3.716  14.457  1.00  0.00     0.157 C 
BRANCH   2   3
HETATM    3  N2  UNL     1      -4.465   2.331  14.717  1.00  0.00    -0.374 N 
BRANCH   3   4
HETATM    4  C5  UNL     1      -4.334   1.485  13.596  1.00  0.00     0.173 C 
HETATM    5  N1  UNL     1      -4.765   1.862  12.453  1.00  0.00    -0.386 N 
ATOM      6  H1  UNL     1      -5.201   2.780  12.366  1.00  0.00     0.160 HD
BRANCH   5   7
HETATM    7  C4  UNL     1      -4.654   1.027  11.282  1.00  0.00     0.120 C 
BRANCH   7   8
HETATM    8  C3  UNL     1      -4.274  -0.386  11.536  1.00  0.00     0.019 C 
BRANCH   8   9
HETATM    9  C2  UNL     1      -3.157  -0.881  10.649  1.00  0.00    -0.003 C 
HETATM   10  C1  UNL     1      -2.746  -2.267  11.172  1.00  0.00     0.005 C 
ENDBRANCH   8   9
ENDBRANCH   7   8
ENDBRANCH   5   7
ENDBRANCH   3   4
BRANCH   3  11
HETATM   11  C13 UNL     1      -4.377   1.730  16.021  1.00  0.00     0.128 C 
BRANCH  11  12
HETATM   12  C14 UNL     1      -5.617   1.015  16.462  1.00  0.00     0.004 A 
HETATM   13  C15 UNL     1      -6.796   1.933  16.738  1.00  0.00     0.007 A 
HETATM   14  C16 UNL     1      -6.116   1.247  17.888  1.00  0.00     0.007 A 
ENDBRANCH  11  12
ENDBRANCH   3  11
ENDBRANCH   2   3
ENDBRANCH   1   2
BRANCH   1  15
HETATM   15  O1  UNL     1      -2.305   4.089  14.536  1.00  0.00    -0.392 OA
ATOM     16  H1  UNL     1      -1.931   3.956  13.673  1.00  0.00     0.210 HD
ENDBRANCH   1  15
BRANCH   1  17
HETATM   17  C8  UNL     1      -3.601   5.690  13.508  1.00  0.00     0.265 C 
BRANCH  17  18
HETATM   18  N3  UNL     1      -4.608   5.402  12.533  1.00  0.00    -0.071 N 
ATOM     19  H32 UNL     1      -5.147   4.576  12.796  1.00  0.00     0.277 HD
ATOM     20  H31 UNL     1      -5.353   6.099  12.557  1.00  0.00     0.277 HD
BRANCH  18  21
HETATM   21  C9  UNL     1      -4.068   5.266  11.196  1.00  0.00     0.254 C 
BRANCH  21  22
HETATM   22  C10 UNL     1      -2.574   5.219  11.179  1.00  0.00     0.177 C 
BRANCH  22  23
HETATM   23  N4  UNL     1      -2.012   3.936  10.866  1.00  0.00    -0.285 N 
HETATM   24  C11 UNL     1      -1.883   3.336   9.644  1.00  0.00     0.201 A 
HETATM   25  N5  UNL     1      -1.296   2.149   9.840  1.00  0.00    -0.346 N 
HETATM   26  C12 UNL     1      -1.066   2.018  11.152  1.00  0.00     0.198 A 
ATOM     27  H5  UNL     1      -1.066   1.467   9.118  1.00  0.00     0.167 HD
HETATM   28  N6  UNL     1      -1.507   3.122  11.795  1.00  0.00    -0.293 N 
ATOM     29  H6  UNL     1      -1.462   3.299  12.799  1.00  0.00     0.188 HD
ENDBRANCH  22  23
ENDBRANCH  21  22
ENDBRANCH  18  21
ENDBRANCH  17  18
ENDBRANCH   1  17
TORSDOF 14
ENDMDL
