MODEL 1
REMARK VINA RESULT: -6.035399885      0.000      0.000
REMARK  16 active torsions:
REMARK  status: ('A' for Active; 'I' for Inactive)
REMARK    1  A    between atoms: C2_2  and  C3_3 
REMARK    2  A    between atoms: C3_3  and  C4_4 
REMARK    3  A    between atoms: C5_5  and  C6_6 
REMARK    4  A    between atoms: C6_6  and  O1_7 
REMARK    5  A    between atoms: O1_7  and  C7_8 
REMARK    6  A    between atoms: C7_8  and  C8_9 
REMARK    7  A    between atoms: C8_9  and  O2_10 
REMARK    8  A    between atoms: C8_9  and  C9_12 
REMARK    9  A    between atoms: C9_12  and  C10_13 
REMARK   10  A    between atoms: C9_12  and  N1_23 
REMARK   11  A    between atoms: C10_13  and  O3_14 
REMARK   12  A    between atoms: O3_14  and  C11_15 
REMARK   13  A    between atoms: C11_15  and  C12_16 
REMARK   14  A    between atoms: C12_16  and  C13_17 
REMARK   15  A    between atoms: C13_17  and  C14_18 
REMARK   16  A    between atoms: C14_18  and  O4_19 
ROOT
HETATM    1  C9  UNL     1      -0.415   4.006  11.561  1.00  0.00     0.132 C 
ENDROOT
BRANCH   1   2
HETATM    2  C8  UNL     1      -1.633   4.842  11.877  1.00  0.00     0.166 C 
BRANCH   2   3
HETATM    3  C7  UNL     1      -1.956   4.814  13.341  1.00  0.00     0.201 C 
BRANCH   3   4
HETATM    4  O1  UNL     1      -2.714   3.747  13.748  1.00  0.00    -0.385 OA
BRANCH   4   5
HETATM    5  C6  UNL     1      -3.476   4.008  14.844  1.00  0.00     0.194 C 
BRANCH   5   6
HETATM    6  C5  UNL     1      -4.486   2.907  15.073  1.00  0.00    -0.005 C 
HETATM    7  C4  UNL     1      -4.146   1.912  15.860  1.00  0.00    -0.025 C 
BRANCH   7   8
HETATM    8  C3  UNL     1      -5.058   0.771  16.159  1.00  0.00     0.053 C 
BRANCH   8   9
HETATM    9  C2  UNL     1      -5.945   1.113  17.310  1.00  0.00    -0.033 C 
HETATM   10  C1  UNL     1      -7.231   1.246  17.082  1.00  0.00     0.007 C 
ENDBRANCH   8   9
ENDBRANCH   7   8
ENDBRANCH   5   6
ENDBRANCH   4   5
ENDBRANCH   3   4
ENDBRANCH   2   3
BRANCH   2  11
HETATM   11  O2  UNL     1      -2.760   4.406  11.190  1.00  0.00    -0.391 OA
ATOM     12  H2  UNL     1      -2.694   4.726  10.298  1.00  0.00     0.210 HD
ENDBRANCH   2  11
ENDBRANCH   1   2
BRANCH   1  13
HETATM   13  C10 UNL     1      -0.807   2.822  10.755  1.00  0.00     0.195 C 
BRANCH  13  14
HETATM   14  O3  UNL     1      -1.319   1.778  11.574  1.00  0.00    -0.386 OA
BRANCH  14  15
HETATM   15  C11 UNL     1      -1.644   0.757  10.711  1.00  0.00     0.208 C 
BRANCH  15  16
HETATM   16  C12 UNL     1      -3.051   0.220  10.960  1.00  0.00     0.105 A 
HETATM   17  C15 UNL     1      -3.147  -1.250  10.726  1.00  0.00     0.209 A 
HETATM   18  O5  UNL     1      -3.742  -0.315   9.869  1.00  0.00    -0.373 OA
BRANCH  16  19
HETATM   19  C13 UNL     1      -3.830   0.856  12.058  1.00  0.00     0.068 C 
BRANCH  19  20
HETATM   20  C14 UNL     1      -4.985   1.671  11.595  1.00  0.00     0.167 C 
BRANCH  20  21
HETATM   21  O4  UNL     1      -4.862   2.346  10.418  1.00  0.00    -0.401 OA
ATOM     22  H4  UNL     1      -5.656   2.638   9.985  1.00  0.00     0.209 HD
ENDBRANCH  20  21
ENDBRANCH  19  20
ENDBRANCH  16  19
ENDBRANCH  15  16
ENDBRANCH  14  15
ENDBRANCH  13  14
ENDBRANCH   1  13
BRANCH   1  23
HETATM   23  N1  UNL     1       0.619   4.768  10.912  1.00  0.00    -0.412 N 
HETATM   24  C16 UNL     1       1.191   5.822  11.667  1.00  0.00     0.143 C 
HETATM   25  C17 UNL     1       1.543   3.990  10.155  1.00  0.00     0.143 C 
ENDBRANCH   1  23
TORSDOF 16
ENDMDL
MODEL 2
REMARK VINA RESULT: -6.008285115      2.903      5.044
REMARK  16 active torsions:
REMARK  status: ('A' for Active; 'I' for Inactive)
REMARK    1  A    between atoms: C2_2  and  C3_3 
REMARK    2  A    between atoms: C3_3  and  C4_4 
REMARK    3  A    between atoms: C5_5  and  C6_6 
REMARK    4  A    between atoms: C6_6  and  O1_7 
REMARK    5  A    between atoms: O1_7  and  C7_8 
REMARK    6  A    between atoms: C7_8  and  C8_9 
REMARK    7  A    between atoms: C8_9  and  O2_10 
REMARK    8  A    between atoms: C8_9  and  C9_12 
REMARK    9  A    between atoms: C9_12  and  C10_13 
REMARK   10  A    between atoms: C9_12  and  N1_23 
REMARK   11  A    between atoms: C10_13  and  O3_14 
REMARK   12  A    between atoms: O3_14  and  C11_15 
REMARK   13  A    between atoms: C11_15  and  C12_16 
REMARK   14  A    between atoms: C12_16  and  C13_17 
REMARK   15  A    between atoms: C13_17  and  C14_18 
REMARK   16  A    between atoms: C14_18  and  O4_19 
ROOT
HETATM    1  C9  UNL     1      -3.492   1.870  11.404  1.00  0.00     0.132 C 
ENDROOT
BRANCH   1   2
HETATM    2  C8  UNL     1      -3.511   3.225  10.735  1.00  0.00     0.166 C 
BRANCH   2   3
HETATM    3  C7  UNL     1      -2.781   4.252  11.548  1.00  0.00     0.201 C 
BRANCH   3   4
HETATM    4  O1  UNL     1      -2.563   3.909  12.857  1.00  0.00    -0.385 OA
BRANCH   4   5
HETATM    5  C6  UNL     1      -2.874   4.899  13.737  1.00  0.00     0.194 C 
BRANCH   5   6
HETATM    6  C5  UNL     1      -4.112   5.644  13.294  1.00  0.00    -0.005 C 
HETATM    7  C4  UNL     1      -5.259   5.317  13.844  1.00  0.00    -0.025 C 
BRANCH   7   8
HETATM    8  C3  UNL     1      -6.544   5.982  13.487  1.00  0.00     0.053 C 
BRANCH   8   9
HETATM    9  C2  UNL     1      -6.369   6.810  12.256  1.00  0.00    -0.033 C 
HETATM   10  C1  UNL     1      -7.326   7.646  11.931  1.00  0.00     0.007 C 
ENDBRANCH   8   9
ENDBRANCH   7   8
ENDBRANCH   5   6
ENDBRANCH   4   5
ENDBRANCH   3   4
ENDBRANCH   2   3
BRANCH   2  11
HETATM   11  O2  UNL     1      -4.806   3.692  10.535  1.00  0.00    -0.391 OA
ATOM     12  H2  UNL     1      -5.310   3.481  11.311  1.00  0.00     0.210 HD
ENDBRANCH   2  11
ENDBRANCH   1   2
BRANCH   1  13
HETATM   13  C10 UNL     1      -4.873   1.463  11.765  1.00  0.00     0.195 C 
BRANCH  13  14
HETATM   14  O3  UNL     1      -5.210   1.870  13.085  1.00  0.00    -0.386 OA
BRANCH  14  15
HETATM   15  C11 UNL     1      -4.387   1.146  13.916  1.00  0.00     0.208 C 
BRANCH  15  16
HETATM   16  C12 UNL     1      -4.529   1.568  15.377  1.00  0.00     0.105 A 
HETATM   17  C15 UNL     1      -3.295   2.225  15.899  1.00  0.00     0.209 A 
HETATM   18  O5  UNL     1      -3.698   0.949  16.314  1.00  0.00    -0.373 OA
BRANCH  16  19
HETATM   19  C13 UNL     1      -5.872   2.042  15.813  1.00  0.00     0.068 C 
BRANCH  19  20
HETATM   20  C14 UNL     1      -6.561   1.129  16.764  1.00  0.00     0.167 C 
BRANCH  20  21
HETATM   21  O4  UNL     1      -6.153  -0.169  16.816  1.00  0.00    -0.401 OA
ATOM     22  H4  UNL     1      -6.012  -0.560  17.671  1.00  0.00     0.209 HD
ENDBRANCH  20  21
ENDBRANCH  19  20
ENDBRANCH  16  19
ENDBRANCH  15  16
ENDBRANCH  14  15
ENDBRANCH  13  14
ENDBRANCH   1  13
BRANCH   1  23
HETATM   23  N1  UNL     1      -2.839   0.872  10.599  1.00  0.00    -0.412 N 
HETATM   24  C16 UNL     1      -1.431   0.979  10.485  1.00  0.00     0.143 C 
HETATM   25  C17 UNL     1      -3.338  -0.452  10.777  1.00  0.00     0.143 C 
ENDBRANCH   1  23
TORSDOF 16
ENDMDL
MODEL 3
REMARK VINA RESULT: -5.947554373      1.882      2.299
REMARK  16 active torsions:
REMARK  status: ('A' for Active; 'I' for Inactive)
REMARK    1  A    between atoms: C2_2  and  C3_3 
REMARK    2  A    between atoms: C3_3  and  C4_4 
REMARK    3  A    between atoms: C5_5  and  C6_6 
REMARK    4  A    between atoms: C6_6  and  O1_7 
REMARK    5  A    between atoms: O1_7  and  C7_8 
REMARK    6  A    between atoms: C7_8  and  C8_9 
REMARK    7  A    between atoms: C8_9  and  O2_10 
REMARK    8  A    between atoms: C8_9  and  C9_12 
REMARK    9  A    between atoms: C9_12  and  C10_13 
REMARK   10  A    between atoms: C9_12  and  N1_23 
REMARK   11  A    between atoms: C10_13  and  O3_14 
REMARK   12  A    between atoms: O3_14  and  C11_15 
REMARK   13  A    between atoms: C11_15  and  C12_16 
REMARK   14  A    between atoms: C12_16  and  C13_17 
REMARK   15  A    between atoms: C13_17  and  C14_18 
REMARK   16  A    between atoms: C14_18  and  O4_19 
ROOT
HETATM    1  C9  UNL     1      -3.043   4.632  11.284  1.00  0.00     0.132 C 
ENDROOT
BRANCH   1   2
HETATM    2  C8  UNL     1      -4.159   5.504  10.755  1.00  0.00     0.166 C 
BRANCH   2   3
HETATM    3  C7  UNL     1      -4.967   6.099  11.869  1.00  0.00     0.201 C 
BRANCH   3   4
HETATM    4  O1  UNL     1      -5.754   5.212  12.555  1.00  0.00    -0.385 OA
BRANCH   4   5
HETATM    5  C6  UNL     1      -5.743   5.404  13.901  1.00  0.00     0.194 C 
BRANCH   5   6
HETATM    6  C5  UNL     1      -6.132   4.137  14.629  1.00  0.00    -0.005 C 
HETATM    7  C4  UNL     1      -5.170   3.360  15.073  1.00  0.00    -0.025 C 
BRANCH   7   8
HETATM    8  C3  UNL     1      -5.432   2.088  15.804  1.00  0.00     0.053 C 
BRANCH   8   9
HETATM    9  C2  UNL     1      -6.640   2.233  16.669  1.00  0.00    -0.033 C 
HETATM   10  C1  UNL     1      -7.255   1.142  17.062  1.00  0.00     0.007 C 
ENDBRANCH   8   9
ENDBRANCH   7   8
ENDBRANCH   5   6
ENDBRANCH   4   5
ENDBRANCH   3   4
ENDBRANCH   2   3
BRANCH   2  11
HETATM   11  O2  UNL     1      -5.030   4.799   9.934  1.00  0.00    -0.391 OA
ATOM     12  H2  UNL     1      -4.606   4.690   9.091  1.00  0.00     0.210 HD
ENDBRANCH   2  11
ENDBRANCH   1   2
BRANCH   1  13
HETATM   13  C10 UNL     1      -2.219   4.124  10.157  1.00  0.00     0.195 C 
BRANCH  13  14
HETATM   14  O3  UNL     1      -2.674   2.855   9.707  1.00  0.00    -0.386 OA
BRANCH  14  15
HETATM   15  C11 UNL     1      -2.034   1.931  10.501  1.00  0.00     0.208 C 
BRANCH  15  16
HETATM   16  C12 UNL     1      -2.978   0.828  10.975  1.00  0.00     0.105 A 
HETATM   17  C15 UNL     1      -2.428  -0.536  10.722  1.00  0.00     0.209 A 
HETATM   18  O5  UNL     1      -3.517  -0.023  10.006  1.00  0.00    -0.373 OA
BRANCH  16  19
HETATM   19  C13 UNL     1      -3.767   1.101  12.207  1.00  0.00     0.068 C 
BRANCH  19  20
HETATM   20  C14 UNL     1      -5.091   1.731  11.957  1.00  0.00     0.167 C 
BRANCH  20  21
HETATM   21  O4  UNL     1      -5.439   2.000  10.668  1.00  0.00    -0.401 OA
ATOM     22  H4  UNL     1      -5.215   1.360  10.002  1.00  0.00     0.209 HD
ENDBRANCH  20  21
ENDBRANCH  19  20
ENDBRANCH  16  19
ENDBRANCH  15  16
ENDBRANCH  14  15
ENDBRANCH  13  14
ENDBRANCH   1  13
BRANCH   1  23
HETATM   23  N1  UNL     1      -2.238   5.308  12.266  1.00  0.00    -0.412 N 
HETATM   24  C16 UNL     1      -2.019   4.616  13.483  1.00  0.00     0.143 C 
HETATM   25  C17 UNL     1      -1.100   5.984  11.736  1.00  0.00     0.143 C 
ENDBRANCH   1  23
TORSDOF 16
ENDMDL
MODEL 4
REMARK VINA RESULT: -5.886340307      1.665      2.283
REMARK  16 active torsions:
REMARK  status: ('A' for Active; 'I' for Inactive)
REMARK    1  A    between atoms: C2_2  and  C3_3 
REMARK    2  A    between atoms: C3_3  and  C4_4 
REMARK    3  A    between atoms: C5_5  and  C6_6 
REMARK    4  A    between atoms: C6_6  and  O1_7 
REMARK    5  A    between atoms: O1_7  and  C7_8 
REMARK    6  A    between atoms: C7_8  and  C8_9 
REMARK    7  A    between atoms: C8_9  and  O2_10 
REMARK    8  A    between atoms: C8_9  and  C9_12 
REMARK    9  A    between atoms: C9_12  and  C10_13 
REMARK   10  A    between atoms: C9_12  and  N1_23 
REMARK   11  A    between atoms: C10_13  and  O3_14 
REMARK   12  A    between atoms: O3_14  and  C11_15 
REMARK   13  A    between atoms: C11_15  and  C12_16 
REMARK   14  A    between atoms: C12_16  and  C13_17 
REMARK   15  A    between atoms: C13_17  and  C14_18 
REMARK   16  A    between atoms: C14_18  and  O4_19 
ROOT
HETATM    1  C9  UNL     1      -2.097   4.150  10.695  1.00  0.00     0.132 C 
ENDROOT
BRANCH   1   2
HETATM    2  C8  UNL     1      -2.973   4.880   9.703  1.00  0.00     0.166 C 
BRANCH   2   3
HETATM    3  C7  UNL     1      -4.006   5.719  10.394  1.00  0.00     0.201 C 
BRANCH   3   4
HETATM    4  O1  UNL     1      -4.856   5.031  11.219  1.00  0.00    -0.385 OA
BRANCH   4   5
HETATM    5  C6  UNL     1      -5.078   5.650  12.410  1.00  0.00     0.194 C 
BRANCH   5   6
HETATM    6  C5  UNL     1      -4.901   4.684  13.560  1.00  0.00    -0.005 C 
HETATM    7  C4  UNL     1      -5.978   4.143  14.082  1.00  0.00    -0.025 C 
BRANCH   7   8
HETATM    8  C3  UNL     1      -5.928   3.178  15.217  1.00  0.00     0.053 C 
BRANCH   8   9
HETATM    9  C2  UNL     1      -4.569   2.566  15.309  1.00  0.00    -0.033 C 
HETATM   10  C1  UNL     1      -4.442   1.438  15.969  1.00  0.00     0.007 C 
ENDBRANCH   8   9
ENDBRANCH   7   8
ENDBRANCH   5   6
ENDBRANCH   4   5
ENDBRANCH   3   4
ENDBRANCH   2   3
BRANCH   2  11
HETATM   11  O2  UNL     1      -3.641   4.007   8.853  1.00  0.00    -0.391 OA
ATOM     12  H2  UNL     1      -3.001   3.650   8.248  1.00  0.00     0.210 HD
ENDBRANCH   2  11
ENDBRANCH   1   2
BRANCH   1  13
HETATM   13  C10 UNL     1      -1.223   3.183   9.984  1.00  0.00     0.195 C 
BRANCH  13  14
HETATM   14  O3  UNL     1      -1.940   2.018   9.594  1.00  0.00    -0.386 OA
BRANCH  14  15
HETATM   15  C11 UNL     1      -1.712   1.095  10.588  1.00  0.00     0.208 C 
BRANCH  15  16
HETATM   16  C12 UNL     1      -2.976   0.319  10.952  1.00  0.00     0.105 A 
HETATM   17  C15 UNL     1      -2.808  -1.153  10.776  1.00  0.00     0.209 A 
HETATM   18  O5  UNL     1      -3.620  -0.386   9.931  1.00  0.00    -0.373 OA
BRANCH  16  19
HETATM   19  C13 UNL     1      -3.791   0.850  12.080  1.00  0.00     0.068 C 
BRANCH  19  20
HETATM   20  C14 UNL     1      -5.039   1.540  11.658  1.00  0.00     0.167 C 
BRANCH  20  21
HETATM   21  O4  UNL     1      -5.037   2.195  10.464  1.00  0.00    -0.401 OA
ATOM     22  H4  UNL     1      -5.538   3.000  10.394  1.00  0.00     0.209 HD
ENDBRANCH  20  21
ENDBRANCH  19  20
ENDBRANCH  16  19
ENDBRANCH  15  16
ENDBRANCH  14  15
ENDBRANCH  13  14
ENDBRANCH   1  13
BRANCH   1  23
HETATM   23  N1  UNL     1      -1.332   5.050  11.516  1.00  0.00    -0.412 N 
HETATM   24  C16 UNL     1      -1.347   4.797  12.910  1.00  0.00     0.143 C 
HETATM   25  C17 UNL     1      -0.062   5.410  10.976  1.00  0.00     0.143 C 
ENDBRANCH   1  23
TORSDOF 16
ENDMDL
MODEL 5
REMARK VINA RESULT: -5.870562656      2.616      5.418
REMARK  16 active torsions:
REMARK  status: ('A' for Active; 'I' for Inactive)
REMARK    1  A    between atoms: C2_2  and  C3_3 
REMARK    2  A    between atoms: C3_3  and  C4_4 
REMARK    3  A    between atoms: C5_5  and  C6_6 
REMARK    4  A    between atoms: C6_6  and  O1_7 
REMARK    5  A    between atoms: O1_7  and  C7_8 
REMARK    6  A    between atoms: C7_8  and  C8_9 
REMARK    7  A    between atoms: C8_9  and  O2_10 
REMARK    8  A    between atoms: C8_9  and  C9_12 
REMARK    9  A    between atoms: C9_12  and  C10_13 
REMARK   10  A    between atoms: C9_12  and  N1_23 
REMARK   11  A    between atoms: C10_13  and  O3_14 
REMARK   12  A    between atoms: O3_14  and  C11_15 
REMARK   13  A    between atoms: C11_15  and  C12_16 
REMARK   14  A    between atoms: C12_16  and  C13_17 
REMARK   15  A    between atoms: C13_17  and  C14_18 
REMARK   16  A    between atoms: C14_18  and  O4_19 
ROOT
HETATM    1  C9  UNL     1      -3.475   1.440  11.842  1.00  0.00     0.132 C 
ENDROOT
BRANCH   1   2
HETATM    2  C8  UNL     1      -4.411   2.031  10.814  1.00  0.00     0.166 C 
BRANCH   2   3
HETATM    3  C7  UNL     1      -4.157   3.495  10.614  1.00  0.00     0.201 C 
BRANCH   3   4
HETATM    4  O1  UNL     1      -4.615   4.307  11.618  1.00  0.00    -0.385 OA
BRANCH   4   5
HETATM    5  C6  UNL     1      -4.586   5.630  11.305  1.00  0.00     0.194 C 
BRANCH   5   6
HETATM    6  C5  UNL     1      -4.308   6.468  12.532  1.00  0.00    -0.005 C 
HETATM    7  C4  UNL     1      -3.667   5.906  13.531  1.00  0.00    -0.025 C 
BRANCH   7   8
HETATM    8  C3  UNL     1      -3.338   6.632  14.791  1.00  0.00     0.053 C 
BRANCH   8   9
HETATM    9  C2  UNL     1      -2.127   7.482  14.590  1.00  0.00    -0.033 C 
HETATM   10  C1  UNL     1      -1.983   8.543  15.349  1.00  0.00     0.007 C 
ENDBRANCH   8   9
ENDBRANCH   7   8
ENDBRANCH   5   6
ENDBRANCH   4   5
ENDBRANCH   3   4
ENDBRANCH   2   3
BRANCH   2  11
HETATM   11  O2  UNL     1      -5.745   1.881  11.173  1.00  0.00    -0.391 OA
ATOM     12  H2  UNL     1      -6.008   0.999  10.939  1.00  0.00     0.210 HD
ENDBRANCH   2  11
ENDBRANCH   1   2
BRANCH   1  13
HETATM   13  C10 UNL     1      -4.255   0.856  12.962  1.00  0.00     0.195 C 
BRANCH  13  14
HETATM   14  O3  UNL     1      -3.924   1.464  14.204  1.00  0.00    -0.386 OA
BRANCH  14  15
HETATM   15  C11 UNL     1      -4.473   0.653  15.170  1.00  0.00     0.208 C 
BRANCH  15  16
HETATM   16  C12 UNL     1      -5.500   1.393  16.025  1.00  0.00     0.105 A 
HETATM   17  C15 UNL     1      -5.755   0.707  17.325  1.00  0.00     0.209 A 
HETATM   18  O5  UNL     1      -6.706   0.740  16.297  1.00  0.00    -0.373 OA
BRANCH  16  19
HETATM   19  C13 UNL     1      -5.492   2.880  15.952  1.00  0.00     0.068 C 
BRANCH  19  20
HETATM   20  C14 UNL     1      -6.509   3.451  15.029  1.00  0.00     0.167 C 
BRANCH  20  21
HETATM   21  O4  UNL     1      -6.232   3.455  13.695  1.00  0.00    -0.401 OA
ATOM     22  H4  UNL     1      -6.958   3.369  13.088  1.00  0.00     0.209 HD
ENDBRANCH  20  21
ENDBRANCH  19  20
ENDBRANCH  16  19
ENDBRANCH  15  16
ENDBRANCH  14  15
ENDBRANCH  13  14
ENDBRANCH   1  13
BRANCH   1  23
HETATM   23  N1  UNL     1      -2.570   0.479  11.270  1.00  0.00    -0.412 N 
HETATM   24  C16 UNL     1      -3.161  -0.616  10.594  1.00  0.00     0.143 C 
HETATM   25  C17 UNL     1      -1.429   1.047  10.630  1.00  0.00     0.143 C 
ENDBRANCH   1  23
TORSDOF 16
ENDMDL
