MODEL 1
REMARK VINA RESULT: -6.384315561      0.000      0.000
REMARK  15 active torsions:
REMARK  status: ('A' for Active; 'I' for Inactive)
REMARK    1  A    between atoms: C2_2  and  C3_3 
REMARK    2  A    between atoms: C3_3  and  N1_5 
REMARK    3  A    between atoms: N1_5  and  C5_6 
REMARK    4  A    between atoms: N1_5  and  C7_10 
REMARK    5  A    between atoms: C5_6  and  C6_7 
REMARK    6  A    between atoms: C6_7  and  O1_8 
REMARK    7  A    between atoms: C7_10  and  C8_11 
REMARK    8  A    between atoms: C8_11  and  N2_12 
REMARK    9  A    between atoms: N2_12  and  C9_13 
REMARK   10  A    between atoms: N2_12  and  O4_25 
REMARK   11  A    between atoms: C9_13  and  C10_14 
REMARK   12  A    between atoms: C10_14  and  O2_15 
REMARK   13  A    between atoms: C10_14  and  C11_17 
REMARK   14  A    between atoms: C11_17  and  O3_18 
REMARK   15  A    between atoms: O3_18  and  C12_19 
ROOT
HETATM    1  N2  UNL     1      -3.361   2.889   9.973  1.00  0.00    -0.194 NA
ENDROOT
BRANCH   1   2
HETATM    2  C8  UNL     1      -3.615   4.360  10.012  1.00  0.00     0.140 C 
BRANCH   2   3
HETATM    3  C7  UNL     1      -2.738   5.018  11.003  1.00  0.00     0.139 C 
BRANCH   3   4
HETATM    4  N1  UNL     1      -3.371   5.855  11.976  1.00  0.00    -0.383 N 
BRANCH   4   5
HETATM    5  C3  UNL     1      -4.771   5.958  11.929  1.00  0.00     0.101 C 
HETATM    6  C4  UNL     1      -5.303   7.363  11.702  1.00  0.00     0.036 C 
BRANCH   5   7
HETATM    7  C2  UNL     1      -5.360   5.541  13.244  1.00  0.00    -0.012 C 
HETATM    8  C1  UNL     1      -6.602   5.864  13.582  1.00  0.00     0.009 C 
ENDBRANCH   5   7
ENDBRANCH   4   5
BRANCH   4   9
HETATM    9  C5  UNL     1      -2.671   5.993  13.174  1.00  0.00     0.084 C 
BRANCH   9  10
HETATM   10  C6  UNL     1      -1.738   4.954  13.627  1.00  0.00     0.208 C 
BRANCH  10  11
HETATM   11  O1  UNL     1      -2.316   4.062  14.551  1.00  0.00    -0.396 OA
ATOM     12  H1  UNL     1      -1.768   3.306  14.728  1.00  0.00     0.209 HD
ENDBRANCH  10  11
ENDBRANCH   9  10
ENDBRANCH   4   9
ENDBRANCH   3   4
ENDBRANCH   2   3
ENDBRANCH   1   2
BRANCH   1  13
HETATM   13  C9  UNL     1      -3.196   2.429  11.343  1.00  0.00     0.154 C 
BRANCH  13  14
HETATM   14  C10 UNL     1      -4.508   2.118  11.963  1.00  0.00     0.157 C 
BRANCH  14  15
HETATM   15  O2  UNL     1      -5.489   1.628  11.154  1.00  0.00    -0.392 OA
ATOM     16  H2  UNL     1      -6.043   0.937  11.500  1.00  0.00     0.210 HD
ENDBRANCH  14  15
BRANCH  14  17
HETATM   17  C11 UNL     1      -4.353   1.089  13.103  1.00  0.00     0.208 C 
BRANCH  17  18
HETATM   18  O3  UNL     1      -4.139   1.839  14.287  1.00  0.00    -0.349 OA
BRANCH  18  19
HETATM   19  C12 UNL     1      -5.033   1.754  15.344  1.00  0.00     0.068 A 
HETATM   20  C13 UNL     1      -4.995   0.674  16.213  1.00  0.00     0.037 A 
HETATM   21  C14 UNL     1      -5.903   0.601  17.272  1.00  0.00     0.003 A 
HETATM   22  C15 UNL     1      -6.856   1.571  17.500  1.00  0.00     0.000 A 
HETATM   23  C16 UNL     1      -6.890   2.649  16.629  1.00  0.00     0.003 A 
HETATM   24  C17 UNL     1      -5.991   2.723  15.580  1.00  0.00     0.037 A 
ENDBRANCH  18  19
ENDBRANCH  17  18
ENDBRANCH  14  17
ENDBRANCH  13  14
ENDBRANCH   1  13
BRANCH   1  25
HETATM   25  O4  UNL     1      -2.169   2.662   9.374  1.00  0.00    -0.308 OA
HETATM   26  C18 UNL     1      -1.385   1.711   9.968  1.00  0.00     0.229 C 
ENDBRANCH   1  25
TORSDOF 15
ENDMDL
MODEL 2
REMARK VINA RESULT: -6.380932516      2.002      3.480
REMARK  15 active torsions:
REMARK  status: ('A' for Active; 'I' for Inactive)
REMARK    1  A    between atoms: C2_2  and  C3_3 
REMARK    2  A    between atoms: C3_3  and  N1_5 
REMARK    3  A    between atoms: N1_5  and  C5_6 
REMARK    4  A    between atoms: N1_5  and  C7_10 
REMARK    5  A    between atoms: C5_6  and  C6_7 
REMARK    6  A    between atoms: C6_7  and  O1_8 
REMARK    7  A    between atoms: C7_10  and  C8_11 
REMARK    8  A    between atoms: C8_11  and  N2_12 
REMARK    9  A    between atoms: N2_12  and  C9_13 
REMARK   10  A    between atoms: N2_12  and  O4_25 
REMARK   11  A    between atoms: C9_13  and  C10_14 
REMARK   12  A    between atoms: C10_14  and  O2_15 
REMARK   13  A    between atoms: C10_14  and  C11_17 
REMARK   14  A    between atoms: C11_17  and  O3_18 
REMARK   15  A    between atoms: O3_18  and  C12_19 
ROOT
HETATM    1  N2  UNL     1      -2.931   1.234  10.267  1.00  0.00    -0.194 NA
ENDROOT
BRANCH   1   2
HETATM    2  C8  UNL     1      -1.444   1.099  10.288  1.00  0.00     0.140 C 
BRANCH   2   3
HETATM    3  C7  UNL     1      -0.819   2.279  10.923  1.00  0.00     0.139 C 
BRANCH   3   4
HETATM    4  N1  UNL     1      -0.627   3.434  10.100  1.00  0.00    -0.383 N 
BRANCH   4   5
HETATM    5  C3  UNL     1      -1.104   4.662  10.588  1.00  0.00     0.101 C 
HETATM    6  C4  UNL     1      -1.289   4.725  12.095  1.00  0.00     0.036 C 
BRANCH   5   7
HETATM    7  C2  UNL     1      -2.470   4.939  10.031  1.00  0.00    -0.012 C 
HETATM    8  C1  UNL     1      -2.803   4.577   8.798  1.00  0.00     0.009 C 
ENDBRANCH   5   7
ENDBRANCH   4   5
BRANCH   4   9
HETATM    9  C5  UNL     1       0.471   3.367   9.243  1.00  0.00     0.084 C 
BRANCH   9  10
HETATM   10  C6  UNL     1       1.820   3.696   9.720  1.00  0.00     0.208 C 
BRANCH  10  11
HETATM   11  O1  UNL     1       2.827   2.945   9.081  1.00  0.00    -0.396 OA
ATOM     12  H1  UNL     1       2.631   2.764   8.169  1.00  0.00     0.209 HD
ENDBRANCH  10  11
ENDBRANCH   9  10
ENDBRANCH   4   9
ENDBRANCH   3   4
ENDBRANCH   2   3
ENDBRANCH   1   2
BRANCH   1  13
HETATM   13  C9  UNL     1      -3.367   1.564  11.615  1.00  0.00     0.154 C 
BRANCH  13  14
HETATM   14  C10 UNL     1      -4.579   2.419  11.588  1.00  0.00     0.157 C 
BRANCH  14  15
HETATM   15  O2  UNL     1      -5.767   1.825  11.280  1.00  0.00    -0.392 OA
ATOM     16  H2  UNL     1      -6.558   2.344  11.373  1.00  0.00     0.210 HD
ENDBRANCH  14  15
BRANCH  14  17
HETATM   17  C11 UNL     1      -4.799   3.113  12.950  1.00  0.00     0.208 C 
BRANCH  17  18
HETATM   18  O3  UNL     1      -4.344   2.202  13.937  1.00  0.00    -0.349 OA
BRANCH  18  19
HETATM   19  C12 UNL     1      -5.089   1.980  15.085  1.00  0.00     0.068 A 
HETATM   20  C13 UNL     1      -4.835   0.876  15.887  1.00  0.00     0.037 A 
HETATM   21  C14 UNL     1      -5.595   0.665  17.039  1.00  0.00     0.003 A 
HETATM   22  C15 UNL     1      -6.607   1.518  17.428  1.00  0.00     0.000 A 
HETATM   23  C16 UNL     1      -6.857   2.619  16.623  1.00  0.00     0.003 A 
HETATM   24  C17 UNL     1      -6.105   2.830  15.481  1.00  0.00     0.037 A 
ENDBRANCH  18  19
ENDBRANCH  17  18
ENDBRANCH  14  17
ENDBRANCH  13  14
ENDBRANCH   1  13
BRANCH   1  25
HETATM   25  O4  UNL     1      -3.481   0.026   9.999  1.00  0.00    -0.308 OA
HETATM   26  C18 UNL     1      -3.139  -0.979  10.863  1.00  0.00     0.229 C 
ENDBRANCH   1  25
TORSDOF 15
ENDMDL
MODEL 3
REMARK VINA RESULT: -6.326695399      2.322      4.391
REMARK  15 active torsions:
REMARK  status: ('A' for Active; 'I' for Inactive)
REMARK    1  A    between atoms: C2_2  and  C3_3 
REMARK    2  A    between atoms: C3_3  and  N1_5 
REMARK    3  A    between atoms: N1_5  and  C5_6 
REMARK    4  A    between atoms: N1_5  and  C7_10 
REMARK    5  A    between atoms: C5_6  and  C6_7 
REMARK    6  A    between atoms: C6_7  and  O1_8 
REMARK    7  A    between atoms: C7_10  and  C8_11 
REMARK    8  A    between atoms: C8_11  and  N2_12 
REMARK    9  A    between atoms: N2_12  and  C9_13 
REMARK   10  A    between atoms: N2_12  and  O4_25 
REMARK   11  A    between atoms: C9_13  and  C10_14 
REMARK   12  A    between atoms: C10_14  and  O2_15 
REMARK   13  A    between atoms: C10_14  and  C11_17 
REMARK   14  A    between atoms: C11_17  and  O3_18 
REMARK   15  A    between atoms: O3_18  and  C12_19 
ROOT
HETATM    1  N2  UNL     1      -2.984   1.141  10.280  1.00  0.00    -0.194 NA
ENDROOT
BRANCH   1   2
HETATM    2  C8  UNL     1      -1.493   1.069  10.307  1.00  0.00     0.140 C 
BRANCH   2   3
HETATM    3  C7  UNL     1      -0.922   2.250  10.987  1.00  0.00     0.139 C 
BRANCH   3   4
HETATM    4  N1  UNL     1      -0.327   3.253  10.157  1.00  0.00    -0.383 N 
BRANCH   4   5
HETATM    5  C3  UNL     1       0.975   3.670  10.478  1.00  0.00     0.101 C 
HETATM    6  C4  UNL     1       1.084   5.101  10.976  1.00  0.00     0.036 C 
BRANCH   5   7
HETATM    7  C2  UNL     1       1.842   3.631   9.254  1.00  0.00    -0.012 C 
HETATM    8  C1  UNL     1       2.926   4.389   9.146  1.00  0.00     0.009 C 
ENDBRANCH   5   7
ENDBRANCH   4   5
BRANCH   4   9
HETATM    9  C5  UNL     1      -0.799   3.282   8.844  1.00  0.00     0.084 C 
BRANCH   9  10
HETATM   10  C6  UNL     1      -1.831   4.243   8.436  1.00  0.00     0.208 C 
BRANCH  10  11
HETATM   11  O1  UNL     1      -3.140   3.763   8.638  1.00  0.00    -0.396 OA
ATOM     12  H1  UNL     1      -3.187   2.814   8.658  1.00  0.00     0.209 HD
ENDBRANCH  10  11
ENDBRANCH   9  10
ENDBRANCH   4   9
ENDBRANCH   3   4
ENDBRANCH   2   3
ENDBRANCH   1   2
BRANCH   1  13
HETATM   13  C9  UNL     1      -3.438   1.476  11.621  1.00  0.00     0.154 C 
BRANCH  13  14
HETATM   14  C10 UNL     1      -4.629   2.359  11.575  1.00  0.00     0.157 C 
BRANCH  14  15
HETATM   15  O2  UNL     1      -5.819   1.800  11.218  1.00  0.00    -0.392 OA
ATOM     16  H2  UNL     1      -6.605   2.321  11.334  1.00  0.00     0.210 HD
ENDBRANCH  14  15
BRANCH  14  17
HETATM   17  C11 UNL     1      -4.876   3.029  12.944  1.00  0.00     0.208 C 
BRANCH  17  18
HETATM   18  O3  UNL     1      -4.425   2.108  13.923  1.00  0.00    -0.349 OA
BRANCH  18  19
HETATM   19  C12 UNL     1      -5.141   1.923  15.097  1.00  0.00     0.068 A 
HETATM   20  C13 UNL     1      -6.103   2.844  15.487  1.00  0.00     0.037 A 
HETATM   21  C14 UNL     1      -6.815   2.646  16.672  1.00  0.00     0.003 A 
HETATM   22  C15 UNL     1      -6.604   1.556  17.491  1.00  0.00     0.000 A 
HETATM   23  C16 UNL     1      -5.643   0.639  17.096  1.00  0.00     0.003 A 
HETATM   24  C17 UNL     1      -4.936   0.833  15.922  1.00  0.00     0.037 A 
ENDBRANCH  18  19
ENDBRANCH  17  18
ENDBRANCH  14  17
ENDBRANCH  13  14
ENDBRANCH   1  13
BRANCH   1  25
HETATM   25  O4  UNL     1      -3.483  -0.093  10.032  1.00  0.00    -0.308 OA
HETATM   26  C18 UNL     1      -3.213  -1.037  10.986  1.00  0.00     0.229 C 
ENDBRANCH   1  25
TORSDOF 15
ENDMDL
MODEL 4
REMARK VINA RESULT: -6.321804361      2.028      3.359
REMARK  15 active torsions:
REMARK  status: ('A' for Active; 'I' for Inactive)
REMARK    1  A    between atoms: C2_2  and  C3_3 
REMARK    2  A    between atoms: C3_3  and  N1_5 
REMARK    3  A    between atoms: N1_5  and  C5_6 
REMARK    4  A    between atoms: N1_5  and  C7_10 
REMARK    5  A    between atoms: C5_6  and  C6_7 
REMARK    6  A    between atoms: C6_7  and  O1_8 
REMARK    7  A    between atoms: C7_10  and  C8_11 
REMARK    8  A    between atoms: C8_11  and  N2_12 
REMARK    9  A    between atoms: N2_12  and  C9_13 
REMARK   10  A    between atoms: N2_12  and  O4_25 
REMARK   11  A    between atoms: C9_13  and  C10_14 
REMARK   12  A    between atoms: C10_14  and  O2_15 
REMARK   13  A    between atoms: C10_14  and  C11_17 
REMARK   14  A    between atoms: C11_17  and  O3_18 
REMARK   15  A    between atoms: O3_18  and  C12_19 
ROOT
HETATM    1  N2  UNL     1      -2.807   1.419  10.222  1.00  0.00    -0.194 NA
ENDROOT
BRANCH   1   2
HETATM    2  C8  UNL     1      -1.315   1.449  10.277  1.00  0.00     0.140 C 
BRANCH   2   3
HETATM    3  C7  UNL     1      -0.848   2.362  11.342  1.00  0.00     0.139 C 
BRANCH   3   4
HETATM    4  N1  UNL     1      -0.285   3.610  10.927  1.00  0.00    -0.383 N 
BRANCH   4   5
HETATM    5  C3  UNL     1      -0.893   4.784  11.401  1.00  0.00     0.101 C 
HETATM    6  C4  UNL     1       0.038   5.978  11.536  1.00  0.00     0.036 C 
BRANCH   5   7
HETATM    7  C2  UNL     1      -1.424   4.563  12.786  1.00  0.00    -0.012 C 
HETATM    8  C1  UNL     1      -1.649   5.575  13.614  1.00  0.00     0.009 C 
ENDBRANCH   5   7
ENDBRANCH   4   5
BRANCH   4   9
HETATM    9  C5  UNL     1       1.075   3.566  10.621  1.00  0.00     0.084 C 
BRANCH   9  10
HETATM   10  C6  UNL     1       1.534   3.531   9.226  1.00  0.00     0.208 C 
BRANCH  10  11
HETATM   11  O1  UNL     1       2.822   2.976   9.086  1.00  0.00    -0.396 OA
ATOM     12  H1  UNL     1       3.515   3.606   9.242  1.00  0.00     0.209 HD
ENDBRANCH  10  11
ENDBRANCH   9  10
ENDBRANCH   4   9
ENDBRANCH   3   4
ENDBRANCH   2   3
ENDBRANCH   1   2
BRANCH   1  13
HETATM   13  C9  UNL     1      -3.307   1.654  11.567  1.00  0.00     0.154 C 
BRANCH  13  14
HETATM   14  C10 UNL     1      -4.584   2.409  11.536  1.00  0.00     0.157 C 
BRANCH  14  15
HETATM   15  O2  UNL     1      -5.721   1.719  11.240  1.00  0.00    -0.392 OA
ATOM     16  H2  UNL     1      -6.417   1.715  11.888  1.00  0.00     0.210 HD
ENDBRANCH  14  15
BRANCH  14  17
HETATM   17  C11 UNL     1      -4.853   3.099  12.891  1.00  0.00     0.208 C 
BRANCH  17  18
HETATM   18  O3  UNL     1      -4.353   2.224  13.888  1.00  0.00    -0.349 OA
BRANCH  18  19
HETATM   19  C12 UNL     1      -5.078   1.993  15.047  1.00  0.00     0.068 A 
HETATM   20  C13 UNL     1      -4.814   0.879  15.832  1.00  0.00     0.037 A 
HETATM   21  C14 UNL     1      -5.553   0.659  16.997  1.00  0.00     0.003 A 
HETATM   22  C15 UNL     1      -6.553   1.512  17.414  1.00  0.00     0.000 A 
HETATM   23  C16 UNL     1      -6.812   2.623  16.627  1.00  0.00     0.003 A 
HETATM   24  C17 UNL     1      -6.081   2.844  15.473  1.00  0.00     0.037 A 
ENDBRANCH  18  19
ENDBRANCH  17  18
ENDBRANCH  14  17
ENDBRANCH  13  14
ENDBRANCH   1  13
BRANCH   1  25
HETATM   25  O4  UNL     1      -3.211   0.166   9.904  1.00  0.00    -0.308 OA
HETATM   26  C18 UNL     1      -2.966  -0.788  10.854  1.00  0.00     0.229 C 
ENDBRANCH   1  25
TORSDOF 15
ENDMDL
MODEL 5
REMARK VINA RESULT: -6.293951962      1.218      2.460
REMARK  15 active torsions:
REMARK  status: ('A' for Active; 'I' for Inactive)
REMARK    1  A    between atoms: C2_2  and  C3_3 
REMARK    2  A    between atoms: C3_3  and  N1_5 
REMARK    3  A    between atoms: N1_5  and  C5_6 
REMARK    4  A    between atoms: N1_5  and  C7_10 
REMARK    5  A    between atoms: C5_6  and  C6_7 
REMARK    6  A    between atoms: C6_7  and  O1_8 
REMARK    7  A    between atoms: C7_10  and  C8_11 
REMARK    8  A    between atoms: C8_11  and  N2_12 
REMARK    9  A    between atoms: N2_12  and  C9_13 
REMARK   10  A    between atoms: N2_12  and  O4_25 
REMARK   11  A    between atoms: C9_13  and  C10_14 
REMARK   12  A    between atoms: C10_14  and  O2_15 
REMARK   13  A    between atoms: C10_14  and  C11_17 
REMARK   14  A    between atoms: C11_17  and  O3_18 
REMARK   15  A    between atoms: O3_18  and  C12_19 
ROOT
HETATM    1  N2  UNL     1      -2.870   3.191  10.251  1.00  0.00    -0.194 NA
ENDROOT
BRANCH   1   2
HETATM    2  C8  UNL     1      -2.045   3.691  11.391  1.00  0.00     0.140 C 
BRANCH   2   3
HETATM    3  C7  UNL     1      -2.427   5.073  11.750  1.00  0.00     0.139 C 
BRANCH   3   4
HETATM    4  N1  UNL     1      -3.486   5.228  12.699  1.00  0.00    -0.383 N 
BRANCH   4   5
HETATM    5  C3  UNL     1      -3.128   5.476  14.034  1.00  0.00     0.101 C 
HETATM    6  C4  UNL     1      -4.238   6.047  14.901  1.00  0.00     0.036 C 
BRANCH   5   7
HETATM    7  C2  UNL     1      -2.040   6.508  14.089  1.00  0.00    -0.012 C 
HETATM    8  C1  UNL     1      -2.222   7.678  14.689  1.00  0.00     0.009 C 
ENDBRANCH   5   7
ENDBRANCH   4   5
BRANCH   4   9
HETATM    9  C5  UNL     1      -4.685   5.702  12.167  1.00  0.00     0.084 C 
BRANCH   9  10
HETATM   10  C6  UNL     1      -4.780   6.098  10.756  1.00  0.00     0.208 C 
BRANCH  10  11
HETATM   11  O1  UNL     1      -5.350   5.099   9.942  1.00  0.00    -0.396 OA
ATOM     12  H1  UNL     1      -6.077   5.417   9.420  1.00  0.00     0.209 HD
ENDBRANCH  10  11
ENDBRANCH   9  10
ENDBRANCH   4   9
ENDBRANCH   3   4
ENDBRANCH   2   3
ENDBRANCH   1   2
BRANCH   1  13
HETATM   13  C9  UNL     1      -3.391   1.883  10.618  1.00  0.00     0.154 C 
BRANCH  13  14
HETATM   14  C10 UNL     1      -4.481   2.005  11.617  1.00  0.00     0.157 C 
BRANCH  14  15
HETATM   15  O2  UNL     1      -5.755   1.768  11.196  1.00  0.00    -0.392 OA
ATOM     16  H2  UNL     1      -6.098   2.313  10.497  1.00  0.00     0.210 HD
ENDBRANCH  14  15
BRANCH  14  17
HETATM   17  C11 UNL     1      -4.250   1.052  12.809  1.00  0.00     0.208 C 
BRANCH  17  18
HETATM   18  O3  UNL     1      -4.017   1.878  13.938  1.00  0.00    -0.349 OA
BRANCH  18  19
HETATM   19  C12 UNL     1      -4.885   1.853  15.018  1.00  0.00     0.068 A 
HETATM   20  C13 UNL     1      -5.837   2.851  15.180  1.00  0.00     0.037 A 
HETATM   21  C14 UNL     1      -6.704   2.813  16.274  1.00  0.00     0.003 A 
HETATM   22  C15 UNL     1      -6.661   1.813  17.222  1.00  0.00     0.000 A 
HETATM   23  C16 UNL     1      -5.709   0.818  17.056  1.00  0.00     0.003 A 
HETATM   24  C17 UNL     1      -4.849   0.853  15.972  1.00  0.00     0.037 A 
ENDBRANCH  18  19
ENDBRANCH  17  18
ENDBRANCH  14  17
ENDBRANCH  13  14
ENDBRANCH   1  13
BRANCH   1  25
HETATM   25  O4  UNL     1      -2.064   2.969   9.186  1.00  0.00    -0.308 OA
HETATM   26  C18 UNL     1      -0.778   2.613   9.488  1.00  0.00     0.229 C 
ENDBRANCH   1  25
TORSDOF 15
ENDMDL
