MODEL 1
REMARK VINA RESULT: -5.625616520      0.000      0.000
REMARK  10 active torsions:
REMARK  status: ('A' for Active; 'I' for Inactive)
REMARK    1  A    between atoms: C2_2  and  O1_3 
REMARK    2  A    between atoms: O1_3  and  C3_4 
REMARK    3  A    between atoms: C3_4  and  C4_5 
REMARK    4  A    between atoms: C4_5  and  C5_6 
REMARK    5  A    between atoms: C5_6  and  O2_7 
REMARK    6  A    between atoms: O2_7  and  C6_8 
REMARK    7  A    between atoms: C6_8  and  C7_9 
REMARK    8  A    between atoms: C7_9  and  C10_12 
REMARK    9  A    between atoms: C10_12  and  N1_13 
REMARK   10  A    between atoms: N1_13  and  C11_16 
ROOT
HETATM    1  C7  UNL     1      -4.388   4.174  13.971  1.00  0.00    -0.002 C 
HETATM    2  C8  UNL     1      -5.369   5.295  14.129  1.00  0.00     0.019 C 
HETATM    3  C9  UNL     1      -3.020   4.624  14.318  1.00  0.00     0.019 C 
ENDROOT
BRANCH   1   4
HETATM    4  C6  UNL     1      -4.404   3.616  12.543  1.00  0.00     0.177 C 
BRANCH   4   5
HETATM    5  O2  UNL     1      -5.301   2.577  12.485  1.00  0.00    -0.390 OA
BRANCH   5   6
HETATM    6  C5  UNL     1      -4.997   1.695  11.466  1.00  0.00     0.169 C 
BRANCH   6   7
HETATM    7  C4  UNL     1      -4.280   0.460  12.045  1.00  0.00     0.053 C 
BRANCH   7   8
HETATM    8  C3  UNL     1      -3.461  -0.168  10.936  1.00  0.00     0.176 C 
BRANCH   8   9
HETATM    9  O1  UNL     1      -2.656   0.689  10.253  1.00  0.00    -0.364 OA
BRANCH   9  10
HETATM   10  C2  UNL     1      -1.438   1.201  10.286  1.00  0.00     0.124 C 
HETATM   11  C1  UNL     1      -1.152   2.224  11.089  1.00  0.00     0.037 C 
ENDBRANCH   9  10
ENDBRANCH   8   9
ENDBRANCH   7   8
ENDBRANCH   6   7
ENDBRANCH   5   6
ENDBRANCH   4   5
ENDBRANCH   1   4
BRANCH   1  12
HETATM   12  C10 UNL     1      -4.755   3.003  14.897  1.00  0.00     0.243 C 
BRANCH  12  13
HETATM   13  N1  UNL     1      -6.051   3.230  15.476  1.00  0.00    -0.070 N 
ATOM     14  H12 UNL     1      -6.078   4.034  16.101  1.00  0.00     0.277 HD
ATOM     15  H11 UNL     1      -6.739   3.568  14.803  1.00  0.00     0.277 HD
BRANCH  13  16
HETATM   16  C11 UNL     1      -6.437   1.995  16.117  1.00  0.00     0.186 C 
HETATM   17  C12 UNL     1      -6.401   1.947  17.625  1.00  0.00     0.033 C 
HETATM   18  C13 UNL     1      -5.915   0.498  17.439  1.00  0.00     0.004 C 
HETATM   19  C14 UNL     1      -5.253   1.011  16.151  1.00  0.00     0.033 C 
ENDBRANCH  13  16
ENDBRANCH  12  13
ENDBRANCH   1  12
TORSDOF 10
ENDMDL
MODEL 2
REMARK VINA RESULT: -5.541004869      1.363      2.004
REMARK  10 active torsions:
REMARK  status: ('A' for Active; 'I' for Inactive)
REMARK    1  A    between atoms: C2_2  and  O1_3 
REMARK    2  A    between atoms: O1_3  and  C3_4 
REMARK    3  A    between atoms: C3_4  and  C4_5 
REMARK    4  A    between atoms: C4_5  and  C5_6 
REMARK    5  A    between atoms: C5_6  and  O2_7 
REMARK    6  A    between atoms: O2_7  and  C6_8 
REMARK    7  A    between atoms: C6_8  and  C7_9 
REMARK    8  A    between atoms: C7_9  and  C10_12 
REMARK    9  A    between atoms: C10_12  and  N1_13 
REMARK   10  A    between atoms: N1_13  and  C11_16 
ROOT
HETATM    1  C7  UNL     1      -4.797   4.926  13.981  1.00  0.00    -0.002 C 
HETATM    2  C8  UNL     1      -6.234   5.337  14.083  1.00  0.00     0.019 C 
HETATM    3  C9  UNL     1      -3.911   5.987  14.512  1.00  0.00     0.019 C 
ENDROOT
BRANCH   1   4
HETATM    4  C6  UNL     1      -4.411   4.604  12.532  1.00  0.00     0.177 C 
BRANCH   4   5
HETATM    5  O2  UNL     1      -5.037   3.440  12.156  1.00  0.00    -0.390 OA
BRANCH   5   6
HETATM    6  C5  UNL     1      -4.349   2.792  11.148  1.00  0.00     0.169 C 
BRANCH   6   7
HETATM    7  C4  UNL     1      -3.413   1.730  11.757  1.00  0.00     0.053 C 
BRANCH   7   8
HETATM    8  C3  UNL     1      -4.263   0.753  12.543  1.00  0.00     0.176 C 
BRANCH   8   9
HETATM    9  O1  UNL     1      -4.221  -0.534  12.106  1.00  0.00    -0.364 OA
BRANCH   9  10
HETATM   10  C2  UNL     1      -3.753  -1.265  11.110  1.00  0.00     0.124 C 
HETATM   11  C1  UNL     1      -3.005  -2.340  11.350  1.00  0.00     0.037 C 
ENDBRANCH   9  10
ENDBRANCH   8   9
ENDBRANCH   7   8
ENDBRANCH   6   7
ENDBRANCH   5   6
ENDBRANCH   4   5
ENDBRANCH   1   4
BRANCH   1  12
HETATM   12  C10 UNL     1      -4.545   3.643  14.791  1.00  0.00     0.243 C 
BRANCH  12  13
HETATM   13  N1  UNL     1      -5.793   2.974  15.039  1.00  0.00    -0.070 N 
ATOM     14  H12 UNL     1      -6.595   3.602  15.037  1.00  0.00     0.277 HD
ATOM     15  H11 UNL     1      -6.093   2.381  14.265  1.00  0.00     0.277 HD
BRANCH  13  16
HETATM   16  C11 UNL     1      -5.633   2.254  16.280  1.00  0.00     0.186 C 
HETATM   17  C12 UNL     1      -5.117   0.838  16.209  1.00  0.00     0.033 C 
HETATM   18  C13 UNL     1      -6.094   0.559  17.366  1.00  0.00     0.004 C 
HETATM   19  C14 UNL     1      -6.975   1.643  16.725  1.00  0.00     0.033 C 
ENDBRANCH  13  16
ENDBRANCH  12  13
ENDBRANCH   1  12
TORSDOF 10
ENDMDL
MODEL 3
REMARK VINA RESULT: -5.418650335      0.954      1.689
REMARK  10 active torsions:
REMARK  status: ('A' for Active; 'I' for Inactive)
REMARK    1  A    between atoms: C2_2  and  O1_3 
REMARK    2  A    between atoms: O1_3  and  C3_4 
REMARK    3  A    between atoms: C3_4  and  C4_5 
REMARK    4  A    between atoms: C4_5  and  C5_6 
REMARK    5  A    between atoms: C5_6  and  O2_7 
REMARK    6  A    between atoms: O2_7  and  C6_8 
REMARK    7  A    between atoms: C6_8  and  C7_9 
REMARK    8  A    between atoms: C7_9  and  C10_12 
REMARK    9  A    between atoms: C10_12  and  N1_13 
REMARK   10  A    between atoms: N1_13  and  C11_16 
ROOT
HETATM    1  C7  UNL     1      -4.400   4.291  14.062  1.00  0.00    -0.002 C 
HETATM    2  C8  UNL     1      -5.367   5.415  14.272  1.00  0.00     0.019 C 
HETATM    3  C9  UNL     1      -3.018   4.725  14.371  1.00  0.00     0.019 C 
ENDROOT
BRANCH   1   4
HETATM    4  C6  UNL     1      -4.467   3.757  12.626  1.00  0.00     0.177 C 
BRANCH   4   5
HETATM    5  O2  UNL     1      -5.333   2.690  12.592  1.00  0.00    -0.390 OA
BRANCH   5   6
HETATM    6  C5  UNL     1      -4.924   1.730  11.687  1.00  0.00     0.169 C 
BRANCH   6   7
HETATM    7  C4  UNL     1      -3.476   1.306  11.998  1.00  0.00     0.053 C 
BRANCH   7   8
HETATM    8  C3  UNL     1      -2.900   0.658  10.755  1.00  0.00     0.176 C 
BRANCH   8   9
HETATM    9  O1  UNL     1      -3.027  -0.694  10.695  1.00  0.00    -0.364 OA
BRANCH   9  10
HETATM   10  C2  UNL     1      -3.471  -1.717  11.405  1.00  0.00     0.124 C 
HETATM   11  C1  UNL     1      -2.931  -2.926  11.266  1.00  0.00     0.037 C 
ENDBRANCH   9  10
ENDBRANCH   8   9
ENDBRANCH   7   8
ENDBRANCH   6   7
ENDBRANCH   5   6
ENDBRANCH   4   5
ENDBRANCH   1   4
BRANCH   1  12
HETATM   12  C10 UNL     1      -4.744   3.106  14.980  1.00  0.00     0.243 C 
BRANCH  12  13
HETATM   13  N1  UNL     1      -6.063   3.283  15.526  1.00  0.00    -0.070 N 
ATOM     14  H12 UNL     1      -6.131   4.073  16.167  1.00  0.00     0.277 HD
ATOM     15  H11 UNL     1      -6.741   3.616  14.841  1.00  0.00     0.277 HD
BRANCH  13  16
HETATM   16  C11 UNL     1      -6.430   2.024  16.129  1.00  0.00     0.186 C 
HETATM   17  C12 UNL     1      -6.420   1.939  17.636  1.00  0.00     0.033 C 
HETATM   18  C13 UNL     1      -5.896   0.507  17.424  1.00  0.00     0.004 C 
HETATM   19  C14 UNL     1      -5.223   1.068  16.161  1.00  0.00     0.033 C 
ENDBRANCH  13  16
ENDBRANCH  12  13
ENDBRANCH   1  12
TORSDOF 10
ENDMDL
MODEL 4
REMARK VINA RESULT: -5.415193657      2.106      5.467
REMARK  10 active torsions:
REMARK  status: ('A' for Active; 'I' for Inactive)
REMARK    1  A    between atoms: C2_2  and  O1_3 
REMARK    2  A    between atoms: O1_3  and  C3_4 
REMARK    3  A    between atoms: C3_4  and  C4_5 
REMARK    4  A    between atoms: C4_5  and  C5_6 
REMARK    5  A    between atoms: C5_6  and  O2_7 
REMARK    6  A    between atoms: O2_7  and  C6_8 
REMARK    7  A    between atoms: C6_8  and  C7_9 
REMARK    8  A    between atoms: C7_9  and  C10_12 
REMARK    9  A    between atoms: C10_12  and  N1_13 
REMARK   10  A    between atoms: N1_13  and  C11_16 
ROOT
HETATM    1  C7  UNL     1      -3.379   3.168  11.755  1.00  0.00    -0.002 C 
HETATM    2  C8  UNL     1      -1.935   3.555  11.663  1.00  0.00     0.019 C 
HETATM    3  C9  UNL     1      -4.102   3.546  10.518  1.00  0.00     0.019 C 
ENDROOT
BRANCH   1   4
HETATM    4  C6  UNL     1      -4.054   3.818  12.969  1.00  0.00     0.177 C 
BRANCH   4   5
HETATM    5  O2  UNL     1      -5.282   3.231  13.157  1.00  0.00    -0.390 OA
BRANCH   5   6
HETATM    6  C5  UNL     1      -5.593   3.115  14.499  1.00  0.00     0.169 C 
BRANCH   6   7
HETATM    7  C4  UNL     1      -4.367   2.593  15.272  1.00  0.00     0.053 C 
BRANCH   7   8
HETATM    8  C3  UNL     1      -4.533   1.098  15.457  1.00  0.00     0.176 C 
BRANCH   8   9
HETATM    9  O1  UNL     1      -4.903   0.706  16.706  1.00  0.00    -0.364 OA
BRANCH   9  10
HETATM   10  C2  UNL     1      -5.981   0.526  17.448  1.00  0.00     0.124 C 
HETATM   11  C1  UNL     1      -7.156   1.030  17.075  1.00  0.00     0.037 C 
ENDBRANCH   9  10
ENDBRANCH   8   9
ENDBRANCH   7   8
ENDBRANCH   6   7
ENDBRANCH   5   6
ENDBRANCH   4   5
ENDBRANCH   1   4
BRANCH   1  12
HETATM   12  C10 UNL     1      -3.519   1.649  11.945  1.00  0.00     0.243 C 
BRANCH  12  13
HETATM   13  N1  UNL     1      -4.584   1.153  11.116  1.00  0.00    -0.070 N 
ATOM     14  H12 UNL     1      -5.497   1.190  11.568  1.00  0.00     0.277 HD
ATOM     15  H11 UNL     1      -4.804   1.768  10.333  1.00  0.00     0.277 HD
BRANCH  13  16
HETATM   16  C11 UNL     1      -4.202  -0.178  10.708  1.00  0.00     0.186 C 
HETATM   17  C12 UNL     1      -4.160  -1.252  11.768  1.00  0.00     0.033 C 
HETATM   18  C13 UNL     1      -2.931  -1.778  11.004  1.00  0.00     0.004 C 
HETATM   19  C14 UNL     1      -2.668  -0.306  10.652  1.00  0.00     0.033 C 
ENDBRANCH  13  16
ENDBRANCH  12  13
ENDBRANCH   1  12
TORSDOF 10
ENDMDL
MODEL 5
REMARK VINA RESULT: -5.374235409      1.548      3.695
REMARK  10 active torsions:
REMARK  status: ('A' for Active; 'I' for Inactive)
REMARK    1  A    between atoms: C2_2  and  O1_3 
REMARK    2  A    between atoms: O1_3  and  C3_4 
REMARK    3  A    between atoms: C3_4  and  C4_5 
REMARK    4  A    between atoms: C4_5  and  C5_6 
REMARK    5  A    between atoms: C5_6  and  O2_7 
REMARK    6  A    between atoms: O2_7  and  C6_8 
REMARK    7  A    between atoms: C6_8  and  C7_9 
REMARK    8  A    between atoms: C7_9  and  C10_12 
REMARK    9  A    between atoms: C10_12  and  N1_13 
REMARK   10  A    between atoms: N1_13  and  C11_16 
ROOT
HETATM    1  C7  UNL     1      -4.738   2.823  14.646  1.00  0.00    -0.002 C 
HETATM    2  C8  UNL     1      -4.791   1.986  15.887  1.00  0.00     0.019 C 
HETATM    3  C9  UNL     1      -6.019   3.539  14.444  1.00  0.00     0.019 C 
ENDROOT
BRANCH   1   4
HETATM    4  C6  UNL     1      -4.420   1.971  13.412  1.00  0.00     0.177 C 
BRANCH   4   5
HETATM    5  O2  UNL     1      -5.241   2.363  12.382  1.00  0.00    -0.390 OA
BRANCH   5   6
HETATM    6  C5  UNL     1      -5.030   1.608  11.244  1.00  0.00     0.169 C 
BRANCH   6   7
HETATM    7  C4  UNL     1      -4.387   0.262  11.626  1.00  0.00     0.053 C 
BRANCH   7   8
HETATM    8  C3  UNL     1      -3.669  -0.277  10.406  1.00  0.00     0.176 C 
BRANCH   8   9
HETATM    9  O1  UNL     1      -2.532   0.385  10.063  1.00  0.00    -0.364 OA
BRANCH   9  10
HETATM   10  C2  UNL     1      -1.468   0.949  10.608  1.00  0.00     0.124 C 
HETATM   11  C1  UNL     1      -1.356   2.275  10.663  1.00  0.00     0.037 C 
ENDBRANCH   9  10
ENDBRANCH   8   9
ENDBRANCH   7   8
ENDBRANCH   6   7
ENDBRANCH   5   6
ENDBRANCH   4   5
ENDBRANCH   1   4
BRANCH   1  12
HETATM   12  C10 UNL     1      -3.617   3.870  14.750  1.00  0.00     0.243 C 
BRANCH  12  13
HETATM   13  N1  UNL     1      -2.845   3.875  13.537  1.00  0.00    -0.070 N 
ATOM     14  H12 UNL     1      -1.943   3.410  13.632  1.00  0.00     0.277 HD
ATOM     15  H11 UNL     1      -3.227   3.265  12.814  1.00  0.00     0.277 HD
BRANCH  13  16
HETATM   16  C11 UNL     1      -2.736   5.254  13.124  1.00  0.00     0.186 C 
HETATM   17  C12 UNL     1      -3.391   6.300  13.993  1.00  0.00     0.033 C 
HETATM   18  C13 UNL     1      -3.732   7.004  12.667  1.00  0.00     0.004 C 
HETATM   19  C14 UNL     1      -3.812   5.588  12.074  1.00  0.00     0.033 C 
ENDBRANCH  13  16
ENDBRANCH  12  13
ENDBRANCH   1  12
TORSDOF 10
ENDMDL
