MODEL 1
REMARK VINA RESULT: -6.107171003      0.000      0.000
REMARK  10 active torsions:
REMARK  status: ('A' for Active; 'I' for Inactive)
REMARK    1  A    between atoms: C2_2  and  C3_3 
REMARK    2  A    between atoms: C3_3  and  C4_4 
REMARK    3  A    between atoms: C4_4  and  C5_5 
REMARK    4  A    between atoms: C4_4  and  N2_9 
REMARK    5  A    between atoms: C5_5  and  C6_6 
REMARK    6  A    between atoms: N2_9  and  C8_11 
REMARK    7  A    between atoms: C8_11  and  C9_12 
REMARK    8  A    between atoms: C8_11  and  C11_15 
REMARK    9  A    between atoms: C9_12  and  O1_13 
REMARK   10  A    between atoms: C11_15  and  C12_16 
ROOT
HETATM    1  C6  UNL     1      -3.409  -0.870  10.718  1.00  0.00     0.129 C 
HETATM    2  C7  UNL     1      -2.995  -2.268  11.114  1.00  0.00     0.059 C 
HETATM    3  N1  UNL     1      -2.668  -3.339  11.419  1.00  0.00    -0.197 NA
ENDROOT
BRANCH   1   4
HETATM    4  C5  UNL     1      -4.190  -0.370  11.898  1.00  0.00     0.067 C 
BRANCH   4   5
HETATM    5  C4  UNL     1      -4.198   1.065  12.144  1.00  0.00    -0.009 C 
BRANCH   5   6
HETATM    6  C3  UNL     1      -3.537   1.962  11.128  1.00  0.00     0.078 C 
BRANCH   6   7
HETATM    7  C2  UNL     1      -2.227   2.497  11.399  1.00  0.00    -0.031 C 
HETATM    8  C1  UNL     1      -1.163   2.020  10.797  1.00  0.00     0.007 C 
ENDBRANCH   6   7
ENDBRANCH   5   6
BRANCH   5   9
HETATM    9  N2  UNL     1      -3.853   1.580  13.380  1.00  0.00    -0.368 N 
ATOM     10  H2  UNL     1      -2.878   1.437  13.646  1.00  0.00     0.165 HD
BRANCH   9  11
HETATM   11  C8  UNL     1      -4.618   2.260  14.320  1.00  0.00     0.010 C 
BRANCH  11  12
HETATM   12  C9  UNL     1      -4.233   3.681  14.583  1.00  0.00     0.219 C 
BRANCH  12  13
HETATM   13  O1  UNL     1      -2.857   3.840  14.737  1.00  0.00    -0.390 OA
HETATM   14  C10 UNL     1      -2.386   4.951  14.057  1.00  0.00     0.201 C 
ENDBRANCH  12  13
ENDBRANCH  11  12
BRANCH  11  15
HETATM   15  C11 UNL     1      -4.974   1.439  15.522  1.00  0.00     0.059 C 
BRANCH  15  16
HETATM   16  C12 UNL     1      -5.902   2.019  16.526  1.00  0.00    -0.009 A 
HETATM   17  C13 UNL     1      -7.146   1.251  16.858  1.00  0.00     0.005 A 
HETATM   18  C14 UNL     1      -6.072   1.498  17.900  1.00  0.00     0.005 A 
ENDBRANCH  15  16
ENDBRANCH  11  15
ENDBRANCH   9  11
ENDBRANCH   5   9
ENDBRANCH   4   5
ENDBRANCH   1   4
TORSDOF 10
ENDMDL
MODEL 2
REMARK VINA RESULT: -6.047220061      2.021      5.376
REMARK  10 active torsions:
REMARK  status: ('A' for Active; 'I' for Inactive)
REMARK    1  A    between atoms: C2_2  and  C3_3 
REMARK    2  A    between atoms: C3_3  and  C4_4 
REMARK    3  A    between atoms: C4_4  and  C5_5 
REMARK    4  A    between atoms: C4_4  and  N2_9 
REMARK    5  A    between atoms: C5_5  and  C6_6 
REMARK    6  A    between atoms: N2_9  and  C8_11 
REMARK    7  A    between atoms: C8_11  and  C9_12 
REMARK    8  A    between atoms: C8_11  and  C11_15 
REMARK    9  A    between atoms: C9_12  and  O1_13 
REMARK   10  A    between atoms: C11_15  and  C12_16 
ROOT
HETATM    1  C6  UNL     1      -5.943   2.230  16.476  1.00  0.00     0.129 C 
HETATM    2  C7  UNL     1      -5.866   0.806  16.975  1.00  0.00     0.059 C 
HETATM    3  N1  UNL     1      -5.813  -0.290  17.353  1.00  0.00    -0.197 NA
ENDROOT
BRANCH   1   4
HETATM    4  C5  UNL     1      -4.704   2.396  15.644  1.00  0.00     0.067 C 
BRANCH   4   5
HETATM    5  C4  UNL     1      -4.852   2.988  14.322  1.00  0.00    -0.009 C 
BRANCH   5   6
HETATM    6  C3  UNL     1      -5.841   4.113  14.156  1.00  0.00     0.078 C 
BRANCH   6   7
HETATM    7  C2  UNL     1      -5.448   5.459  14.486  1.00  0.00    -0.031 C 
HETATM    8  C1  UNL     1      -4.183   5.807  14.513  1.00  0.00     0.007 C 
ENDBRANCH   6   7
ENDBRANCH   5   6
BRANCH   5   9
HETATM    9  N2  UNL     1      -4.990   2.196  13.197  1.00  0.00    -0.368 N 
ATOM     10  H2  UNL     1      -5.897   1.738  13.106  1.00  0.00     0.165 HD
BRANCH   9  11
HETATM   11  C8  UNL     1      -4.095   1.925  12.169  1.00  0.00     0.010 C 
BRANCH  11  12
HETATM   12  C9  UNL     1      -3.006   2.929  11.958  1.00  0.00     0.219 C 
BRANCH  12  13
HETATM   13  O1  UNL     1      -1.742   2.344  11.921  1.00  0.00    -0.390 OA
HETATM   14  C10 UNL     1      -1.104   2.569  10.712  1.00  0.00     0.201 C 
ENDBRANCH  12  13
ENDBRANCH  11  12
BRANCH  11  15
HETATM   15  C11 UNL     1      -4.741   1.382  10.930  1.00  0.00     0.059 C 
BRANCH  15  16
HETATM   16  C12 UNL     1      -4.566  -0.060  10.616  1.00  0.00    -0.009 A 
HETATM   17  C13 UNL     1      -3.172  -0.564  10.389  1.00  0.00     0.005 A 
HETATM   18  C14 UNL     1      -4.005  -1.054  11.558  1.00  0.00     0.005 A 
ENDBRANCH  15  16
ENDBRANCH  11  15
ENDBRANCH   9  11
ENDBRANCH   5   9
ENDBRANCH   4   5
ENDBRANCH   1   4
TORSDOF 10
ENDMDL
MODEL 3
REMARK VINA RESULT: -6.027722523      1.522      2.920
REMARK  10 active torsions:
REMARK  status: ('A' for Active; 'I' for Inactive)
REMARK    1  A    between atoms: C2_2  and  C3_3 
REMARK    2  A    between atoms: C3_3  and  C4_4 
REMARK    3  A    between atoms: C4_4  and  C5_5 
REMARK    4  A    between atoms: C4_4  and  N2_9 
REMARK    5  A    between atoms: C5_5  and  C6_6 
REMARK    6  A    between atoms: N2_9  and  C8_11 
REMARK    7  A    between atoms: C8_11  and  C9_12 
REMARK    8  A    between atoms: C8_11  and  C11_15 
REMARK    9  A    between atoms: C9_12  and  O1_13 
REMARK   10  A    between atoms: C11_15  and  C12_16 
ROOT
HETATM    1  C6  UNL     1      -3.618  -0.558  10.864  1.00  0.00     0.129 C 
HETATM    2  C7  UNL     1      -3.079  -1.938  11.159  1.00  0.00     0.059 C 
HETATM    3  N1  UNL     1      -2.656  -2.995  11.385  1.00  0.00    -0.197 NA
ENDROOT
BRANCH   1   4
HETATM    4  C5  UNL     1      -4.189  -0.099  12.174  1.00  0.00     0.067 C 
BRANCH   4   5
HETATM    5  C4  UNL     1      -4.302   1.335  12.397  1.00  0.00    -0.009 C 
BRANCH   5   6
HETATM    6  C3  UNL     1      -3.890   2.261  11.280  1.00  0.00     0.078 C 
BRANCH   6   7
HETATM    7  C2  UNL     1      -2.667   3.013  11.395  1.00  0.00    -0.031 C 
HETATM    8  C1  UNL     1      -1.545   2.565  10.880  1.00  0.00     0.007 C 
ENDBRANCH   6   7
ENDBRANCH   5   6
BRANCH   5   9
HETATM    9  N2  UNL     1      -3.830   1.917  13.559  1.00  0.00    -0.368 N 
ATOM     10  H2  UNL     1      -2.841   2.169  13.540  1.00  0.00     0.165 HD
BRANCH   9  11
HETATM   11  C8  UNL     1      -4.483   2.214  14.749  1.00  0.00     0.010 C 
BRANCH  11  12
HETATM   12  C9  UNL     1      -4.431   1.163  15.813  1.00  0.00     0.219 C 
BRANCH  12  13
HETATM   13  O1  UNL     1      -5.656   0.522  15.988  1.00  0.00    -0.390 OA
HETATM   14  C10 UNL     1      -6.029   0.477  17.322  1.00  0.00     0.201 C 
ENDBRANCH  12  13
ENDBRANCH  11  12
BRANCH  11  15
HETATM   15  C11 UNL     1      -5.804   2.898  14.561  1.00  0.00     0.059 C 
BRANCH  15  16
HETATM   16  C12 UNL     1      -5.901   4.346  14.879  1.00  0.00    -0.009 A 
HETATM   17  C13 UNL     1      -4.753   5.229  14.490  1.00  0.00     0.005 A 
HETATM   18  C14 UNL     1      -6.126   5.405  13.871  1.00  0.00     0.005 A 
ENDBRANCH  15  16
ENDBRANCH  11  15
ENDBRANCH   9  11
ENDBRANCH   5   9
ENDBRANCH   4   5
ENDBRANCH   1   4
TORSDOF 10
ENDMDL
MODEL 4
REMARK VINA RESULT: -6.018332864      2.152      5.884
REMARK  10 active torsions:
REMARK  status: ('A' for Active; 'I' for Inactive)
REMARK    1  A    between atoms: C2_2  and  C3_3 
REMARK    2  A    between atoms: C3_3  and  C4_4 
REMARK    3  A    between atoms: C4_4  and  C5_5 
REMARK    4  A    between atoms: C4_4  and  N2_9 
REMARK    5  A    between atoms: C5_5  and  C6_6 
REMARK    6  A    between atoms: N2_9  and  C8_11 
REMARK    7  A    between atoms: C8_11  and  C9_12 
REMARK    8  A    between atoms: C8_11  and  C11_15 
REMARK    9  A    between atoms: C9_12  and  O1_13 
REMARK   10  A    between atoms: C11_15  and  C12_16 
ROOT
HETATM    1  C6  UNL     1      -5.819   2.101  16.146  1.00  0.00     0.129 C 
HETATM    2  C7  UNL     1      -5.812   0.771  16.862  1.00  0.00     0.059 C 
HETATM    3  N1  UNL     1      -5.811  -0.254  17.406  1.00  0.00    -0.197 NA
ENDROOT
BRANCH   1   4
HETATM    4  C5  UNL     1      -4.415   2.254  15.639  1.00  0.00     0.067 C 
BRANCH   4   5
HETATM    5  C4  UNL     1      -4.222   2.978  14.391  1.00  0.00    -0.009 C 
BRANCH   5   6
HETATM    6  C3  UNL     1      -5.361   3.823  13.878  1.00  0.00     0.078 C 
BRANCH   6   7
HETATM    7  C2  UNL     1      -5.336   5.248  14.083  1.00  0.00    -0.031 C 
HETATM    8  C1  UNL     1      -4.248   5.854  14.499  1.00  0.00     0.007 C 
ENDBRANCH   6   7
ENDBRANCH   5   6
BRANCH   5   9
HETATM    9  N2  UNL     1      -3.686   2.356  13.279  1.00  0.00    -0.368 N 
ATOM     10  H2  UNL     1      -2.830   1.829  13.455  1.00  0.00     0.165 HD
BRANCH   9  11
HETATM   11  C8  UNL     1      -4.124   2.330  11.960  1.00  0.00     0.010 C 
BRANCH  11  12
HETATM   12  C9  UNL     1      -4.853   1.097  11.529  1.00  0.00     0.219 C 
BRANCH  12  13
HETATM   13  O1  UNL     1      -4.541  -0.009  12.317  1.00  0.00    -0.390 OA
HETATM   14  C10 UNL     1      -3.969  -1.028  11.573  1.00  0.00     0.201 C 
ENDBRANCH  12  13
ENDBRANCH  11  12
BRANCH  11  15
HETATM   15  C11 UNL     1      -3.135   2.889  10.982  1.00  0.00     0.059 C 
BRANCH  15  16
HETATM   16  C12 UNL     1      -1.722   2.439  11.070  1.00  0.00    -0.009 A 
HETATM   17  C13 UNL     1      -1.343   1.173  10.360  1.00  0.00     0.005 A 
HETATM   18  C14 UNL     1      -0.755   2.511   9.952  1.00  0.00     0.005 A 
ENDBRANCH  15  16
ENDBRANCH  11  15
ENDBRANCH   9  11
ENDBRANCH   5   9
ENDBRANCH   4   5
ENDBRANCH   1   4
TORSDOF 10
ENDMDL
MODEL 5
REMARK VINA RESULT: -5.901716676      1.393      1.773
REMARK  10 active torsions:
REMARK  status: ('A' for Active; 'I' for Inactive)
REMARK    1  A    between atoms: C2_2  and  C3_3 
REMARK    2  A    between atoms: C3_3  and  C4_4 
REMARK    3  A    between atoms: C4_4  and  C5_5 
REMARK    4  A    between atoms: C4_4  and  N2_9 
REMARK    5  A    between atoms: C5_5  and  C6_6 
REMARK    6  A    between atoms: N2_9  and  C8_11 
REMARK    7  A    between atoms: C8_11  and  C9_12 
REMARK    8  A    between atoms: C8_11  and  C11_15 
REMARK    9  A    between atoms: C9_12  and  O1_13 
REMARK   10  A    between atoms: C11_15  and  C12_16 
ROOT
HETATM    1  C6  UNL     1      -3.780  -0.505  10.872  1.00  0.00     0.129 C 
HETATM    2  C7  UNL     1      -3.157  -1.850  11.165  1.00  0.00     0.059 C 
HETATM    3  N1  UNL     1      -2.671  -2.879  11.389  1.00  0.00    -0.197 NA
ENDROOT
BRANCH   1   4
HETATM    4  C5  UNL     1      -4.239  -0.011  12.214  1.00  0.00     0.067 C 
BRANCH   4   5
HETATM    5  C4  UNL     1      -4.111   1.412  12.490  1.00  0.00    -0.009 C 
BRANCH   5   6
HETATM    6  C3  UNL     1      -3.194   2.226  11.611  1.00  0.00     0.078 C 
BRANCH   6   7
HETATM    7  C2  UNL     1      -3.275   3.663  11.639  1.00  0.00    -0.031 C 
HETATM    8  C1  UNL     1      -4.081   4.311  10.830  1.00  0.00     0.007 C 
ENDBRANCH   6   7
ENDBRANCH   5   6
BRANCH   5   9
HETATM    9  N2  UNL     1      -3.904   1.874  13.777  1.00  0.00    -0.368 N 
ATOM     10  H2  UNL     1      -2.924   1.986  14.039  1.00  0.00     0.165 HD
BRANCH   9  11
HETATM   11  C8  UNL     1      -4.815   2.210  14.772  1.00  0.00     0.010 C 
BRANCH  11  12
HETATM   12  C9  UNL     1      -5.216   3.650  14.841  1.00  0.00     0.219 C 
BRANCH  12  13
HETATM   13  O1  UNL     1      -6.129   3.997  13.847  1.00  0.00    -0.390 OA
HETATM   14  C10 UNL     1      -6.369   5.361  13.820  1.00  0.00     0.201 C 
ENDBRANCH  12  13
ENDBRANCH  11  12
BRANCH  11  15
HETATM   15  C11 UNL     1      -4.558   1.532  16.084  1.00  0.00     0.059 C 
BRANCH  15  16
HETATM   16  C12 UNL     1      -5.709   0.939  16.810  1.00  0.00    -0.009 A 
HETATM   17  C13 UNL     1      -6.249   1.681  17.997  1.00  0.00     0.005 A 
HETATM   18  C14 UNL     1      -7.090   1.468  16.753  1.00  0.00     0.005 A 
ENDBRANCH  15  16
ENDBRANCH  11  15
ENDBRANCH   9  11
ENDBRANCH   5   9
ENDBRANCH   4   5
ENDBRANCH   1   4
TORSDOF 10
ENDMDL
