MODEL 1
REMARK VINA RESULT: -5.785912591      0.000      0.000
REMARK  11 active torsions:
REMARK  status: ('A' for Active; 'I' for Inactive)
REMARK    1  A    between atoms: C2_2  and  C3_3 
REMARK    2  A    between atoms: C3_3  and  C4_4 
REMARK    3  A    between atoms: C4_4  and  C5_5 
REMARK    4  A    between atoms: C8_8  and  C9_9 
REMARK    5  A    between atoms: C9_9  and  C10_10 
REMARK    6  A    between atoms: C10_10  and  C11_11 
REMARK    7  A    between atoms: C10_10  and  C12_14 
REMARK    8  A    between atoms: C11_11  and  O1_12 
REMARK    9  A    between atoms: C12_14  and  O2_15 
REMARK   10  A    between atoms: O2_15  and  C13_16 
REMARK   11  A    between atoms: C13_16  and  O3_17 
ROOT
HETATM    1  C9  UNL     1      -4.236   1.058  13.174  1.00  0.00     0.014 C 
ENDROOT
BRANCH   1   2
HETATM    2  C8  UNL     1      -4.783   2.298  13.742  1.00  0.00    -0.010 C 
HETATM    3  C5  UNL     1      -4.511   2.650  15.149  1.00  0.00    -0.010 C 
HETATM    4  C6  UNL     1      -3.587   3.746  14.815  1.00  0.00     0.005 C 
HETATM    5  C7  UNL     1      -3.958   3.552  13.361  1.00  0.00     0.005 C 
BRANCH   3   6
HETATM    6  C4  UNL     1      -4.192   1.696  16.205  1.00  0.00     0.009 C 
BRANCH   6   7
HETATM    7  C3  UNL     1      -5.176   0.764  16.751  1.00  0.00     0.027 C 
BRANCH   7   8
HETATM    8  C2  UNL     1      -6.350   1.479  17.326  1.00  0.00    -0.037 C 
HETATM    9  C1  UNL     1      -7.546   1.285  16.842  1.00  0.00     0.007 C 
ENDBRANCH   7   8
ENDBRANCH   6   7
ENDBRANCH   3   6
ENDBRANCH   1   2
BRANCH   1  10
HETATM   10  C10 UNL     1      -3.789   1.103  11.771  1.00  0.00     0.033 C 
BRANCH  10  11
HETATM   11  C11 UNL     1      -4.979   1.395  10.819  1.00  0.00     0.170 C 
BRANCH  11  12
HETATM   12  O1  UNL     1      -4.696   2.439   9.975  1.00  0.00    -0.400 OA
ATOM     13  H1  UNL     1      -5.119   3.239  10.264  1.00  0.00     0.209 HD
ENDBRANCH  11  12
ENDBRANCH  10  11
BRANCH  10  14
HETATM   14  C12 UNL     1      -2.831   0.148  11.200  1.00  0.00     0.177 C 
BRANCH  14  15
HETATM   15  O2  UNL     1      -2.309   0.569   9.976  1.00  0.00    -0.367 OA
BRANCH  15  16
HETATM   16  C13 UNL     1      -1.318   1.532  10.188  1.00  0.00     0.337 C 
BRANCH  16  17
HETATM   17  O3  UNL     1      -1.624   2.708   9.597  1.00  0.00    -0.372 OA
HETATM   18  C14 UNL     1      -1.497   3.844  10.334  1.00  0.00     0.204 C 
ENDBRANCH  16  17
ENDBRANCH  15  16
ENDBRANCH  14  15
ENDBRANCH  10  14
ENDBRANCH   1  10
TORSDOF 11
ENDMDL
MODEL 2
REMARK VINA RESULT: -5.746503590      1.661      2.876
REMARK  11 active torsions:
REMARK  status: ('A' for Active; 'I' for Inactive)
REMARK    1  A    between atoms: C2_2  and  C3_3 
REMARK    2  A    between atoms: C3_3  and  C4_4 
REMARK    3  A    between atoms: C4_4  and  C5_5 
REMARK    4  A    between atoms: C8_8  and  C9_9 
REMARK    5  A    between atoms: C9_9  and  C10_10 
REMARK    6  A    between atoms: C10_10  and  C11_11 
REMARK    7  A    between atoms: C10_10  and  C12_14 
REMARK    8  A    between atoms: C11_11  and  O1_12 
REMARK    9  A    between atoms: C12_14  and  O2_15 
REMARK   10  A    between atoms: O2_15  and  C13_16 
REMARK   11  A    between atoms: C13_16  and  O3_17 
ROOT
HETATM    1  C9  UNL     1      -3.956   3.425  13.269  1.00  0.00     0.014 C 
ENDROOT
BRANCH   1   2
HETATM    2  C8  UNL     1      -5.293   4.026  13.367  1.00  0.00    -0.010 C 
HETATM    3  C5  UNL     1      -6.084   3.874  14.604  1.00  0.00    -0.010 C 
HETATM    4  C6  UNL     1      -5.919   5.277  15.016  1.00  0.00     0.005 C 
HETATM    5  C7  UNL     1      -5.252   5.541  13.684  1.00  0.00     0.005 C 
BRANCH   3   6
HETATM    6  C4  UNL     1      -5.935   2.787  15.565  1.00  0.00     0.009 C 
BRANCH   6   7
HETATM    7  C3  UNL     1      -6.825   2.620  16.712  1.00  0.00     0.027 C 
BRANCH   7   8
HETATM    8  C2  UNL     1      -7.034   1.182  17.041  1.00  0.00    -0.037 C 
HETATM    9  C1  UNL     1      -6.028   0.427  17.386  1.00  0.00     0.007 C 
ENDBRANCH   7   8
ENDBRANCH   6   7
ENDBRANCH   3   6
ENDBRANCH   1   2
BRANCH   1  10
HETATM   10  C10 UNL     1      -3.787   2.319  12.310  1.00  0.00     0.033 C 
BRANCH  10  11
HETATM   11  C11 UNL     1      -2.541   2.548  11.414  1.00  0.00     0.170 C 
BRANCH  11  12
HETATM   12  O1  UNL     1      -1.666   1.495  11.502  1.00  0.00    -0.400 OA
ATOM     13  H1  UNL     1      -1.132   1.425  10.719  1.00  0.00     0.209 HD
ENDBRANCH  11  12
ENDBRANCH  10  11
BRANCH  10  14
HETATM   14  C12 UNL     1      -4.904   1.711  11.575  1.00  0.00     0.177 C 
BRANCH  14  15
HETATM   15  O2  UNL     1      -4.522   1.192  10.338  1.00  0.00    -0.367 OA
BRANCH  15  16
HETATM   16  C13 UNL     1      -4.572  -0.205  10.373  1.00  0.00     0.337 C 
BRANCH  16  17
HETATM   17  O3  UNL     1      -3.337  -0.752  10.419  1.00  0.00    -0.372 OA
HETATM   18  C14 UNL     1      -3.141  -1.816  11.243  1.00  0.00     0.204 C 
ENDBRANCH  16  17
ENDBRANCH  15  16
ENDBRANCH  14  15
ENDBRANCH  10  14
ENDBRANCH   1  10
TORSDOF 11
ENDMDL
MODEL 3
REMARK VINA RESULT: -5.656062048      1.583      2.405
REMARK  11 active torsions:
REMARK  status: ('A' for Active; 'I' for Inactive)
REMARK    1  A    between atoms: C2_2  and  C3_3 
REMARK    2  A    between atoms: C3_3  and  C4_4 
REMARK    3  A    between atoms: C4_4  and  C5_5 
REMARK    4  A    between atoms: C8_8  and  C9_9 
REMARK    5  A    between atoms: C9_9  and  C10_10 
REMARK    6  A    between atoms: C10_10  and  C11_11 
REMARK    7  A    between atoms: C10_10  and  C12_14 
REMARK    8  A    between atoms: C11_11  and  O1_12 
REMARK    9  A    between atoms: C12_14  and  O2_15 
REMARK   10  A    between atoms: O2_15  and  C13_16 
REMARK   11  A    between atoms: C13_16  and  O3_17 
ROOT
HETATM    1  C9  UNL     1      -4.080   3.358  13.115  1.00  0.00     0.014 C 
ENDROOT
BRANCH   1   2
HETATM    2  C8  UNL     1      -5.345   4.076  13.321  1.00  0.00    -0.010 C 
HETATM    3  C5  UNL     1      -6.074   3.938  14.597  1.00  0.00    -0.010 C 
HETATM    4  C6  UNL     1      -5.751   5.298  15.058  1.00  0.00     0.005 C 
HETATM    5  C7  UNL     1      -5.140   5.564  13.700  1.00  0.00     0.005 C 
BRANCH   3   6
HETATM    6  C4  UNL     1      -5.974   2.797  15.500  1.00  0.00     0.009 C 
BRANCH   6   7
HETATM    7  C3  UNL     1      -6.811   2.656  16.690  1.00  0.00     0.027 C 
BRANCH   7   8
HETATM    8  C2  UNL     1      -7.022   1.225  17.047  1.00  0.00    -0.037 C 
HETATM    9  C1  UNL     1      -6.015   0.472  17.391  1.00  0.00     0.007 C 
ENDBRANCH   7   8
ENDBRANCH   6   7
ENDBRANCH   3   6
ENDBRANCH   1   2
BRANCH   1  10
HETATM   10  C10 UNL     1      -3.338   3.650  11.875  1.00  0.00     0.033 C 
BRANCH  10  11
HETATM   11  C11 UNL     1      -4.300   3.734  10.660  1.00  0.00     0.170 C 
BRANCH  11  12
HETATM   12  O1  UNL     1      -4.746   2.489  10.294  1.00  0.00    -0.400 OA
ATOM     13  H1  UNL     1      -5.351   2.542   9.563  1.00  0.00     0.209 HD
ENDBRANCH  11  12
ENDBRANCH  10  11
BRANCH  10  14
HETATM   14  C12 UNL     1      -2.056   3.019  11.536  1.00  0.00     0.177 C 
BRANCH  14  15
HETATM   15  O2  UNL     1      -2.054   1.641  11.755  1.00  0.00    -0.367 OA
BRANCH  15  16
HETATM   16  C13 UNL     1      -1.625   0.977  10.601  1.00  0.00     0.337 C 
BRANCH  16  17
HETATM   17  O3  UNL     1      -2.642   0.340   9.979  1.00  0.00    -0.372 OA
HETATM   18  C14 UNL     1      -3.244  -0.690  10.632  1.00  0.00     0.204 C 
ENDBRANCH  16  17
ENDBRANCH  15  16
ENDBRANCH  14  15
ENDBRANCH  10  14
ENDBRANCH   1  10
TORSDOF 11
ENDMDL
MODEL 4
REMARK VINA RESULT: -5.612843990      1.630      2.498
REMARK  11 active torsions:
REMARK  status: ('A' for Active; 'I' for Inactive)
REMARK    1  A    between atoms: C2_2  and  C3_3 
REMARK    2  A    between atoms: C3_3  and  C4_4 
REMARK    3  A    between atoms: C4_4  and  C5_5 
REMARK    4  A    between atoms: C8_8  and  C9_9 
REMARK    5  A    between atoms: C9_9  and  C10_10 
REMARK    6  A    between atoms: C10_10  and  C11_11 
REMARK    7  A    between atoms: C10_10  and  C12_14 
REMARK    8  A    between atoms: C11_11  and  O1_12 
REMARK    9  A    between atoms: C12_14  and  O2_15 
REMARK   10  A    between atoms: O2_15  and  C13_16 
REMARK   11  A    between atoms: C13_16  and  O3_17 
ROOT
HETATM    1  C9  UNL     1      -4.170   3.587  13.199  1.00  0.00     0.014 C 
ENDROOT
BRANCH   1   2
HETATM    2  C8  UNL     1      -5.444   4.269  13.459  1.00  0.00    -0.010 C 
HETATM    3  C5  UNL     1      -6.164   4.034  14.726  1.00  0.00    -0.010 C 
HETATM    4  C6  UNL     1      -5.859   5.364  15.278  1.00  0.00     0.005 C 
HETATM    5  C7  UNL     1      -5.259   5.731  13.938  1.00  0.00     0.005 C 
BRANCH   3   6
HETATM    6  C4  UNL     1      -6.043   2.835  15.549  1.00  0.00     0.009 C 
BRANCH   6   7
HETATM    7  C3  UNL     1      -6.846   2.617  16.750  1.00  0.00     0.027 C 
BRANCH   7   8
HETATM    8  C2  UNL     1      -7.022   1.165  17.037  1.00  0.00    -0.037 C 
HETATM    9  C1  UNL     1      -6.000   0.429  17.379  1.00  0.00     0.007 C 
ENDBRANCH   7   8
ENDBRANCH   6   7
ENDBRANCH   3   6
ENDBRANCH   1   2
BRANCH   1  10
HETATM   10  C10 UNL     1      -4.075   2.794  11.960  1.00  0.00     0.033 C 
BRANCH  10  11
HETATM   11  C11 UNL     1      -3.676   3.691  10.758  1.00  0.00     0.170 C 
BRANCH  11  12
HETATM   12  O1  UNL     1      -4.775   4.049  10.019  1.00  0.00    -0.400 OA
ATOM     13  H1  UNL     1      -4.525   4.339   9.149  1.00  0.00     0.209 HD
ENDBRANCH  11  12
ENDBRANCH  10  11
BRANCH  10  14
HETATM   14  C12 UNL     1      -5.047   1.757  11.591  1.00  0.00     0.177 C 
BRANCH  14  15
HETATM   15  O2  UNL     1      -4.781   1.182  10.347  1.00  0.00    -0.367 OA
BRANCH  15  16
HETATM   16  C13 UNL     1      -4.167  -0.062  10.520  1.00  0.00     0.337 C 
BRANCH  16  17
HETATM   17  O3  UNL     1      -2.933  -0.095   9.970  1.00  0.00    -0.372 OA
HETATM   18  C14 UNL     1      -1.880   0.286  10.742  1.00  0.00     0.204 C 
ENDBRANCH  16  17
ENDBRANCH  15  16
ENDBRANCH  14  15
ENDBRANCH  10  14
ENDBRANCH   1  10
TORSDOF 11
ENDMDL
MODEL 5
REMARK VINA RESULT: -5.610687912      1.258      1.655
REMARK  11 active torsions:
REMARK  status: ('A' for Active; 'I' for Inactive)
REMARK    1  A    between atoms: C2_2  and  C3_3 
REMARK    2  A    between atoms: C3_3  and  C4_4 
REMARK    3  A    between atoms: C4_4  and  C5_5 
REMARK    4  A    between atoms: C8_8  and  C9_9 
REMARK    5  A    between atoms: C9_9  and  C10_10 
REMARK    6  A    between atoms: C10_10  and  C11_11 
REMARK    7  A    between atoms: C10_10  and  C12_14 
REMARK    8  A    between atoms: C11_11  and  O1_12 
REMARK    9  A    between atoms: C12_14  and  O2_15 
REMARK   10  A    between atoms: O2_15  and  C13_16 
REMARK   11  A    between atoms: C13_16  and  O3_17 
ROOT
HETATM    1  C9  UNL     1      -4.409   2.262  13.551  1.00  0.00     0.014 C 
ENDROOT
BRANCH   1   2
HETATM    2  C8  UNL     1      -5.503   3.241  13.581  1.00  0.00    -0.010 C 
HETATM    3  C5  UNL     1      -6.082   3.665  14.871  1.00  0.00    -0.010 C 
HETATM    4  C6  UNL     1      -5.485   5.009  14.827  1.00  0.00     0.005 C 
HETATM    5  C7  UNL     1      -5.011   4.701  13.424  1.00  0.00     0.005 C 
BRANCH   3   6
HETATM    6  C4  UNL     1      -6.062   2.875  16.098  1.00  0.00     0.009 C 
BRANCH   6   7
HETATM    7  C3  UNL     1      -7.275   2.336  16.710  1.00  0.00     0.027 C 
BRANCH   7   8
HETATM    8  C2  UNL     1      -7.094   0.919  17.132  1.00  0.00    -0.037 C 
HETATM    9  C1  UNL     1      -5.901   0.439  17.350  1.00  0.00     0.007 C 
ENDBRANCH   7   8
ENDBRANCH   6   7
ENDBRANCH   3   6
ENDBRANCH   1   2
BRANCH   1  10
HETATM   10  C10 UNL     1      -4.192   1.537  12.286  1.00  0.00     0.033 C 
BRANCH  10  11
HETATM   11  C11 UNL     1      -5.216   1.984  11.209  1.00  0.00     0.170 C 
BRANCH  11  12
HETATM   12  O1  UNL     1      -4.592   2.282  10.024  1.00  0.00    -0.400 OA
ATOM     13  H1  UNL     1      -4.322   3.192   9.998  1.00  0.00     0.209 HD
ENDBRANCH  11  12
ENDBRANCH  10  11
BRANCH  10  14
HETATM   14  C12 UNL     1      -3.897   0.100  12.221  1.00  0.00     0.177 C 
BRANCH  14  15
HETATM   15  O2  UNL     1      -3.359  -0.289  10.995  1.00  0.00    -0.367 OA
BRANCH  15  16
HETATM   16  C13 UNL     1      -2.026   0.124  10.908  1.00  0.00     0.337 C 
BRANCH  16  17
HETATM   17  O3  UNL     1      -1.823   0.956   9.862  1.00  0.00    -0.372 OA
HETATM   18  C14 UNL     1      -1.041   2.051  10.060  1.00  0.00     0.204 C 
ENDBRANCH  16  17
ENDBRANCH  15  16
ENDBRANCH  14  15
ENDBRANCH  10  14
ENDBRANCH   1  10
TORSDOF 11
ENDMDL
