MODEL 1
REMARK VINA RESULT: -5.535615261      0.000      0.000
REMARK  10 active torsions:
REMARK  status: ('A' for Active; 'I' for Inactive)
REMARK    1  A    between atoms: C2_2  and  C4_4 
REMARK    2  A    between atoms: C4_4  and  O1_5 
REMARK    3  A    between atoms: O1_5  and  C5_6 
REMARK    4  A    between atoms: C5_6  and  C6_7 
REMARK    5  A    between atoms: C6_7  and  O2_8 
REMARK    6  A    between atoms: O2_8  and  C7_9 
REMARK    7  A    between atoms: C7_9  and  C8_10 
REMARK    8  A    between atoms: C8_10  and  N1_12 
REMARK    9  A    between atoms: N1_12  and  C10_14 
REMARK   10  A    between atoms: C10_14  and  C11_15 
ROOT
HETATM    1  C7  UNL     1      -4.832   1.975  12.345  1.00  0.00     0.192 C 
ENDROOT
BRANCH   1   2
HETATM    2  O2  UNL     1      -4.560   0.652  12.300  1.00  0.00    -0.387 OA
BRANCH   2   3
HETATM    3  C6  UNL     1      -4.580  -0.022  11.132  1.00  0.00     0.193 C 
BRANCH   3   4
HETATM    4  C5  UNL     1      -3.233  -0.557  10.756  1.00  0.00     0.193 C 
BRANCH   4   5
HETATM    5  O1  UNL     1      -2.503   0.329   9.972  1.00  0.00    -0.389 OA
BRANCH   5   6
HETATM    6  C4  UNL     1      -1.486   0.978  10.603  1.00  0.00     0.171 C 
BRANCH   6   7
HETATM    7  C2  UNL     1      -1.610   2.480  10.344  1.00  0.00     0.001 C 
HETATM    8  C1  UNL     1      -0.676   2.923   9.230  1.00  0.00     0.011 C 
HETATM    9  C3  UNL     1      -1.169   3.232  11.586  1.00  0.00     0.011 C 
ENDBRANCH   6   7
ENDBRANCH   5   6
ENDBRANCH   4   5
ENDBRANCH   3   4
ENDBRANCH   2   3
ENDBRANCH   1   2
BRANCH   1  10
HETATM   10  C8  UNL     1      -4.368   2.452  13.744  1.00  0.00     0.096 C 
HETATM   11  C9  UNL     1      -5.314   3.538  14.189  1.00  0.00     0.034 C 
BRANCH  10  12
HETATM   12  N1  UNL     1      -4.465   1.329  14.644  1.00  0.00    -0.415 N 
ATOM     13  H1  UNL     1      -4.577   0.370  14.316  1.00  0.00     0.153 HD
BRANCH  12  14
HETATM   14  C10 UNL     1      -4.390   1.664  16.035  1.00  0.00     0.118 C 
BRANCH  14  15
HETATM   15  C11 UNL     1      -5.435   0.891  16.791  1.00  0.00     0.003 A 
HETATM   16  C12 UNL     1      -6.094   1.610  17.935  1.00  0.00     0.007 A 
HETATM   17  C13 UNL     1      -6.859   1.294  16.689  1.00  0.00     0.007 A 
ENDBRANCH  14  15
ENDBRANCH  12  14
ENDBRANCH  10  12
ENDBRANCH   1  10
TORSDOF 10
ENDMDL
MODEL 2
REMARK VINA RESULT: -5.524403528      1.451      2.971
REMARK  10 active torsions:
REMARK  status: ('A' for Active; 'I' for Inactive)
REMARK    1  A    between atoms: C2_2  and  C4_4 
REMARK    2  A    between atoms: C4_4  and  O1_5 
REMARK    3  A    between atoms: O1_5  and  C5_6 
REMARK    4  A    between atoms: C5_6  and  C6_7 
REMARK    5  A    between atoms: C6_7  and  O2_8 
REMARK    6  A    between atoms: O2_8  and  C7_9 
REMARK    7  A    between atoms: C7_9  and  C8_10 
REMARK    8  A    between atoms: C8_10  and  N1_12 
REMARK    9  A    between atoms: N1_12  and  C10_14 
REMARK   10  A    between atoms: C10_14  and  C11_15 
ROOT
HETATM    1  C7  UNL     1      -3.112   4.438  13.987  1.00  0.00     0.192 C 
ENDROOT
BRANCH   1   2
HETATM    2  O2  UNL     1      -2.582   3.518  13.151  1.00  0.00    -0.387 OA
BRANCH   2   3
HETATM    3  C6  UNL     1      -1.945   3.891  12.022  1.00  0.00     0.193 C 
BRANCH   3   4
HETATM    4  C5  UNL     1      -1.432   2.722  11.240  1.00  0.00     0.193 C 
BRANCH   4   5
HETATM    5  O1  UNL     1      -1.954   1.511  11.679  1.00  0.00    -0.389 OA
BRANCH   5   6
HETATM    6  C4  UNL     1      -1.939   0.497  10.771  1.00  0.00     0.171 C 
BRANCH   6   7
HETATM    7  C2  UNL     1      -3.282  -0.234  10.809  1.00  0.00     0.001 C 
HETATM    8  C1  UNL     1      -4.173   0.312  11.913  1.00  0.00     0.011 C 
HETATM    9  C3  UNL     1      -3.040  -1.693  11.149  1.00  0.00     0.011 C 
ENDBRANCH   6   7
ENDBRANCH   5   6
ENDBRANCH   4   5
ENDBRANCH   3   4
ENDBRANCH   2   3
ENDBRANCH   1   2
BRANCH   1  10
HETATM   10  C8  UNL     1      -4.267   3.718  14.726  1.00  0.00     0.096 C 
HETATM   11  C9  UNL     1      -5.328   3.399  13.705  1.00  0.00     0.034 C 
BRANCH  10  12
HETATM   12  N1  UNL     1      -3.740   2.491  15.273  1.00  0.00    -0.415 N 
ATOM     13  H1  UNL     1      -2.754   2.373  15.506  1.00  0.00     0.153 HD
BRANCH  12  14
HETATM   14  C10 UNL     1      -4.706   1.452  15.463  1.00  0.00     0.118 C 
BRANCH  14  15
HETATM   15  C11 UNL     1      -5.343   1.603  16.817  1.00  0.00     0.003 A 
HETATM   16  C12 UNL     1      -6.845   1.582  16.850  1.00  0.00     0.007 A 
HETATM   17  C13 UNL     1      -6.053   0.450  17.424  1.00  0.00     0.007 A 
ENDBRANCH  14  15
ENDBRANCH  12  14
ENDBRANCH  10  12
ENDBRANCH   1  10
TORSDOF 10
ENDMDL
MODEL 3
REMARK VINA RESULT: -5.494013805      1.621      2.722
REMARK  10 active torsions:
REMARK  status: ('A' for Active; 'I' for Inactive)
REMARK    1  A    between atoms: C2_2  and  C4_4 
REMARK    2  A    between atoms: C4_4  and  O1_5 
REMARK    3  A    between atoms: O1_5  and  C5_6 
REMARK    4  A    between atoms: C5_6  and  C6_7 
REMARK    5  A    between atoms: C6_7  and  O2_8 
REMARK    6  A    between atoms: O2_8  and  C7_9 
REMARK    7  A    between atoms: C7_9  and  C8_10 
REMARK    8  A    between atoms: C8_10  and  N1_12 
REMARK    9  A    between atoms: N1_12  and  C10_14 
REMARK   10  A    between atoms: C10_14  and  C11_15 
ROOT
HETATM    1  C7  UNL     1      -3.114   4.201  13.539  1.00  0.00     0.192 C 
ENDROOT
BRANCH   1   2
HETATM    2  O2  UNL     1      -3.133   3.140  12.701  1.00  0.00    -0.387 OA
BRANCH   2   3
HETATM    3  C6  UNL     1      -3.489   3.284  11.407  1.00  0.00     0.193 C 
BRANCH   3   4
HETATM    4  C5  UNL     1      -4.727   2.516  11.065  1.00  0.00     0.193 C 
BRANCH   4   5
HETATM    5  O1  UNL     1      -4.466   1.396  10.283  1.00  0.00    -0.389 OA
BRANCH   5   6
HETATM    6  C4  UNL     1      -4.422   0.209  10.947  1.00  0.00     0.171 C 
BRANCH   6   7
HETATM    7  C2  UNL     1      -3.202  -0.585  10.480  1.00  0.00     0.001 C 
HETATM    8  C1  UNL     1      -3.102  -1.917  11.207  1.00  0.00     0.011 C 
HETATM    9  C3  UNL     1      -1.945   0.185  10.839  1.00  0.00     0.011 C 
ENDBRANCH   6   7
ENDBRANCH   5   6
ENDBRANCH   4   5
ENDBRANCH   3   4
ENDBRANCH   2   3
ENDBRANCH   1   2
BRANCH   1  10
HETATM   10  C8  UNL     1      -4.009   3.803  14.739  1.00  0.00     0.096 C 
HETATM   11  C9  UNL     1      -5.384   4.366  14.484  1.00  0.00     0.034 C 
BRANCH  10  12
HETATM   12  N1  UNL     1      -4.077   2.363  14.777  1.00  0.00    -0.415 N 
ATOM     13  H1  UNL     1      -4.012   1.788  13.937  1.00  0.00     0.153 HD
BRANCH  12  14
HETATM   14  C10 UNL     1      -4.242   1.802  16.084  1.00  0.00     0.118 C 
BRANCH  14  15
HETATM   15  C11 UNL     1      -5.538   1.043  16.143  1.00  0.00     0.003 A 
HETATM   16  C12 UNL     1      -5.981   0.591  17.506  1.00  0.00     0.007 A 
HETATM   17  C13 UNL     1      -6.723   1.668  16.781  1.00  0.00     0.007 A 
ENDBRANCH  14  15
ENDBRANCH  12  14
ENDBRANCH  10  12
ENDBRANCH   1  10
TORSDOF 10
ENDMDL
MODEL 4
REMARK VINA RESULT: -5.424024818      1.799      2.961
REMARK  10 active torsions:
REMARK  status: ('A' for Active; 'I' for Inactive)
REMARK    1  A    between atoms: C2_2  and  C4_4 
REMARK    2  A    between atoms: C4_4  and  O1_5 
REMARK    3  A    between atoms: O1_5  and  C5_6 
REMARK    4  A    between atoms: C5_6  and  C6_7 
REMARK    5  A    between atoms: C6_7  and  O2_8 
REMARK    6  A    between atoms: O2_8  and  C7_9 
REMARK    7  A    between atoms: C7_9  and  C8_10 
REMARK    8  A    between atoms: C8_10  and  N1_12 
REMARK    9  A    between atoms: N1_12  and  C10_14 
REMARK   10  A    between atoms: C10_14  and  C11_15 
ROOT
HETATM    1  C7  UNL     1      -3.458   4.223  14.153  1.00  0.00     0.192 C 
ENDROOT
BRANCH   1   2
HETATM    2  O2  UNL     1      -3.240   3.356  13.139  1.00  0.00    -0.387 OA
BRANCH   2   3
HETATM    3  C6  UNL     1      -3.097   3.793  11.871  1.00  0.00     0.193 C 
BRANCH   3   4
HETATM    4  C5  UNL     1      -4.181   3.292  10.967  1.00  0.00     0.193 C 
BRANCH   4   5
HETATM    5  O1  UNL     1      -4.860   2.200  11.495  1.00  0.00    -0.389 OA
BRANCH   5   6
HETATM    6  C4  UNL     1      -4.696   1.024  10.830  1.00  0.00     0.171 C 
BRANCH   6   7
HETATM    7  C2  UNL     1      -3.639   0.182  11.546  1.00  0.00     0.001 C 
HETATM    8  C1  UNL     1      -2.299   0.260  10.833  1.00  0.00     0.011 C 
HETATM    9  C3  UNL     1      -4.056  -1.276  11.500  1.00  0.00     0.011 C 
ENDBRANCH   6   7
ENDBRANCH   5   6
ENDBRANCH   4   5
ENDBRANCH   3   4
ENDBRANCH   2   3
ENDBRANCH   1   2
BRANCH   1  10
HETATM   10  C8  UNL     1      -4.822   3.817  14.766  1.00  0.00     0.096 C 
HETATM   11  C9  UNL     1      -5.886   4.642  14.088  1.00  0.00     0.034 C 
BRANCH  10  12
HETATM   12  N1  UNL     1      -5.035   2.420  14.474  1.00  0.00    -0.415 N 
ATOM     13  H1  UNL     1      -5.099   2.062  13.521  1.00  0.00     0.153 HD
BRANCH  12  14
HETATM   14  C10 UNL     1      -5.151   1.575  15.624  1.00  0.00     0.118 C 
BRANCH  14  15
HETATM   15  C11 UNL     1      -6.237   2.099  16.522  1.00  0.00     0.003 A 
HETATM   16  C12 UNL     1      -7.235   1.089  17.015  1.00  0.00     0.007 A 
HETATM   17  C13 UNL     1      -6.251   1.711  17.955  1.00  0.00     0.007 A 
ENDBRANCH  14  15
ENDBRANCH  12  14
ENDBRANCH  10  12
ENDBRANCH   1  10
TORSDOF 10
ENDMDL
MODEL 5
REMARK VINA RESULT: -5.396425830      1.088      1.213
REMARK  10 active torsions:
REMARK  status: ('A' for Active; 'I' for Inactive)
REMARK    1  A    between atoms: C2_2  and  C4_4 
REMARK    2  A    between atoms: C4_4  and  O1_5 
REMARK    3  A    between atoms: O1_5  and  C5_6 
REMARK    4  A    between atoms: C5_6  and  C6_7 
REMARK    5  A    between atoms: C6_7  and  O2_8 
REMARK    6  A    between atoms: O2_8  and  C7_9 
REMARK    7  A    between atoms: C7_9  and  C8_10 
REMARK    8  A    between atoms: C8_10  and  N1_12 
REMARK    9  A    between atoms: N1_12  and  C10_14 
REMARK   10  A    between atoms: C10_14  and  C11_15 
ROOT
HETATM    1  C7  UNL     1      -4.490   2.198  12.933  1.00  0.00     0.192 C 
ENDROOT
BRANCH   1   2
HETATM    2  O2  UNL     1      -4.526   0.855  13.080  1.00  0.00    -0.387 OA
BRANCH   2   3
HETATM    3  C6  UNL     1      -4.133   0.037  12.082  1.00  0.00     0.193 C 
BRANCH   3   4
HETATM    4  C5  UNL     1      -3.950   0.761  10.786  1.00  0.00     0.193 C 
BRANCH   4   5
HETATM    5  O1  UNL     1      -2.771   0.415  10.137  1.00  0.00    -0.389 OA
BRANCH   5   6
HETATM    6  C4  UNL     1      -1.628   0.918  10.679  1.00  0.00     0.171 C 
BRANCH   6   7
HETATM    7  C2  UNL     1      -1.562   2.422  10.408  1.00  0.00     0.001 C 
HETATM    8  C1  UNL     1      -0.704   2.723   9.189  1.00  0.00     0.011 C 
HETATM    9  C3  UNL     1      -0.882   3.105  11.580  1.00  0.00     0.011 C 
ENDBRANCH   6   7
ENDBRANCH   5   6
ENDBRANCH   4   5
ENDBRANCH   3   4
ENDBRANCH   2   3
ENDBRANCH   1   2
BRANCH   1  10
HETATM   10  C8  UNL     1      -4.584   2.781  14.365  1.00  0.00     0.096 C 
HETATM   11  C9  UNL     1      -3.544   3.865  14.482  1.00  0.00     0.034 C 
BRANCH  10  12
HETATM   12  N1  UNL     1      -5.899   3.354  14.519  1.00  0.00    -0.415 N 
ATOM     13  H1  UNL     1      -6.383   3.831  13.758  1.00  0.00     0.153 HD
BRANCH  12  14
HETATM   14  C10 UNL     1      -6.473   3.205  15.823  1.00  0.00     0.118 C 
BRANCH  14  15
HETATM   15  C11 UNL     1      -6.172   1.827  16.346  1.00  0.00     0.003 A 
HETATM   16  C12 UNL     1      -6.141   1.678  17.841  1.00  0.00     0.007 A 
HETATM   17  C13 UNL     1      -7.238   1.058  17.035  1.00  0.00     0.007 A 
ENDBRANCH  14  15
ENDBRANCH  12  14
ENDBRANCH  10  12
ENDBRANCH   1  10
TORSDOF 10
ENDMDL
