MODEL 1
REMARK VINA RESULT: -6.286109797      0.000      0.000
REMARK  10 active torsions:
REMARK  status: ('A' for Active; 'I' for Inactive)
REMARK    1  A    between atoms: C2_2  and  C3_3 
REMARK    2  A    between atoms: C3_3  and  C4_4 
REMARK    3  A    between atoms: C4_4  and  C5_5 
REMARK    4  A    between atoms: C5_5  and  O1_6 
REMARK    5  A    between atoms: O1_6  and  C6_7 
REMARK    6  A    between atoms: C6_7  and  C7_8 
REMARK    7  A    between atoms: C7_8  and  O2_9 
REMARK    8  A    between atoms: C7_8  and  C8_11 
REMARK    9  A    between atoms: C8_11  and  O3_12 
REMARK   10  A    between atoms: O3_12  and  C9_13 
ROOT
HETATM    1  C7  UNL     1      -4.561   2.422  11.693  1.00  0.00     0.166 C 
ENDROOT
BRANCH   1   2
HETATM    2  C6  UNL     1      -4.095   3.480  10.744  1.00  0.00     0.201 C 
BRANCH   2   3
HETATM    3  O1  UNL     1      -3.019   3.007  10.029  1.00  0.00    -0.389 OA
BRANCH   3   4
HETATM    4  C5  UNL     1      -1.976   2.497  10.742  1.00  0.00     0.168 C 
BRANCH   4   5
HETATM    5  C4  UNL     1      -1.451   1.206  10.148  1.00  0.00     0.030 C 
BRANCH   5   6
HETATM    6  C3  UNL     1      -1.894   0.089  11.093  1.00  0.00     0.028 C 
BRANCH   6   7
HETATM    7  C2  UNL     1      -3.081  -0.611  10.607  1.00  0.00    -0.037 C 
HETATM    8  C1  UNL     1      -3.885  -1.233  11.451  1.00  0.00     0.007 C 
ENDBRANCH   6   7
ENDBRANCH   5   6
ENDBRANCH   4   5
ENDBRANCH   3   4
ENDBRANCH   2   3
ENDBRANCH   1   2
BRANCH   1   9
HETATM    9  O2  UNL     1      -5.721   1.864  11.162  1.00  0.00    -0.391 OA
ATOM     10  H2  UNL     1      -6.094   1.294  11.824  1.00  0.00     0.210 HD
ENDBRANCH   1   9
BRANCH   1  11
HETATM   11  C8  UNL     1      -4.892   2.987  13.065  1.00  0.00     0.209 C 
BRANCH  11  12
HETATM   12  O3  UNL     1      -4.297   2.206  14.090  1.00  0.00    -0.349 OA
BRANCH  12  13
HETATM   13  C9  UNL     1      -5.065   1.935  15.211  1.00  0.00     0.068 A 
HETATM   14  C10 UNL     1      -6.036   2.839  15.588  1.00  0.00     0.037 A 
HETATM   15  C11 UNL     1      -6.811   2.579  16.708  1.00  0.00     0.003 A 
HETATM   16  C12 UNL     1      -6.637   1.437  17.458  1.00  0.00     0.000 A 
HETATM   17  C13 UNL     1      -5.663   0.523  17.086  1.00  0.00     0.003 A 
HETATM   18  C14 UNL     1      -4.901   0.796  15.969  1.00  0.00     0.037 A 
ENDBRANCH  12  13
ENDBRANCH  11  12
ENDBRANCH   1  11
TORSDOF 10
ENDMDL
MODEL 2
REMARK VINA RESULT: -6.257145518      0.050      1.153
REMARK  10 active torsions:
REMARK  status: ('A' for Active; 'I' for Inactive)
REMARK    1  A    between atoms: C2_2  and  C3_3 
REMARK    2  A    between atoms: C3_3  and  C4_4 
REMARK    3  A    between atoms: C4_4  and  C5_5 
REMARK    4  A    between atoms: C5_5  and  O1_6 
REMARK    5  A    between atoms: O1_6  and  C6_7 
REMARK    6  A    between atoms: C6_7  and  C7_8 
REMARK    7  A    between atoms: C7_8  and  O2_9 
REMARK    8  A    between atoms: C7_8  and  C8_11 
REMARK    9  A    between atoms: C8_11  and  O3_12 
REMARK   10  A    between atoms: O3_12  and  C9_13 
ROOT
HETATM    1  C7  UNL     1      -4.559   2.418  11.657  1.00  0.00     0.166 C 
ENDROOT
BRANCH   1   2
HETATM    2  C6  UNL     1      -4.110   3.476  10.699  1.00  0.00     0.201 C 
BRANCH   2   3
HETATM    3  O1  UNL     1      -2.977   3.047  10.047  1.00  0.00    -0.389 OA
BRANCH   3   4
HETATM    4  C5  UNL     1      -2.013   2.451  10.804  1.00  0.00     0.168 C 
BRANCH   4   5
HETATM    5  C4  UNL     1      -1.474   1.191  10.160  1.00  0.00     0.030 C 
BRANCH   5   6
HETATM    6  C3  UNL     1      -1.893   0.035  11.068  1.00  0.00     0.028 C 
BRANCH   6   7
HETATM    7  C2  UNL     1      -3.114  -0.621  10.606  1.00  0.00    -0.037 C 
HETATM    8  C1  UNL     1      -3.893  -1.264  11.457  1.00  0.00     0.007 C 
ENDBRANCH   6   7
ENDBRANCH   5   6
ENDBRANCH   4   5
ENDBRANCH   3   4
ENDBRANCH   2   3
ENDBRANCH   1   2
BRANCH   1   9
HETATM    9  O2  UNL     1      -5.729   1.860  11.146  1.00  0.00    -0.391 OA
ATOM     10  H2  UNL     1      -5.508   1.432  10.328  1.00  0.00     0.210 HD
ENDBRANCH   1   9
BRANCH   1  11
HETATM   11  C8  UNL     1      -4.864   2.983  13.034  1.00  0.00     0.209 C 
BRANCH  11  12
HETATM   12  O3  UNL     1      -4.302   2.167  14.051  1.00  0.00    -0.349 OA
BRANCH  12  13
HETATM   13  C9  UNL     1      -5.069   1.942  15.183  1.00  0.00     0.068 A 
HETATM   14  C10 UNL     1      -4.862   0.788  15.910  1.00  0.00     0.037 A 
HETATM   15  C11 UNL     1      -5.623   0.553  17.045  1.00  0.00     0.003 A 
HETATM   16  C12 UNL     1      -6.584   1.443  17.468  1.00  0.00     0.000 A 
HETATM   17  C13 UNL     1      -6.799   2.605  16.743  1.00  0.00     0.003 A 
HETATM   18  C14 UNL     1      -6.034   2.825  15.616  1.00  0.00     0.037 A 
ENDBRANCH  12  13
ENDBRANCH  11  12
ENDBRANCH   1  11
TORSDOF 10
ENDMDL
MODEL 3
REMARK VINA RESULT: -6.237881238      1.555      2.372
REMARK  10 active torsions:
REMARK  status: ('A' for Active; 'I' for Inactive)
REMARK    1  A    between atoms: C2_2  and  C3_3 
REMARK    2  A    between atoms: C3_3  and  C4_4 
REMARK    3  A    between atoms: C4_4  and  C5_5 
REMARK    4  A    between atoms: C5_5  and  O1_6 
REMARK    5  A    between atoms: O1_6  and  C6_7 
REMARK    6  A    between atoms: C6_7  and  C7_8 
REMARK    7  A    between atoms: C7_8  and  O2_9 
REMARK    8  A    between atoms: C7_8  and  C8_11 
REMARK    9  A    between atoms: C8_11  and  O3_12 
REMARK   10  A    between atoms: O3_12  and  C9_13 
ROOT
HETATM    1  C7  UNL     1      -2.800   4.317  13.330  1.00  0.00     0.166 C 
ENDROOT
BRANCH   1   2
HETATM    2  C6  UNL     1      -3.177   3.453  12.168  1.00  0.00     0.201 C 
BRANCH   2   3
HETATM    3  O1  UNL     1      -2.199   2.507  11.969  1.00  0.00    -0.389 OA
BRANCH   3   4
HETATM    4  C5  UNL     1      -2.584   1.323  11.413  1.00  0.00     0.168 C 
BRANCH   4   5
HETATM    5  C4  UNL     1      -3.900   0.826  11.975  1.00  0.00     0.030 C 
BRANCH   5   6
HETATM    6  C3  UNL     1      -4.207  -0.483  11.248  1.00  0.00     0.028 C 
BRANCH   6   7
HETATM    7  C2  UNL     1      -3.005  -1.275  10.998  1.00  0.00    -0.037 C 
HETATM    8  C1  UNL     1      -2.986  -2.568  11.269  1.00  0.00     0.007 C 
ENDBRANCH   6   7
ENDBRANCH   5   6
ENDBRANCH   4   5
ENDBRANCH   3   4
ENDBRANCH   2   3
ENDBRANCH   1   2
BRANCH   1   9
HETATM    9  O2  UNL     1      -1.480   4.023  13.660  1.00  0.00    -0.391 OA
ATOM     10  H2  UNL     1      -1.273   4.493  14.459  1.00  0.00     0.210 HD
ENDBRANCH   1   9
BRANCH   1  11
HETATM   11  C8  UNL     1      -3.666   4.048  14.550  1.00  0.00     0.209 C 
BRANCH  11  12
HETATM   12  O3  UNL     1      -3.713   2.660  14.840  1.00  0.00    -0.349 OA
BRANCH  12  13
HETATM   13  C9  UNL     1      -4.777   2.204  15.602  1.00  0.00     0.068 A 
HETATM   14  C10 UNL     1      -4.652   1.005  16.272  1.00  0.00     0.037 A 
HETATM   15  C11 UNL     1      -5.711   0.539  17.037  1.00  0.00     0.003 A 
HETATM   16  C12 UNL     1      -6.889   1.244  17.147  1.00  0.00     0.000 A 
HETATM   17  C13 UNL     1      -7.023   2.451  16.477  1.00  0.00     0.003 A 
HETATM   18  C14 UNL     1      -5.960   2.900  15.720  1.00  0.00     0.037 A 
ENDBRANCH  12  13
ENDBRANCH  11  12
ENDBRANCH   1  11
TORSDOF 10
ENDMDL
MODEL 4
REMARK VINA RESULT: -6.233473346      1.574      2.081
REMARK  10 active torsions:
REMARK  status: ('A' for Active; 'I' for Inactive)
REMARK    1  A    between atoms: C2_2  and  C3_3 
REMARK    2  A    between atoms: C3_3  and  C4_4 
REMARK    3  A    between atoms: C4_4  and  C5_5 
REMARK    4  A    between atoms: C5_5  and  O1_6 
REMARK    5  A    between atoms: O1_6  and  C6_7 
REMARK    6  A    between atoms: C6_7  and  C7_8 
REMARK    7  A    between atoms: C7_8  and  O2_9 
REMARK    8  A    between atoms: C7_8  and  C8_11 
REMARK    9  A    between atoms: C8_11  and  O3_12 
REMARK   10  A    between atoms: O3_12  and  C9_13 
ROOT
HETATM    1  C7  UNL     1      -2.735   4.327  13.294  1.00  0.00     0.166 C 
ENDROOT
BRANCH   1   2
HETATM    2  C6  UNL     1      -3.180   3.451  12.166  1.00  0.00     0.201 C 
BRANCH   2   3
HETATM    3  O1  UNL     1      -2.183   2.550  11.869  1.00  0.00    -0.389 OA
BRANCH   3   4
HETATM    4  C5  UNL     1      -2.569   1.336  11.382  1.00  0.00     0.168 C 
BRANCH   4   5
HETATM    5  C4  UNL     1      -3.875   0.863  11.986  1.00  0.00     0.030 C 
BRANCH   5   6
HETATM    6  C3  UNL     1      -4.225  -0.444  11.275  1.00  0.00     0.028 C 
BRANCH   6   7
HETATM    7  C2  UNL     1      -3.040  -1.227  10.935  1.00  0.00    -0.037 C 
HETATM    8  C1  UNL     1      -2.973  -2.510  11.240  1.00  0.00     0.007 C 
ENDBRANCH   6   7
ENDBRANCH   5   6
ENDBRANCH   4   5
ENDBRANCH   3   4
ENDBRANCH   2   3
ENDBRANCH   1   2
BRANCH   1   9
HETATM    9  O2  UNL     1      -1.397   4.036  13.548  1.00  0.00    -0.391 OA
ATOM     10  H2  UNL     1      -0.891   4.812  13.338  1.00  0.00     0.210 HD
ENDBRANCH   1   9
BRANCH   1  11
HETATM   11  C8  UNL     1      -3.527   4.071  14.565  1.00  0.00     0.209 C 
BRANCH  11  12
HETATM   12  O3  UNL     1      -3.580   2.683  14.857  1.00  0.00    -0.349 OA
BRANCH  12  13
HETATM   13  C9  UNL     1      -4.656   2.230  15.603  1.00  0.00     0.068 A 
HETATM   14  C10 UNL     1      -5.769   3.036  15.725  1.00  0.00     0.037 A 
HETATM   15  C11 UNL     1      -6.852   2.592  16.469  1.00  0.00     0.003 A 
HETATM   16  C12 UNL     1      -6.847   1.365  17.093  1.00  0.00     0.000 A 
HETATM   17  C13 UNL     1      -5.733   0.549  16.976  1.00  0.00     0.003 A 
HETATM   18  C14 UNL     1      -4.663   1.004  16.232  1.00  0.00     0.037 A 
ENDBRANCH  12  13
ENDBRANCH  11  12
ENDBRANCH   1  11
TORSDOF 10
ENDMDL
MODEL 5
REMARK VINA RESULT: -6.233042644      1.093      2.521
REMARK  10 active torsions:
REMARK  status: ('A' for Active; 'I' for Inactive)
REMARK    1  A    between atoms: C2_2  and  C3_3 
REMARK    2  A    between atoms: C3_3  and  C4_4 
REMARK    3  A    between atoms: C4_4  and  C5_5 
REMARK    4  A    between atoms: C5_5  and  O1_6 
REMARK    5  A    between atoms: O1_6  and  C6_7 
REMARK    6  A    between atoms: C6_7  and  C7_8 
REMARK    7  A    between atoms: C7_8  and  O2_9 
REMARK    8  A    between atoms: C7_8  and  C8_11 
REMARK    9  A    between atoms: C8_11  and  O3_12 
REMARK   10  A    between atoms: O3_12  and  C9_13 
ROOT
HETATM    1  C7  UNL     1      -5.075   1.835  11.569  1.00  0.00     0.166 C 
ENDROOT
BRANCH   1   2
HETATM    2  C6  UNL     1      -4.565   0.435  11.430  1.00  0.00     0.201 C 
BRANCH   2   3
HETATM    3  O1  UNL     1      -3.861   0.322  10.253  1.00  0.00    -0.389 OA
BRANCH   3   4
HETATM    4  C5  UNL     1      -2.629  -0.256  10.321  1.00  0.00     0.168 C 
BRANCH   4   5
HETATM    5  C4  UNL     1      -1.616   0.631  11.015  1.00  0.00     0.030 C 
BRANCH   5   6
HETATM    6  C3  UNL     1      -1.220   1.703  10.000  1.00  0.00     0.028 C 
BRANCH   6   7
HETATM    7  C2  UNL     1      -1.341   3.054  10.543  1.00  0.00    -0.037 C 
HETATM    8  C1  UNL     1      -0.586   3.439  11.557  1.00  0.00     0.007 C 
ENDBRANCH   6   7
ENDBRANCH   5   6
ENDBRANCH   4   5
ENDBRANCH   3   4
ENDBRANCH   2   3
ENDBRANCH   1   2
BRANCH   1   9
HETATM    9  O2  UNL     1      -4.894   2.470  10.343  1.00  0.00    -0.391 OA
ATOM     10  H2  UNL     1      -4.878   3.406  10.505  1.00  0.00     0.210 HD
ENDBRANCH   1   9
BRANCH   1  11
HETATM   11  C8  UNL     1      -4.317   2.619  12.626  1.00  0.00     0.209 C 
BRANCH  11  12
HETATM   12  O3  UNL     1      -3.956   1.783  13.715  1.00  0.00    -0.349 OA
BRANCH  12  13
HETATM   13  C9  UNL     1      -4.778   1.799  14.830  1.00  0.00     0.068 A 
HETATM   14  C10 UNL     1      -4.743   0.729  15.700  1.00  0.00     0.037 A 
HETATM   15  C11 UNL     1      -5.561   0.735  16.820  1.00  0.00     0.003 A 
HETATM   16  C12 UNL     1      -6.411   1.785  17.089  1.00  0.00     0.000 A 
HETATM   17  C13 UNL     1      -6.452   2.864  16.220  1.00  0.00     0.003 A 
HETATM   18  C14 UNL     1      -5.632   2.844  15.111  1.00  0.00     0.037 A 
ENDBRANCH  12  13
ENDBRANCH  11  12
ENDBRANCH   1  11
TORSDOF 10
ENDMDL
