MODEL 1
REMARK VINA RESULT: -5.742454169      0.000      0.000
REMARK  10 active torsions:
REMARK  status: ('A' for Active; 'I' for Inactive)
REMARK    1  A    between atoms: C1_1  and  C2_2 
REMARK    2  A    between atoms: C1_1  and  C7_10 
REMARK    3  A    between atoms: C2_2  and  N1_3 
REMARK    4  A    between atoms: N1_3  and  C3_6 
REMARK    5  A    between atoms: C3_6  and  C4_7 
REMARK    6  A    between atoms: C7_10  and  O1_11 
REMARK    7  A    between atoms: O1_11  and  C8_12 
REMARK    8  A    between atoms: C8_12  and  C9_13 
REMARK    9  A    between atoms: C9_13  and  O2_14 
REMARK   10  A    between atoms: O2_14  and  C10_15 
ROOT
HETATM    1  C7  UNL     1      -4.953   5.559  13.148  1.00  0.00     0.169 C 
ENDROOT
BRANCH   1   2
HETATM    2  C1  UNL     1      -5.957   5.125  14.220  1.00  0.00     0.054 C 
BRANCH   2   3
HETATM    3  C2  UNL     1      -6.098   3.630  14.257  1.00  0.00     0.234 C 
BRANCH   3   4
HETATM    4  N1  UNL     1      -4.901   2.998  14.780  1.00  0.00    -0.075 N 
ATOM      5  H12 UNL     1      -4.264   2.729  14.030  1.00  0.00     0.277 HD
ATOM      6  H11 UNL     1      -4.305   3.672  15.261  1.00  0.00     0.277 HD
BRANCH   4   7
HETATM    7  C3  UNL     1      -5.215   1.878  15.627  1.00  0.00     0.237 C 
BRANCH   7   8
HETATM    8  C4  UNL     1      -6.370   2.225  16.532  1.00  0.00     0.011 A 
HETATM    9  C5  UNL     1      -6.317   1.831  17.970  1.00  0.00     0.007 A 
HETATM   10  C6  UNL     1      -7.198   1.096  17.017  1.00  0.00     0.007 A 
ENDBRANCH   7   8
ENDBRANCH   4   7
ENDBRANCH   3   4
ENDBRANCH   2   3
ENDBRANCH   1   2
BRANCH   1  11
HETATM   11  O1  UNL     1      -4.955   4.588  12.174  1.00  0.00    -0.389 OA
BRANCH  11  12
HETATM   12  C8  UNL     1      -3.831   4.542  11.411  1.00  0.00     0.193 C 
BRANCH  12  13
HETATM   13  C9  UNL     1      -2.718   3.853  12.143  1.00  0.00     0.194 C 
BRANCH  13  14
HETATM   14  O2  UNL     1      -2.927   2.559  12.363  1.00  0.00    -0.384 OA
BRANCH  14  15
HETATM   15  C10 UNL     1      -3.312   1.668  11.445  1.00  0.00     0.121 C 
HETATM   16  C11 UNL     1      -2.194   0.721  11.008  1.00  0.00     0.032 C 
HETATM   17  C12 UNL     1      -2.811  -0.654  10.883  1.00  0.00     0.002 C 
HETATM   18  C13 UNL     1      -4.314  -0.411  11.056  1.00  0.00     0.002 C 
HETATM   19  C14 UNL     1      -4.266   0.674  12.129  1.00  0.00     0.032 C 
ENDBRANCH  14  15
ENDBRANCH  13  14
ENDBRANCH  12  13
ENDBRANCH  11  12
ENDBRANCH   1  11
TORSDOF 10
ENDMDL
MODEL 2
REMARK VINA RESULT: -5.625058093      0.982      1.104
REMARK  10 active torsions:
REMARK  status: ('A' for Active; 'I' for Inactive)
REMARK    1  A    between atoms: C1_1  and  C2_2 
REMARK    2  A    between atoms: C1_1  and  C7_10 
REMARK    3  A    between atoms: C2_2  and  N1_3 
REMARK    4  A    between atoms: N1_3  and  C3_6 
REMARK    5  A    between atoms: C3_6  and  C4_7 
REMARK    6  A    between atoms: C7_10  and  O1_11 
REMARK    7  A    between atoms: O1_11  and  C8_12 
REMARK    8  A    between atoms: C8_12  and  C9_13 
REMARK    9  A    between atoms: C9_13  and  O2_14 
REMARK   10  A    between atoms: O2_14  and  C10_15 
ROOT
HETATM    1  C7  UNL     1      -4.165   5.839  14.459  1.00  0.00     0.169 C 
ENDROOT
BRANCH   1   2
HETATM    2  C1  UNL     1      -5.584   5.433  14.049  1.00  0.00     0.054 C 
BRANCH   2   3
HETATM    3  C2  UNL     1      -6.105   4.325  14.919  1.00  0.00     0.234 C 
BRANCH   3   4
HETATM    4  N1  UNL     1      -5.669   3.027  14.439  1.00  0.00    -0.075 N 
ATOM      5  H12 UNL     1      -6.322   2.646  13.753  1.00  0.00     0.277 HD
ATOM      6  H11 UNL     1      -4.843   3.107  13.846  1.00  0.00     0.277 HD
BRANCH   4   7
HETATM    7  C3  UNL     1      -5.450   2.103  15.520  1.00  0.00     0.237 C 
BRANCH   7   8
HETATM    8  C4  UNL     1      -6.490   2.309  16.592  1.00  0.00     0.011 A 
HETATM    9  C5  UNL     1      -6.268   1.730  17.949  1.00  0.00     0.007 A 
HETATM   10  C6  UNL     1      -7.254   1.112  17.016  1.00  0.00     0.007 A 
ENDBRANCH   7   8
ENDBRANCH   4   7
ENDBRANCH   3   4
ENDBRANCH   2   3
ENDBRANCH   1   2
BRANCH   1  11
HETATM   11  O1  UNL     1      -3.414   4.687  14.512  1.00  0.00    -0.389 OA
BRANCH  11  12
HETATM   12  C8  UNL     1      -2.305   4.691  13.726  1.00  0.00     0.193 C 
BRANCH  12  13
HETATM   13  C9  UNL     1      -2.556   3.948  12.447  1.00  0.00     0.194 C 
BRANCH  13  14
HETATM   14  O2  UNL     1      -3.074   2.735  12.613  1.00  0.00    -0.384 OA
BRANCH  14  15
HETATM   15  C10 UNL     1      -3.402   1.890  11.633  1.00  0.00     0.121 C 
HETATM   16  C11 UNL     1      -2.210   1.114  11.072  1.00  0.00     0.032 C 
HETATM   17  C12 UNL     1      -2.680  -0.304  10.843  1.00  0.00     0.002 C 
HETATM   18  C13 UNL     1      -4.191  -0.246  11.091  1.00  0.00     0.002 C 
HETATM   19  C14 UNL     1      -4.212   0.740  12.256  1.00  0.00     0.032 C 
ENDBRANCH  14  15
ENDBRANCH  13  14
ENDBRANCH  12  13
ENDBRANCH  11  12
ENDBRANCH   1  11
TORSDOF 10
ENDMDL
MODEL 3
REMARK VINA RESULT: -5.579214781      0.978      1.569
REMARK  10 active torsions:
REMARK  status: ('A' for Active; 'I' for Inactive)
REMARK    1  A    between atoms: C1_1  and  C2_2 
REMARK    2  A    between atoms: C1_1  and  C7_10 
REMARK    3  A    between atoms: C2_2  and  N1_3 
REMARK    4  A    between atoms: N1_3  and  C3_6 
REMARK    5  A    between atoms: C3_6  and  C4_7 
REMARK    6  A    between atoms: C7_10  and  O1_11 
REMARK    7  A    between atoms: O1_11  and  C8_12 
REMARK    8  A    between atoms: C8_12  and  C9_13 
REMARK    9  A    between atoms: C9_13  and  O2_14 
REMARK   10  A    between atoms: O2_14  and  C10_15 
ROOT
HETATM    1  C7  UNL     1      -5.180   4.646  13.738  1.00  0.00     0.169 C 
ENDROOT
BRANCH   1   2
HETATM    2  C1  UNL     1      -5.172   3.315  14.494  1.00  0.00     0.054 C 
BRANCH   2   3
HETATM    3  C2  UNL     1      -3.876   3.113  15.226  1.00  0.00     0.234 C 
BRANCH   3   4
HETATM    4  N1  UNL     1      -3.888   1.882  15.994  1.00  0.00    -0.075 N 
ATOM      5  H12 UNL     1      -3.015   1.365  15.881  1.00  0.00     0.277 HD
ATOM      6  H11 UNL     1      -3.835   2.067  16.995  1.00  0.00     0.277 HD
BRANCH   4   7
HETATM    7  C3  UNL     1      -5.026   1.063  15.672  1.00  0.00     0.237 C 
BRANCH   7   8
HETATM    8  C4  UNL     1      -5.765   0.691  16.933  1.00  0.00     0.011 A 
HETATM    9  C5  UNL     1      -7.213   1.026  17.059  1.00  0.00     0.007 A 
HETATM   10  C6  UNL     1      -6.189   1.808  17.810  1.00  0.00     0.007 A 
ENDBRANCH   7   8
ENDBRANCH   4   7
ENDBRANCH   3   4
ENDBRANCH   2   3
ENDBRANCH   1   2
BRANCH   1  11
HETATM   11  O1  UNL     1      -5.052   4.353  12.401  1.00  0.00    -0.389 OA
BRANCH  11  12
HETATM   12  C8  UNL     1      -3.842   4.656  11.861  1.00  0.00     0.193 C 
BRANCH  12  13
HETATM   13  C9  UNL     1      -3.266   3.469  11.145  1.00  0.00     0.194 C 
BRANCH  13  14
HETATM   14  O2  UNL     1      -2.825   2.508  11.949  1.00  0.00    -0.384 OA
BRANCH  14  15
HETATM   15  C10 UNL     1      -3.219   1.232  11.924  1.00  0.00     0.121 C 
HETATM   16  C11 UNL     1      -4.631   1.041  11.371  1.00  0.00     0.032 C 
HETATM   17  C12 UNL     1      -4.593  -0.189  10.493  1.00  0.00     0.002 C 
HETATM   18  C13 UNL     1      -3.202  -0.784  10.734  1.00  0.00     0.002 C 
HETATM   19  C14 UNL     1      -2.397   0.509  10.843  1.00  0.00     0.032 C 
ENDBRANCH  14  15
ENDBRANCH  13  14
ENDBRANCH  12  13
ENDBRANCH  11  12
ENDBRANCH   1  11
TORSDOF 10
ENDMDL
MODEL 4
REMARK VINA RESULT: -5.493637315      1.534      5.253
REMARK  10 active torsions:
REMARK  status: ('A' for Active; 'I' for Inactive)
REMARK    1  A    between atoms: C1_1  and  C2_2 
REMARK    2  A    between atoms: C1_1  and  C7_10 
REMARK    3  A    between atoms: C2_2  and  N1_3 
REMARK    4  A    between atoms: N1_3  and  C3_6 
REMARK    5  A    between atoms: C3_6  and  C4_7 
REMARK    6  A    between atoms: C7_10  and  O1_11 
REMARK    7  A    between atoms: O1_11  and  C8_12 
REMARK    8  A    between atoms: C8_12  and  C9_13 
REMARK    9  A    between atoms: C9_13  and  O2_14 
REMARK   10  A    between atoms: O2_14  and  C10_15 
ROOT
HETATM    1  C7  UNL     1      -2.491   4.126  12.281  1.00  0.00     0.169 C 
ENDROOT
BRANCH   1   2
HETATM    2  C1  UNL     1      -2.762   2.941  11.351  1.00  0.00     0.054 C 
BRANCH   2   3
HETATM    3  C2  UNL     1      -4.224   2.830  11.024  1.00  0.00     0.234 C 
BRANCH   3   4
HETATM    4  N1  UNL     1      -4.902   1.924  11.934  1.00  0.00    -0.075 N 
ATOM      5  H12 UNL     1      -5.209   2.407  12.779  1.00  0.00     0.277 HD
ATOM      6  H11 UNL     1      -5.813   1.645  11.570  1.00  0.00     0.277 HD
BRANCH   4   7
HETATM    7  C3  UNL     1      -4.090   0.779  12.251  1.00  0.00     0.237 C 
BRANCH   7   8
HETATM    8  C4  UNL     1      -4.301  -0.302  11.221  1.00  0.00     0.011 A 
HETATM    9  C5  UNL     1      -3.690  -1.646  11.435  1.00  0.00     0.007 A 
HETATM   10  C6  UNL     1      -3.116  -0.706  10.429  1.00  0.00     0.007 A 
ENDBRANCH   7   8
ENDBRANCH   4   7
ENDBRANCH   3   4
ENDBRANCH   2   3
ENDBRANCH   1   2
BRANCH   1  11
HETATM   11  O1  UNL     1      -2.734   3.698  13.565  1.00  0.00    -0.389 OA
BRANCH  11  12
HETATM   12  C8  UNL     1      -3.407   4.583  14.347  1.00  0.00     0.193 C 
BRANCH  12  13
HETATM   13  C9  UNL     1      -4.803   4.103  14.614  1.00  0.00     0.194 C 
BRANCH  13  14
HETATM   14  O2  UNL     1      -4.888   2.813  14.922  1.00  0.00    -0.384 OA
BRANCH  14  15
HETATM   15  C10 UNL     1      -5.244   2.320  16.110  1.00  0.00     0.121 C 
HETATM   16  C11 UNL     1      -6.735   2.474  16.412  1.00  0.00     0.032 C 
HETATM   17  C12 UNL     1      -7.182   1.189  17.072  1.00  0.00     0.002 C 
HETATM   18  C13 UNL     1      -5.881   0.415  17.313  1.00  0.00     0.002 C 
HETATM   19  C14 UNL     1      -5.133   0.787  16.035  1.00  0.00     0.032 C 
ENDBRANCH  14  15
ENDBRANCH  13  14
ENDBRANCH  12  13
ENDBRANCH  11  12
ENDBRANCH   1  11
TORSDOF 10
ENDMDL
MODEL 5
REMARK VINA RESULT: -5.425985802      1.383      1.809
REMARK  10 active torsions:
REMARK  status: ('A' for Active; 'I' for Inactive)
REMARK    1  A    between atoms: C1_1  and  C2_2 
REMARK    2  A    between atoms: C1_1  and  C7_10 
REMARK    3  A    between atoms: C2_2  and  N1_3 
REMARK    4  A    between atoms: N1_3  and  C3_6 
REMARK    5  A    between atoms: C3_6  and  C4_7 
REMARK    6  A    between atoms: C7_10  and  O1_11 
REMARK    7  A    between atoms: O1_11  and  C8_12 
REMARK    8  A    between atoms: C8_12  and  C9_13 
REMARK    9  A    between atoms: C9_13  and  O2_14 
REMARK   10  A    between atoms: O2_14  and  C10_15 
ROOT
HETATM    1  C7  UNL     1      -3.335   4.495  13.089  1.00  0.00     0.169 C 
ENDROOT
BRANCH   1   2
HETATM    2  C1  UNL     1      -3.990   4.266  14.454  1.00  0.00     0.054 C 
BRANCH   2   3
HETATM    3  C2  UNL     1      -4.713   2.951  14.497  1.00  0.00     0.234 C 
BRANCH   3   4
HETATM    4  N1  UNL     1      -3.942   1.946  15.205  1.00  0.00    -0.075 N 
ATOM      5  H12 UNL     1      -3.329   1.432  14.570  1.00  0.00     0.277 HD
ATOM      6  H11 UNL     1      -3.232   2.373  15.800  1.00  0.00     0.277 HD
BRANCH   4   7
HETATM    7  C3  UNL     1      -4.786   1.053  15.953  1.00  0.00     0.237 C 
BRANCH   7   8
HETATM    8  C4  UNL     1      -5.965   1.809  16.513  1.00  0.00     0.011 A 
HETATM    9  C5  UNL     1      -6.241   1.753  17.978  1.00  0.00     0.007 A 
HETATM   10  C6  UNL     1      -7.097   0.997  17.018  1.00  0.00     0.007 A 
ENDBRANCH   7   8
ENDBRANCH   4   7
ENDBRANCH   3   4
ENDBRANCH   2   3
ENDBRANCH   1   2
BRANCH   1  11
HETATM   11  O1  UNL     1      -2.350   3.545  12.949  1.00  0.00    -0.389 OA
BRANCH  11  12
HETATM   12  C8  UNL     1      -1.984   3.286  11.666  1.00  0.00     0.193 C 
BRANCH  12  13
HETATM   13  C9  UNL     1      -3.190   3.051  10.805  1.00  0.00     0.194 C 
BRANCH  13  14
HETATM   14  O2  UNL     1      -3.322   1.798  10.380  1.00  0.00    -0.384 OA
BRANCH  14  15
HETATM   15  C10 UNL     1      -3.035   0.704  11.090  1.00  0.00     0.121 C 
HETATM   16  C11 UNL     1      -4.204   0.202  11.937  1.00  0.00     0.032 C 
HETATM   17  C12 UNL     1      -4.203  -1.306  11.833  1.00  0.00     0.002 C 
HETATM   18  C13 UNL     1      -2.904  -1.633  11.089  1.00  0.00     0.002 C 
HETATM   19  C14 UNL     1      -2.884  -0.468  10.104  1.00  0.00     0.032 C 
ENDBRANCH  14  15
ENDBRANCH  13  14
ENDBRANCH  12  13
ENDBRANCH  11  12
ENDBRANCH   1  11
TORSDOF 10
ENDMDL
