MODEL 1
REMARK VINA RESULT: -9.097049840      0.000      0.000
REMARK  13 active torsions:
REMARK  status: ('A' for Active; 'I' for Inactive)
REMARK    1  A    between atoms: C2_2  and  C3_3 
REMARK    2  A    between atoms: C8_10  and  C9_11 
REMARK    3  A    between atoms: C9_11  and  O3_12 
REMARK    4  A    between atoms: C10_14  and  O4_15 
REMARK    5  A    between atoms: C10_14  and  C11_17 
REMARK    6  A    between atoms: C11_17  and  C12_18 
REMARK    7  A    between atoms: C12_18  and  O6_20 
REMARK    8  A    between atoms: C15_24  and  C16_25 
REMARK    9  A    between atoms: C21_33  and  N1_34 
REMARK   10  A    between atoms: C22_38  and  O13_39 
REMARK   11  A    between atoms: C24_42  and  C25_43 
REMARK   12  A    between atoms: C25_43  and  O14_44 
REMARK   13  A    between atoms: N2_46  and  O15_48 
ROOT
HETATM    1  C3  UNL     1     -30.154  13.115  -9.739  1.00  0.00    -0.008 C 
HETATM    2  C4  UNL     1     -31.004  13.056 -10.748  1.00  0.00     0.022 C 
HETATM    3  C5  UNL     1     -30.808  14.082 -11.769  1.00  0.00     0.225 C 
HETATM    4  O1  UNL     1     -30.729  15.201 -11.427  1.00  0.00    -0.284 OA
HETATM    5  C6  UNL     1     -30.752  13.284 -13.059  1.00  0.00     0.203 C 
HETATM    6  O2  UNL     1     -31.013  13.709 -14.112  1.00  0.00    -0.289 OA
HETATM    7  C7  UNL     1     -30.305  11.846 -12.781  1.00  0.00     0.134 C 
HETATM    8  C8  UNL     1     -31.164  11.040 -11.789  1.00  0.00     0.140 C 
HETATM    9  O7  UNL     1     -30.322  10.344 -10.806  1.00  0.00    -0.328 OA
HETATM   10  C14 UNL     1     -30.020  10.631  -9.448  1.00  0.00     0.123 A 
HETATM   11  C15 UNL     1     -29.706   9.821  -8.440  1.00  0.00     0.149 A 
HETATM   12  O12 UNL     1     -29.547  10.623  -7.321  1.00  0.00    -0.281 OA
HETATM   13  C22 UNL     1     -29.737  11.875  -7.587  1.00  0.00     0.198 A 
HETATM   14  C23 UNL     1     -30.021  11.935  -8.879  1.00  0.00     0.069 A 
HETATM   15  C24 UNL     1     -32.044  11.978 -11.030  1.00  0.00     0.142 C 
ENDROOT
BRANCH  11  16
HETATM   16  C16 UNL     1     -29.500   8.392  -8.335  1.00  0.00     0.149 A 
HETATM   17  O8  UNL     1     -29.513   7.706  -9.512  1.00  0.00    -0.308 OA
HETATM   18  C17 UNL     1     -29.355   6.424  -9.585  1.00  0.00     0.075 A 
HETATM   19  C18 UNL     1     -29.376   5.711 -10.913  1.00  0.00     0.078 C 
HETATM   20  C19 UNL     1     -29.161   5.617  -8.484  1.00  0.00     0.116 A 
HETATM   21 CL1  UNL     1     -28.955   3.894  -8.652  1.00  0.00    -0.077 Cl
HETATM   22  C20 UNL     1     -29.138   6.230  -7.276  1.00  0.00     0.231 A 
HETATM   23  O9  UNL     1     -28.966   5.565  -6.231  1.00  0.00    -0.284 OA
HETATM   24  C21 UNL     1     -29.314   7.631  -7.235  1.00  0.00     0.191 A 
BRANCH  24  25
HETATM   25  N1  UNL     1     -29.400   8.137  -5.927  1.00  0.00    -0.108 N 
HETATM   26  O10 UNL     1     -28.696   8.972  -5.367  1.00  0.00    -0.532 OA
HETATM   27  O11 UNL     1     -30.383   7.555  -5.105  1.00  0.00    -0.532 OA
ENDBRANCH  24  25
ENDBRANCH  11  16
BRANCH  13  28
HETATM   28  O13 UNL     1     -29.719  13.071  -6.863  1.00  0.00    -0.340 OA
ATOM     29  H13 UNL     1     -30.073  13.945  -6.979  1.00  0.00     0.220 HD
ENDBRANCH  13  28
BRANCH   8  30
HETATM   30  C9  UNL     1     -31.746   9.956 -12.595  1.00  0.00     0.109 C 
HETATM   31  C10 UNL     1     -31.979   9.956 -14.021  1.00  0.00     0.084 C 
BRANCH  30  32
HETATM   32  O3  UNL     1     -31.288   8.672 -12.188  1.00  0.00    -0.359 OA
ATOM     33  H3  UNL     1     -31.917   7.985 -12.379  1.00  0.00     0.217 HD
ENDBRANCH  30  32
BRANCH  31  34
HETATM   34  O4  UNL     1     -32.392  11.074 -14.669  1.00  0.00    -0.362 OA
ATOM     35  H4  UNL     1     -32.531  11.078 -15.608  1.00  0.00     0.217 HD
ENDBRANCH  31  34
BRANCH  31  36
HETATM   36  C11 UNL     1     -30.946   9.280 -14.923  1.00  0.00     0.178 C 
BRANCH  36  37
HETATM   37  C12 UNL     1     -31.518   9.040 -16.282  1.00  0.00     0.264 C 
HETATM   38  O5  UNL     1     -31.883   9.981 -17.051  1.00  0.00    -0.265 OA
BRANCH  37  39
HETATM   39  O6  UNL     1     -31.685   7.752 -16.782  1.00  0.00    -0.326 OA
HETATM   40  C13 UNL     1     -30.945   6.671 -16.244  1.00  0.00     0.213 C 
ENDBRANCH  37  39
ENDBRANCH  36  37
ENDBRANCH  31  36
ENDBRANCH   8  30
BRANCH   1  41
HETATM   41  C2  UNL     1     -29.211  14.160  -9.751  1.00  0.00     0.003 C 
HETATM   42  C1  UNL     1     -27.923  14.140  -9.706  1.00  0.00     0.012 C 
ENDBRANCH   1  41
BRANCH  15  43
HETATM   43  C25 UNL     1     -33.218  12.605 -11.485  1.00  0.00     0.147 C 
HETATM   44  N2  UNL     1     -34.057  13.335 -10.791  1.00  0.00    -0.250 N 
ATOM     45  H2  UNL     1     -33.839  13.468  -9.804  1.00  0.00     0.196 HD
BRANCH  43  46
HETATM   46  O14 UNL     1     -33.665  12.529 -12.788  1.00  0.00    -0.347 OA
ATOM     47  H14 UNL     1     -33.848  13.292 -13.325  1.00  0.00     0.219 HD
ENDBRANCH  43  46
BRANCH  44  48
HETATM   48  O15 UNL     1     -35.172  13.926 -11.246  1.00  0.00    -0.288 OA
ATOM     49  H15 UNL     1     -36.043  13.863 -10.871  1.00  0.00     0.244 HD
ENDBRANCH  44  48
ENDBRANCH  15  43
TORSDOF 13
ENDMDL
MODEL 2
REMARK VINA RESULT: -8.471007360      2.765      7.195
REMARK  13 active torsions:
REMARK  status: ('A' for Active; 'I' for Inactive)
REMARK    1  A    between atoms: C2_2  and  C3_3 
REMARK    2  A    between atoms: C8_10  and  C9_11 
REMARK    3  A    between atoms: C9_11  and  O3_12 
REMARK    4  A    between atoms: C10_14  and  O4_15 
REMARK    5  A    between atoms: C10_14  and  C11_17 
REMARK    6  A    between atoms: C11_17  and  C12_18 
REMARK    7  A    between atoms: C12_18  and  O6_20 
REMARK    8  A    between atoms: C15_24  and  C16_25 
REMARK    9  A    between atoms: C21_33  and  N1_34 
REMARK   10  A    between atoms: C22_38  and  O13_39 
REMARK   11  A    between atoms: C24_42  and  C25_43 
REMARK   12  A    between atoms: C25_43  and  O14_44 
REMARK   13  A    between atoms: N2_46  and  O15_48 
ROOT
HETATM    1  C3  UNL     1     -30.620  16.116 -10.931  1.00  0.00    -0.008 C 
HETATM    2  C4  UNL     1     -30.615  15.602  -9.715  1.00  0.00     0.022 C 
HETATM    3  C5  UNL     1     -31.293  16.414  -8.708  1.00  0.00     0.225 C 
HETATM    4  O1  UNL     1     -31.006  17.548  -8.622  1.00  0.00    -0.284 OA
HETATM    5  C6  UNL     1     -32.244  15.432  -8.049  1.00  0.00     0.203 C 
HETATM    6  O2  UNL     1     -32.662  15.540  -6.967  1.00  0.00    -0.289 OA
HETATM    7  C7  UNL     1     -32.577  14.284  -9.007  1.00  0.00     0.134 C 
HETATM    8  C8  UNL     1     -31.385  13.468  -9.541  1.00  0.00     0.140 C 
HETATM    9  O7  UNL     1     -31.489  13.272 -10.995  1.00  0.00    -0.328 OA
HETATM   10  C14 UNL     1     -30.827  13.902 -12.082  1.00  0.00     0.123 A 
HETATM   11  C15 UNL     1     -30.523  13.443 -13.293  1.00  0.00     0.149 A 
HETATM   12  O12 UNL     1     -29.844  14.460 -13.945  1.00  0.00    -0.281 OA
HETATM   13  C22 UNL     1     -29.721  15.515 -13.206  1.00  0.00     0.198 A 
HETATM   14  C23 UNL     1     -30.314  15.228 -12.057  1.00  0.00     0.069 A 
HETATM   15  C24 UNL     1     -30.123  14.223  -9.287  1.00  0.00     0.142 C 
ENDROOT
BRANCH  11  16
HETATM   16  C16 UNL     1     -30.780  12.196 -13.982  1.00  0.00     0.149 A 
HETATM   17  O8  UNL     1     -30.686  11.071 -13.220  1.00  0.00    -0.308 OA
HETATM   18  C17 UNL     1     -30.875   9.881 -13.690  1.00  0.00     0.075 A 
HETATM   19  C18 UNL     1     -30.760   8.666 -12.805  1.00  0.00     0.078 C 
HETATM   20  C19 UNL     1     -31.188   9.623 -15.008  1.00  0.00     0.116 A 
HETATM   21 CL1  UNL     1     -31.431   7.993 -15.577  1.00  0.00    -0.077 Cl
HETATM   22  C20 UNL     1     -31.298  10.695 -15.829  1.00  0.00     0.231 A 
HETATM   23  O9  UNL     1     -31.580  10.543 -17.037  1.00  0.00    -0.284 OA
HETATM   24  C21 UNL     1     -31.085  11.980 -15.280  1.00  0.00     0.191 A 
BRANCH  24  25
HETATM   25  N1  UNL     1     -31.098  13.000 -16.247  1.00  0.00    -0.108 N 
HETATM   26  O10 UNL     1     -32.053  13.579 -16.756  1.00  0.00    -0.532 OA
HETATM   27  O11 UNL     1     -29.845  13.367 -16.772  1.00  0.00    -0.532 OA
ENDBRANCH  24  25
ENDBRANCH  11  16
BRANCH  13  28
HETATM   28  O13 UNL     1     -29.138  16.778 -13.345  1.00  0.00    -0.340 OA
ATOM     29  H13 UNL     1     -29.275  17.640 -12.968  1.00  0.00     0.220 HD
ENDBRANCH  13  28
BRANCH   8  30
HETATM   30  C9  UNL     1     -31.576  12.122  -8.983  1.00  0.00     0.109 C 
HETATM   31  C10 UNL     1     -30.726  10.968  -9.172  1.00  0.00     0.084 C 
BRANCH  30  32
HETATM   32  O3  UNL     1     -32.042  12.153  -7.638  1.00  0.00    -0.359 OA
ATOM     33  H3  UNL     1     -31.850  11.349  -7.170  1.00  0.00     0.217 HD
ENDBRANCH  30  32
BRANCH  31  34
HETATM   34  O4  UNL     1     -30.126  10.722 -10.364  1.00  0.00    -0.362 OA
ATOM     35  H4  UNL     1     -29.875   9.842 -10.619  1.00  0.00     0.217 HD
ENDBRANCH  31  34
BRANCH  31  36
HETATM   36  C11 UNL     1     -29.704  10.636  -8.086  1.00  0.00     0.178 C 
BRANCH  36  37
HETATM   37  C12 UNL     1     -29.579   9.156  -7.922  1.00  0.00     0.264 C 
HETATM   38  O5  UNL     1     -29.312   8.377  -8.887  1.00  0.00    -0.265 OA
BRANCH  37  39
HETATM   39  O6  UNL     1     -29.753   8.546  -6.683  1.00  0.00    -0.326 OA
HETATM   40  C13 UNL     1     -29.758   7.134  -6.573  1.00  0.00     0.213 C 
ENDBRANCH  37  39
ENDBRANCH  36  37
ENDBRANCH  31  36
ENDBRANCH   8  30
BRANCH   1  41
HETATM   41  C2  UNL     1     -31.228  17.375 -11.096  1.00  0.00     0.003 C 
HETATM   42  C1  UNL     1     -32.201  17.754 -11.851  1.00  0.00     0.012 C 
ENDBRANCH   1  41
BRANCH  15  43
HETATM   43  C25 UNL     1     -29.439  14.359  -8.065  1.00  0.00     0.147 C 
HETATM   44  N2  UNL     1     -29.738  13.808  -6.914  1.00  0.00    -0.250 N 
ATOM     45  H2  UNL     1     -30.563  13.209  -6.895  1.00  0.00     0.196 HD
BRANCH  43  46
HETATM   46  O14 UNL     1     -28.306  15.131  -7.909  1.00  0.00    -0.347 OA
ATOM     47  H14 UNL     1     -27.704  15.038  -7.180  1.00  0.00     0.219 HD
ENDBRANCH  43  46
BRANCH  44  48
HETATM   48  O15 UNL     1     -29.070  13.951  -5.759  1.00  0.00    -0.288 OA
ATOM     49  H15 UNL     1     -28.810  14.768  -5.350  1.00  0.00     0.244 HD
ENDBRANCH  44  48
ENDBRANCH  15  43
TORSDOF 13
ENDMDL
MODEL 3
REMARK VINA RESULT: -8.293015579      3.726      7.727
REMARK  13 active torsions:
REMARK  status: ('A' for Active; 'I' for Inactive)
REMARK    1  A    between atoms: C2_2  and  C3_3 
REMARK    2  A    between atoms: C8_10  and  C9_11 
REMARK    3  A    between atoms: C9_11  and  O3_12 
REMARK    4  A    between atoms: C10_14  and  O4_15 
REMARK    5  A    between atoms: C10_14  and  C11_17 
REMARK    6  A    between atoms: C11_17  and  C12_18 
REMARK    7  A    between atoms: C12_18  and  O6_20 
REMARK    8  A    between atoms: C15_24  and  C16_25 
REMARK    9  A    between atoms: C21_33  and  N1_34 
REMARK   10  A    between atoms: C22_38  and  O13_39 
REMARK   11  A    between atoms: C24_42  and  C25_43 
REMARK   12  A    between atoms: C25_43  and  O14_44 
REMARK   13  A    between atoms: N2_46  and  O15_48 
ROOT
HETATM    1  C3  UNL     1     -29.523  14.533 -11.097  1.00  0.00    -0.008 C 
HETATM    2  C4  UNL     1     -29.858  13.355 -10.605  1.00  0.00     0.022 C 
HETATM    3  C5  UNL     1     -30.375  13.390  -9.240  1.00  0.00     0.225 C 
HETATM    4  O1  UNL     1     -29.755  13.960  -8.424  1.00  0.00    -0.284 OA
HETATM    5  C6  UNL     1     -31.676  12.614  -9.339  1.00  0.00     0.203 C 
HETATM    6  O2  UNL     1     -32.188  12.063  -8.449  1.00  0.00    -0.289 OA
HETATM    7  C7  UNL     1     -32.219  12.659 -10.770  1.00  0.00     0.134 C 
HETATM    8  C8  UNL     1     -31.289  12.124 -11.875  1.00  0.00     0.140 C 
HETATM    9  O7  UNL     1     -31.241  13.047 -13.018  1.00  0.00    -0.328 OA
HETATM   10  C14 UNL     1     -30.263  13.992 -13.428  1.00  0.00     0.123 A 
HETATM   11  C15 UNL     1     -29.953  14.446 -14.639  1.00  0.00     0.149 A 
HETATM   12  O12 UNL     1     -28.896  15.328 -14.474  1.00  0.00    -0.281 OA
HETATM   13  C22 UNL     1     -28.549  15.445 -13.233  1.00  0.00     0.198 A 
HETATM   14  C23 UNL     1     -29.361  14.654 -12.550  1.00  0.00     0.069 A 
HETATM   15  C24 UNL     1     -29.901  12.016 -11.335  1.00  0.00     0.142 C 
ENDROOT
BRANCH  11  16
HETATM   16  C16 UNL     1     -30.495  14.215 -15.961  1.00  0.00     0.149 A 
HETATM   17  O8  UNL     1     -31.122  13.019 -16.141  1.00  0.00    -0.308 OA
HETATM   18  C17 UNL     1     -31.647  12.659 -17.267  1.00  0.00     0.075 A 
HETATM   19  C18 UNL     1     -32.331  11.323 -17.416  1.00  0.00     0.078 C 
HETATM   20  C19 UNL     1     -31.629  13.441 -18.402  1.00  0.00     0.116 A 
HETATM   21 CL1  UNL     1     -32.357  12.895 -19.889  1.00  0.00    -0.077 Cl
HETATM   22  C20 UNL     1     -31.021  14.648 -18.299  1.00  0.00     0.231 A 
HETATM   23  O9  UNL     1     -30.963  15.415 -19.285  1.00  0.00    -0.284 OA
HETATM   24  C21 UNL     1     -30.457  15.007 -17.054  1.00  0.00     0.191 A 
BRANCH  24  25
HETATM   25  N1  UNL     1     -29.744  16.218 -17.102  1.00  0.00    -0.108 N 
HETATM   26  O10 UNL     1     -30.124  17.356 -16.840  1.00  0.00    -0.532 OA
HETATM   27  O11 UNL     1     -28.428  16.139 -17.593  1.00  0.00    -0.532 OA
ENDBRANCH  24  25
ENDBRANCH  11  16
BRANCH  13  28
HETATM   28  O13 UNL     1     -27.577  16.158 -12.524  1.00  0.00    -0.340 OA
ATOM     29  H13 UNL     1     -26.733  16.545 -12.723  1.00  0.00     0.220 HD
ENDBRANCH  13  28
BRANCH   8  30
HETATM   30  C9  UNL     1     -31.980  10.937 -12.400  1.00  0.00     0.109 C 
HETATM   31  C10 UNL     1     -31.527  10.056 -13.453  1.00  0.00     0.084 C 
BRANCH  30  32
HETATM   32  O3  UNL     1     -32.600  10.171 -11.374  1.00  0.00    -0.359 OA
ATOM     33  H3  UNL     1     -32.716  10.666 -10.571  1.00  0.00     0.217 HD
ENDBRANCH  30  32
BRANCH  31  34
HETATM   34  O4  UNL     1     -30.871  10.534 -14.540  1.00  0.00    -0.362 OA
ATOM     35  H4  UNL     1     -31.326  10.704 -15.356  1.00  0.00     0.217 HD
ENDBRANCH  31  34
BRANCH  31  36
HETATM   36  C11 UNL     1     -30.833   8.752 -13.056  1.00  0.00     0.178 C 
BRANCH  36  37
HETATM   37  C12 UNL     1     -30.690   7.857 -14.243  1.00  0.00     0.264 C 
HETATM   38  O5  UNL     1     -29.923   6.847 -14.256  1.00  0.00    -0.265 OA
BRANCH  37  39
HETATM   39  O6  UNL     1     -31.402   8.088 -15.417  1.00  0.00    -0.326 OA
HETATM   40  C13 UNL     1     -31.092   7.369 -16.598  1.00  0.00     0.213 C 
ENDBRANCH  37  39
ENDBRANCH  36  37
ENDBRANCH  31  36
ENDBRANCH   8  30
BRANCH   1  41
HETATM   41  C2  UNL     1     -29.665  15.649 -10.251  1.00  0.00     0.003 C 
HETATM   42  C1  UNL     1     -30.359  16.727 -10.378  1.00  0.00     0.012 C 
ENDBRANCH   1  41
BRANCH  15  43
HETATM   43  C25 UNL     1     -29.392  11.028 -10.474  1.00  0.00     0.147 C 
HETATM   44  N2  UNL     1     -30.048  10.045  -9.906  1.00  0.00    -0.250 N 
ATOM     45  H2  UNL     1     -31.046   9.984 -10.109  1.00  0.00     0.196 HD
BRANCH  43  46
HETATM   46  O14 UNL     1     -28.068  10.959 -10.091  1.00  0.00    -0.347 OA
ATOM     47  H14 UNL     1     -27.586  11.697  -9.736  1.00  0.00     0.219 HD
ENDBRANCH  43  46
BRANCH  44  48
HETATM   48  O15 UNL     1     -29.542   9.110  -9.087  1.00  0.00    -0.288 OA
ATOM     49  H15 UNL     1     -29.727   8.179  -9.105  1.00  0.00     0.244 HD
ENDBRANCH  44  48
ENDBRANCH  15  43
TORSDOF 13
ENDMDL
MODEL 4
REMARK VINA RESULT: -8.263133913      4.109      8.184
REMARK  13 active torsions:
REMARK  status: ('A' for Active; 'I' for Inactive)
REMARK    1  A    between atoms: C2_2  and  C3_3 
REMARK    2  A    between atoms: C8_10  and  C9_11 
REMARK    3  A    between atoms: C9_11  and  O3_12 
REMARK    4  A    between atoms: C10_14  and  O4_15 
REMARK    5  A    between atoms: C10_14  and  C11_17 
REMARK    6  A    between atoms: C11_17  and  C12_18 
REMARK    7  A    between atoms: C12_18  and  O6_20 
REMARK    8  A    between atoms: C15_24  and  C16_25 
REMARK    9  A    between atoms: C21_33  and  N1_34 
REMARK   10  A    between atoms: C22_38  and  O13_39 
REMARK   11  A    between atoms: C24_42  and  C25_43 
REMARK   12  A    between atoms: C25_43  and  O14_44 
REMARK   13  A    between atoms: N2_46  and  O15_48 
ROOT
HETATM    1  C3  UNL     1     -30.305  14.997 -11.927  1.00  0.00    -0.008 C 
HETATM    2  C4  UNL     1     -30.615  13.807 -11.447  1.00  0.00     0.022 C 
HETATM    3  C5  UNL     1     -31.278  13.829 -10.145  1.00  0.00     0.225 C 
HETATM    4  O1  UNL     1     -30.786  14.452  -9.281  1.00  0.00    -0.284 OA
HETATM    5  C6  UNL     1     -32.508  12.968 -10.364  1.00  0.00     0.203 C 
HETATM    6  O2  UNL     1     -33.076  12.399  -9.521  1.00  0.00    -0.289 OA
HETATM    7  C7  UNL     1     -32.896  12.956 -11.845  1.00  0.00     0.134 C 
HETATM    8  C8  UNL     1     -31.821  12.465 -12.833  1.00  0.00     0.140 C 
HETATM    9  O7  UNL     1     -31.709  13.372 -13.984  1.00  0.00    -0.328 OA
HETATM   10  C14 UNL     1     -30.755  14.372 -14.310  1.00  0.00     0.123 A 
HETATM   11  C15 UNL     1     -30.346  14.827 -15.491  1.00  0.00     0.149 A 
HETATM   12  O12 UNL     1     -29.372  15.779 -15.235  1.00  0.00    -0.281 OA
HETATM   13  C22 UNL     1     -29.168  15.937 -13.967  1.00  0.00     0.198 A 
HETATM   14  C23 UNL     1     -29.996  15.105 -13.356  1.00  0.00     0.069 A 
HETATM   15  C24 UNL     1     -30.495  12.457 -12.147  1.00  0.00     0.142 C 
ENDROOT
BRANCH  11  16
HETATM   16  C16 UNL     1     -30.728  14.540 -16.858  1.00  0.00     0.149 A 
HETATM   17  O8  UNL     1     -31.427  13.386 -17.046  1.00  0.00    -0.308 OA
HETATM   18  C17 UNL     1     -31.829  12.984 -18.208  1.00  0.00     0.075 A 
HETATM   19  C18 UNL     1     -32.601  11.698 -18.363  1.00  0.00     0.078 C 
HETATM   20  C19 UNL     1     -31.594  13.676 -19.377  1.00  0.00     0.116 A 
HETATM   21 CL1  UNL     1     -32.165  13.079 -20.912  1.00  0.00    -0.077 Cl
HETATM   22  C20 UNL     1     -30.902  14.837 -19.269  1.00  0.00     0.231 A 
HETATM   23  O9  UNL     1     -30.649  15.521 -20.284  1.00  0.00    -0.284 OA
HETATM   24  C21 UNL     1     -30.478  15.243 -17.984  1.00  0.00     0.191 A 
BRANCH  24  25
HETATM   25  N1  UNL     1     -29.663  16.388 -18.010  1.00  0.00    -0.108 N 
HETATM   26  O10 UNL     1     -28.447  16.475 -18.156  1.00  0.00    -0.532 OA
HETATM   27  O11 UNL     1     -30.310  17.611 -17.755  1.00  0.00    -0.532 OA
ENDBRANCH  24  25
ENDBRANCH  11  16
BRANCH  13  28
HETATM   28  O13 UNL     1     -28.325  16.723 -13.175  1.00  0.00    -0.340 OA
ATOM     29  H13 UNL     1     -28.388  17.157 -12.332  1.00  0.00     0.220 HD
ENDBRANCH  13  28
BRANCH   8  30
HETATM   30  C9  UNL     1     -32.375  11.228 -13.402  1.00  0.00     0.109 C 
HETATM   31  C10 UNL     1     -31.724  10.319 -14.319  1.00  0.00     0.084 C 
BRANCH  30  32
HETATM   32  O3  UNL     1     -33.130  10.484 -12.452  1.00  0.00    -0.359 OA
ATOM     33  H3  UNL     1     -33.682  11.039 -11.914  1.00  0.00     0.217 HD
ENDBRANCH  30  32
BRANCH  31  34
HETATM   34  O4  UNL     1     -30.915  10.774 -15.307  1.00  0.00    -0.362 OA
ATOM     35  H4  UNL     1     -30.067  11.157 -15.114  1.00  0.00     0.217 HD
ENDBRANCH  31  34
BRANCH  31  36
HETATM   36  C11 UNL     1     -31.062   9.065 -13.747  1.00  0.00     0.178 C 
BRANCH  36  37
HETATM   37  C12 UNL     1     -30.788   8.079 -14.835  1.00  0.00     0.264 C 
HETATM   38  O5  UNL     1     -30.042   7.067 -14.674  1.00  0.00    -0.265 OA
BRANCH  37  39
HETATM   39  O6  UNL     1     -31.344   8.224 -16.103  1.00  0.00    -0.326 OA
HETATM   40  C13 UNL     1     -31.145   7.229 -17.091  1.00  0.00     0.213 C 
ENDBRANCH  37  39
ENDBRANCH  36  37
ENDBRANCH  31  36
ENDBRANCH   8  30
BRANCH   1  41
HETATM   41  C2  UNL     1     -30.607  16.114 -11.125  1.00  0.00     0.003 C 
HETATM   42  C1  UNL     1     -31.336  17.151 -11.357  1.00  0.00     0.012 C 
ENDBRANCH   1  41
BRANCH  15  43
HETATM   43  C25 UNL     1     -30.020  11.517 -11.214  1.00  0.00     0.147 C 
HETATM   44  N2  UNL     1     -28.809  11.416 -10.724  1.00  0.00    -0.250 N 
ATOM     45  H2  UNL     1     -28.124  12.097 -11.054  1.00  0.00     0.196 HD
BRANCH  43  46
HETATM   46  O14 UNL     1     -30.807  10.525 -10.666  1.00  0.00    -0.347 OA
ATOM     47  H14 UNL     1     -30.800  10.301  -9.743  1.00  0.00     0.219 HD
ENDBRANCH  43  46
BRANCH  44  48
HETATM   48  O15 UNL     1     -28.377  10.511  -9.833  1.00  0.00    -0.288 OA
ATOM     49  H15 UNL     1     -28.800  10.270  -9.017  1.00  0.00     0.244 HD
ENDBRANCH  44  48
ENDBRANCH  15  43
TORSDOF 13
ENDMDL
MODEL 5
REMARK VINA RESULT: -8.212602848      3.550      7.138
REMARK  13 active torsions:
REMARK  status: ('A' for Active; 'I' for Inactive)
REMARK    1  A    between atoms: C2_2  and  C3_3 
REMARK    2  A    between atoms: C8_10  and  C9_11 
REMARK    3  A    between atoms: C9_11  and  O3_12 
REMARK    4  A    between atoms: C10_14  and  O4_15 
REMARK    5  A    between atoms: C10_14  and  C11_17 
REMARK    6  A    between atoms: C11_17  and  C12_18 
REMARK    7  A    between atoms: C12_18  and  O6_20 
REMARK    8  A    between atoms: C15_24  and  C16_25 
REMARK    9  A    between atoms: C21_33  and  N1_34 
REMARK   10  A    between atoms: C22_38  and  O13_39 
REMARK   11  A    between atoms: C24_42  and  C25_43 
REMARK   12  A    between atoms: C25_43  and  O14_44 
REMARK   13  A    between atoms: N2_46  and  O15_48 
ROOT
HETATM    1  C3  UNL     1     -27.888  13.657  -9.716  1.00  0.00    -0.008 C 
HETATM    2  C4  UNL     1     -28.645  12.620  -9.409  1.00  0.00     0.022 C 
HETATM    3  C5  UNL     1     -29.266  12.691  -8.088  1.00  0.00     0.225 C 
HETATM    4  O1  UNL     1     -28.584  12.929  -7.164  1.00  0.00    -0.284 OA
HETATM    5  C6  UNL     1     -30.731  12.419  -8.377  1.00  0.00     0.203 C 
HETATM    6  O2  UNL     1     -31.489  11.988  -7.604  1.00  0.00    -0.289 OA
HETATM    7  C7  UNL     1     -31.070  12.793  -9.823  1.00  0.00     0.134 C 
HETATM    8  C8  UNL     1     -30.256  12.087 -10.924  1.00  0.00     0.140 C 
HETATM    9  O7  UNL     1     -29.782  13.050 -11.928  1.00  0.00    -0.328 OA
HETATM   10  C14 UNL     1     -28.509  13.642 -12.143  1.00  0.00     0.123 A 
HETATM   11  C15 UNL     1     -27.937  14.084 -13.259  1.00  0.00     0.149 A 
HETATM   12  O12 UNL     1     -26.672  14.531 -12.908  1.00  0.00    -0.281 OA
HETATM   13  C22 UNL     1     -26.442  14.395 -11.642  1.00  0.00     0.198 A 
HETATM   14  C23 UNL     1     -27.539  13.863 -11.126  1.00  0.00     0.069 A 
HETATM   15  C24 UNL     1     -29.048  11.459 -10.311  1.00  0.00     0.142 C 
ENDROOT
BRANCH  11  16
HETATM   16  C16 UNL     1     -28.379  14.188 -14.634  1.00  0.00     0.149 A 
HETATM   17  O8  UNL     1     -27.416  14.004 -15.579  1.00  0.00    -0.308 OA
HETATM   18  C17 UNL     1     -27.648  14.077 -16.849  1.00  0.00     0.075 A 
HETATM   19  C18 UNL     1     -26.547  13.865 -17.857  1.00  0.00     0.078 C 
HETATM   20  C19 UNL     1     -28.890  14.351 -17.382  1.00  0.00     0.116 A 
HETATM   21 CL1  UNL     1     -29.137  14.434 -19.106  1.00  0.00    -0.077 Cl
HETATM   22  C20 UNL     1     -29.901  14.547 -16.500  1.00  0.00     0.231 A 
HETATM   23  O9  UNL     1     -31.056  14.799 -16.906  1.00  0.00    -0.284 OA
HETATM   24  C21 UNL     1     -29.609  14.460 -15.121  1.00  0.00     0.191 A 
BRANCH  24  25
HETATM   25  N1  UNL     1     -30.699  14.807 -14.304  1.00  0.00    -0.108 N 
HETATM   26  O10 UNL     1     -30.918  15.854 -13.701  1.00  0.00    -0.532 OA
HETATM   27  O11 UNL     1     -31.645  13.791 -14.074  1.00  0.00    -0.532 OA
ENDBRANCH  24  25
ENDBRANCH  11  16
BRANCH  13  28
HETATM   28  O13 UNL     1     -25.372  14.658 -10.781  1.00  0.00    -0.340 OA
ATOM     29  H13 UNL     1     -24.437  14.795 -10.875  1.00  0.00     0.220 HD
ENDBRANCH  13  28
BRANCH   8  30
HETATM   30  C9  UNL     1     -31.239  11.268 -11.647  1.00  0.00     0.109 C 
HETATM   31  C10 UNL     1     -31.017  10.490 -12.845  1.00  0.00     0.084 C 
BRANCH  30  32
HETATM   32  O3  UNL     1     -32.100  10.552 -10.769  1.00  0.00    -0.359 OA
ATOM     33  H3  UNL     1     -31.722   9.730 -10.480  1.00  0.00     0.217 HD
ENDBRANCH  30  32
BRANCH  31  34
HETATM   34  O4  UNL     1     -30.203  10.936 -13.834  1.00  0.00    -0.362 OA
ATOM     35  H4  UNL     1     -29.499  10.397 -14.175  1.00  0.00     0.217 HD
ENDBRANCH  31  34
BRANCH  31  36
HETATM   36  C11 UNL     1     -30.752   8.992 -12.696  1.00  0.00     0.178 C 
BRANCH  36  37
HETATM   37  C12 UNL     1     -30.729   8.331 -14.035  1.00  0.00     0.264 C 
HETATM   38  O5  UNL     1     -31.336   8.801 -15.045  1.00  0.00    -0.265 OA
BRANCH  37  39
HETATM   39  O6  UNL     1     -30.031   7.146 -14.248  1.00  0.00    -0.326 OA
HETATM   40  C13 UNL     1     -30.434   6.249 -15.268  1.00  0.00     0.213 C 
ENDBRANCH  37  39
ENDBRANCH  36  37
ENDBRANCH  31  36
ENDBRANCH   8  30
BRANCH   1  41
HETATM   41  C2  UNL     1     -27.744  14.662  -8.741  1.00  0.00     0.003 C 
HETATM   42  C1  UNL     1     -28.004  15.923  -8.778  1.00  0.00     0.012 C 
ENDBRANCH   1  41
BRANCH  15  43
HETATM   43  C25 UNL     1     -28.991  10.274  -9.556  1.00  0.00     0.147 C 
HETATM   44  N2  UNL     1     -29.992   9.604  -9.037  1.00  0.00    -0.250 N 
ATOM     45  H2  UNL     1     -30.926   9.983  -9.196  1.00  0.00     0.196 HD
BRANCH  43  46
HETATM   46  O14 UNL     1     -27.813   9.626  -9.243  1.00  0.00    -0.347 OA
ATOM     47  H14 UNL     1     -27.575   9.367  -8.361  1.00  0.00     0.219 HD
ENDBRANCH  43  46
BRANCH  44  48
HETATM   48  O15 UNL     1     -29.915   8.473  -8.320  1.00  0.00    -0.288 OA
ATOM     49  H15 UNL     1     -30.537   7.755  -8.323  1.00  0.00     0.244 HD
ENDBRANCH  44  48
ENDBRANCH  15  43
TORSDOF 13
ENDMDL
