MODEL 1
REMARK VINA RESULT: -9.766025995      0.000      0.000
REMARK  10 active torsions:
REMARK  status: ('A' for Active; 'I' for Inactive)
REMARK    1  A    between atoms: C2_2  and  C3_3 
REMARK    2  A    between atoms: C4_4  and  S1_5 
REMARK    3  A    between atoms: S1_5  and  C5_6 
REMARK    4  A    between atoms: C6_11  and  C7_12 
REMARK    5  A    between atoms: N5_17  and  C8_18 
REMARK    6  A    between atoms: C8_18  and  C9_19 
REMARK    7  A    between atoms: C9_19  and  C10_20 
REMARK    8  A    between atoms: N8_27  and  C12_28 
REMARK    9  A    between atoms: C17_37  and  O3_38 
REMARK   10  A    between atoms: C18_44  and  N12_45 
ROOT
HETATM    1  C3  UNL     1     -26.798  -1.130  -9.242  1.00  0.00    -0.001 A 
HETATM    2  C4  UNL     1     -28.045  -0.563  -9.132  1.00  0.00     0.087 A 
HETATM    3  N11 UNL     1     -29.007  -1.314  -8.570  1.00  0.00    -0.335 N 
ATOM      4  H11 UNL     1     -29.943  -0.923  -8.473  1.00  0.00     0.168 HD
HETATM    5  C18 UNL     1     -28.775  -2.578  -8.124  1.00  0.00     0.122 A 
HETATM    6  C19 UNL     1     -27.527  -3.165  -8.226  1.00  0.00     0.110 A 
HETATM    7  C20 UNL     1     -27.277  -4.513  -7.751  1.00  0.00     0.105 C 
HETATM    8  N13 UNL     1     -27.083  -5.585  -7.356  1.00  0.00    -0.191 NA
HETATM    9  C21 UNL     1     -26.521  -2.411  -8.800  1.00  0.00     0.067 A 
HETATM   10 CL1  UNL     1     -24.934  -3.130  -8.939  1.00  0.00    -0.082 Cl
ENDROOT
BRANCH   5  11
HETATM   11  N12 UNL     1     -29.701  -3.294  -7.585  1.00  0.00    -0.384 N 
ATOM     12 2H12 UNL     1     -30.647  -3.149  -7.937  1.00  0.00     0.157 HD
ATOM     13 1H12 UNL     1     -29.502  -3.970  -6.848  1.00  0.00     0.157 HD
ENDBRANCH   5  11
BRANCH   1  14
HETATM   14  C2  UNL     1     -25.717  -0.321  -9.861  1.00  0.00     0.039 C 
HETATM   15  C1  UNL     1     -25.921  -0.112 -11.346  1.00  0.00     0.010 C 
ENDBRANCH   1  14
BRANCH   2  16
HETATM   16  S1  UNL     1     -28.327   1.097  -9.724  1.00  0.00    -0.034 SA
BRANCH  16  17
HETATM   17  C5  UNL     1     -28.580   2.224  -8.364  1.00  0.00     0.167 A 
HETATM   18  N1  UNL     1     -28.446   1.936  -7.061  1.00  0.00    -0.278 N 
HETATM   19  N2  UNL     1     -28.718   3.034  -6.347  1.00  0.00    -0.281 N 
ATOM     20  H1  UNL     1     -28.179   1.029  -6.678  1.00  0.00     0.189 HD
HETATM   21  C6  UNL     1     -29.029   4.040  -7.173  1.00  0.00     0.155 A 
ATOM     22  H2  UNL     1     -28.692   3.095  -5.329  1.00  0.00     0.188 HD
HETATM   23  N10 UNL     1     -28.939   3.523  -8.410  1.00  0.00    -0.319 N 
ATOM     24  H10 UNL     1     -29.118   4.043  -9.269  1.00  0.00     0.169 HD
BRANCH  21  25
HETATM   25  C7  UNL     1     -29.391   5.417  -6.867  1.00  0.00     0.147 A 
HETATM   26  N3  UNL     1     -30.103   5.843  -5.809  1.00  0.00    -0.279 N 
HETATM   27  N4  UNL     1     -30.225   7.150  -5.880  1.00  0.00    -0.238 N 
ATOM     28  H3  UNL     1     -30.486   5.249  -5.074  1.00  0.00     0.189 HD
HETATM   29  N5  UNL     1     -29.634   7.653  -6.934  1.00  0.00    -0.254 N 
ATOM     30  H4  UNL     1     -30.725   7.711  -5.190  1.00  0.00     0.208 HD
HETATM   31  C17 UNL     1     -29.101   6.569  -7.567  1.00  0.00     0.191 A 
BRANCH  29  32
HETATM   32  C8  UNL     1     -29.535   9.007  -7.409  1.00  0.00     0.160 C 
BRANCH  32  33
HETATM   33  C9  UNL     1     -29.726   9.206  -8.864  1.00  0.00     0.100 C 
BRANCH  33  34
HETATM   34  C10 UNL     1     -28.763  10.142  -9.438  1.00  0.00     0.107 A 
HETATM   35  N6  UNL     1     -27.478  10.050  -9.808  1.00  0.00    -0.286 N 
HETATM   36  N7  UNL     1     -27.013  11.184 -10.286  1.00  0.00    -0.274 N 
ATOM     37  H6  UNL     1     -26.923   9.198  -9.729  1.00  0.00     0.188 HD
HETATM   38  C11 UNL     1     -28.036  12.066 -10.227  1.00  0.00     0.199 A 
ATOM     39  H7  UNL     1     -26.070  11.363 -10.631  1.00  0.00     0.189 HD
HETATM   40  S2  UNL     1     -27.940  13.640 -10.720  1.00  0.00    -0.039 SA
HETATM   41  N8  UNL     1     -29.086  11.429  -9.715  1.00  0.00    -0.269 N 
BRANCH  41  42
HETATM   42  C12 UNL     1     -30.366  12.063  -9.503  1.00  0.00     0.118 A 
HETATM   43  C13 UNL     1     -31.272  11.916 -10.536  1.00  0.00     0.090 A 
HETATM   44  S3  UNL     1     -32.777  12.669 -10.275  1.00  0.00    -0.038 SA
HETATM   45  C14 UNL     1     -32.877  13.472  -8.767  1.00  0.00     0.292 A 
HETATM   46  O1  UNL     1     -33.866  14.103  -8.326  1.00  0.00    -0.259 OA
HETATM   47  N9  UNL     1     -31.760  13.384  -8.027  1.00  0.00    -0.278 N 
HETATM   48  C15 UNL     1     -31.815  14.067  -6.719  1.00  0.00     0.163 C 
HETATM   49  C16 UNL     1     -30.641  12.753  -8.361  1.00  0.00     0.278 A 
HETATM   50  O2  UNL     1     -29.683  12.787  -7.508  1.00  0.00    -0.265 OA
ENDBRANCH  41  42
ENDBRANCH  33  34
ENDBRANCH  32  33
ENDBRANCH  29  32
BRANCH  31  51
HETATM   51  O3  UNL     1     -28.381   6.643  -8.741  1.00  0.00    -0.343 OA
ATOM     52  H3  UNL     1     -28.508   7.281  -9.434  1.00  0.00     0.219 HD
ENDBRANCH  31  51
ENDBRANCH  21  25
ENDBRANCH  16  17
ENDBRANCH   2  16
TORSDOF 10
ENDMDL
MODEL 2
REMARK VINA RESULT: -9.412982609      2.193      3.597
REMARK  10 active torsions:
REMARK  status: ('A' for Active; 'I' for Inactive)
REMARK    1  A    between atoms: C2_2  and  C3_3 
REMARK    2  A    between atoms: C4_4  and  S1_5 
REMARK    3  A    between atoms: S1_5  and  C5_6 
REMARK    4  A    between atoms: C6_11  and  C7_12 
REMARK    5  A    between atoms: N5_17  and  C8_18 
REMARK    6  A    between atoms: C8_18  and  C9_19 
REMARK    7  A    between atoms: C9_19  and  C10_20 
REMARK    8  A    between atoms: N8_27  and  C12_28 
REMARK    9  A    between atoms: C17_37  and  O3_38 
REMARK   10  A    between atoms: C18_44  and  N12_45 
ROOT
HETATM    1  C3  UNL     1     -27.518  -0.391 -10.115  1.00  0.00    -0.001 A 
HETATM    2  C4  UNL     1     -28.047   0.772  -9.607  1.00  0.00     0.087 A 
HETATM    3  N11 UNL     1     -28.802   0.663  -8.501  1.00  0.00    -0.335 N 
ATOM      4  H11 UNL     1     -29.209   1.506  -8.098  1.00  0.00     0.168 HD
HETATM    5  C18 UNL     1     -29.043  -0.533  -7.900  1.00  0.00     0.122 A 
HETATM    6  C19 UNL     1     -28.520  -1.713  -8.398  1.00  0.00     0.110 A 
HETATM    7  C20 UNL     1     -28.776  -2.990  -7.758  1.00  0.00     0.105 C 
HETATM    8  N13 UNL     1     -28.974  -4.003  -7.232  1.00  0.00    -0.191 NA
HETATM    9  C21 UNL     1     -27.739  -1.626  -9.534  1.00  0.00     0.067 A 
HETATM   10 CL1  UNL     1     -27.064  -3.103 -10.181  1.00  0.00    -0.082 Cl
ENDROOT
BRANCH   5  11
HETATM   11  N12 UNL     1     -29.769  -0.632  -6.840  1.00  0.00    -0.384 N 
ATOM     12 2H12 UNL     1     -30.779  -0.635  -6.981  1.00  0.00     0.157 HD
ATOM     13 1H12 UNL     1     -29.359  -0.702  -5.909  1.00  0.00     0.157 HD
ENDBRANCH   5  11
BRANCH   1  14
HETATM   14  C2  UNL     1     -26.680  -0.299 -11.339  1.00  0.00     0.039 C 
HETATM   15  C1  UNL     1     -25.201  -0.210 -11.029  1.00  0.00     0.010 C 
ENDBRANCH   1  14
BRANCH   2  16
HETATM   16  S1  UNL     1     -27.717   2.330 -10.413  1.00  0.00    -0.034 SA
BRANCH  16  17
HETATM   17  C5  UNL     1     -28.305   3.695  -9.424  1.00  0.00     0.167 A 
HETATM   18  N1  UNL     1     -28.666   3.641  -8.134  1.00  0.00    -0.278 N 
HETATM   19  N2  UNL     1     -29.049   4.861  -7.742  1.00  0.00    -0.281 N 
ATOM     20  H1  UNL     1     -28.650   2.806  -7.547  1.00  0.00     0.189 HD
HETATM   21  C6  UNL     1     -28.941   5.715  -8.767  1.00  0.00     0.155 A 
ATOM     22  H2  UNL     1     -29.373   5.103  -6.806  1.00  0.00     0.188 HD
HETATM   23  N10 UNL     1     -28.481   4.980  -9.793  1.00  0.00    -0.319 N 
ATOM     24  H10 UNL     1     -28.291   5.344 -10.727  1.00  0.00     0.169 HD
BRANCH  21  25
HETATM   25  C7  UNL     1     -29.233   7.141  -8.826  1.00  0.00     0.147 A 
HETATM   26  N3  UNL     1     -29.389   7.882  -9.937  1.00  0.00    -0.279 N 
HETATM   27  N4  UNL     1     -29.640   9.124  -9.586  1.00  0.00    -0.238 N 
ATOM     28  H3  UNL     1     -29.322   7.537 -10.895  1.00  0.00     0.189 HD
HETATM   29  N5  UNL     1     -29.666   9.282  -8.287  1.00  0.00    -0.254 N 
ATOM     30  H4  UNL     1     -29.797   9.880 -10.252  1.00  0.00     0.208 HD
HETATM   31  C17 UNL     1     -29.412   8.036  -7.793  1.00  0.00     0.191 A 
BRANCH  29  32
HETATM   32  C8  UNL     1     -29.879  10.453  -7.479  1.00  0.00     0.160 C 
BRANCH  32  33
HETATM   33  C9  UNL     1     -29.758  11.757  -8.171  1.00  0.00     0.100 C 
BRANCH  33  34
HETATM   34  C10 UNL     1     -31.001  12.523  -8.155  1.00  0.00     0.107 A 
HETATM   35  N6  UNL     1     -31.797  12.994  -7.184  1.00  0.00    -0.286 N 
HETATM   36  N7  UNL     1     -32.836  13.643  -7.660  1.00  0.00    -0.274 N 
ATOM     37  H6  UNL     1     -31.616  12.863  -6.188  1.00  0.00     0.188 HD
HETATM   38  C11 UNL     1     -32.724  13.599  -9.007  1.00  0.00     0.199 A 
ATOM     39  H7  UNL     1     -33.578  14.091  -7.122  1.00  0.00     0.189 HD
HETATM   40  S2  UNL     1     -33.802  14.283 -10.055  1.00  0.00    -0.039 SA
HETATM   41  N8  UNL     1     -31.615  12.922  -9.296  1.00  0.00    -0.269 N 
BRANCH  41  42
HETATM   42  C12 UNL     1     -31.173  12.673 -10.647  1.00  0.00     0.118 A 
HETATM   43  C13 UNL     1     -30.369  13.656 -11.192  1.00  0.00     0.090 A 
HETATM   44  S3  UNL     1     -29.855  13.352 -12.787  1.00  0.00    -0.038 SA
HETATM   45  C14 UNL     1     -30.442  11.871 -13.414  1.00  0.00     0.292 A 
HETATM   46  O1  UNL     1     -30.217  11.408 -14.556  1.00  0.00    -0.259 OA
HETATM   47  N9  UNL     1     -31.211  11.182 -12.556  1.00  0.00    -0.278 N 
HETATM   48  C15 UNL     1     -31.734   9.900 -13.068  1.00  0.00     0.163 C 
HETATM   49  C16 UNL     1     -31.535  11.546 -11.321  1.00  0.00     0.278 A 
HETATM   50  O2  UNL     1     -32.286  10.741 -10.661  1.00  0.00    -0.265 OA
ENDBRANCH  41  42
ENDBRANCH  33  34
ENDBRANCH  32  33
ENDBRANCH  29  32
BRANCH  31  51
HETATM   51  O3  UNL     1     -29.346   7.743  -6.447  1.00  0.00    -0.343 OA
ATOM     52  H3  UNL     1     -29.898   8.113  -5.768  1.00  0.00     0.219 HD
ENDBRANCH  31  51
ENDBRANCH  21  25
ENDBRANCH  16  17
ENDBRANCH   2  16
TORSDOF 10
ENDMDL
MODEL 3
REMARK VINA RESULT: -9.393795575      1.844      2.493
REMARK  10 active torsions:
REMARK  status: ('A' for Active; 'I' for Inactive)
REMARK    1  A    between atoms: C2_2  and  C3_3 
REMARK    2  A    between atoms: C4_4  and  S1_5 
REMARK    3  A    between atoms: S1_5  and  C5_6 
REMARK    4  A    between atoms: C6_11  and  C7_12 
REMARK    5  A    between atoms: N5_17  and  C8_18 
REMARK    6  A    between atoms: C8_18  and  C9_19 
REMARK    7  A    between atoms: C9_19  and  C10_20 
REMARK    8  A    between atoms: N8_27  and  C12_28 
REMARK    9  A    between atoms: C17_37  and  O3_38 
REMARK   10  A    between atoms: C18_44  and  N12_45 
ROOT
HETATM    1  C3  UNL     1     -26.748  -1.182  -9.169  1.00  0.00    -0.001 A 
HETATM    2  C4  UNL     1     -28.013  -0.644  -9.127  1.00  0.00     0.087 A 
HETATM    3  N11 UNL     1     -28.978  -1.405  -8.584  1.00  0.00    -0.335 N 
ATOM      4  H11 UNL     1     -29.927  -1.036  -8.537  1.00  0.00     0.168 HD
HETATM    5  C18 UNL     1     -28.733  -2.650  -8.094  1.00  0.00     0.122 A 
HETATM    6  C19 UNL     1     -27.467  -3.206  -8.127  1.00  0.00     0.110 A 
HETATM    7  C20 UNL     1     -27.205  -4.534  -7.604  1.00  0.00     0.105 C 
HETATM    8  N13 UNL     1     -27.001  -5.589  -7.171  1.00  0.00    -0.191 NA
HETATM    9  C21 UNL     1     -26.458  -2.442  -8.680  1.00  0.00     0.067 A 
HETATM   10 CL1  UNL     1     -24.849  -3.123  -8.733  1.00  0.00    -0.082 Cl
ENDROOT
BRANCH   5  11
HETATM   11  N12 UNL     1     -29.663  -3.375  -7.573  1.00  0.00    -0.384 N 
ATOM     12 2H12 UNL     1     -29.820  -4.286  -8.003  1.00  0.00     0.157 HD
ATOM     13 1H12 UNL     1     -30.213  -3.058  -6.776  1.00  0.00     0.157 HD
ENDBRANCH   5  11
BRANCH   1  14
HETATM   14  C2  UNL     1     -25.662  -0.362  -9.766  1.00  0.00     0.039 C 
HETATM   15  C1  UNL     1     -25.783  -0.236 -11.269  1.00  0.00     0.010 C 
ENDBRANCH   1  14
BRANCH   2  16
HETATM   16  S1  UNL     1     -28.310   0.990  -9.777  1.00  0.00    -0.034 SA
BRANCH  16  17
HETATM   17  C5  UNL     1     -28.601   2.157  -8.458  1.00  0.00     0.167 A 
HETATM   18  N1  UNL     1     -28.585   1.888  -7.145  1.00  0.00    -0.278 N 
HETATM   19  N2  UNL     1     -28.848   3.014  -6.471  1.00  0.00    -0.281 N 
ATOM     20  H1  UNL     1     -28.402   0.975  -6.728  1.00  0.00     0.189 HD
HETATM   21  C6  UNL     1     -29.035   4.019  -7.334  1.00  0.00     0.155 A 
ATOM     22  H2  UNL     1     -28.897   3.093  -5.455  1.00  0.00     0.188 HD
HETATM   23  N10 UNL     1     -28.879   3.474  -8.552  1.00  0.00    -0.319 N 
ATOM     24  H10 UNL     1     -28.961   3.986  -9.430  1.00  0.00     0.169 HD
BRANCH  21  25
HETATM   25  C7  UNL     1     -29.338   5.421  -7.079  1.00  0.00     0.147 A 
HETATM   26  N3  UNL     1     -29.686   5.964  -5.899  1.00  0.00    -0.279 N 
HETATM   27  N4  UNL     1     -29.882   7.253  -6.068  1.00  0.00    -0.238 N 
ATOM     28  H3  UNL     1     -29.782   5.458  -5.018  1.00  0.00     0.189 HD
HETATM   29  N5  UNL     1     -29.688   7.631  -7.305  1.00  0.00    -0.254 N 
ATOM     30  H4  UNL     1     -30.154   7.887  -5.317  1.00  0.00     0.208 HD
HETATM   31  C17 UNL     1     -29.343   6.484  -7.957  1.00  0.00     0.191 A 
BRANCH  29  32
HETATM   32  C8  UNL     1     -29.810   8.921  -7.932  1.00  0.00     0.160 C 
BRANCH  32  33
HETATM   33  C9  UNL     1     -28.852   9.213  -9.022  1.00  0.00     0.100 C 
BRANCH  33  34
HETATM   34  C10 UNL     1     -29.474   9.896 -10.153  1.00  0.00     0.107 A 
HETATM   35  N6  UNL     1     -30.115   9.485 -11.257  1.00  0.00    -0.286 N 
HETATM   36  N7  UNL     1     -30.510  10.489 -12.008  1.00  0.00    -0.274 N 
ATOM     37  H6  UNL     1     -30.276   8.504 -11.487  1.00  0.00     0.188 HD
HETATM   38  C11 UNL     1     -30.113  11.615 -11.374  1.00  0.00     0.199 A 
ATOM     39  H7  UNL     1     -31.016  10.430 -12.892  1.00  0.00     0.189 HD
HETATM   40  S2  UNL     1     -30.383  13.145 -11.935  1.00  0.00    -0.039 SA
HETATM   41  N8  UNL     1     -29.490  11.248 -10.257  1.00  0.00    -0.269 N 
BRANCH  41  42
HETATM   42  C12 UNL     1     -28.926  12.193  -9.323  1.00  0.00     0.118 A 
HETATM   43  C13 UNL     1     -29.799  12.658  -8.358  1.00  0.00     0.090 A 
HETATM   44  S3  UNL     1     -29.124  13.772  -7.263  1.00  0.00    -0.038 SA
HETATM   45  C14 UNL     1     -27.474  14.106  -7.573  1.00  0.00     0.292 A 
HETATM   46  O1  UNL     1     -26.739  14.887  -6.923  1.00  0.00    -0.259 OA
HETATM   47  N9  UNL     1     -26.971  13.441  -8.625  1.00  0.00    -0.278 N 
HETATM   48  C15 UNL     1     -25.549  13.709  -8.919  1.00  0.00     0.163 C 
HETATM   49  C16 UNL     1     -27.624  12.587  -9.404  1.00  0.00     0.278 A 
HETATM   50  O2  UNL     1     -26.958  12.055 -10.362  1.00  0.00    -0.265 OA
ENDBRANCH  41  42
ENDBRANCH  33  34
ENDBRANCH  32  33
ENDBRANCH  29  32
BRANCH  31  51
HETATM   51  O3  UNL     1     -29.048   6.424  -9.303  1.00  0.00    -0.343 OA
ATOM     52  H3  UNL     1     -29.512   5.909  -9.952  1.00  0.00     0.219 HD
ENDBRANCH  31  51
ENDBRANCH  21  25
ENDBRANCH  16  17
ENDBRANCH   2  16
TORSDOF 10
ENDMDL
MODEL 4
REMARK VINA RESULT: -9.330093277      2.722      5.014
REMARK  10 active torsions:
REMARK  status: ('A' for Active; 'I' for Inactive)
REMARK    1  A    between atoms: C2_2  and  C3_3 
REMARK    2  A    between atoms: C4_4  and  S1_5 
REMARK    3  A    between atoms: S1_5  and  C5_6 
REMARK    4  A    between atoms: C6_11  and  C7_12 
REMARK    5  A    between atoms: N5_17  and  C8_18 
REMARK    6  A    between atoms: C8_18  and  C9_19 
REMARK    7  A    between atoms: C9_19  and  C10_20 
REMARK    8  A    between atoms: N8_27  and  C12_28 
REMARK    9  A    between atoms: C17_37  and  O3_38 
REMARK   10  A    between atoms: C18_44  and  N12_45 
ROOT
HETATM    1  C3  UNL     1     -28.504   1.879  -7.579  1.00  0.00    -0.001 A 
HETATM    2  C4  UNL     1     -28.529   3.108  -8.195  1.00  0.00     0.087 A 
HETATM    3  N11 UNL     1     -28.185   3.142  -9.494  1.00  0.00    -0.335 N 
ATOM      4  H11 UNL     1     -28.193   4.037  -9.981  1.00  0.00     0.168 HD
HETATM    5  C18 UNL     1     -27.826   2.024 -10.181  1.00  0.00     0.122 A 
HETATM    6  C19 UNL     1     -27.796   0.781  -9.577  1.00  0.00     0.110 A 
HETATM    7  C20 UNL     1     -27.414  -0.413 -10.309  1.00  0.00     0.105 C 
HETATM    8  N13 UNL     1     -27.122  -1.363 -10.905  1.00  0.00    -0.191 NA
HETATM    9  C21 UNL     1     -28.147   0.719  -8.243  1.00  0.00     0.067 A 
HETATM   10 CL1  UNL     1     -28.118  -0.842  -7.457  1.00  0.00    -0.082 Cl
ENDROOT
BRANCH   5  11
HETATM   11  N12 UNL     1     -27.497   2.064 -11.427  1.00  0.00    -0.384 N 
ATOM     12 2H12 UNL     1     -28.146   2.542 -12.051  1.00  0.00     0.157 HD
ATOM     13 1H12 UNL     1     -26.636   1.641 -11.772  1.00  0.00     0.157 HD
ENDBRANCH   5  11
BRANCH   1  14
HETATM   14  C2  UNL     1     -28.879   1.813  -6.143  1.00  0.00     0.039 C 
HETATM   15  C1  UNL     1     -27.689   1.957  -5.220  1.00  0.00     0.010 C 
ENDBRANCH   1  14
BRANCH   2  16
HETATM   16  S1  UNL     1     -29.001   4.560  -7.274  1.00  0.00    -0.034 SA
BRANCH  16  17
HETATM   17  C5  UNL     1     -29.187   5.969  -8.355  1.00  0.00     0.167 A 
HETATM   18  N1  UNL     1     -29.419   5.928  -9.675  1.00  0.00    -0.278 N 
HETATM   19  N2  UNL     1     -29.495   7.182 -10.137  1.00  0.00    -0.281 N 
ATOM     20  H1  UNL     1     -29.521   5.081 -10.234  1.00  0.00     0.189 HD
HETATM   21  C6  UNL     1     -29.316   8.043  -9.128  1.00  0.00     0.155 A 
ATOM     22  H2  UNL     1     -29.665   7.441 -11.108  1.00  0.00     0.188 HD
HETATM   23  N10 UNL     1     -29.128   7.278  -8.039  1.00  0.00    -0.319 N 
ATOM     24  H10 UNL     1     -28.962   7.640  -7.100  1.00  0.00     0.169 HD
BRANCH  21  25
HETATM   25  C7  UNL     1     -29.317   9.499  -9.136  1.00  0.00     0.147 A 
HETATM   26  N3  UNL     1     -29.196  10.295 -10.213  1.00  0.00    -0.279 N 
HETATM   27  N4  UNL     1     -29.240  11.549  -9.820  1.00  0.00    -0.238 N 
ATOM     28  H3  UNL     1     -29.088   9.977 -11.177  1.00  0.00     0.189 HD
HETATM   29  N5  UNL     1     -29.384  11.663  -8.525  1.00  0.00    -0.254 N 
ATOM     30  H4  UNL     1     -29.169  12.344 -10.455  1.00  0.00     0.208 HD
HETATM   31  C17 UNL     1     -29.436  10.376  -8.079  1.00  0.00     0.191 A 
BRANCH  29  32
HETATM   32  C8  UNL     1     -29.457  12.825  -7.678  1.00  0.00     0.160 C 
BRANCH  32  33
HETATM   33  C9  UNL     1     -29.871  14.087  -8.332  1.00  0.00     0.100 C 
BRANCH  33  34
HETATM   34  C10 UNL     1     -31.224  14.495  -7.966  1.00  0.00     0.107 A 
HETATM   35  N6  UNL     1     -31.796  14.927  -6.833  1.00  0.00    -0.286 N 
HETATM   36  N7  UNL     1     -33.078  15.181  -6.985  1.00  0.00    -0.274 N 
ATOM     37  H6  UNL     1     -31.295  15.045  -5.952  1.00  0.00     0.188 HD
HETATM   38  C11 UNL     1     -33.367  14.905  -8.276  1.00  0.00     0.199 A 
ATOM     39  H7  UNL     1     -33.723  15.520  -6.271  1.00  0.00     0.189 HD
HETATM   40  S2  UNL     1     -34.866  15.070  -8.951  1.00  0.00    -0.039 SA
HETATM   41  N8  UNL     1     -32.244  14.492  -8.859  1.00  0.00    -0.269 N 
BRANCH  41  42
HETATM   42  C12 UNL     1     -32.174  14.106 -10.249  1.00  0.00     0.118 A 
HETATM   43  C13 UNL     1     -31.958  15.142 -11.136  1.00  0.00     0.090 A 
HETATM   44  S3  UNL     1     -31.878  14.674 -12.772  1.00  0.00    -0.038 SA
HETATM   45  C14 UNL     1     -32.086  12.991 -13.002  1.00  0.00     0.292 A 
HETATM   46  O1  UNL     1     -32.073  12.385 -14.099  1.00  0.00    -0.259 OA
HETATM   47  N9  UNL     1     -32.277  12.304 -11.865  1.00  0.00    -0.278 N 
HETATM   48  C15 UNL     1     -32.461  10.849 -12.030  1.00  0.00     0.163 C 
HETATM   49  C16 UNL     1     -32.316  12.807 -10.637  1.00  0.00     0.278 A 
HETATM   50  O2  UNL     1     -32.511  11.976  -9.679  1.00  0.00    -0.265 OA
ENDBRANCH  41  42
ENDBRANCH  33  34
ENDBRANCH  32  33
ENDBRANCH  29  32
BRANCH  31  51
HETATM   51  O3  UNL     1     -29.584  10.028  -6.752  1.00  0.00    -0.343 OA
ATOM     52  H3  UNL     1     -30.402   9.812  -6.321  1.00  0.00     0.219 HD
ENDBRANCH  31  51
ENDBRANCH  21  25
ENDBRANCH  16  17
ENDBRANCH   2  16
TORSDOF 10
ENDMDL
MODEL 5
REMARK VINA RESULT: -9.256526979      1.886      2.559
REMARK  10 active torsions:
REMARK  status: ('A' for Active; 'I' for Inactive)
REMARK    1  A    between atoms: C2_2  and  C3_3 
REMARK    2  A    between atoms: C4_4  and  S1_5 
REMARK    3  A    between atoms: S1_5  and  C5_6 
REMARK    4  A    between atoms: C6_11  and  C7_12 
REMARK    5  A    between atoms: N5_17  and  C8_18 
REMARK    6  A    between atoms: C8_18  and  C9_19 
REMARK    7  A    between atoms: C9_19  and  C10_20 
REMARK    8  A    between atoms: N8_27  and  C12_28 
REMARK    9  A    between atoms: C17_37  and  O3_38 
REMARK   10  A    between atoms: C18_44  and  N12_45 
ROOT
HETATM    1  C3  UNL     1     -26.739  -1.516  -9.058  1.00  0.00    -0.001 A 
HETATM    2  C4  UNL     1     -28.028  -1.047  -9.160  1.00  0.00     0.087 A 
HETATM    3  N11 UNL     1     -28.995  -1.815  -8.631  1.00  0.00    -0.335 N 
ATOM      4  H11 UNL     1     -29.962  -1.496  -8.690  1.00  0.00     0.168 HD
HETATM    5  C18 UNL     1     -28.731  -3.001  -8.021  1.00  0.00     0.122 A 
HETATM    6  C19 UNL     1     -27.442  -3.487  -7.909  1.00  0.00     0.110 A 
HETATM    7  C20 UNL     1     -27.158  -4.753  -7.258  1.00  0.00     0.105 C 
HETATM    8  N13 UNL     1     -26.939  -5.757  -6.724  1.00  0.00    -0.191 NA
HETATM    9  C21 UNL     1     -26.429  -2.715  -8.444  1.00  0.00     0.067 A 
HETATM   10 CL1  UNL     1     -24.789  -3.308  -8.315  1.00  0.00    -0.082 Cl
ENDROOT
BRANCH   5  11
HETATM   11  N12 UNL     1     -29.664  -3.733  -7.515  1.00  0.00    -0.384 N 
ATOM     12 2H12 UNL     1     -29.472  -4.145  -6.603  1.00  0.00     0.157 HD
ATOM     13 1H12 UNL     1     -30.548  -3.893  -7.999  1.00  0.00     0.157 HD
ENDBRANCH   5  11
BRANCH   1  14
HETATM   14  C2  UNL     1     -25.649  -0.687  -9.635  1.00  0.00     0.039 C 
HETATM   15  C1  UNL     1     -25.844  -0.409 -11.109  1.00  0.00     0.010 C 
ENDBRANCH   1  14
BRANCH   2  16
HETATM   16  S1  UNL     1     -28.350   0.511  -9.966  1.00  0.00    -0.034 SA
BRANCH  16  17
HETATM   17  C5  UNL     1     -28.575   1.814  -8.766  1.00  0.00     0.167 A 
HETATM   18  N1  UNL     1     -28.556   1.675  -7.433  1.00  0.00    -0.278 N 
HETATM   19  N2  UNL     1     -28.760   2.872  -6.872  1.00  0.00    -0.281 N 
ATOM     20  H1  UNL     1     -28.409   0.800  -6.929  1.00  0.00     0.189 HD
HETATM   21  C6  UNL     1     -28.913   3.795  -7.828  1.00  0.00     0.155 A 
ATOM     22  H2  UNL     1     -28.794   3.053  -5.868  1.00  0.00     0.188 HD
HETATM   23  N10 UNL     1     -28.795   3.126  -8.988  1.00  0.00    -0.319 N 
ATOM     24  H10 UNL     1     -28.864   3.552  -9.912  1.00  0.00     0.169 HD
BRANCH  21  25
HETATM   25  C7  UNL     1     -29.150   5.227  -7.711  1.00  0.00     0.147 A 
HETATM   26  N3  UNL     1     -29.925   5.839  -6.798  1.00  0.00    -0.279 N 
HETATM   27  N4  UNL     1     -29.892   7.135  -7.014  1.00  0.00    -0.238 N 
ATOM     28  H3  UNL     1     -30.452   5.373  -6.059  1.00  0.00     0.189 HD
HETATM   29  N5  UNL     1     -29.134   7.454  -8.032  1.00  0.00    -0.254 N 
ATOM     30  H4  UNL     1     -30.400   7.817  -6.451  1.00  0.00     0.208 HD
HETATM   31  C17 UNL     1     -28.657   6.258  -8.482  1.00  0.00     0.191 A 
BRANCH  29  32
HETATM   32  C8  UNL     1     -28.832   8.729  -8.626  1.00  0.00     0.160 C 
BRANCH  32  33
HETATM   33  C9  UNL     1     -29.989   9.514  -9.115  1.00  0.00     0.100 C 
BRANCH  33  34
HETATM   34  C10 UNL     1     -30.034  10.861  -8.554  1.00  0.00     0.107 A 
HETATM   35  N6  UNL     1     -29.652  11.402  -7.387  1.00  0.00    -0.286 N 
HETATM   36  N7  UNL     1     -29.900  12.692  -7.329  1.00  0.00    -0.274 N 
ATOM     37  H6  UNL     1     -29.217  10.873  -6.631  1.00  0.00     0.188 HD
HETATM   38  C11 UNL     1     -30.473  13.020  -8.509  1.00  0.00     0.199 A 
ATOM     39  H7  UNL     1     -29.700  13.320  -6.551  1.00  0.00     0.189 HD
HETATM   40  S2  UNL     1     -30.969  14.543  -8.913  1.00  0.00    -0.039 SA
HETATM   41  N8  UNL     1     -30.550  11.911  -9.240  1.00  0.00    -0.269 N 
BRANCH  41  42
HETATM   42  C12 UNL     1     -31.113  11.880 -10.569  1.00  0.00     0.118 A 
HETATM   43  C13 UNL     1     -32.445  11.519 -10.635  1.00  0.00     0.090 A 
HETATM   44  S3  UNL     1     -33.098  11.486 -12.207  1.00  0.00    -0.038 SA
HETATM   45  C14 UNL     1     -31.963  11.909 -13.417  1.00  0.00     0.292 A 
HETATM   46  O1  UNL     1     -32.178  11.963 -14.650  1.00  0.00    -0.259 OA
HETATM   47  N9  UNL     1     -30.742  12.202 -12.941  1.00  0.00    -0.278 N 
HETATM   48  C15 UNL     1     -29.740  12.570 -13.960  1.00  0.00     0.163 C 
HETATM   49  C16 UNL     1     -30.368  12.187 -11.667  1.00  0.00     0.278 A 
HETATM   50  O2  UNL     1     -29.148  12.500 -11.421  1.00  0.00    -0.265 OA
ENDBRANCH  41  42
ENDBRANCH  33  34
ENDBRANCH  32  33
ENDBRANCH  29  32
BRANCH  31  51
HETATM   51  O3  UNL     1     -27.806   6.127  -9.559  1.00  0.00    -0.343 OA
ATOM     52  H3  UNL     1     -26.956   6.540  -9.651  1.00  0.00     0.219 HD
ENDBRANCH  31  51
ENDBRANCH  21  25
ENDBRANCH  16  17
ENDBRANCH   2  16
TORSDOF 10
ENDMDL
