MODEL 1
REMARK VINA RESULT: -7.936227551      0.000      0.000
REMARK  15 active torsions:
REMARK  status: ('A' for Active; 'I' for Inactive)
REMARK    1  A    between atoms: O1_2  and  C2_3 
REMARK    2  A    between atoms: C2_3  and  C3_5 
REMARK    3  A    between atoms: C5_8  and  C6_9 
REMARK    4  A    between atoms: C6_9  and  O4_14 
REMARK    5  A    between atoms: N1_10  and  O3_12 
REMARK    6  A    between atoms: O4_14  and  C7_15 
REMARK    7  A    between atoms: C10_20  and  C11_21 
REMARK    8  A    between atoms: C12_22  and  C13_23 
REMARK    9  A    between atoms: C14_24  and  O7_25 
REMARK   10  A    between atoms: C16_28  and  O8_29 
REMARK   11  A    between atoms: N2_31  and  O9_32 
REMARK   12  A    between atoms: C17_34  and  O10_35 
REMARK   13  A    between atoms: C20_40  and  O11_41 
REMARK   14  A    between atoms: C23_45  and  C24_46 
REMARK   15  A    between atoms: C24_46  and  C25_47 
ROOT
HETATM    1  O11 UNL     1     -30.715  11.336 -11.306  1.00  0.00    -0.270 OA
HETATM    2  C21 UNL     1     -31.782  10.895 -11.941  1.00  0.00     0.229 C 
HETATM    3  N4  UNL     1     -32.685  10.500 -12.513  1.00  0.00    -0.164 NA
ENDROOT
BRANCH   1   4
HETATM    4  C20 UNL     1     -30.421  12.253 -10.335  1.00  0.00     0.101 C 
HETATM    5  C4  UNL     1     -31.616  12.748  -9.607  1.00  0.00     0.097 C 
HETATM    6  S1  UNL     1     -32.054  14.443 -10.053  1.00  0.00    -0.145 SA
HETATM    7  C5  UNL     1     -30.942  12.548  -8.275  1.00  0.00     0.089 C 
HETATM    8  C3  UNL     1     -31.430  14.554 -11.737  1.00  0.00     0.151 C 
HETATM    9  C23 UNL     1     -29.956  14.334 -11.734  1.00  0.00     0.013 C 
HETATM   10  C22 UNL     1     -29.456  13.306 -10.801  1.00  0.00     0.048 C 
HETATM   11  C10 UNL     1     -29.954  11.676  -9.029  1.00  0.00     0.058 C 
BRANCH   8  12
HETATM   12  C2  UNL     1     -31.884  15.700 -12.498  1.00  0.00     0.272 C 
HETATM   13  O2  UNL     1     -32.595  16.593 -11.990  1.00  0.00    -0.264 OA
BRANCH  12  14
HETATM   14  O1  UNL     1     -31.527  15.818 -13.826  1.00  0.00    -0.326 OA
HETATM   15  C1  UNL     1     -31.132  17.041 -14.393  1.00  0.00     0.213 C 
ENDBRANCH  12  14
ENDBRANCH   8  12
BRANCH   9  16
HETATM   16  C24 UNL     1     -29.218  15.639 -11.587  1.00  0.00     0.021 C 
BRANCH  16  17
HETATM   17  C25 UNL     1     -28.072  15.869 -12.486  1.00  0.00     0.115 C 
HETATM   18 CL1  UNL     1     -28.205  14.811 -13.942  1.00  0.00    -0.130 Cl
ENDBRANCH  16  17
ENDBRANCH   9  16
BRANCH   7  19
HETATM   19  C6  UNL     1     -30.488  13.712  -7.573  1.00  0.00     0.144 C 
HETATM   20  N1  UNL     1     -31.047  14.257  -6.599  1.00  0.00    -0.251 N 
ATOM     21  H1  UNL     1     -30.583  15.081  -6.216  1.00  0.00     0.196 HD
BRANCH  20  22
HETATM   22  O3  UNL     1     -32.189  13.884  -5.995  1.00  0.00    -0.288 OA
ATOM     23  H3  UNL     1     -32.320  13.146  -5.410  1.00  0.00     0.244 HD
ENDBRANCH  20  22
BRANCH  19  24
HETATM   24  O4  UNL     1     -29.292  14.309  -8.028  1.00  0.00    -0.320 OA
BRANCH  24  25
HETATM   25  C7  UNL     1     -28.018  13.923  -7.602  1.00  0.00     0.254 A 
HETATM   26  C8  UNL     1     -26.990  15.008  -7.920  1.00  0.00     0.221 A 
HETATM   27  O5  UNL     1     -26.723  14.978  -6.512  1.00  0.00    -0.316 OA
HETATM   28  C9  UNL     1     -27.704  14.063  -6.185  1.00  0.00     0.290 A 
HETATM   29  O6  UNL     1     -28.119  13.581  -5.117  1.00  0.00    -0.262 OA
ENDBRANCH  24  25
ENDBRANCH  19  24
ENDBRANCH   7  19
BRANCH  11  30
HETATM   30  C11 UNL     1     -30.209  10.220  -8.795  1.00  0.00    -0.016 C 
HETATM   31  C12 UNL     1     -29.227   9.408  -8.711  1.00  0.00     0.029 C 
BRANCH  31  32
HETATM   32  C13 UNL     1     -29.275   7.976  -8.489  1.00  0.00     0.069 A 
HETATM   33  C14 UNL     1     -29.316   6.919  -9.381  1.00  0.00     0.109 A 
HETATM   34  C15 UNL     1     -29.347   5.725  -8.620  1.00  0.00     0.084 A 
HETATM   35  C16 UNL     1     -29.389   4.355  -8.644  1.00  0.00     0.185 A 
HETATM   36  C18 UNL     1     -29.324   6.076  -7.303  1.00  0.00     0.106 A 
HETATM   37  N2  UNL     1     -29.392   3.876  -7.382  1.00  0.00    -0.176 N 
HETATM   38  C17 UNL     1     -29.352   4.911  -6.545  1.00  0.00     0.198 A 
HETATM   39  N3  UNL     1     -29.282   7.397  -7.246  1.00  0.00    -0.345 N 
HETATM   40  C19 UNL     1     -29.246   8.176  -6.000  1.00  0.00     0.156 C 
BRANCH  33  41
HETATM   41  O7  UNL     1     -29.329   6.905 -10.724  1.00  0.00    -0.357 OA
ATOM     42  H7  UNL     1     -29.073   6.229 -11.340  1.00  0.00     0.217 HD
ENDBRANCH  33  41
BRANCH  35  43
HETATM   43  O8  UNL     1     -29.423   3.565  -9.776  1.00  0.00    -0.344 OA
ATOM     44  H8  UNL     1     -28.773   2.918 -10.025  1.00  0.00     0.219 HD
ENDBRANCH  35  43
BRANCH  37  45
HETATM   45  O9  UNL     1     -29.428   2.532  -7.019  1.00  0.00    -0.279 OA
ATOM     46  H9  UNL     1     -29.215   2.182  -6.163  1.00  0.00     0.245 HD
ENDBRANCH  37  45
BRANCH  38  47
HETATM   47  O10 UNL     1     -29.340   4.884  -5.168  1.00  0.00    -0.343 OA
ATOM     48  H10 UNL     1     -30.066   4.703  -4.583  1.00  0.00     0.219 HD
ENDBRANCH  38  47
ENDBRANCH  31  32
ENDBRANCH  11  30
ENDBRANCH   1   4
TORSDOF 15
ENDMDL
MODEL 2
REMARK VINA RESULT: -7.540318365      1.943      2.438
REMARK  15 active torsions:
REMARK  status: ('A' for Active; 'I' for Inactive)
REMARK    1  A    between atoms: O1_2  and  C2_3 
REMARK    2  A    between atoms: C2_3  and  C3_5 
REMARK    3  A    between atoms: C5_8  and  C6_9 
REMARK    4  A    between atoms: C6_9  and  O4_14 
REMARK    5  A    between atoms: N1_10  and  O3_12 
REMARK    6  A    between atoms: O4_14  and  C7_15 
REMARK    7  A    between atoms: C10_20  and  C11_21 
REMARK    8  A    between atoms: C12_22  and  C13_23 
REMARK    9  A    between atoms: C14_24  and  O7_25 
REMARK   10  A    between atoms: C16_28  and  O8_29 
REMARK   11  A    between atoms: N2_31  and  O9_32 
REMARK   12  A    between atoms: C17_34  and  O10_35 
REMARK   13  A    between atoms: C20_40  and  O11_41 
REMARK   14  A    between atoms: C23_45  and  C24_46 
REMARK   15  A    between atoms: C24_46  and  C25_47 
ROOT
HETATM    1  O11 UNL     1     -32.368  11.785  -9.922  1.00  0.00    -0.270 OA
HETATM    2  C21 UNL     1     -32.906  11.425 -11.069  1.00  0.00     0.229 C 
HETATM    3  N4  UNL     1     -33.390  11.093 -12.045  1.00  0.00    -0.164 NA
ENDROOT
BRANCH   1   4
HETATM    4  C20 UNL     1     -31.274  12.482  -9.490  1.00  0.00     0.101 C 
HETATM    5  C4  UNL     1     -31.334  12.844  -8.052  1.00  0.00     0.097 C 
HETATM    6  S1  UNL     1     -31.652  14.602  -7.785  1.00  0.00    -0.145 SA
HETATM    7  C5  UNL     1     -29.923  12.367  -7.827  1.00  0.00     0.089 C 
HETATM    8  C3  UNL     1     -32.578  15.037  -9.266  1.00  0.00     0.151 C 
HETATM    9  C23 UNL     1     -31.731  14.792 -10.468  1.00  0.00     0.013 C 
HETATM   10  C22 UNL     1     -30.879  13.588 -10.427  1.00  0.00     0.048 C 
HETATM   11  C10 UNL     1     -30.072  11.645  -9.154  1.00  0.00     0.058 C 
BRANCH   8  12
HETATM   12  C2  UNL     1     -33.246  16.321  -9.230  1.00  0.00     0.272 C 
HETATM   13  O2  UNL     1     -34.134  16.630 -10.054  1.00  0.00    -0.264 OA
BRANCH  12  14
HETATM   14  O1  UNL     1     -32.899  17.241  -8.261  1.00  0.00    -0.326 OA
HETATM   15  C1  UNL     1     -33.807  17.687  -7.288  1.00  0.00     0.213 C 
ENDBRANCH  12  14
ENDBRANCH   8  12
BRANCH   9  16
HETATM   16  C24 UNL     1     -30.949  16.026 -10.836  1.00  0.00     0.021 C 
BRANCH  16  17
HETATM   17  C25 UNL     1     -29.493  15.994 -10.603  1.00  0.00     0.115 C 
HETATM   18 CL1  UNL     1     -29.081  16.938  -9.122  1.00  0.00    -0.130 Cl
ENDBRANCH  16  17
ENDBRANCH   9  16
BRANCH   7  19
HETATM   19  C6  UNL     1     -28.901  13.357  -7.655  1.00  0.00     0.144 C 
HETATM   20  N1  UNL     1     -28.596  13.933  -6.590  1.00  0.00    -0.251 N 
ATOM     21  H1  UNL     1     -27.838  14.613  -6.646  1.00  0.00     0.196 HD
BRANCH  20  22
HETATM   22  O3  UNL     1     -29.152  13.761  -5.377  1.00  0.00    -0.288 OA
ATOM     23  H3  UNL     1     -28.706  13.635  -4.549  1.00  0.00     0.244 HD
ENDBRANCH  20  22
BRANCH  19  24
HETATM   24  O4  UNL     1     -28.165  13.725  -8.803  1.00  0.00    -0.320 OA
BRANCH  24  25
HETATM   25  C7  UNL     1     -26.851  13.315  -9.049  1.00  0.00     0.254 A 
HETATM   26  C8  UNL     1     -26.379  13.809 -10.417  1.00  0.00     0.221 A 
HETATM   27  O5  UNL     1     -25.322  14.433  -9.677  1.00  0.00    -0.316 OA
HETATM   28  C9  UNL     1     -25.775  14.074  -8.422  1.00  0.00     0.290 A 
HETATM   29  O6  UNL     1     -25.397  14.314  -7.263  1.00  0.00    -0.262 OA
ENDBRANCH  24  25
ENDBRANCH  19  24
ENDBRANCH   7  19
BRANCH  11  30
HETATM   30  C11 UNL     1     -30.293  10.177  -8.965  1.00  0.00    -0.016 C 
HETATM   31  C12 UNL     1     -29.301   9.411  -8.720  1.00  0.00     0.029 C 
BRANCH  31  32
HETATM   32  C13 UNL     1     -29.317   7.977  -8.509  1.00  0.00     0.069 A 
HETATM   33  C14 UNL     1     -29.343   6.926  -9.408  1.00  0.00     0.109 A 
HETATM   34  C15 UNL     1     -29.343   5.726  -8.654  1.00  0.00     0.084 A 
HETATM   35  C16 UNL     1     -29.356   4.355  -8.688  1.00  0.00     0.185 A 
HETATM   36  C18 UNL     1     -29.316   6.069  -7.335  1.00  0.00     0.106 A 
HETATM   37  N2  UNL     1     -29.338   3.868  -7.429  1.00  0.00    -0.176 N 
HETATM   38  C17 UNL     1     -29.313   4.897  -6.586  1.00  0.00     0.198 A 
HETATM   39  N3  UNL     1     -29.302   7.389  -7.269  1.00  0.00    -0.345 N 
HETATM   40  C19 UNL     1     -29.272   8.160  -6.018  1.00  0.00     0.156 C 
BRANCH  33  41
HETATM   41  O7  UNL     1     -29.367   6.921 -10.750  1.00  0.00    -0.357 OA
ATOM     42  H7  UNL     1     -29.934   6.463 -11.359  1.00  0.00     0.217 HD
ENDBRANCH  33  41
BRANCH  35  43
HETATM   43  O8  UNL     1     -29.382   3.572  -9.825  1.00  0.00    -0.344 OA
ATOM     44  H8  UNL     1     -29.901   2.785  -9.949  1.00  0.00     0.219 HD
ENDBRANCH  35  43
BRANCH  37  45
HETATM   45  O9  UNL     1     -29.343   2.521  -7.076  1.00  0.00    -0.279 OA
ATOM     46  H9  UNL     1     -28.617   1.917  -7.177  1.00  0.00     0.245 HD
ENDBRANCH  37  45
BRANCH  38  47
HETATM   47  O10 UNL     1     -29.289   4.861  -5.209  1.00  0.00    -0.343 OA
ATOM     48  H10 UNL     1     -28.606   5.176  -4.630  1.00  0.00     0.219 HD
ENDBRANCH  38  47
ENDBRANCH  31  32
ENDBRANCH  11  30
ENDBRANCH   1   4
TORSDOF 15
ENDMDL
MODEL 3
REMARK VINA RESULT: -7.449986842      0.827      1.225
REMARK  15 active torsions:
REMARK  status: ('A' for Active; 'I' for Inactive)
REMARK    1  A    between atoms: O1_2  and  C2_3 
REMARK    2  A    between atoms: C2_3  and  C3_5 
REMARK    3  A    between atoms: C5_8  and  C6_9 
REMARK    4  A    between atoms: C6_9  and  O4_14 
REMARK    5  A    between atoms: N1_10  and  O3_12 
REMARK    6  A    between atoms: O4_14  and  C7_15 
REMARK    7  A    between atoms: C10_20  and  C11_21 
REMARK    8  A    between atoms: C12_22  and  C13_23 
REMARK    9  A    between atoms: C14_24  and  O7_25 
REMARK   10  A    between atoms: C16_28  and  O8_29 
REMARK   11  A    between atoms: N2_31  and  O9_32 
REMARK   12  A    between atoms: C17_34  and  O10_35 
REMARK   13  A    between atoms: C20_40  and  O11_41 
REMARK   14  A    between atoms: C23_45  and  C24_46 
REMARK   15  A    between atoms: C24_46  and  C25_47 
ROOT
HETATM    1  O11 UNL     1     -30.821  11.029 -11.194  1.00  0.00    -0.270 OA
HETATM    2  C21 UNL     1     -31.904  10.767 -11.897  1.00  0.00     0.229 C 
HETATM    3  N4  UNL     1     -32.823  10.521 -12.524  1.00  0.00    -0.164 NA
ENDROOT
BRANCH   1   4
HETATM    4  C20 UNL     1     -30.423  11.928 -10.244  1.00  0.00     0.101 C 
HETATM    5  C4  UNL     1     -31.536  12.427  -9.398  1.00  0.00     0.097 C 
HETATM    6  S1  UNL     1     -31.991  14.134  -9.777  1.00  0.00    -0.145 SA
HETATM    7  C5  UNL     1     -30.741  12.199  -8.140  1.00  0.00     0.089 C 
HETATM    8  C3  UNL     1     -31.529  14.262 -11.511  1.00  0.00     0.151 C 
HETATM    9  C23 UNL     1     -30.064  14.024 -11.651  1.00  0.00     0.013 C 
HETATM   10  C22 UNL     1     -29.492  12.976 -10.785  1.00  0.00     0.048 C 
HETATM   11  C10 UNL     1     -29.841  11.326  -8.996  1.00  0.00     0.058 C 
BRANCH   8  12
HETATM   12  C2  UNL     1     -32.037  15.425 -12.209  1.00  0.00     0.272 C 
HETATM   13  O2  UNL     1     -31.910  15.566 -13.444  1.00  0.00    -0.264 OA
BRANCH  12  14
HETATM   14  O1  UNL     1     -32.684  16.415 -11.497  1.00  0.00    -0.326 OA
HETATM   15  C1  UNL     1     -32.312  17.767 -11.581  1.00  0.00     0.213 C 
ENDBRANCH  12  14
ENDBRANCH   8  12
BRANCH   9  16
HETATM   16  C24 UNL     1     -29.297  15.317 -11.557  1.00  0.00     0.021 C 
BRANCH  16  17
HETATM   17  C25 UNL     1     -28.334  15.608 -12.635  1.00  0.00     0.115 C 
HETATM   18 CL1  UNL     1     -28.827  17.097 -13.525  1.00  0.00    -0.130 Cl
ENDBRANCH  16  17
ENDBRANCH   9  16
BRANCH   7  19
HETATM   19  C6  UNL     1     -30.206  13.346  -7.468  1.00  0.00     0.144 C 
HETATM   20  N1  UNL     1     -30.791  14.049  -6.618  1.00  0.00    -0.251 N 
ATOM     21  H1  UNL     1     -30.259  14.831  -6.236  1.00  0.00     0.196 HD
BRANCH  20  22
HETATM   22  O3  UNL     1     -32.041  13.894  -6.145  1.00  0.00    -0.288 OA
ATOM     23  H3  UNL     1     -32.770  14.498  -6.227  1.00  0.00     0.244 HD
ENDBRANCH  20  22
BRANCH  19  24
HETATM   24  O4  UNL     1     -28.888  13.728  -7.801  1.00  0.00    -0.320 OA
BRANCH  24  25
HETATM   25  C7  UNL     1     -28.210  14.792  -7.200  1.00  0.00     0.254 A 
HETATM   26  C8  UNL     1     -27.336  14.296  -6.050  1.00  0.00     0.221 A 
HETATM   27  O5  UNL     1     -26.265  14.915  -6.773  1.00  0.00    -0.316 OA
HETATM   28  C9  UNL     1     -27.016  15.299  -7.867  1.00  0.00     0.290 A 
HETATM   29  O6  UNL     1     -26.752  15.848  -8.950  1.00  0.00    -0.262 OA
ENDBRANCH  24  25
ENDBRANCH  19  24
ENDBRANCH   7  19
BRANCH  11  30
HETATM   30  C11 UNL     1     -30.094   9.870  -8.759  1.00  0.00    -0.016 C 
HETATM   31  C12 UNL     1     -29.110   9.058  -8.689  1.00  0.00     0.029 C 
BRANCH  31  32
HETATM   32  C13 UNL     1     -29.155   7.626  -8.468  1.00  0.00     0.069 A 
HETATM   33  C14 UNL     1     -29.156   6.567  -9.359  1.00  0.00     0.109 A 
HETATM   34  C15 UNL     1     -29.205   5.374  -8.597  1.00  0.00     0.084 A 
HETATM   35  C16 UNL     1     -29.235   4.003  -8.621  1.00  0.00     0.185 A 
HETATM   36  C18 UNL     1     -29.233   5.727  -7.281  1.00  0.00     0.106 A 
HETATM   37  N2  UNL     1     -29.280   3.526  -7.359  1.00  0.00    -0.176 N 
HETATM   38  C17 UNL     1     -29.279   4.562  -6.523  1.00  0.00     0.198 A 
HETATM   39  N3  UNL     1     -29.203   7.048  -7.224  1.00  0.00    -0.345 N 
HETATM   40  C19 UNL     1     -29.219   7.829  -5.979  1.00  0.00     0.156 C 
BRANCH  33  41
HETATM   41  O7  UNL     1     -29.120   6.552 -10.701  1.00  0.00    -0.357 OA
ATOM     42  H7  UNL     1     -29.813   6.430 -11.339  1.00  0.00     0.217 HD
ENDBRANCH  33  41
BRANCH  35  43
HETATM   43  O8  UNL     1     -29.222   3.212  -9.752  1.00  0.00    -0.344 OA
ATOM     44  H8  UNL     1     -29.529   2.314  -9.809  1.00  0.00     0.219 HD
ENDBRANCH  35  43
BRANCH  37  45
HETATM   45  O9  UNL     1     -29.319   2.182  -6.996  1.00  0.00    -0.279 OA
ATOM     46  H9  UNL     1     -29.525   1.845  -6.133  1.00  0.00     0.245 HD
ENDBRANCH  37  45
BRANCH  38  47
HETATM   47  O10 UNL     1     -29.317   4.537  -5.147  1.00  0.00    -0.343 OA
ATOM     48  H10 UNL     1     -28.588   4.436  -4.545  1.00  0.00     0.219 HD
ENDBRANCH  38  47
ENDBRANCH  31  32
ENDBRANCH  11  30
ENDBRANCH   1   4
TORSDOF 15
ENDMDL
MODEL 4
REMARK VINA RESULT: -7.340849379      2.472      3.689
REMARK  15 active torsions:
REMARK  status: ('A' for Active; 'I' for Inactive)
REMARK    1  A    between atoms: O1_2  and  C2_3 
REMARK    2  A    between atoms: C2_3  and  C3_5 
REMARK    3  A    between atoms: C5_8  and  C6_9 
REMARK    4  A    between atoms: C6_9  and  O4_14 
REMARK    5  A    between atoms: N1_10  and  O3_12 
REMARK    6  A    between atoms: O4_14  and  C7_15 
REMARK    7  A    between atoms: C10_20  and  C11_21 
REMARK    8  A    between atoms: C12_22  and  C13_23 
REMARK    9  A    between atoms: C14_24  and  O7_25 
REMARK   10  A    between atoms: C16_28  and  O8_29 
REMARK   11  A    between atoms: N2_31  and  O9_32 
REMARK   12  A    between atoms: C17_34  and  O10_35 
REMARK   13  A    between atoms: C20_40  and  O11_41 
REMARK   14  A    between atoms: C23_45  and  C24_46 
REMARK   15  A    between atoms: C24_46  and  C25_47 
ROOT
HETATM    1  O11 UNL     1     -27.338  11.373 -10.150  1.00  0.00    -0.270 OA
HETATM    2  C21 UNL     1     -26.073  11.589  -9.854  1.00  0.00     0.229 C 
HETATM    3  N4  UNL     1     -24.972  11.745  -9.608  1.00  0.00    -0.164 NA
ENDROOT
BRANCH   1   4
HETATM    4  C20 UNL     1     -28.550  11.956  -9.904  1.00  0.00     0.101 C 
HETATM    5  C4  UNL     1     -29.433  12.012 -11.095  1.00  0.00     0.097 C 
HETATM    6  S1  UNL     1     -29.589  13.678 -11.775  1.00  0.00    -0.145 SA
HETATM    7  C5  UNL     1     -30.604  11.487 -10.307  1.00  0.00     0.089 C 
HETATM    8  C3  UNL     1     -28.021  14.419 -11.293  1.00  0.00     0.151 C 
HETATM    9  C23 UNL     1     -27.912  14.423  -9.807  1.00  0.00     0.013 C 
HETATM   10  C22 UNL     1     -28.436  13.230  -9.115  1.00  0.00     0.048 C 
HETATM   11  C10 UNL     1     -29.578  11.058  -9.274  1.00  0.00     0.058 C 
BRANCH   8  12
HETATM   12  C2  UNL     1     -27.697  15.673 -11.942  1.00  0.00     0.272 C 
HETATM   13  O2  UNL     1     -28.553  16.338 -12.564  1.00  0.00    -0.264 OA
BRANCH  12  14
HETATM   14  O1  UNL     1     -26.406  16.158 -11.878  1.00  0.00    -0.326 OA
HETATM   15  C1  UNL     1     -26.120  17.500 -11.578  1.00  0.00     0.213 C 
ENDBRANCH  12  14
ENDBRANCH   8  12
BRANCH   9  16
HETATM   16  C24 UNL     1     -28.465  15.701  -9.230  1.00  0.00     0.021 C 
BRANCH  16  17
HETATM   17  C25 UNL     1     -27.583  16.471  -8.334  1.00  0.00     0.115 C 
HETATM   18 CL1  UNL     1     -25.946  15.714  -8.272  1.00  0.00    -0.130 Cl
ENDBRANCH  16  17
ENDBRANCH   9  16
BRANCH   7  19
HETATM   19  C6  UNL     1     -31.641  12.411  -9.954  1.00  0.00     0.144 C 
HETATM   20  N1  UNL     1     -32.750  12.533 -10.514  1.00  0.00    -0.251 N 
ATOM     21  H1  UNL     1     -33.374  13.243 -10.129  1.00  0.00     0.196 HD
BRANCH  20  22
HETATM   22  O3  UNL     1     -33.218  11.837 -11.565  1.00  0.00    -0.288 OA
ATOM     23  H3  UNL     1     -34.065  11.926 -11.987  1.00  0.00     0.244 HD
ENDBRANCH  20  22
BRANCH  19  24
HETATM   24  O4  UNL     1     -31.386  13.275  -8.866  1.00  0.00    -0.320 OA
BRANCH  24  25
HETATM   25  C7  UNL     1     -32.322  13.571  -7.870  1.00  0.00     0.254 A 
HETATM   26  C8  UNL     1     -31.641  14.216  -6.664  1.00  0.00     0.221 A 
HETATM   27  O5  UNL     1     -32.560  15.292  -6.891  1.00  0.00    -0.316 OA
HETATM   28  C9  UNL     1     -33.132  14.771  -8.035  1.00  0.00     0.290 A 
HETATM   29  O6  UNL     1     -33.983  15.183  -8.843  1.00  0.00    -0.262 OA
ENDBRANCH  24  25
ENDBRANCH  19  24
ENDBRANCH   7  19
BRANCH  11  30
HETATM   30  C11 UNL     1     -29.321   9.585  -9.327  1.00  0.00    -0.016 C 
HETATM   31  C12 UNL     1     -29.686   8.841  -8.355  1.00  0.00     0.029 C 
BRANCH  31  32
HETATM   32  C13 UNL     1     -29.525   7.406  -8.226  1.00  0.00     0.069 A 
HETATM   33  C14 UNL     1     -29.401   6.415  -9.183  1.00  0.00     0.109 A 
HETATM   34  C15 UNL     1     -29.263   5.183  -8.499  1.00  0.00     0.084 A 
HETATM   35  C16 UNL     1     -29.102   3.825  -8.610  1.00  0.00     0.185 A 
HETATM   36  C18 UNL     1     -29.305   5.446  -7.162  1.00  0.00     0.106 A 
HETATM   37  N2  UNL     1     -29.047   3.269  -7.381  1.00  0.00    -0.176 N 
HETATM   38  C17 UNL     1     -29.169   4.242  -6.480  1.00  0.00     0.198 A 
HETATM   39  N3  UNL     1     -29.459   6.752  -7.021  1.00  0.00    -0.345 N 
HETATM   40  C19 UNL     1     -29.551   7.445  -5.728  1.00  0.00     0.156 C 
BRANCH  33  41
HETATM   41  O7  UNL     1     -29.398   6.487 -10.523  1.00  0.00    -0.357 OA
ATOM     42  H7  UNL     1     -29.257   5.816 -11.181  1.00  0.00     0.217 HD
ENDBRANCH  33  41
BRANCH  35  43
HETATM   43  O8  UNL     1     -29.008   3.114  -9.790  1.00  0.00    -0.344 OA
ATOM     44  H8  UNL     1     -28.203   2.855 -10.223  1.00  0.00     0.219 HD
ENDBRANCH  35  43
BRANCH  37  45
HETATM   45  O9  UNL     1     -28.889   1.914  -7.105  1.00  0.00    -0.279 OA
ATOM     46  H9  UNL     1     -29.579   1.262  -7.104  1.00  0.00     0.245 HD
ENDBRANCH  37  45
BRANCH  38  47
HETATM   47  O10 UNL     1     -29.167   4.127  -5.108  1.00  0.00    -0.343 OA
ATOM     48  H10 UNL     1     -28.463   4.340  -4.506  1.00  0.00     0.219 HD
ENDBRANCH  38  47
ENDBRANCH  31  32
ENDBRANCH  11  30
ENDBRANCH   1   4
TORSDOF 15
ENDMDL
MODEL 5
REMARK VINA RESULT: -7.241138440      0.847      1.812
REMARK  15 active torsions:
REMARK  status: ('A' for Active; 'I' for Inactive)
REMARK    1  A    between atoms: O1_2  and  C2_3 
REMARK    2  A    between atoms: C2_3  and  C3_5 
REMARK    3  A    between atoms: C5_8  and  C6_9 
REMARK    4  A    between atoms: C6_9  and  O4_14 
REMARK    5  A    between atoms: N1_10  and  O3_12 
REMARK    6  A    between atoms: O4_14  and  C7_15 
REMARK    7  A    between atoms: C10_20  and  C11_21 
REMARK    8  A    between atoms: C12_22  and  C13_23 
REMARK    9  A    between atoms: C14_24  and  O7_25 
REMARK   10  A    between atoms: C16_28  and  O8_29 
REMARK   11  A    between atoms: N2_31  and  O9_32 
REMARK   12  A    between atoms: C17_34  and  O10_35 
REMARK   13  A    between atoms: C20_40  and  O11_41 
REMARK   14  A    between atoms: C23_45  and  C24_46 
REMARK   15  A    between atoms: C24_46  and  C25_47 
ROOT
HETATM    1  O11 UNL     1     -30.688  10.819 -11.105  1.00  0.00    -0.270 OA
HETATM    2  C21 UNL     1     -31.666  10.485 -11.922  1.00  0.00     0.229 C 
HETATM    3  N4  UNL     1     -32.492  10.172 -12.642  1.00  0.00    -0.164 NA
ENDROOT
BRANCH   1   4
HETATM    4  C20 UNL     1     -30.389  11.842 -10.248  1.00  0.00     0.101 C 
HETATM    5  C4  UNL     1     -31.579  12.403  -9.560  1.00  0.00     0.097 C 
HETATM    6  S1  UNL     1     -32.044  14.033 -10.184  1.00  0.00    -0.145 SA
HETATM    7  C5  UNL     1     -30.882  12.359  -8.225  1.00  0.00     0.089 C 
HETATM    8  C3  UNL     1     -31.447  13.962 -11.880  1.00  0.00     0.151 C 
HETATM    9  C23 UNL     1     -29.970  13.759 -11.876  1.00  0.00     0.013 C 
HETATM   10  C22 UNL     1     -29.444  12.846 -10.844  1.00  0.00     0.048 C 
HETATM   11  C10 UNL     1     -29.896  11.419  -8.893  1.00  0.00     0.058 C 
BRANCH   8  12
HETATM   12  C2  UNL     1     -31.926  15.012 -12.755  1.00  0.00     0.272 C 
HETATM   13  O2  UNL     1     -31.890  14.906 -14.000  1.00  0.00    -0.264 OA
BRANCH  12  14
HETATM   14  O1  UNL     1     -32.440  16.170 -12.208  1.00  0.00    -0.326 OA
HETATM   15  C1  UNL     1     -31.970  17.444 -12.566  1.00  0.00     0.213 C 
ENDBRANCH  12  14
ENDBRANCH   8  12
BRANCH   9  16
HETATM   16  C24 UNL     1     -29.245  15.080 -11.888  1.00  0.00     0.021 C 
BRANCH  16  17
HETATM   17  C25 UNL     1     -28.209  15.269 -12.918  1.00  0.00     0.115 C 
HETATM   18 CL1  UNL     1     -28.557  14.225 -14.348  1.00  0.00    -0.130 Cl
ENDBRANCH  16  17
ENDBRANCH   9  16
BRANCH   7  19
HETATM   19  C6  UNL     1     -30.431  13.599  -7.664  1.00  0.00     0.144 C 
HETATM   20  N1  UNL     1     -30.971  14.233  -6.734  1.00  0.00    -0.251 N 
ATOM     21  H1  UNL     1     -30.513  15.101  -6.456  1.00  0.00     0.196 HD
BRANCH  20  22
HETATM   22  O3  UNL     1     -32.085  13.905  -6.057  1.00  0.00    -0.288 OA
ATOM     23  H3  UNL     1     -32.923  13.637  -6.416  1.00  0.00     0.244 HD
ENDBRANCH  20  22
BRANCH  19  24
HETATM   24  O4  UNL     1     -29.263  14.166  -8.219  1.00  0.00    -0.320 OA
BRANCH  24  25
HETATM   25  C7  UNL     1     -27.975  13.928  -7.731  1.00  0.00     0.254 A 
HETATM   26  C8  UNL     1     -27.105  15.177  -7.868  1.00  0.00     0.221 A 
HETATM   27  O5  UNL     1     -26.928  15.045  -6.452  1.00  0.00    -0.316 OA
HETATM   28  C9  UNL     1     -27.777  13.969  -6.287  1.00  0.00     0.290 A 
HETATM   29  O6  UNL     1     -28.182  13.327  -5.302  1.00  0.00    -0.262 OA
ENDBRANCH  24  25
ENDBRANCH  19  24
ENDBRANCH   7  19
BRANCH  11  30
HETATM   30  C11 UNL     1     -30.130   9.995  -8.495  1.00  0.00    -0.016 C 
HETATM   31  C12 UNL     1     -29.156   9.169  -8.485  1.00  0.00     0.029 C 
BRANCH  31  32
HETATM   32  C13 UNL     1     -29.187   7.763  -8.132  1.00  0.00     0.069 A 
HETATM   33  C14 UNL     1     -29.166   7.135  -6.900  1.00  0.00     0.109 A 
HETATM   34  C15 UNL     1     -29.222   5.740  -7.137  1.00  0.00     0.084 A 
HETATM   35  C16 UNL     1     -29.247   4.486  -6.582  1.00  0.00     0.185 A 
HETATM   36  C18 UNL     1     -29.276   5.553  -8.486  1.00  0.00     0.106 A 
HETATM   37  N2  UNL     1     -29.314   3.555  -7.558  1.00  0.00    -0.176 N 
HETATM   38  C17 UNL     1     -29.333   4.185  -8.731  1.00  0.00     0.198 A 
HETATM   39  N3  UNL     1     -29.254   6.748  -9.053  1.00  0.00    -0.345 N 
HETATM   40  C19 UNL     1     -29.296   6.984 -10.503  1.00  0.00     0.156 C 
BRANCH  33  41
HETATM   41  O7  UNL     1     -29.105   7.642  -5.658  1.00  0.00    -0.357 OA
ATOM     42  H7  UNL     1     -29.709   7.569  -4.928  1.00  0.00     0.217 HD
ENDBRANCH  33  41
BRANCH  35  43
HETATM   43  O8  UNL     1     -29.211   4.196  -5.232  1.00  0.00    -0.344 OA
ATOM     44  H8  UNL     1     -29.043   3.343  -4.849  1.00  0.00     0.219 HD
ENDBRANCH  35  43
BRANCH  37  45
HETATM   45  O9  UNL     1     -29.358   2.177  -7.369  1.00  0.00    -0.279 OA
ATOM     46  H9  UNL     1     -28.665   1.564  -7.584  1.00  0.00     0.245 HD
ENDBRANCH  37  45
BRANCH  38  47
HETATM   47  O10 UNL     1     -29.396   3.627  -9.988  1.00  0.00    -0.343 OA
ATOM     48  H10 UNL     1     -29.039   3.973 -10.798  1.00  0.00     0.219 HD
ENDBRANCH  38  47
ENDBRANCH  31  32
ENDBRANCH  11  30
ENDBRANCH   1   4
TORSDOF 15
ENDMDL
