MODEL 1
REMARK VINA RESULT: -9.125824983      0.000      0.000
REMARK  11 active torsions:
REMARK  status: ('A' for Active; 'I' for Inactive)
REMARK    1  A    between atoms: C2_2  and  C3_4 
REMARK    2  A    between atoms: C3_4  and  S1_6 
REMARK    3  A    between atoms: C3_4  and  C10_20 
REMARK    4  A    between atoms: S1_6  and  C4_7 
REMARK    5  A    between atoms: C5_12  and  C6_13 
REMARK    6  A    between atoms: C10_20  and  C11_24 
REMARK    7  A    between atoms: C11_24  and  S2_36 
REMARK    8  A    between atoms: N5_25  and  N6_27 
REMARK    9  A    between atoms: N6_27  and  C12_29 
REMARK   10  A    between atoms: S2_36  and  C15_37 
REMARK   11  A    between atoms: C17_45  and  C19_47 
ROOT
HETATM    1  C11 UNL     1     -29.503  11.045  -9.322  1.00  0.00     0.116 C 
HETATM    2  N5  UNL     1     -29.794   9.841  -9.246  1.00  0.00    -0.289 N 
ATOM      3  H5  UNL     1     -30.802   9.707  -9.158  1.00  0.00     0.188 HD
ENDROOT
BRANCH   1   4
HETATM    4  C10 UNL     1     -30.703  11.973  -9.272  1.00  0.00     0.081 C 
HETATM    5  N4  UNL     1     -31.222  12.140  -8.112  1.00  0.00    -0.397 N 
ATOM      6  H42 UNL     1     -32.029  12.764  -8.078  1.00  0.00     0.156 HD
ATOM      7  H41 UNL     1     -30.860  11.686  -7.274  1.00  0.00     0.156 HD
BRANCH   4   8
HETATM    8  C3  UNL     1     -31.226  12.628 -10.479  1.00  0.00     0.196 C 
HETATM    9 CL1  UNL     1     -30.038  12.596 -11.819  1.00  0.00    -0.091 Cl
BRANCH   8  10
HETATM   10  C2  UNL     1     -31.670  14.008 -10.233  1.00  0.00     0.163 C 
HETATM   11  C1  UNL     1     -32.994  14.526 -10.670  1.00  0.00     0.094 C 
HETATM   12  O1  UNL     1     -30.948  14.795  -9.646  1.00  0.00    -0.295 OA
ENDBRANCH   8  10
BRANCH   8  13
HETATM   13  S1  UNL     1     -32.667  11.675 -11.042  1.00  0.00    -0.052 SA
BRANCH  13  14
HETATM   14  C4  UNL     1     -32.417  11.104 -12.718  1.00  0.00     0.163 A 
HETATM   15  N1  UNL     1     -32.666  11.748 -13.869  1.00  0.00    -0.278 N 
HETATM   16  N2  UNL     1     -32.334  10.959 -14.898  1.00  0.00    -0.281 N 
ATOM     17  H1  UNL     1     -33.050  12.690 -13.946  1.00  0.00     0.189 HD
HETATM   18  C5  UNL     1     -31.865   9.798 -14.436  1.00  0.00     0.156 A 
ATOM     19  H2  UNL     1     -32.424  11.207 -15.883  1.00  0.00     0.188 HD
HETATM   20  N3  UNL     1     -31.924   9.907 -13.094  1.00  0.00    -0.318 N 
ATOM     21  H3  UNL     1     -31.633   9.177 -12.445  1.00  0.00     0.169 HD
BRANCH  18  22
HETATM   22  C6  UNL     1     -31.382   8.641 -15.179  1.00  0.00     0.120 A 
HETATM   23  C7  UNL     1     -31.542   8.382 -16.529  1.00  0.00     0.043 A 
HETATM   24  C8  UNL     1     -30.925   7.175 -16.799  1.00  0.00     0.027 A 
HETATM   25  C9  UNL     1     -30.416   6.759 -15.587  1.00  0.00     0.142 A 
HETATM   26  O2  UNL     1     -30.707   7.648 -14.667  1.00  0.00    -0.319 OA
ENDBRANCH  18  22
ENDBRANCH  13  14
ENDBRANCH   8  13
ENDBRANCH   4   8
ENDBRANCH   1   4
BRANCH   1  27
HETATM   27  S2  UNL     1     -27.925  11.807  -9.545  1.00  0.00    -0.056 SA
BRANCH  27  28
HETATM   28  C15 UNL     1     -27.565  13.238  -8.585  1.00  0.00     0.050 C 
HETATM   29  N9  UNL     1     -27.987  13.413  -7.432  1.00  0.00    -0.363 N 
HETATM   30  C16 UNL     1     -27.792  14.490  -6.552  1.00  0.00     0.226 C 
ATOM     31  H9  UNL     1     -28.567  12.657  -7.066  1.00  0.00     0.162 HD
HETATM   32  N10 UNL     1     -27.676  14.154  -5.177  1.00  0.00    -0.312 N 
HETATM   33  C20 UNL     1     -26.571  15.280  -6.965  1.00  0.00     0.169 C 
HETATM   34  N11 UNL     1     -26.666  14.300  -4.531  1.00  0.00    -0.295 N 
ATOM     35  H10 UNL     1     -28.494  13.767  -4.707  1.00  0.00     0.182 HD
HETATM   36  C17 UNL     1     -25.461  14.822  -5.058  1.00  0.00     0.234 C 
ATOM     37  H11 UNL     1     -26.683  14.031  -3.548  1.00  0.00     0.183 HD
HETATM   38  C18 UNL     1     -24.340  13.925  -4.484  1.00  0.00     0.085 C 
HETATM   39  O5  UNL     1     -25.416  14.745  -6.436  1.00  0.00    -0.341 OA
HETATM   40  C21 UNL     1     -26.515  15.494  -8.461  1.00  0.00     0.042 C 
HETATM   41  C22 UNL     1     -26.719  14.278  -9.279  1.00  0.00     0.067 C 
BRANCH  36  42
HETATM   42  C19 UNL     1     -25.138  16.189  -4.545  1.00  0.00     0.232 C 
HETATM   43  O3  UNL     1     -24.003  16.687  -4.671  1.00  0.00    -0.644 OA
HETATM   44  O4  UNL     1     -26.120  16.934  -3.909  1.00  0.00    -0.644 OA
ENDBRANCH  36  42
ENDBRANCH  27  28
ENDBRANCH   1  27
BRANCH   2  45
HETATM   45  N6  UNL     1     -29.149   8.679  -9.247  1.00  0.00    -0.271 N 
ATOM     46  H6  UNL     1     -28.441   8.471  -9.951  1.00  0.00     0.190 HD
BRANCH  45  47
HETATM   47  C12 UNL     1     -29.486   7.713  -8.212  1.00  0.00     0.190 A 
HETATM   48  N7  UNL     1     -29.666   8.035  -6.973  1.00  0.00    -0.360 N 
HETATM   49  C13 UNL     1     -29.989   6.879  -6.185  1.00  0.00     0.142 A 
ATOM     50  H7  UNL     1     -29.590   8.983  -6.605  1.00  0.00     0.162 HD
HETATM   51  C14 UNL     1     -30.047   5.731  -7.156  1.00  0.00     0.142 A 
HETATM   52  N8  UNL     1     -29.662   6.330  -8.420  1.00  0.00    -0.360 N 
ATOM     53  H8  UNL     1     -29.542   5.837  -9.304  1.00  0.00     0.162 HD
ENDBRANCH  45  47
ENDBRANCH   2  45
TORSDOF 11
ENDMDL
MODEL 2
REMARK VINA RESULT: -8.891604246      1.534      1.739
REMARK  11 active torsions:
REMARK  status: ('A' for Active; 'I' for Inactive)
REMARK    1  A    between atoms: C2_2  and  C3_4 
REMARK    2  A    between atoms: C3_4  and  S1_6 
REMARK    3  A    between atoms: C3_4  and  C10_20 
REMARK    4  A    between atoms: S1_6  and  C4_7 
REMARK    5  A    between atoms: C5_12  and  C6_13 
REMARK    6  A    between atoms: C10_20  and  C11_24 
REMARK    7  A    between atoms: C11_24  and  S2_36 
REMARK    8  A    between atoms: N5_25  and  N6_27 
REMARK    9  A    between atoms: N6_27  and  C12_29 
REMARK   10  A    between atoms: S2_36  and  C15_37 
REMARK   11  A    between atoms: C17_45  and  C19_47 
ROOT
HETATM    1  C11 UNL     1     -29.557  10.733  -9.770  1.00  0.00     0.116 C 
HETATM    2  N5  UNL     1     -30.028  10.018  -8.872  1.00  0.00    -0.289 N 
ATOM      3  H5  UNL     1     -30.920   9.609  -9.151  1.00  0.00     0.188 HD
ENDROOT
BRANCH   1   4
HETATM    4  C10 UNL     1     -30.417  10.798 -11.019  1.00  0.00     0.081 C 
HETATM    5  N4  UNL     1     -30.402   9.748 -11.754  1.00  0.00    -0.397 N 
ATOM      6  H42 UNL     1     -30.980   9.792 -12.593  1.00  0.00     0.156 HD
ATOM      7  H41 UNL     1     -29.853   8.920 -11.523  1.00  0.00     0.156 HD
BRANCH   4   8
HETATM    8  C3  UNL     1     -31.208  11.991 -11.353  1.00  0.00     0.196 C 
HETATM    9 CL1  UNL     1     -30.949  13.311 -10.170  1.00  0.00    -0.091 Cl
BRANCH   8  10
HETATM   10  C2  UNL     1     -32.645  11.706 -11.483  1.00  0.00     0.163 C 
HETATM   11  C1  UNL     1     -33.687  12.766 -11.483  1.00  0.00     0.094 C 
HETATM   12  O1  UNL     1     -33.039  10.558 -11.599  1.00  0.00    -0.295 OA
ENDBRANCH   8  10
BRANCH   8  13
HETATM   13  S1  UNL     1     -30.619  12.610 -12.956  1.00  0.00    -0.052 SA
BRANCH  13  14
HETATM   14  C4  UNL     1     -31.229  11.576 -14.282  1.00  0.00     0.163 A 
HETATM   15  N1  UNL     1     -32.218  11.829 -15.154  1.00  0.00    -0.278 N 
HETATM   16  N2  UNL     1     -32.351  10.787 -15.985  1.00  0.00    -0.281 N 
ATOM     17  H1  UNL     1     -32.780  12.680 -15.179  1.00  0.00     0.189 HD
HETATM   18  C5  UNL     1     -31.457   9.848 -15.668  1.00  0.00     0.156 A 
ATOM     19  H2  UNL     1     -33.031  10.721 -16.742  1.00  0.00     0.188 HD
HETATM   20  N3  UNL     1     -30.778  10.352 -14.620  1.00  0.00    -0.318 N 
ATOM     21  H3  UNL     1     -30.018   9.869 -14.142  1.00  0.00     0.169 HD
BRANCH  18  22
HETATM   22  C6  UNL     1     -31.227   8.550 -16.292  1.00  0.00     0.120 A 
HETATM   23  C7  UNL     1     -30.833   7.377 -15.673  1.00  0.00     0.043 A 
HETATM   24  C8  UNL     1     -30.738   6.402 -16.647  1.00  0.00     0.027 A 
HETATM   25  C9  UNL     1     -31.083   7.039 -17.819  1.00  0.00     0.142 A 
HETATM   26  O2  UNL     1     -31.362   8.295 -17.565  1.00  0.00    -0.319 OA
ENDBRANCH  18  22
ENDBRANCH  13  14
ENDBRANCH   8  13
ENDBRANCH   4   8
ENDBRANCH   1   4
BRANCH   1  27
HETATM   27  S2  UNL     1     -28.024  11.610  -9.820  1.00  0.00    -0.056 SA
BRANCH  27  28
HETATM   28  C15 UNL     1     -27.891  13.079  -8.860  1.00  0.00     0.050 C 
HETATM   29  N9  UNL     1     -28.298  13.173  -7.691  1.00  0.00    -0.363 N 
HETATM   30  C16 UNL     1     -28.266  14.265  -6.809  1.00  0.00     0.226 C 
ATOM     31  H9  UNL     1     -28.721  12.325  -7.313  1.00  0.00     0.162 HD
HETATM   32  N10 UNL     1     -28.044  13.951  -5.442  1.00  0.00    -0.312 N 
HETATM   33  C20 UNL     1     -27.220  15.261  -7.255  1.00  0.00     0.169 C 
HETATM   34  N11 UNL     1     -27.055  14.272  -4.829  1.00  0.00    -0.295 N 
ATOM     35  H10 UNL     1     -28.764  13.422  -4.948  1.00  0.00     0.182 HD
HETATM   36  C17 UNL     1     -25.981  15.002  -5.391  1.00  0.00     0.234 C 
ATOM     37  H11 UNL     1     -26.990  14.001  -3.848  1.00  0.00     0.183 HD
HETATM   38  C18 UNL     1     -24.699  14.316  -4.863  1.00  0.00     0.085 C 
HETATM   39  O5  UNL     1     -25.971  14.938  -6.770  1.00  0.00    -0.341 OA
HETATM   40  C21 UNL     1     -27.255  15.486  -8.750  1.00  0.00     0.042 C 
HETATM   41  C22 UNL     1     -27.268  14.256  -9.572  1.00  0.00     0.067 C 
BRANCH  36  42
HETATM   42  C19 UNL     1     -25.888  16.402  -4.877  1.00  0.00     0.232 C 
HETATM   43  O3  UNL     1     -25.452  17.333  -5.580  1.00  0.00    -0.644 OA
HETATM   44  O4  UNL     1     -26.296  16.687  -3.581  1.00  0.00    -0.644 OA
ENDBRANCH  36  42
ENDBRANCH  27  28
ENDBRANCH   1  27
BRANCH   2  45
HETATM   45  N6  UNL     1     -29.685   9.641  -7.644  1.00  0.00    -0.271 N 
ATOM     46  H6  UNL     1     -29.422  10.328  -6.937  1.00  0.00     0.190 HD
BRANCH  45  47
HETATM   47  C12 UNL     1     -29.698   8.218  -7.341  1.00  0.00     0.190 A 
HETATM   48  N7  UNL     1     -29.717   7.751  -6.136  1.00  0.00    -0.360 N 
HETATM   49  C13 UNL     1     -29.727   6.314  -6.144  1.00  0.00     0.142 A 
ATOM     50  H7  UNL     1     -29.725   8.324  -5.293  1.00  0.00     0.162 HD
HETATM   51  C14 UNL     1     -29.772   5.919  -7.595  1.00  0.00     0.142 A 
HETATM   52  N8  UNL     1     -29.695   7.185  -8.299  1.00  0.00    -0.360 N 
ATOM     53  H8  UNL     1     -29.649   7.305  -9.311  1.00  0.00     0.162 HD
ENDBRANCH  45  47
ENDBRANCH   2  45
TORSDOF 11
ENDMDL
MODEL 3
REMARK VINA RESULT: -8.802441997      1.927      2.212
REMARK  11 active torsions:
REMARK  status: ('A' for Active; 'I' for Inactive)
REMARK    1  A    between atoms: C2_2  and  C3_4 
REMARK    2  A    between atoms: C3_4  and  S1_6 
REMARK    3  A    between atoms: C3_4  and  C10_20 
REMARK    4  A    between atoms: S1_6  and  C4_7 
REMARK    5  A    between atoms: C5_12  and  C6_13 
REMARK    6  A    between atoms: C10_20  and  C11_24 
REMARK    7  A    between atoms: C11_24  and  S2_36 
REMARK    8  A    between atoms: N5_25  and  N6_27 
REMARK    9  A    between atoms: N6_27  and  C12_29 
REMARK   10  A    between atoms: S2_36  and  C15_37 
REMARK   11  A    between atoms: C17_45  and  C19_47 
ROOT
HETATM    1  C11 UNL     1     -30.046  12.332  -9.482  1.00  0.00     0.116 C 
HETATM    2  N5  UNL     1     -30.024  11.138  -9.149  1.00  0.00    -0.289 N 
ATOM      3  H5  UNL     1     -30.040  10.524  -9.963  1.00  0.00     0.188 HD
ENDROOT
BRANCH   1   4
HETATM    4  C10 UNL     1     -30.084  12.551 -10.984  1.00  0.00     0.081 C 
HETATM    5  N4  UNL     1     -28.977  12.355 -11.598  1.00  0.00    -0.397 N 
ATOM      6  H42 UNL     1     -29.002  12.502 -12.607  1.00  0.00     0.156 HD
ATOM      7  H41 UNL     1     -28.123  12.069 -11.118  1.00  0.00     0.156 HD
BRANCH   4   8
HETATM    8  C3  UNL     1     -31.314  12.963 -11.675  1.00  0.00     0.196 C 
HETATM    9 CL1  UNL     1     -31.980  14.482 -10.998  1.00  0.00    -0.091 Cl
BRANCH   8  10
HETATM   10  C2  UNL     1     -32.347  11.916 -11.676  1.00  0.00     0.163 C 
HETATM   11  C1  UNL     1     -33.800  12.208 -11.797  1.00  0.00     0.094 C 
HETATM   12  O1  UNL     1     -32.036  10.741 -11.574  1.00  0.00    -0.295 OA
ENDBRANCH   8  10
BRANCH   8  13
HETATM   13  S1  UNL     1     -30.882  13.314 -13.405  1.00  0.00    -0.052 SA
BRANCH  13  14
HETATM   14  C4  UNL     1     -31.370  11.951 -14.455  1.00  0.00     0.163 A 
HETATM   15  N1  UNL     1     -32.321  11.921 -15.401  1.00  0.00    -0.278 N 
HETATM   16  N2  UNL     1     -32.360  10.701 -15.951  1.00  0.00    -0.281 N 
ATOM     17  H1  UNL     1     -32.921  12.705 -15.660  1.00  0.00     0.189 HD
HETATM   18  C5  UNL     1     -31.440   9.924 -15.375  1.00  0.00     0.156 A 
ATOM     19  H2  UNL     1     -32.994  10.410 -16.695  1.00  0.00     0.188 HD
HETATM   20  N3  UNL     1     -30.843  10.711 -14.459  1.00  0.00    -0.318 N 
ATOM     21  H3  UNL     1     -30.087  10.407 -13.846  1.00  0.00     0.169 HD
BRANCH  18  22
HETATM   22  C6  UNL     1     -31.115   8.529 -15.647  1.00  0.00     0.120 A 
HETATM   23  C7  UNL     1     -31.368   7.817 -16.807  1.00  0.00     0.043 A 
HETATM   24  C8  UNL     1     -30.891   6.533 -16.621  1.00  0.00     0.027 A 
HETATM   25  C9  UNL     1     -30.368   6.532 -15.346  1.00  0.00     0.142 A 
HETATM   26  O2  UNL     1     -30.520   7.721 -14.813  1.00  0.00    -0.319 OA
ENDBRANCH  18  22
ENDBRANCH  13  14
ENDBRANCH   8  13
ENDBRANCH   4   8
ENDBRANCH   1   4
BRANCH   1  27
HETATM   27  S2  UNL     1     -29.973  13.782  -8.475  1.00  0.00    -0.056 SA
BRANCH  27  28
HETATM   28  C15 UNL     1     -28.415  14.581  -8.304  1.00  0.00     0.050 C 
HETATM   29  N9  UNL     1     -28.289  15.795  -8.076  1.00  0.00    -0.363 N 
HETATM   30  C16 UNL     1     -27.127  16.568  -7.920  1.00  0.00     0.226 C 
ATOM     31  H9  UNL     1     -29.165  16.310  -7.990  1.00  0.00     0.162 HD
HETATM   32  N10 UNL     1     -27.203  17.615  -6.963  1.00  0.00    -0.312 N 
HETATM   33  C20 UNL     1     -25.955  15.678  -7.574  1.00  0.00     0.169 C 
HETATM   34  N11 UNL     1     -26.564  17.640  -5.940  1.00  0.00    -0.295 N 
ATOM     35  H10 UNL     1     -27.837  18.392  -7.152  1.00  0.00     0.182 HD
HETATM   36  C17 UNL     1     -25.654  16.628  -5.553  1.00  0.00     0.234 C 
ATOM     37  H11 UNL     1     -26.687  18.438  -5.317  1.00  0.00     0.183 HD
HETATM   38  C18 UNL     1     -25.913  16.398  -4.045  1.00  0.00     0.085 C 
HETATM   39  O5  UNL     1     -25.880  15.440  -6.218  1.00  0.00    -0.341 OA
HETATM   40  C21 UNL     1     -25.930  14.422  -8.416  1.00  0.00     0.042 C 
HETATM   41  C22 UNL     1     -27.213  13.687  -8.489  1.00  0.00     0.067 C 
BRANCH  36  42
HETATM   42  C19 UNL     1     -24.226  17.064  -5.618  1.00  0.00     0.232 C 
HETATM   43  O3  UNL     1     -23.285  16.255  -5.500  1.00  0.00    -0.644 OA
HETATM   44  O4  UNL     1     -23.925  18.404  -5.817  1.00  0.00    -0.644 OA
ENDBRANCH  36  42
ENDBRANCH  27  28
ENDBRANCH   1  27
BRANCH   2  45
HETATM   45  N6  UNL     1     -29.985  10.441  -8.018  1.00  0.00    -0.271 N 
ATOM     46  H6  UNL     1     -30.208  10.878  -7.123  1.00  0.00     0.190 HD
BRANCH  45  47
HETATM   47  C12 UNL     1     -29.616   9.035  -8.097  1.00  0.00     0.190 A 
HETATM   48  N7  UNL     1     -29.613   8.245  -7.074  1.00  0.00    -0.360 N 
HETATM   49  C13 UNL     1     -29.209   6.920  -7.452  1.00  0.00     0.142 A 
ATOM     50  H7  UNL     1     -29.864   8.525  -6.126  1.00  0.00     0.162 HD
HETATM   51  C14 UNL     1     -29.002   6.970  -8.941  1.00  0.00     0.142 A 
HETATM   52  N8  UNL     1     -29.227   8.364  -9.273  1.00  0.00    -0.360 N 
ATOM     53  H8  UNL     1     -29.123   8.784 -10.197  1.00  0.00     0.162 HD
ENDBRANCH  45  47
ENDBRANCH   2  45
TORSDOF 11
ENDMDL
MODEL 4
REMARK VINA RESULT: -8.681680223      1.087      1.510
REMARK  11 active torsions:
REMARK  status: ('A' for Active; 'I' for Inactive)
REMARK    1  A    between atoms: C2_2  and  C3_4 
REMARK    2  A    between atoms: C3_4  and  S1_6 
REMARK    3  A    between atoms: C3_4  and  C10_20 
REMARK    4  A    between atoms: S1_6  and  C4_7 
REMARK    5  A    between atoms: C5_12  and  C6_13 
REMARK    6  A    between atoms: C10_20  and  C11_24 
REMARK    7  A    between atoms: C11_24  and  S2_36 
REMARK    8  A    between atoms: N5_25  and  N6_27 
REMARK    9  A    between atoms: N6_27  and  C12_29 
REMARK   10  A    between atoms: S2_36  and  C15_37 
REMARK   11  A    between atoms: C17_45  and  C19_47 
ROOT
HETATM    1  C11 UNL     1     -29.495  11.461  -9.202  1.00  0.00     0.116 C 
HETATM    2  N5  UNL     1     -29.884  10.283  -9.237  1.00  0.00    -0.289 N 
ATOM      3  H5  UNL     1     -30.884  10.216  -9.047  1.00  0.00     0.188 HD
ENDROOT
BRANCH   1   4
HETATM    4  C10 UNL     1     -30.594  12.463  -8.899  1.00  0.00     0.081 C 
HETATM    5  N4  UNL     1     -31.106  12.382  -7.727  1.00  0.00    -0.397 N 
ATOM      6  H42 UNL     1     -31.844  13.055  -7.523  1.00  0.00     0.156 HD
ATOM      7  H41 UNL     1     -30.801  11.694  -7.038  1.00  0.00     0.156 HD
BRANCH   4   8
HETATM    8  C3  UNL     1     -31.034  13.453  -9.891  1.00  0.00     0.196 C 
HETATM    9 CL1  UNL     1     -29.939  13.505 -11.308  1.00  0.00    -0.091 Cl
BRANCH   8  10
HETATM   10  C2  UNL     1     -31.187  14.802  -9.324  1.00  0.00     0.163 C 
HETATM   11  C1  UNL     1     -32.127  15.813  -9.875  1.00  0.00     0.094 C 
HETATM   12  O1  UNL     1     -30.530  15.143  -8.356  1.00  0.00    -0.295 OA
ENDBRANCH   8  10
BRANCH   8  13
HETATM   13  S1  UNL     1     -32.658  12.927 -10.511  1.00  0.00    -0.052 SA
BRANCH  13  14
HETATM   14  C4  UNL     1     -32.475  11.552 -11.641  1.00  0.00     0.163 A 
HETATM   15  N1  UNL     1     -32.487  10.237 -11.369  1.00  0.00    -0.278 N 
HETATM   16  N2  UNL     1     -32.317   9.550 -12.506  1.00  0.00    -0.281 N 
ATOM     17  H1  UNL     1     -32.606   9.827 -10.443  1.00  0.00     0.189 HD
HETATM   18  C5  UNL     1     -32.194  10.401 -13.526  1.00  0.00     0.156 A 
ATOM     19  H2  UNL     1     -32.287   8.533 -12.580  1.00  0.00     0.188 HD
HETATM   20  N3  UNL     1     -32.294  11.626 -12.974  1.00  0.00    -0.318 N 
ATOM     21  H3  UNL     1     -32.239  12.499 -13.498  1.00  0.00     0.169 HD
BRANCH  18  22
HETATM   22  C6  UNL     1     -31.997  10.115 -14.943  1.00  0.00     0.120 A 
HETATM   23  C7  UNL     1     -31.471   8.964 -15.503  1.00  0.00     0.043 A 
HETATM   24  C8  UNL     1     -31.471   9.130 -16.875  1.00  0.00     0.027 A 
HETATM   25  C9  UNL     1     -32.001  10.386 -17.079  1.00  0.00     0.142 A 
HETATM   26  O2  UNL     1     -32.296  10.926 -15.920  1.00  0.00    -0.319 OA
ENDBRANCH  18  22
ENDBRANCH  13  14
ENDBRANCH   8  13
ENDBRANCH   4   8
ENDBRANCH   1   4
BRANCH   1  27
HETATM   27  S2  UNL     1     -27.888  12.124  -9.518  1.00  0.00    -0.056 SA
BRANCH  27  28
HETATM   28  C15 UNL     1     -27.396  13.545  -8.604  1.00  0.00     0.050 C 
HETATM   29  N9  UNL     1     -27.779  13.782  -7.447  1.00  0.00    -0.363 N 
HETATM   30  C16 UNL     1     -27.480  14.862  -6.601  1.00  0.00     0.226 C 
ATOM     31  H9  UNL     1     -28.408  13.084  -7.050  1.00  0.00     0.162 HD
HETATM   32  N10 UNL     1     -27.361  14.553  -5.219  1.00  0.00    -0.312 N 
HETATM   33  C20 UNL     1     -26.210  15.542  -7.058  1.00  0.00     0.169 C 
HETATM   34  N11 UNL     1     -26.330  14.634  -4.598  1.00  0.00    -0.295 N 
ATOM     35  H10 UNL     1     -28.197  14.243  -4.724  1.00  0.00     0.182 HD
HETATM   36  C17 UNL     1     -25.099  15.045  -5.161  1.00  0.00     0.234 C 
ATOM     37  H11 UNL     1     -26.347  14.392  -3.607  1.00  0.00     0.183 HD
HETATM   38  C18 UNL     1     -24.040  14.076  -4.585  1.00  0.00     0.085 C 
HETATM   39  O5  UNL     1     -25.090  14.930  -6.537  1.00  0.00    -0.341 OA
HETATM   40  C21 UNL     1     -26.168  15.713  -8.560  1.00  0.00     0.042 C 
HETATM   41  C22 UNL     1     -26.485  14.497  -9.341  1.00  0.00     0.067 C 
BRANCH  36  42
HETATM   42  C19 UNL     1     -24.658  16.394  -4.691  1.00  0.00     0.232 C 
HETATM   43  O3  UNL     1     -23.510  16.824  -4.911  1.00  0.00    -0.644 OA
HETATM   44  O4  UNL     1     -25.542  17.200  -3.989  1.00  0.00    -0.644 OA
ENDBRANCH  36  42
ENDBRANCH  27  28
ENDBRANCH   1  27
BRANCH   2  45
HETATM   45  N6  UNL     1     -29.350   9.086  -9.454  1.00  0.00    -0.271 N 
ATOM     46  H6  UNL     1     -28.861   8.877 -10.325  1.00  0.00     0.190 HD
BRANCH  45  47
HETATM   47  C12 UNL     1     -29.485   8.080  -8.410  1.00  0.00     0.190 A 
HETATM   48  N7  UNL     1     -29.512   6.811  -8.648  1.00  0.00    -0.360 N 
HETATM   49  C13 UNL     1     -29.652   6.064  -7.429  1.00  0.00     0.142 A 
ATOM     50  H7  UNL     1     -29.444   6.395  -9.577  1.00  0.00     0.162 HD
HETATM   51  C14 UNL     1     -29.651   7.087  -6.327  1.00  0.00     0.142 A 
HETATM   52  N8  UNL     1     -29.596   8.353  -7.031  1.00  0.00    -0.360 N 
ATOM     53  H8  UNL     1     -29.631   9.279  -6.604  1.00  0.00     0.162 HD
ENDBRANCH  45  47
ENDBRANCH   2  45
TORSDOF 11
ENDMDL
MODEL 5
REMARK VINA RESULT: -8.649865176      2.248      2.674
REMARK  11 active torsions:
REMARK  status: ('A' for Active; 'I' for Inactive)
REMARK    1  A    between atoms: C2_2  and  C3_4 
REMARK    2  A    between atoms: C3_4  and  S1_6 
REMARK    3  A    between atoms: C3_4  and  C10_20 
REMARK    4  A    between atoms: S1_6  and  C4_7 
REMARK    5  A    between atoms: C5_12  and  C6_13 
REMARK    6  A    between atoms: C10_20  and  C11_24 
REMARK    7  A    between atoms: C11_24  and  S2_36 
REMARK    8  A    between atoms: N5_25  and  N6_27 
REMARK    9  A    between atoms: N6_27  and  C12_29 
REMARK   10  A    between atoms: S2_36  and  C15_37 
REMARK   11  A    between atoms: C17_45  and  C19_47 
ROOT
HETATM    1  C11 UNL     1     -29.543  10.494  -9.875  1.00  0.00     0.116 C 
HETATM    2  N5  UNL     1     -30.019   9.784  -8.976  1.00  0.00    -0.289 N 
ATOM      3  H5  UNL     1     -30.900   9.359  -9.266  1.00  0.00     0.188 HD
ENDROOT
BRANCH   1   4
HETATM    4  C10 UNL     1     -30.382  10.532 -11.139  1.00  0.00     0.081 C 
HETATM    5  N4  UNL     1     -30.425   9.438 -11.805  1.00  0.00    -0.397 N 
ATOM      6  H42 UNL     1     -30.989   9.463 -12.655  1.00  0.00     0.156 HD
ATOM      7  H41 UNL     1     -29.933   8.594 -11.513  1.00  0.00     0.156 HD
BRANCH   4   8
HETATM    8  C3  UNL     1     -31.091  11.748 -11.562  1.00  0.00     0.196 C 
HETATM    9 CL1  UNL     1     -30.101  12.740 -12.678  1.00  0.00    -0.091 Cl
BRANCH   8  10
HETATM   10  C2  UNL     1     -31.544  12.567 -10.427  1.00  0.00     0.163 C 
HETATM   11  C1  UNL     1     -31.164  13.994 -10.252  1.00  0.00     0.094 C 
HETATM   12  O1  UNL     1     -32.268  12.090  -9.570  1.00  0.00    -0.295 OA
ENDBRANCH   8  10
BRANCH   8  13
HETATM   13  S1  UNL     1     -32.562  11.232 -12.494  1.00  0.00    -0.052 SA
BRANCH  13  14
HETATM   14  C4  UNL     1     -32.171  11.074 -14.232  1.00  0.00     0.163 A 
HETATM   15  N1  UNL     1     -31.733   9.994 -14.898  1.00  0.00    -0.278 N 
HETATM   16  N2  UNL     1     -31.566  10.309 -16.189  1.00  0.00    -0.281 N 
ATOM     17  H1  UNL     1     -31.556   9.078 -14.486  1.00  0.00     0.189 HD
HETATM   18  C5  UNL     1     -31.890  11.589 -16.381  1.00  0.00     0.156 A 
ATOM     19  H2  UNL     1     -31.240   9.669 -16.914  1.00  0.00     0.188 HD
HETATM   20  N3  UNL     1     -32.259  12.041 -15.166  1.00  0.00    -0.318 N 
ATOM     21  H3  UNL     1     -32.567  12.995 -14.978  1.00  0.00     0.169 HD
BRANCH  18  22
HETATM   22  C6  UNL     1     -31.869  12.368 -17.613  1.00  0.00     0.120 A 
HETATM   23  C7  UNL     1     -31.251  13.588 -17.827  1.00  0.00     0.043 A 
HETATM   24  C8  UNL     1     -31.491  13.954 -19.137  1.00  0.00     0.027 A 
HETATM   25  C9  UNL     1     -32.251  12.929 -19.657  1.00  0.00     0.142 A 
HETATM   26  O2  UNL     1     -32.448  12.021 -18.730  1.00  0.00    -0.319 OA
ENDBRANCH  18  22
ENDBRANCH  13  14
ENDBRANCH   8  13
ENDBRANCH   4   8
ENDBRANCH   1   4
BRANCH   1  27
HETATM   27  S2  UNL     1     -28.022  11.393  -9.910  1.00  0.00    -0.056 SA
BRANCH  27  28
HETATM   28  C15 UNL     1     -27.949  12.912  -9.023  1.00  0.00     0.050 C 
HETATM   29  N9  UNL     1     -28.387  13.053  -7.871  1.00  0.00    -0.363 N 
HETATM   30  C16 UNL     1     -28.404  14.189  -7.045  1.00  0.00     0.226 C 
ATOM     31  H9  UNL     1     -28.798  12.215  -7.460  1.00  0.00     0.162 HD
HETATM   32  N10 UNL     1     -28.208  13.951  -5.658  1.00  0.00    -0.312 N 
HETATM   33  C20 UNL     1     -27.373  15.189  -7.517  1.00  0.00     0.169 C 
HETATM   34  N11 UNL     1     -27.243  14.328  -5.040  1.00  0.00    -0.295 N 
ATOM     35  H10 UNL     1     -28.926  13.429  -5.155  1.00  0.00     0.182 HD
HETATM   36  C17 UNL     1     -26.174  15.057  -5.614  1.00  0.00     0.234 C 
ATOM     37  H11 UNL     1     -27.194  14.109  -4.046  1.00  0.00     0.183 HD
HETATM   38  C18 UNL     1     -24.888  14.433  -5.022  1.00  0.00     0.085 C 
HETATM   39  O5  UNL     1     -26.129  14.924  -6.987  1.00  0.00    -0.341 OA
HETATM   40  C21 UNL     1     -27.377  15.337  -9.022  1.00  0.00     0.042 C 
HETATM   41  C22 UNL     1     -27.339  14.067  -9.780  1.00  0.00     0.067 C 
BRANCH  36  42
HETATM   42  C19 UNL     1     -26.129  16.483  -5.170  1.00  0.00     0.232 C 
HETATM   43  O3  UNL     1     -25.914  17.414  -5.969  1.00  0.00    -0.644 OA
HETATM   44  O4  UNL     1     -26.330  16.793  -3.832  1.00  0.00    -0.644 OA
ENDBRANCH  36  42
ENDBRANCH  27  28
ENDBRANCH   1  27
BRANCH   2  45
HETATM   45  N6  UNL     1     -29.693   9.427  -7.739  1.00  0.00    -0.271 N 
ATOM     46  H6  UNL     1     -29.432  10.124  -7.041  1.00  0.00     0.190 HD
BRANCH  45  47
HETATM   47  C12 UNL     1     -29.718   8.008  -7.410  1.00  0.00     0.190 A 
HETATM   48  N7  UNL     1     -29.749   7.563  -6.197  1.00  0.00    -0.360 N 
HETATM   49  C13 UNL     1     -29.770   6.127  -6.180  1.00  0.00     0.142 A 
ATOM     50  H7  UNL     1     -29.757   8.152  -5.365  1.00  0.00     0.162 HD
HETATM   51  C14 UNL     1     -29.809   5.706  -7.624  1.00  0.00     0.142 A 
HETATM   52  N8  UNL     1     -29.718   6.958  -8.350  1.00  0.00    -0.360 N 
ATOM     53  H8  UNL     1     -29.665   7.061  -9.363  1.00  0.00     0.162 HD
ENDBRANCH  45  47
ENDBRANCH   2  45
TORSDOF 11
ENDMDL
