MODEL 1
REMARK VINA RESULT: -6.764619767      0.000      0.000
REMARK  4 active torsions:
REMARK  status: ('A' for Active; 'I' for Inactive)
REMARK    1  A    between atoms: C1_2  and  C2_3 
REMARK       I    between atoms: C1_2  and  N2_10 
REMARK    2  A    between atoms: C2_3  and  N1_4 
REMARK    3  A    between atoms: N2_10  and  C8_12 
REMARK    4  A    between atoms: C10_16  and  N4_17 
ROOT
HETATM    1  O1  UNL     1      -1.364   4.398  14.068  1.00  0.00    -0.271 OA
HETATM    2  C1  UNL     1      -2.441   5.008  13.765  1.00  0.00     0.241 C 
HETATM    3  N2  UNL     1      -3.696   4.575  14.116  1.00  0.00    -0.306 N 
ATOM      4  H2  UNL     1      -4.482   5.104  13.738  1.00  0.00     0.171 HD
ENDROOT
BRANCH   3   5
HETATM    5  C8  UNL     1      -3.992   3.555  14.886  1.00  0.00     0.153 A 
HETATM    6  N3  UNL     1      -3.226   2.636  15.450  1.00  0.00    -0.344 N 
HETATM    7  C9  UNL     1      -3.792   1.674  16.153  1.00  0.00     0.134 A 
ATOM      8  H3  UNL     1      -2.212   2.670  15.343  1.00  0.00     0.167 HD
HETATM    9  C10 UNL     1      -5.149   1.687  16.262  1.00  0.00     0.162 A 
HETATM   10  S1  UNL     1      -5.584   3.062  15.363  1.00  0.00    -0.028 SA
BRANCH   9  11
HETATM   11  N4  UNL     1      -5.997   0.748  16.963  1.00  0.00    -0.107 N 
HETATM   12  O2  UNL     1      -5.491   0.144  17.935  1.00  0.00    -0.531 OA
HETATM   13  O3  UNL     1      -7.267   0.583  16.533  1.00  0.00    -0.531 OA
ENDBRANCH   9  11
ENDBRANCH   3   5
BRANCH   2  14
HETATM   14  C2  UNL     1      -2.270   6.271  12.966  1.00  0.00     0.230 C 
BRANCH  14  15
HETATM   15  N1  UNL     1      -1.638   7.309  13.750  1.00  0.00    -0.358 N 
HETATM   16  C3  UNL     1      -0.492   7.886  13.332  1.00  0.00     0.091 A 
HETATM   17  C4  UNL     1       0.147   8.882  14.023  1.00  0.00     0.017 A 
HETATM   18  C5  UNL     1      -0.446   9.288  15.199  1.00  0.00     0.003 A 
HETATM   19  C6  UNL     1      -1.620   8.712  15.646  1.00  0.00     0.017 A 
HETATM   20  C7  UNL     1      -2.201   7.713  14.893  1.00  0.00     0.091 A 
ENDBRANCH  14  15
ENDBRANCH   2  14
TORSDOF 4
ENDMDL
MODEL 2
REMARK VINA RESULT: -6.760053096      0.036      1.115
REMARK  4 active torsions:
REMARK  status: ('A' for Active; 'I' for Inactive)
REMARK    1  A    between atoms: C1_2  and  C2_3 
REMARK       I    between atoms: C1_2  and  N2_10 
REMARK    2  A    between atoms: C2_3  and  N1_4 
REMARK    3  A    between atoms: N2_10  and  C8_12 
REMARK    4  A    between atoms: C10_16  and  N4_17 
ROOT
HETATM    1  O1  UNL     1      -1.378   4.402  14.051  1.00  0.00    -0.271 OA
HETATM    2  C1  UNL     1      -2.457   5.003  13.738  1.00  0.00     0.241 C 
HETATM    3  N2  UNL     1      -3.712   4.566  14.087  1.00  0.00    -0.306 N 
ATOM      4  H2  UNL     1      -4.499   5.088  13.702  1.00  0.00     0.171 HD
ENDROOT
BRANCH   3   5
HETATM    5  C8  UNL     1      -4.006   3.551  14.864  1.00  0.00     0.153 A 
HETATM    6  N3  UNL     1      -3.236   2.643  15.441  1.00  0.00    -0.344 N 
HETATM    7  C9  UNL     1      -3.801   1.682  16.149  1.00  0.00     0.134 A 
ATOM      8  H3  UNL     1      -2.222   2.684  15.342  1.00  0.00     0.167 HD
HETATM    9  C10 UNL     1      -5.158   1.685  16.247  1.00  0.00     0.162 A 
HETATM   10  S1  UNL     1      -5.597   3.049  15.333  1.00  0.00    -0.028 SA
BRANCH   9  11
HETATM   11  N4  UNL     1      -6.005   0.746  16.950  1.00  0.00    -0.107 N 
HETATM   12  O2  UNL     1      -5.492   0.134  17.914  1.00  0.00    -0.531 OA
HETATM   13  O3  UNL     1      -7.279   0.590  16.532  1.00  0.00    -0.531 OA
ENDBRANCH   9  11
ENDBRANCH   3   5
BRANCH   2  14
HETATM   14  C2  UNL     1      -2.290   6.261  12.929  1.00  0.00     0.230 C 
BRANCH  14  15
HETATM   15  N1  UNL     1      -1.662   7.307  13.706  1.00  0.00    -0.358 N 
HETATM   16  C3  UNL     1      -2.199   7.714  14.875  1.00  0.00     0.091 A 
HETATM   17  C4  UNL     1      -1.643   8.690  15.660  1.00  0.00     0.017 A 
HETATM   18  C5  UNL     1      -0.475   9.257  15.198  1.00  0.00     0.003 A 
HETATM   19  C6  UNL     1       0.093   8.855  14.004  1.00  0.00     0.017 A 
HETATM   20  C7  UNL     1      -0.529   7.867  13.270  1.00  0.00     0.091 A 
ENDBRANCH  14  15
ENDBRANCH   2  14
TORSDOF 4
ENDMDL
MODEL 3
REMARK VINA RESULT: -6.726600584      3.263      4.292
REMARK  4 active torsions:
REMARK  status: ('A' for Active; 'I' for Inactive)
REMARK    1  A    between atoms: C1_2  and  C2_3 
REMARK       I    between atoms: C1_2  and  N2_10 
REMARK    2  A    between atoms: C2_3  and  N1_4 
REMARK    3  A    between atoms: N2_10  and  C8_12 
REMARK    4  A    between atoms: C10_16  and  N4_17 
ROOT
HETATM    1  O1  UNL     1      -4.968   3.528  11.776  1.00  0.00    -0.271 OA
HETATM    2  C1  UNL     1      -4.385   4.498  12.362  1.00  0.00     0.241 C 
HETATM    3  N2  UNL     1      -4.088   4.521  13.703  1.00  0.00    -0.306 N 
ATOM      4  H2  UNL     1      -3.700   5.391  14.069  1.00  0.00     0.171 HD
ENDROOT
BRANCH   3   5
HETATM    5  C8  UNL     1      -4.250   3.545  14.564  1.00  0.00     0.153 A 
HETATM    6  N3  UNL     1      -3.385   2.697  15.094  1.00  0.00    -0.344 N 
HETATM    7  C9  UNL     1      -3.825   1.763  15.916  1.00  0.00     0.134 A 
ATOM      8  H3  UNL     1      -2.391   2.763  14.871  1.00  0.00     0.167 HD
HETATM    9  C10 UNL     1      -5.160   1.730  16.176  1.00  0.00     0.162 A 
HETATM   10  S1  UNL     1      -5.755   3.024  15.248  1.00  0.00    -0.028 SA
BRANCH   9  11
HETATM   11  N4  UNL     1      -5.882   0.809  17.027  1.00  0.00    -0.107 N 
HETATM   12  O2  UNL     1      -5.311   0.443  18.078  1.00  0.00    -0.531 OA
HETATM   13  O3  UNL     1      -7.112   0.405  16.641  1.00  0.00    -0.531 OA
ENDBRANCH   9  11
ENDBRANCH   3   5
BRANCH   2  14
HETATM   14  C2  UNL     1      -4.028   5.668  11.486  1.00  0.00     0.230 C 
BRANCH  14  15
HETATM   15  N1  UNL     1      -5.211   6.363  11.028  1.00  0.00    -0.358 N 
HETATM   16  C3  UNL     1      -6.078   6.902  11.910  1.00  0.00     0.091 A 
HETATM   17  C4  UNL     1      -7.207   7.583  11.537  1.00  0.00     0.017 A 
HETATM   18  C5  UNL     1      -7.431   7.703  10.182  1.00  0.00     0.003 A 
HETATM   19  C6  UNL     1      -6.555   7.160   9.261  1.00  0.00     0.017 A 
HETATM   20  C7  UNL     1      -5.441   6.487   9.717  1.00  0.00     0.091 A 
ENDBRANCH  14  15
ENDBRANCH   2  14
TORSDOF 4
ENDMDL
MODEL 4
REMARK VINA RESULT: -6.706402170      3.369      4.242
REMARK  4 active torsions:
REMARK  status: ('A' for Active; 'I' for Inactive)
REMARK    1  A    between atoms: C1_2  and  C2_3 
REMARK       I    between atoms: C1_2  and  N2_10 
REMARK    2  A    between atoms: C2_3  and  N1_4 
REMARK    3  A    between atoms: N2_10  and  C8_12 
REMARK    4  A    between atoms: C10_16  and  N4_17 
ROOT
HETATM    1  O1  UNL     1      -4.860   3.460  11.412  1.00  0.00    -0.271 OA
HETATM    2  C1  UNL     1      -4.397   4.415  12.116  1.00  0.00     0.241 C 
HETATM    3  N2  UNL     1      -4.228   4.357  13.478  1.00  0.00    -0.306 N 
ATOM      4  H2  UNL     1      -3.932   5.217  13.938  1.00  0.00     0.171 HD
ENDROOT
BRANCH   3   5
HETATM    5  C8  UNL     1      -4.407   3.312  14.252  1.00  0.00     0.153 A 
HETATM    6  N3  UNL     1      -3.783   2.147  14.302  1.00  0.00    -0.344 N 
HETATM    7  C9  UNL     1      -4.199   1.234  15.160  1.00  0.00     0.134 A 
ATOM      8  H3  UNL     1      -2.992   1.956  13.686  1.00  0.00     0.167 HD
HETATM    9  C10 UNL     1      -5.256   1.552  15.956  1.00  0.00     0.162 A 
HETATM   10  S1  UNL     1      -5.632   3.135  15.465  1.00  0.00    -0.028 SA
BRANCH   9  11
HETATM   11  N4  UNL     1      -5.897   0.731  16.959  1.00  0.00    -0.107 N 
HETATM   12  O2  UNL     1      -5.237   0.483  17.993  1.00  0.00    -0.531 OA
HETATM   13  O3  UNL     1      -7.151   0.288  16.724  1.00  0.00    -0.531 OA
ENDBRANCH   9  11
ENDBRANCH   3   5
BRANCH   2  14
HETATM   14  C2  UNL     1      -4.035   5.664  11.361  1.00  0.00     0.230 C 
BRANCH  14  15
HETATM   15  N1  UNL     1      -5.216   6.388  10.943  1.00  0.00    -0.358 N 
HETATM   16  C3  UNL     1      -5.542   6.479   9.637  1.00  0.00     0.091 A 
HETATM   17  C4  UNL     1      -6.653   7.139   9.181  1.00  0.00     0.017 A 
HETATM   18  C5  UNL     1      -7.454   7.724  10.139  1.00  0.00     0.003 A 
HETATM   19  C6  UNL     1      -7.139   7.644  11.483  1.00  0.00     0.017 A 
HETATM   20  C7  UNL     1      -6.001   6.962  11.861  1.00  0.00     0.091 A 
ENDBRANCH  14  15
ENDBRANCH   2  14
TORSDOF 4
ENDMDL
MODEL 5
REMARK VINA RESULT: -6.565470291      4.235      5.214
REMARK  4 active torsions:
REMARK  status: ('A' for Active; 'I' for Inactive)
REMARK    1  A    between atoms: C1_2  and  C2_3 
REMARK       I    between atoms: C1_2  and  N2_10 
REMARK    2  A    between atoms: C2_3  and  N1_4 
REMARK    3  A    between atoms: N2_10  and  C8_12 
REMARK    4  A    between atoms: C10_16  and  N4_17 
ROOT
HETATM    1  O1  UNL     1      -3.992   3.817   9.550  1.00  0.00    -0.271 OA
HETATM    2  C1  UNL     1      -4.140   4.753  10.402  1.00  0.00     0.241 C 
HETATM    3  N2  UNL     1      -4.335   4.548  11.746  1.00  0.00    -0.306 N 
ATOM      4  H2  UNL     1      -4.528   5.375  12.310  1.00  0.00     0.171 HD
ENDROOT
BRANCH   3   5
HETATM    5  C8  UNL     1      -4.300   3.401  12.382  1.00  0.00     0.153 A 
HETATM    6  N3  UNL     1      -4.454   2.160  11.952  1.00  0.00    -0.344 N 
HETATM    7  C9  UNL     1      -4.416   1.170  12.825  1.00  0.00     0.134 A 
ATOM      8  H3  UNL     1      -4.600   1.969  10.960  1.00  0.00     0.167 HD
HETATM    9  C10 UNL     1      -4.214   1.490  14.132  1.00  0.00     0.162 A 
HETATM   10  S1  UNL     1      -4.084   3.184  14.088  1.00  0.00    -0.028 SA
BRANCH   9  11
HETATM   11  N4  UNL     1      -4.141   0.598  15.269  1.00  0.00    -0.107 N 
HETATM   12  O2  UNL     1      -4.838  -0.440  15.219  1.00  0.00    -0.531 OA
HETATM   13  O3  UNL     1      -3.337   0.934  16.300  1.00  0.00    -0.531 OA
ENDBRANCH   9  11
ENDBRANCH   3   5
BRANCH   2  14
HETATM   14  C2  UNL     1      -4.097   6.151   9.847  1.00  0.00     0.230 C 
BRANCH  14  15
HETATM   15  N1  UNL     1      -5.425   6.714   9.734  1.00  0.00    -0.358 N 
HETATM   16  C3  UNL     1      -6.109   6.637   8.573  1.00  0.00     0.091 A 
HETATM   17  C4  UNL     1      -7.373   7.139   8.408  1.00  0.00     0.017 A 
HETATM   18  C5  UNL     1      -7.941   7.743   9.510  1.00  0.00     0.003 A 
HETATM   19  C6  UNL     1      -7.259   7.832  10.709  1.00  0.00     0.017 A 
HETATM   20  C7  UNL     1      -5.988   7.304  10.794  1.00  0.00     0.091 A 
ENDBRANCH  14  15
ENDBRANCH   2  14
TORSDOF 4
ENDMDL
