MODEL 1
REMARK VINA RESULT: -6.864579693      0.000      0.000
REMARK  4 active torsions:
REMARK  status: ('A' for Active; 'I' for Inactive)
REMARK    1  A    between atoms: C4_5  and  O1_6 
REMARK       I    between atoms: N2_9  and  C6_10 
REMARK    2  A    between atoms: C6_10  and  C7_12 
REMARK    3  A    between atoms: N3_16  and  C11_17 
REMARK    4  A    between atoms: C11_17  and  C12_18 
ROOT
HETATM    1  N1  UNL     1      -4.536  -0.042  14.017  1.00  0.00    -0.195 NA
HETATM    2  C1  UNL     1      -4.436   0.741  13.158  1.00  0.00     0.085 C 
HETATM    3  C2  UNL     1      -4.321   1.747  12.082  1.00  0.00     0.197 C 
HETATM    4  C3  UNL     1      -4.799   1.123  10.761  1.00  0.00     0.074 C 
HETATM    5  C4  UNL     1      -3.840  -0.075  10.710  1.00  0.00     0.139 C 
HETATM    6  C5  UNL     1      -2.576   0.453  11.399  1.00  0.00     0.159 C 
HETATM    7  N2  UNL     1      -2.907   1.825  11.795  1.00  0.00    -0.332 N 
HETATM    8  C6  UNL     1      -2.074   2.949  11.875  1.00  0.00     0.230 C 
HETATM    9  O2  UNL     1      -0.828   2.884  11.626  1.00  0.00    -0.273 OA
ENDROOT
BRANCH   5  10
HETATM   10  O1  UNL     1      -3.597  -0.469   9.412  1.00  0.00    -0.394 OA
ATOM     11  H1  UNL     1      -4.107  -1.236   9.182  1.00  0.00     0.210 HD
ENDBRANCH   5  10
BRANCH   8  12
HETATM   12  C7  UNL     1      -2.617   4.259  12.249  1.00  0.00     0.117 C 
HETATM   13  C8  UNL     1      -1.843   5.416  11.702  1.00  0.00     0.024 C 
HETATM   14  C9  UNL     1      -2.477   6.715  12.115  1.00  0.00     0.046 C 
HETATM   15  C10 UNL     1      -2.933   6.736  13.541  1.00  0.00     0.063 C 
HETATM   16  N3  UNL     1      -3.301   5.539  14.135  1.00  0.00    -0.373 N 
HETATM   17  C15 UNL     1      -2.697   4.325  13.761  1.00  0.00     0.077 C 
BRANCH  16  18
HETATM   18  C11 UNL     1      -4.388   5.505  15.021  1.00  0.00     0.131 C 
BRANCH  18  19
HETATM   19  C12 UNL     1      -5.122   4.163  14.955  1.00  0.00     0.004 A 
HETATM   20  C13 UNL     1      -6.461   4.128  14.250  1.00  0.00     0.007 A 
HETATM   21  C14 UNL     1      -6.405   4.071  15.727  1.00  0.00     0.007 A 
ENDBRANCH  18  19
ENDBRANCH  16  18
ENDBRANCH   8  12
TORSDOF 4
ENDMDL
MODEL 2
REMARK VINA RESULT: -6.720206258      2.293      4.097
REMARK  4 active torsions:
REMARK  status: ('A' for Active; 'I' for Inactive)
REMARK    1  A    between atoms: C4_5  and  O1_6 
REMARK       I    between atoms: N2_9  and  C6_10 
REMARK    2  A    between atoms: C6_10  and  C7_12 
REMARK    3  A    between atoms: N3_16  and  C11_17 
REMARK    4  A    between atoms: C11_17  and  C12_18 
ROOT
HETATM    1  N1  UNL     1      -4.998   2.997  10.266  1.00  0.00    -0.195 NA
HETATM    2  C1  UNL     1      -4.385   2.827  11.244  1.00  0.00     0.085 C 
HETATM    3  C2  UNL     1      -3.619   2.631  12.493  1.00  0.00     0.197 C 
HETATM    4  C3  UNL     1      -2.125   2.518  12.150  1.00  0.00     0.074 C 
HETATM    5  C4  UNL     1      -2.200   1.332  11.176  1.00  0.00     0.139 C 
HETATM    6  C5  UNL     1      -3.373   0.505  11.714  1.00  0.00     0.159 C 
HETATM    7  N2  UNL     1      -3.868   1.258  12.870  1.00  0.00    -0.332 N 
HETATM    8  C6  UNL     1      -4.438   0.784  14.059  1.00  0.00     0.230 C 
HETATM    9  O2  UNL     1      -4.637  -0.456  14.263  1.00  0.00    -0.273 OA
ENDROOT
BRANCH   5  10
HETATM   10  O1  UNL     1      -1.022   0.616  11.165  1.00  0.00    -0.394 OA
ATOM     11  H1  UNL     1      -0.355   1.058  10.655  1.00  0.00     0.210 HD
ENDBRANCH   5  10
BRANCH   8  12
HETATM   12  C7  UNL     1      -4.826   1.712  15.127  1.00  0.00     0.117 C 
HETATM   13  C8  UNL     1      -5.124   1.044  16.431  1.00  0.00     0.024 C 
HETATM   14  C9  UNL     1      -5.493   2.065  17.472  1.00  0.00     0.046 C 
HETATM   15  C10 UNL     1      -6.403   3.140  16.964  1.00  0.00     0.063 C 
HETATM   16  N3  UNL     1      -6.346   3.475  15.621  1.00  0.00    -0.373 N 
HETATM   17  C15 UNL     1      -6.016   2.518  14.644  1.00  0.00     0.077 C 
BRANCH  16  18
HETATM   18  C11 UNL     1      -6.475   4.817  15.229  1.00  0.00     0.131 C 
BRANCH  18  19
HETATM   19  C12 UNL     1      -6.563   4.950  13.706  1.00  0.00     0.004 A 
HETATM   20  C13 UNL     1      -5.656   5.960  13.037  1.00  0.00     0.007 A 
HETATM   21  C14 UNL     1      -7.099   6.250  13.186  1.00  0.00     0.007 A 
ENDBRANCH  18  19
ENDBRANCH  16  18
ENDBRANCH   8  12
TORSDOF 4
ENDMDL
MODEL 3
REMARK VINA RESULT: -6.633554997      2.997      4.978
REMARK  4 active torsions:
REMARK  status: ('A' for Active; 'I' for Inactive)
REMARK    1  A    between atoms: C4_5  and  O1_6 
REMARK       I    between atoms: N2_9  and  C6_10 
REMARK    2  A    between atoms: C6_10  and  C7_12 
REMARK    3  A    between atoms: N3_16  and  C11_17 
REMARK    4  A    between atoms: C11_17  and  C12_18 
ROOT
HETATM    1  N1  UNL     1      -4.669  -0.442  14.700  1.00  0.00    -0.195 NA
HETATM    2  C1  UNL     1      -4.496   0.689  14.929  1.00  0.00     0.085 C 
HETATM    3  C2  UNL     1      -4.258   2.121  15.206  1.00  0.00     0.197 C 
HETATM    4  C3  UNL     1      -4.240   2.340  16.727  1.00  0.00     0.074 C 
HETATM    5  C4  UNL     1      -5.632   1.780  17.058  1.00  0.00     0.139 C 
HETATM    6  C5  UNL     1      -6.454   2.114  15.808  1.00  0.00     0.159 C 
HETATM    7  N2  UNL     1      -5.511   2.772  14.899  1.00  0.00    -0.332 N 
HETATM    8  C6  UNL     1      -5.745   3.789  13.963  1.00  0.00     0.230 C 
HETATM    9  O2  UNL     1      -6.908   4.262  13.760  1.00  0.00    -0.273 OA
ENDROOT
BRANCH   5  10
HETATM   10  O1  UNL     1      -6.151   2.367  18.192  1.00  0.00    -0.394 OA
ATOM     11  H1  UNL     1      -6.525   1.718  18.776  1.00  0.00     0.210 HD
ENDBRANCH   5  10
BRANCH   8  12
HETATM   12  C7  UNL     1      -4.642   4.353  13.178  1.00  0.00     0.117 C 
HETATM   13  C8  UNL     1      -4.705   5.839  13.026  1.00  0.00     0.024 C 
HETATM   14  C9  UNL     1      -3.531   6.335  12.227  1.00  0.00     0.046 C 
HETATM   15  C10 UNL     1      -3.205   5.482  11.042  1.00  0.00     0.063 C 
HETATM   16  N3  UNL     1      -3.517   4.132  11.093  1.00  0.00    -0.373 N 
HETATM   17  C15 UNL     1      -4.624   3.668  11.826  1.00  0.00     0.077 C 
BRANCH  16  18
HETATM   18  C11 UNL     1      -2.643   3.191  10.527  1.00  0.00     0.131 C 
BRANCH  18  19
HETATM   19  C12 UNL     1      -2.421   1.999  11.463  1.00  0.00     0.004 A 
HETATM   20  C13 UNL     1      -1.398   0.964  11.051  1.00  0.00     0.007 A 
HETATM   21  C14 UNL     1      -2.842   0.659  10.939  1.00  0.00     0.007 A 
ENDBRANCH  18  19
ENDBRANCH  16  18
ENDBRANCH   8  12
TORSDOF 4
ENDMDL
MODEL 4
REMARK VINA RESULT: -6.534292025      2.604      3.667
REMARK  4 active torsions:
REMARK  status: ('A' for Active; 'I' for Inactive)
REMARK    1  A    between atoms: C4_5  and  O1_6 
REMARK       I    between atoms: N2_9  and  C6_10 
REMARK    2  A    between atoms: C6_10  and  C7_12 
REMARK    3  A    between atoms: N3_16  and  C11_17 
REMARK    4  A    between atoms: C11_17  and  C12_18 
ROOT
HETATM    1  N1  UNL     1      -1.322   0.720  10.990  1.00  0.00    -0.195 NA
HETATM    2  C1  UNL     1      -1.851   1.759  11.014  1.00  0.00     0.085 C 
HETATM    3  C2  UNL     1      -2.541   3.066  11.047  1.00  0.00     0.197 C 
HETATM    4  C3  UNL     1      -2.184   3.852   9.776  1.00  0.00     0.074 C 
HETATM    5  C4  UNL     1      -0.655   3.859   9.930  1.00  0.00     0.139 C 
HETATM    6  C5  UNL     1      -0.452   3.879  11.449  1.00  0.00     0.159 C 
HETATM    7  N2  UNL     1      -1.806   3.850  12.012  1.00  0.00    -0.332 N 
HETATM    8  C6  UNL     1      -2.289   4.439  13.188  1.00  0.00     0.230 C 
HETATM    9  O2  UNL     1      -1.530   5.085  13.979  1.00  0.00    -0.273 OA
ENDROOT
BRANCH   5  10
HETATM   10  O1  UNL     1      -0.095   4.960   9.317  1.00  0.00    -0.394 OA
ATOM     11  H1  UNL     1       0.513   4.702   8.635  1.00  0.00     0.210 HD
ENDBRANCH   5  10
BRANCH   8  12
HETATM   12  C7  UNL     1      -3.706   4.334  13.552  1.00  0.00     0.117 C 
HETATM   13  C8  UNL     1      -4.449   5.630  13.477  1.00  0.00     0.024 C 
HETATM   14  C9  UNL     1      -5.893   5.429  13.844  1.00  0.00     0.046 C 
HETATM   15  C10 UNL     1      -6.095   4.526  15.021  1.00  0.00     0.063 C 
HETATM   16  N3  UNL     1      -5.150   3.544  15.271  1.00  0.00    -0.373 N 
HETATM   17  C15 UNL     1      -3.796   3.735  14.941  1.00  0.00     0.077 C 
BRANCH  16  18
HETATM   18  C11 UNL     1      -5.558   2.281  15.725  1.00  0.00     0.131 C 
BRANCH  18  19
HETATM   19  C12 UNL     1      -6.712   2.391  16.726  1.00  0.00     0.004 A 
HETATM   20  C13 UNL     1      -6.455   1.939  18.147  1.00  0.00     0.007 A 
HETATM   21  C14 UNL     1      -7.268   1.097  17.242  1.00  0.00     0.007 A 
ENDBRANCH  18  19
ENDBRANCH  16  18
ENDBRANCH   8  12
TORSDOF 4
ENDMDL
MODEL 5
REMARK VINA RESULT: -6.518569624      2.012      2.854
REMARK  4 active torsions:
REMARK  status: ('A' for Active; 'I' for Inactive)
REMARK    1  A    between atoms: C4_5  and  O1_6 
REMARK       I    between atoms: N2_9  and  C6_10 
REMARK    2  A    between atoms: C6_10  and  C7_12 
REMARK    3  A    between atoms: N3_16  and  C11_17 
REMARK    4  A    between atoms: C11_17  and  C12_18 
ROOT
HETATM    1  N1  UNL     1      -4.285  -1.043  12.308  1.00  0.00    -0.195 NA
HETATM    2  C1  UNL     1      -4.362   0.090  12.040  1.00  0.00     0.085 C 
HETATM    3  C2  UNL     1      -4.481   1.525  11.706  1.00  0.00     0.197 C 
HETATM    4  C3  UNL     1      -3.974   1.748  10.273  1.00  0.00     0.074 C 
HETATM    5  C4  UNL     1      -2.556   1.179  10.437  1.00  0.00     0.139 C 
HETATM    6  C5  UNL     1      -2.212   1.503  11.896  1.00  0.00     0.159 C 
HETATM    7  N2  UNL     1      -3.406   2.165  12.428  1.00  0.00    -0.332 N 
HETATM    8  C6  UNL     1      -3.502   3.177  13.393  1.00  0.00     0.230 C 
HETATM    9  O2  UNL     1      -2.477   3.642  13.986  1.00  0.00    -0.273 OA
ENDROOT
BRANCH   5  10
HETATM   10  O1  UNL     1      -1.675   1.765   9.554  1.00  0.00    -0.394 OA
ATOM     11  H1  UNL     1      -1.565   1.236   8.774  1.00  0.00     0.210 HD
ENDBRANCH   5  10
BRANCH   8  12
HETATM   12  C7  UNL     1      -4.804   3.747  13.755  1.00  0.00     0.117 C 
HETATM   13  C8  UNL     1      -5.094   5.060  13.099  1.00  0.00     0.024 C 
HETATM   14  C9  UNL     1      -6.452   5.562  13.507  1.00  0.00     0.046 C 
HETATM   15  C10 UNL     1      -6.749   5.379  14.963  1.00  0.00     0.063 C 
HETATM   16  N3  UNL     1      -6.142   4.329  15.635  1.00  0.00    -0.373 N 
HETATM   17  C15 UNL     1      -4.866   3.868  15.264  1.00  0.00     0.077 C 
BRANCH  16  18
HETATM   18  C11 UNL     1      -6.859   3.614  16.606  1.00  0.00     0.131 C 
BRANCH  18  19
HETATM   19  C12 UNL     1      -6.143   2.316  16.989  1.00  0.00     0.004 A 
HETATM   20  C13 UNL     1      -6.999   1.126  17.363  1.00  0.00     0.007 A 
HETATM   21  C14 UNL     1      -6.283   1.879  18.416  1.00  0.00     0.007 A 
ENDBRANCH  18  19
ENDBRANCH  16  18
ENDBRANCH   8  12
TORSDOF 4
ENDMDL
