MODEL 1
REMARK VINA RESULT: -6.276954427      0.000      0.000
REMARK  4 active torsions:
REMARK  status: ('A' for Active; 'I' for Inactive)
REMARK    1  A    between atoms: C2_2  and  C3_3 
REMARK       I    between atoms: C3_3  and  N1_5 
REMARK    2  A    between atoms: N1_5  and  C5_7 
REMARK    3  A    between atoms: C9_14  and  O4_15 
REMARK    4  A    between atoms: C9_14  and  C10_17 
ROOT
HETATM    1  C5  UNL     1      -4.500   2.424  13.209  1.00  0.00     0.140 C 
HETATM    2  C6  UNL     1      -3.779   1.170  13.725  1.00  0.00     0.130 C 
HETATM    3  C7  UNL     1      -4.237  -0.058  13.012  1.00  0.00     0.028 C 
HETATM    4  S1  UNL     1      -4.378   1.197  15.424  1.00  0.00     0.153 S 
HETATM    5  O2  UNL     1      -3.282   0.992  16.407  1.00  0.00    -0.227 OA
HETATM    6  O3  UNL     1      -5.496   0.215  15.590  1.00  0.00    -0.227 OA
HETATM    7  C8  UNL     1      -4.943   2.876  15.456  1.00  0.00     0.181 C 
HETATM    8  C9  UNL     1      -4.196   3.453  14.195  1.00  0.00     0.095 C 
ENDROOT
BRANCH   1   9
HETATM    9  N1  UNL     1      -4.348   2.603  11.826  1.00  0.00    -0.347 N 
HETATM   10  C3  UNL     1      -3.239   2.969  11.052  1.00  0.00     0.219 C 
HETATM   11  O1  UNL     1      -3.414   3.097   9.807  1.00  0.00    -0.273 OA
HETATM   12  C4  UNL     1      -5.586   2.375  11.011  1.00  0.00     0.153 C 
BRANCH  10  13
HETATM   13  C2  UNL     1      -1.869   3.224  11.526  1.00  0.00     0.098 C 
HETATM   14  C1  UNL     1      -0.957   2.023  11.179  1.00  0.00     0.014 C 
ENDBRANCH  10  13
ENDBRANCH   1   9
BRANCH   8  15
HETATM   15  O4  UNL     1      -2.852   3.394  14.607  1.00  0.00    -0.386 OA
ATOM     16  H4  UNL     1      -2.422   2.612  14.282  1.00  0.00     0.210 HD
ENDBRANCH   8  15
BRANCH   8  17
HETATM   17  C10 UNL     1      -4.680   4.831  14.056  1.00  0.00     0.015 C 
HETATM   18  C11 UNL     1      -6.135   5.099  14.309  1.00  0.00     0.012 C 
HETATM   19  C12 UNL     1      -3.827   5.858  14.798  1.00  0.00     0.012 C 
ENDBRANCH   8  17
TORSDOF 4
ENDMDL
MODEL 2
REMARK VINA RESULT: -6.164548645      2.078      4.362
REMARK  4 active torsions:
REMARK  status: ('A' for Active; 'I' for Inactive)
REMARK    1  A    between atoms: C2_2  and  C3_3 
REMARK       I    between atoms: C3_3  and  N1_5 
REMARK    2  A    between atoms: N1_5  and  C5_7 
REMARK    3  A    between atoms: C9_14  and  O4_15 
REMARK    4  A    between atoms: C9_14  and  C10_17 
ROOT
HETATM    1  C5  UNL     1      -3.504   2.463  12.912  1.00  0.00     0.140 C 
HETATM    2  C6  UNL     1      -2.981   2.325  11.474  1.00  0.00     0.130 C 
HETATM    3  C7  UNL     1      -1.968   1.235  11.362  1.00  0.00     0.028 C 
HETATM    4  S1  UNL     1      -2.212   3.947  11.313  1.00  0.00     0.153 S 
HETATM    5  O2  UNL     1      -2.576   4.612  10.035  1.00  0.00    -0.227 OA
HETATM    6  O3  UNL     1      -0.732   3.834  11.507  1.00  0.00    -0.227 OA
HETATM    7  C8  UNL     1      -3.015   4.734  12.682  1.00  0.00     0.181 C 
HETATM    8  C9  UNL     1      -4.210   3.737  12.925  1.00  0.00     0.095 C 
ENDROOT
BRANCH   1   9
HETATM    9  N1  UNL     1      -4.046   1.267  13.406  1.00  0.00    -0.347 N 
HETATM   10  C3  UNL     1      -4.206   0.789  14.713  1.00  0.00     0.219 C 
HETATM   11  O1  UNL     1      -4.697  -0.367  14.855  1.00  0.00    -0.273 OA
HETATM   12  C4  UNL     1      -4.540   0.309  12.364  1.00  0.00     0.153 C 
BRANCH  10  13
HETATM   13  C2  UNL     1      -3.870   1.489  15.964  1.00  0.00     0.098 C 
HETATM   14  C1  UNL     1      -5.141   1.673  16.826  1.00  0.00     0.014 C 
ENDBRANCH  10  13
ENDBRANCH   1   9
BRANCH   8  15
HETATM   15  O4  UNL     1      -4.974   3.916  11.756  1.00  0.00    -0.386 OA
ATOM     16  H4  UNL     1      -5.792   3.435  11.797  1.00  0.00     0.210 HD
ENDBRANCH   8  15
BRANCH   8  17
HETATM   17  C10 UNL     1      -4.894   4.236  14.123  1.00  0.00     0.015 C 
HETATM   18  C11 UNL     1      -4.356   5.475  14.779  1.00  0.00     0.012 C 
HETATM   19  C12 UNL     1      -6.408   4.350  13.962  1.00  0.00     0.012 C 
ENDBRANCH   8  17
TORSDOF 4
ENDMDL
MODEL 3
REMARK VINA RESULT: -6.114781905      1.845      3.558
REMARK  4 active torsions:
REMARK  status: ('A' for Active; 'I' for Inactive)
REMARK    1  A    between atoms: C2_2  and  C3_3 
REMARK       I    between atoms: C3_3  and  N1_5 
REMARK    2  A    between atoms: N1_5  and  C5_7 
REMARK    3  A    between atoms: C9_14  and  O4_15 
REMARK    4  A    between atoms: C9_14  and  C10_17 
ROOT
HETATM    1  C5  UNL     1      -3.395   2.942  12.839  1.00  0.00     0.140 C 
HETATM    2  C6  UNL     1      -4.105   3.366  14.133  1.00  0.00     0.130 C 
HETATM    3  C7  UNL     1      -3.235   4.238  14.975  1.00  0.00     0.028 C 
HETATM    4  S1  UNL     1      -4.304   1.736  14.874  1.00  0.00     0.153 S 
HETATM    5  O2  UNL     1      -5.681   1.521  15.391  1.00  0.00    -0.227 OA
HETATM    6  O3  UNL     1      -3.253   1.515  15.918  1.00  0.00    -0.227 OA
HETATM    7  C8  UNL     1      -4.023   0.769  13.417  1.00  0.00     0.181 C 
HETATM    8  C9  UNL     1      -4.220   1.866  12.304  1.00  0.00     0.095 C 
ENDROOT
BRANCH   1   9
HETATM    9  N1  UNL     1      -2.957   4.038  12.080  1.00  0.00    -0.347 N 
HETATM   10  C3  UNL     1      -1.687   4.389  11.602  1.00  0.00     0.219 C 
HETATM   11  O1  UNL     1      -1.583   5.480  10.971  1.00  0.00    -0.273 OA
HETATM   12  C4  UNL     1      -4.019   5.029  11.712  1.00  0.00     0.153 C 
BRANCH  10  13
HETATM   13  C2  UNL     1      -0.439   3.622  11.746  1.00  0.00     0.098 C 
HETATM   14  C1  UNL     1       0.158   3.317  10.352  1.00  0.00     0.014 C 
ENDBRANCH  10  13
ENDBRANCH   1   9
BRANCH   8  15
HETATM   15  O4  UNL     1      -5.591   2.157  12.427  1.00  0.00    -0.386 OA
ATOM     16  H4  UNL     1      -6.109   1.664  11.802  1.00  0.00     0.210 HD
ENDBRANCH   8  15
BRANCH   8  17
HETATM   17  C10 UNL     1      -3.900   1.196  11.038  1.00  0.00     0.015 C 
HETATM   18  C11 UNL     1      -2.503   0.684  10.842  1.00  0.00     0.012 C 
HETATM   19  C12 UNL     1      -4.907   0.119  10.644  1.00  0.00     0.012 C 
ENDBRANCH   8  17
TORSDOF 4
ENDMDL
MODEL 4
REMARK VINA RESULT: -5.988584673      1.985      3.966
REMARK  4 active torsions:
REMARK  status: ('A' for Active; 'I' for Inactive)
REMARK    1  A    between atoms: C2_2  and  C3_3 
REMARK       I    between atoms: C3_3  and  N1_5 
REMARK    2  A    between atoms: N1_5  and  C5_7 
REMARK    3  A    between atoms: C9_14  and  O4_15 
REMARK    4  A    between atoms: C9_14  and  C10_17 
ROOT
HETATM    1  C5  UNL     1      -3.102   2.998  12.846  1.00  0.00     0.140 C 
HETATM    2  C6  UNL     1      -3.775   3.582  14.098  1.00  0.00     0.130 C 
HETATM    3  C7  UNL     1      -2.813   4.373  14.918  1.00  0.00     0.028 C 
HETATM    4  S1  UNL     1      -4.208   2.035  14.915  1.00  0.00     0.153 S 
HETATM    5  O2  UNL     1      -5.611   2.035  15.403  1.00  0.00    -0.227 OA
HETATM    6  O3  UNL     1      -3.218   1.732  15.997  1.00  0.00    -0.227 OA
HETATM    7  C8  UNL     1      -4.030   0.963  13.516  1.00  0.00     0.181 C 
HETATM    8  C9  UNL     1      -4.053   2.015  12.344  1.00  0.00     0.095 C 
ENDROOT
BRANCH   1   9
HETATM    9  N1  UNL     1      -2.505   3.983  12.046  1.00  0.00    -0.347 N 
HETATM   10  C3  UNL     1      -3.053   5.044  11.314  1.00  0.00     0.219 C 
HETATM   11  O1  UNL     1      -2.259   5.758  10.637  1.00  0.00    -0.273 OA
HETATM   12  C4  UNL     1      -1.012   3.898  11.931  1.00  0.00     0.153 C 
BRANCH  10  13
HETATM   13  C2  UNL     1      -4.470   5.437  11.242  1.00  0.00     0.098 C 
HETATM   14  C1  UNL     1      -4.723   6.673  12.137  1.00  0.00     0.014 C 
ENDBRANCH  10  13
ENDBRANCH   1   9
BRANCH   8  15
HETATM   15  O4  UNL     1      -5.375   2.492  12.414  1.00  0.00    -0.386 OA
ATOM     16  H4  UNL     1      -5.973   1.820  12.718  1.00  0.00     0.210 HD
ENDBRANCH   8  15
BRANCH   8  17
HETATM   17  C10 UNL     1      -3.801   1.241  11.123  1.00  0.00     0.015 C 
HETATM   18  C11 UNL     1      -2.454   0.600  10.958  1.00  0.00     0.012 C 
HETATM   19  C12 UNL     1      -4.899   0.230  10.800  1.00  0.00     0.012 C 
ENDBRANCH   8  17
TORSDOF 4
ENDMDL
MODEL 5
REMARK VINA RESULT: -5.983380395      2.129      4.542
REMARK  4 active torsions:
REMARK  status: ('A' for Active; 'I' for Inactive)
REMARK    1  A    between atoms: C2_2  and  C3_3 
REMARK       I    between atoms: C3_3  and  N1_5 
REMARK    2  A    between atoms: N1_5  and  C5_7 
REMARK    3  A    between atoms: C9_14  and  O4_15 
REMARK    4  A    between atoms: C9_14  and  C10_17 
ROOT
HETATM    1  C5  UNL     1      -3.931   2.751  13.243  1.00  0.00     0.140 C 
HETATM    2  C6  UNL     1      -4.611   2.297  11.943  1.00  0.00     0.130 C 
HETATM    3  C7  UNL     1      -4.741   0.813  11.882  1.00  0.00     0.028 C 
HETATM    4  S1  UNL     1      -3.375   2.892  10.774  1.00  0.00     0.153 S 
HETATM    5  O2  UNL     1      -3.989   3.632   9.640  1.00  0.00    -0.227 OA
HETATM    6  O3  UNL     1      -2.509   1.757  10.323  1.00  0.00    -0.227 OA
HETATM    7  C8  UNL     1      -2.525   4.002  11.861  1.00  0.00     0.181 C 
HETATM    8  C9  UNL     1      -3.591   4.149  13.011  1.00  0.00     0.095 C 
ENDROOT
BRANCH   1   9
HETATM    9  N1  UNL     1      -4.597   2.292  14.389  1.00  0.00    -0.347 N 
HETATM   10  C3  UNL     1      -5.737   2.764  15.053  1.00  0.00     0.219 C 
HETATM   11  O1  UNL     1      -6.089   2.163  16.108  1.00  0.00    -0.273 OA
HETATM   12  C4  UNL     1      -3.992   1.086  15.043  1.00  0.00     0.153 C 
BRANCH  10  13
HETATM   13  C2  UNL     1      -6.593   3.895  14.658  1.00  0.00     0.098 C 
HETATM   14  C1  UNL     1      -6.279   5.129  15.535  1.00  0.00     0.014 C 
ENDBRANCH  10  13
ENDBRANCH   1   9
BRANCH   8  15
HETATM   15  O4  UNL     1      -4.631   4.831  12.351  1.00  0.00    -0.386 OA
ATOM     16  H4  UNL     1      -5.462   4.384  12.456  1.00  0.00     0.210 HD
ENDBRANCH   8  15
BRANCH   8  17
HETATM   17  C10 UNL     1      -2.943   4.974  14.036  1.00  0.00     0.015 C 
HETATM   18  C11 UNL     1      -1.482   4.754  14.301  1.00  0.00     0.012 C 
HETATM   19  C12 UNL     1      -3.225   6.467  13.891  1.00  0.00     0.012 C 
ENDBRANCH   8  17
TORSDOF 4
ENDMDL
