MODEL 1
REMARK VINA RESULT: -7.037017842      0.000      0.000
REMARK  4 active torsions:
REMARK  status: ('A' for Active; 'I' for Inactive)
REMARK       I    between atoms: C1_2  and  N1_3 
REMARK    1  A    between atoms: C1_2  and  C6_9 
REMARK    2  A    between atoms: C6_9  and  O3_10 
REMARK    3  A    between atoms: N2_14  and  C9_15 
REMARK    4  A    between atoms: C9_15  and  C10_16 
ROOT
HETATM    1  C6  UNL     1      -4.806   2.367  11.788  1.00  0.00     0.141 C 
HETATM    2  C7  UNL     1      -3.984   1.198  12.222  1.00  0.00     0.078 C 
HETATM    3  C8  UNL     1      -4.201   0.701  13.589  1.00  0.00     0.276 C 
HETATM    4  N2  UNL     1      -4.691   1.640  14.545  1.00  0.00     0.089 N 
HETATM    5  C13 UNL     1      -4.346   2.961  14.104  1.00  0.00     0.276 C 
HETATM    6  C14 UNL     1      -5.291   3.229  12.925  1.00  0.00     0.078 C 
ENDROOT
BRANCH   1   7
HETATM    7  C1  UNL     1      -4.041   3.257  10.893  1.00  0.00     0.254 C 
HETATM    8  O1  UNL     1      -4.744   3.939  10.043  1.00  0.00    -0.270 OA
HETATM    9  N1  UNL     1      -2.671   3.473  10.828  1.00  0.00    -0.345 N 
HETATM   10  C2  UNL     1      -1.741   2.800  11.699  1.00  0.00     0.152 C 
HETATM   11  C5  UNL     1      -2.077   4.402   9.867  1.00  0.00     0.152 C 
HETATM   12  C3  UNL     1      -0.337   3.273  11.299  1.00  0.00     0.187 C 
HETATM   13  O2  UNL     1      -0.091   3.061   9.963  1.00  0.00    -0.388 OA
HETATM   14  C4  UNL     1      -1.007   3.666   9.115  1.00  0.00     0.187 C 
ENDBRANCH   1   7
BRANCH   1  15
HETATM   15  O3  UNL     1      -5.925   1.897  11.127  1.00  0.00    -0.380 OA
ATOM     16  H3  UNL     1      -6.618   1.728  11.755  1.00  0.00     0.211 HD
ENDBRANCH   1  15
BRANCH   4  17
HETATM   17  C9  UNL     1      -4.277   1.321  15.866  1.00  0.00     0.277 C 
BRANCH  17  18
HETATM   18  C10 UNL     1      -5.494   0.864  16.653  1.00  0.00     0.014 A 
HETATM   19  C11 UNL     1      -5.874   1.573  17.901  1.00  0.00     0.007 A 
HETATM   20  C12 UNL     1      -6.719   1.716  16.659  1.00  0.00     0.007 A 
ENDBRANCH  17  18
ENDBRANCH   4  17
TORSDOF 4
ENDMDL
MODEL 2
REMARK VINA RESULT: -7.008365518      2.165      3.237
REMARK  4 active torsions:
REMARK  status: ('A' for Active; 'I' for Inactive)
REMARK       I    between atoms: C1_2  and  N1_3 
REMARK    1  A    between atoms: C1_2  and  C6_9 
REMARK    2  A    between atoms: C6_9  and  O3_10 
REMARK    3  A    between atoms: N2_14  and  C9_15 
REMARK    4  A    between atoms: C9_15  and  C10_16 
ROOT
HETATM    1  C6  UNL     1      -3.718   3.958  13.124  1.00  0.00     0.141 C 
HETATM    2  C7  UNL     1      -5.164   3.659  12.900  1.00  0.00     0.078 C 
HETATM    3  C8  UNL     1      -6.082   3.937  14.015  1.00  0.00     0.276 C 
HETATM    4  N2  UNL     1      -5.528   3.906  15.329  1.00  0.00     0.089 N 
HETATM    5  C13 UNL     1      -4.350   3.087  15.307  1.00  0.00     0.276 C 
HETATM    6  C14 UNL     1      -3.306   3.938  14.573  1.00  0.00     0.078 C 
ENDROOT
BRANCH   1   7
HETATM    7  C1  UNL     1      -2.855   2.979  12.436  1.00  0.00     0.254 C 
HETATM    8  O1  UNL     1      -1.700   3.422  12.046  1.00  0.00    -0.270 OA
HETATM    9  N1  UNL     1      -3.100   1.644  12.144  1.00  0.00    -0.345 N 
HETATM   10  C2  UNL     1      -4.331   0.987  12.504  1.00  0.00     0.152 C 
HETATM   11  C5  UNL     1      -2.121   0.810  11.448  1.00  0.00     0.152 C 
HETATM   12  C3  UNL     1      -4.234  -0.454  11.985  1.00  0.00     0.187 C 
HETATM   13  O2  UNL     1      -3.965  -0.491  10.637  1.00  0.00    -0.388 OA
HETATM   14  C4  UNL     1      -2.805   0.177  10.272  1.00  0.00     0.187 C 
ENDBRANCH   1   7
BRANCH   1  15
HETATM   15  O3  UNL     1      -3.453   5.227  12.642  1.00  0.00    -0.380 OA
ATOM     16  H3  UNL     1      -3.564   5.238  11.698  1.00  0.00     0.211 HD
ENDBRANCH   1  15
BRANCH   4  17
HETATM   17  C9  UNL     1      -6.494   3.544  16.306  1.00  0.00     0.277 C 
BRANCH  17  18
HETATM   18  C10 UNL     1      -6.059   2.238  16.950  1.00  0.00     0.014 A 
HETATM   19  C11 UNL     1      -6.341   1.995  18.387  1.00  0.00     0.007 A 
HETATM   20  C12 UNL     1      -7.093   1.231  17.325  1.00  0.00     0.007 A 
ENDBRANCH  17  18
ENDBRANCH   4  17
TORSDOF 4
ENDMDL
MODEL 3
REMARK VINA RESULT: -6.866347758      2.796      4.729
REMARK  4 active torsions:
REMARK  status: ('A' for Active; 'I' for Inactive)
REMARK       I    between atoms: C1_2  and  N1_3 
REMARK    1  A    between atoms: C1_2  and  C6_9 
REMARK    2  A    between atoms: C6_9  and  O3_10 
REMARK    3  A    between atoms: N2_14  and  C9_15 
REMARK    4  A    between atoms: C9_15  and  C10_16 
ROOT
HETATM    1  C6  UNL     1      -4.183   1.688  15.155  1.00  0.00     0.141 C 
HETATM    2  C7  UNL     1      -3.588   2.847  14.425  1.00  0.00     0.078 C 
HETATM    3  C8  UNL     1      -4.106   4.182  14.760  1.00  0.00     0.276 C 
HETATM    4  N2  UNL     1      -5.437   4.249  15.268  1.00  0.00     0.089 N 
HETATM    5  C13 UNL     1      -6.150   3.084  14.828  1.00  0.00     0.276 C 
HETATM    6  C14 UNL     1      -5.575   1.941  15.675  1.00  0.00     0.078 C 
ENDROOT
BRANCH   1   7
HETATM    7  C1  UNL     1      -4.277   0.498  14.288  1.00  0.00     0.254 C 
HETATM    8  O1  UNL     1      -4.374  -0.640  14.902  1.00  0.00    -0.270 OA
HETATM    9  N1  UNL     1      -4.276   0.419  12.902  1.00  0.00    -0.345 N 
HETATM   10  C2  UNL     1      -4.176   1.585  12.061  1.00  0.00     0.152 C 
HETATM   11  C5  UNL     1      -4.378  -0.859  12.198  1.00  0.00     0.152 C 
HETATM   12  C3  UNL     1      -4.174   1.086  10.609  1.00  0.00     0.187 C 
HETATM   13  O2  UNL     1      -3.179   0.163  10.390  1.00  0.00    -0.388 OA
HETATM   14  C4  UNL     1      -3.239  -0.943  11.225  1.00  0.00     0.187 C 
ENDBRANCH   1   7
BRANCH   1  15
HETATM   15  O3  UNL     1      -3.387   1.402  16.248  1.00  0.00    -0.380 OA
ATOM     16  H3  UNL     1      -2.591   1.919  16.206  1.00  0.00     0.211 HD
ENDBRANCH   1  15
BRANCH   4  17
HETATM   17  C9  UNL     1      -6.063   5.487  14.963  1.00  0.00     0.277 C 
BRANCH  17  18
HETATM   18  C10 UNL     1      -6.603   5.417  13.545  1.00  0.00     0.014 A 
HETATM   19  C11 UNL     1      -7.382   6.554  12.995  1.00  0.00     0.007 A 
HETATM   20  C12 UNL     1      -5.989   6.273  12.488  1.00  0.00     0.007 A 
ENDBRANCH  17  18
ENDBRANCH   4  17
TORSDOF 4
ENDMDL
MODEL 4
REMARK VINA RESULT: -6.755360419      3.909      6.861
REMARK  4 active torsions:
REMARK  status: ('A' for Active; 'I' for Inactive)
REMARK       I    between atoms: C1_2  and  N1_3 
REMARK    1  A    between atoms: C1_2  and  C6_9 
REMARK    2  A    between atoms: C6_9  and  O3_10 
REMARK    3  A    between atoms: N2_14  and  C9_15 
REMARK    4  A    between atoms: C9_15  and  C10_16 
ROOT
HETATM    1  C6  UNL     1      -3.872   3.850  14.384  1.00  0.00     0.141 C 
HETATM    2  C7  UNL     1      -4.242   5.215  14.864  1.00  0.00     0.078 C 
HETATM    3  C8  UNL     1      -3.516   6.349  14.271  1.00  0.00     0.276 C 
HETATM    4  N2  UNL     1      -2.208   6.085  13.769  1.00  0.00     0.089 N 
HETATM    5  C13 UNL     1      -1.689   4.925  14.436  1.00  0.00     0.276 C 
HETATM    6  C14 UNL     1      -2.473   3.753  13.832  1.00  0.00     0.078 C 
ENDROOT
BRANCH   1   7
HETATM    7  C1  UNL     1      -3.956   2.857  15.473  1.00  0.00     0.254 C 
HETATM    8  O1  UNL     1      -2.826   2.359  15.868  1.00  0.00    -0.270 OA
HETATM    9  N1  UNL     1      -5.075   2.377  16.139  1.00  0.00    -0.345 N 
HETATM   10  C2  UNL     1      -6.410   2.822  15.829  1.00  0.00     0.152 C 
HETATM   11  C5  UNL     1      -4.974   1.382  17.207  1.00  0.00     0.152 C 
HETATM   12  C3  UNL     1      -7.362   2.042  16.747  1.00  0.00     0.187 C 
HETATM   13  O2  UNL     1      -7.192   0.684  16.619  1.00  0.00    -0.388 OA
HETATM   14  C4  UNL     1      -5.899   0.249  16.871  1.00  0.00     0.187 C 
ENDBRANCH   1   7
BRANCH   1  15
HETATM   15  O3  UNL     1      -4.737   3.493  13.366  1.00  0.00    -0.380 OA
ATOM     16  H3  UNL     1      -4.725   2.550  13.254  1.00  0.00     0.211 HD
ENDBRANCH   1  15
BRANCH   4  17
HETATM   17  C9  UNL     1      -1.374   7.233  13.823  1.00  0.00     0.277 C 
BRANCH  17  18
HETATM   18  C10 UNL     1      -1.934   8.185  14.865  1.00  0.00     0.014 A 
HETATM   19  C11 UNL     1      -1.021   8.828  15.844  1.00  0.00     0.007 A 
HETATM   20  C12 UNL     1      -1.653   9.645  14.745  1.00  0.00     0.007 A 
ENDBRANCH  17  18
ENDBRANCH   4  17
TORSDOF 4
ENDMDL
MODEL 5
REMARK VINA RESULT: -6.685223086      1.361      2.051
REMARK  4 active torsions:
REMARK  status: ('A' for Active; 'I' for Inactive)
REMARK       I    between atoms: C1_2  and  N1_3 
REMARK    1  A    between atoms: C1_2  and  C6_9 
REMARK    2  A    between atoms: C6_9  and  O3_10 
REMARK    3  A    between atoms: N2_14  and  C9_15 
REMARK    4  A    between atoms: C9_15  and  C10_16 
ROOT
HETATM    1  C6  UNL     1      -4.328   2.171  12.554  1.00  0.00     0.141 C 
HETATM    2  C7  UNL     1      -4.107   0.845  13.206  1.00  0.00     0.078 C 
HETATM    3  C8  UNL     1      -4.628   0.678  14.571  1.00  0.00     0.276 C 
HETATM    4  N2  UNL     1      -4.764   1.860  15.357  1.00  0.00     0.089 N 
HETATM    5  C13 UNL     1      -3.865   2.854  14.844  1.00  0.00     0.276 C 
HETATM    6  C14 UNL     1      -4.507   3.308  13.527  1.00  0.00     0.078 C 
ENDROOT
BRANCH   1   7
HETATM    7  C1  UNL     1      -3.188   2.541  11.693  1.00  0.00     0.254 C 
HETATM    8  O1  UNL     1      -2.107   1.844  11.859  1.00  0.00    -0.270 OA
HETATM    9  N1  UNL     1      -3.105   3.532  10.724  1.00  0.00    -0.345 N 
HETATM   10  C2  UNL     1      -4.211   4.399  10.407  1.00  0.00     0.152 C 
HETATM   11  C5  UNL     1      -1.882   3.763   9.954  1.00  0.00     0.152 C 
HETATM   12  C3  UNL     1      -3.720   5.369   9.324  1.00  0.00     0.187 C 
HETATM   13  O2  UNL     1      -2.589   6.043   9.721  1.00  0.00    -0.388 OA
HETATM   14  C4  UNL     1      -1.531   5.217  10.072  1.00  0.00     0.187 C 
ENDBRANCH   1   7
BRANCH   1  15
HETATM   15  O3  UNL     1      -5.479   2.101  11.793  1.00  0.00    -0.380 OA
ATOM     16  H3  UNL     1      -6.237   2.242  12.349  1.00  0.00     0.211 HD
ENDBRANCH   1  15
BRANCH   4  17
HETATM   17  C9  UNL     1      -4.637   1.594  16.747  1.00  0.00     0.277 C 
BRANCH  17  18
HETATM   18  C10 UNL     1      -5.937   1.983  17.431  1.00  0.00     0.014 A 
HETATM   19  C11 UNL     1      -6.977   2.721  16.672  1.00  0.00     0.007 A 
HETATM   20  C12 UNL     1      -7.196   1.278  17.054  1.00  0.00     0.007 A 
ENDBRANCH  17  18
ENDBRANCH   4  17
TORSDOF 4
ENDMDL
