MODEL 1
REMARK VINA RESULT: -6.666552452      0.000      0.000
REMARK  3 active torsions:
REMARK  status: ('A' for Active; 'I' for Inactive)
REMARK    1  A    between atoms: N1_3  and  C3_4 
REMARK    2  A    between atoms: N3_14  and  C10_15 
REMARK    3  A    between atoms: C10_15  and  C11_16 
ROOT
HETATM    1  C3  UNL     1      -5.257   2.999  14.203  1.00  0.00     0.320 C 
HETATM    2  C4  UNL     1      -4.992   4.479  14.371  1.00  0.00     0.064 C 
HETATM    3  C5  UNL     1      -3.551   4.738  14.688  1.00  0.00     0.022 C 
HETATM    4  C6  UNL     1      -3.325   6.214  14.878  1.00  0.00     0.237 C 
HETATM    5  N2  UNL     1      -2.522   6.672  13.767  1.00  0.00    -0.074 N 
ATOM      6  H21 UNL     1      -1.541   6.814  14.009  1.00  0.00     0.277 HD
ATOM      7  H22 UNL     1      -2.725   7.633  13.492  1.00  0.00     0.277 HD
HETATM    8  C7  UNL     1      -2.715   5.718  12.699  1.00  0.00     0.239 C 
HETATM    9  C8  UNL     1      -2.766   4.404  13.446  1.00  0.00     0.045 C 
HETATM   10  C9  UNL     1      -3.539   3.423  12.592  1.00  0.00     0.281 C 
HETATM   11  N3  UNL     1      -4.221   2.409  13.389  1.00  0.00     0.112 N 
ENDROOT
BRANCH   1  12
HETATM   12  N1  UNL     1      -5.300   2.446  15.532  1.00  0.00    -0.380 N 
HETATM   13  C2  UNL     1      -4.689   1.192  15.741  1.00  0.00     0.145 C 
HETATM   14  C1  UNL     1      -5.454   0.478  16.867  1.00  0.00     0.187 C 
HETATM   15  O1  UNL     1      -5.603   1.279  17.978  1.00  0.00    -0.388 OA
HETATM   16  C15 UNL     1      -6.265   2.474  17.713  1.00  0.00     0.187 C 
HETATM   17  C14 UNL     1      -6.537   2.612  16.213  1.00  0.00     0.145 C 
ENDBRANCH   1  12
BRANCH  11  18
HETATM   18  C10 UNL     1      -4.760   1.451  12.431  1.00  0.00     0.279 C 
BRANCH  18  19
HETATM   19  C11 UNL     1      -3.681   0.531  11.892  1.00  0.00     0.014 A 
HETATM   20  C12 UNL     1      -4.110  -0.923  11.822  1.00  0.00     0.007 A 
HETATM   21  C13 UNL     1      -3.864  -0.174  10.583  1.00  0.00     0.007 A 
ENDBRANCH  18  19
ENDBRANCH  11  18
TORSDOF 3
ENDMDL
MODEL 2
REMARK VINA RESULT: -6.650116214      2.230      5.177
REMARK  3 active torsions:
REMARK  status: ('A' for Active; 'I' for Inactive)
REMARK    1  A    between atoms: N1_3  and  C3_4 
REMARK    2  A    between atoms: N3_14  and  C10_15 
REMARK    3  A    between atoms: C10_15  and  C11_16 
ROOT
HETATM    1  C3  UNL     1      -4.926   3.240  14.351  1.00  0.00     0.320 C 
HETATM    2  C4  UNL     1      -5.389   2.894  12.952  1.00  0.00     0.064 C 
HETATM    3  C5  UNL     1      -4.244   2.444  12.099  1.00  0.00     0.022 C 
HETATM    4  C6  UNL     1      -4.730   2.137  10.708  1.00  0.00     0.237 C 
HETATM    5  N2  UNL     1      -4.625   0.708  10.522  1.00  0.00    -0.074 N 
ATOM      6  H21 UNL     1      -3.820   0.432   9.959  1.00  0.00     0.277 HD
ATOM      7  H22 UNL     1      -5.345   0.326   9.910  1.00  0.00     0.277 HD
HETATM    8  C7  UNL     1      -4.625   0.120  11.843  1.00  0.00     0.239 C 
HETATM    9  C8  UNL     1      -3.801   1.108  12.635  1.00  0.00     0.045 C 
HETATM   10  C9  UNL     1      -4.200   0.975  14.089  1.00  0.00     0.281 C 
HETATM   11  N3  UNL     1      -4.025   2.218  14.830  1.00  0.00     0.112 N 
ENDROOT
BRANCH   1  12
HETATM   12  N1  UNL     1      -4.298   4.533  14.257  1.00  0.00    -0.380 N 
HETATM   13  C2  UNL     1      -4.949   5.525  13.494  1.00  0.00     0.145 C 
HETATM   14  C1  UNL     1      -3.870   6.445  12.901  1.00  0.00     0.187 C 
HETATM   15  O1  UNL     1      -2.989   6.892  13.861  1.00  0.00    -0.388 OA
HETATM   16  C15 UNL     1      -2.338   5.863  14.535  1.00  0.00     0.187 C 
HETATM   17  C14 UNL     1      -2.886   4.504  14.091  1.00  0.00     0.145 C 
ENDBRANCH   1  12
BRANCH  11  18
HETATM   18  C10 UNL     1      -4.276   1.884  16.227  1.00  0.00     0.279 C 
BRANCH  18  19
HETATM   19  C11 UNL     1      -5.706   2.195  16.628  1.00  0.00     0.014 A 
HETATM   20  C12 UNL     1      -6.463   0.984  17.143  1.00  0.00     0.007 A 
HETATM   21  C13 UNL     1      -6.138   2.086  18.059  1.00  0.00     0.007 A 
ENDBRANCH  18  19
ENDBRANCH  11  18
TORSDOF 3
ENDMDL
MODEL 3
REMARK VINA RESULT: -6.647085606      1.429      4.429
REMARK  3 active torsions:
REMARK  status: ('A' for Active; 'I' for Inactive)
REMARK    1  A    between atoms: N1_3  and  C3_4 
REMARK    2  A    between atoms: N3_14  and  C10_15 
REMARK    3  A    between atoms: C10_15  and  C11_16 
ROOT
HETATM    1  C3  UNL     1      -3.962   2.232  14.789  1.00  0.00     0.320 C 
HETATM    2  C4  UNL     1      -3.828   1.044  13.861  1.00  0.00     0.064 C 
HETATM    3  C5  UNL     1      -4.639   1.235  12.617  1.00  0.00     0.022 C 
HETATM    4  C6  UNL     1      -4.509   0.026  11.729  1.00  0.00     0.237 C 
HETATM    5  N2  UNL     1      -3.760   0.429  10.561  1.00  0.00    -0.074 N 
ATOM      6  H21 UNL     1      -4.344   0.576   9.738  1.00  0.00     0.277 HD
ATOM      7  H22 UNL     1      -3.182  -0.317  10.175  1.00  0.00     0.277 HD
HETATM    8  C7  UNL     1      -3.004   1.601  10.942  1.00  0.00     0.239 C 
HETATM    9  C8  UNL     1      -3.977   2.338  11.832  1.00  0.00     0.045 C 
HETATM   10  C9  UNL     1      -3.171   3.222  12.758  1.00  0.00     0.281 C 
HETATM   11  N3  UNL     1      -3.845   3.456  14.030  1.00  0.00     0.112 N 
ENDROOT
BRANCH   1  12
HETATM   12  N1  UNL     1      -5.244   2.098  15.429  1.00  0.00    -0.380 N 
HETATM   13  C2  UNL     1      -6.128   3.196  15.367  1.00  0.00     0.145 C 
HETATM   14  C1  UNL     1      -6.989   3.179  16.639  1.00  0.00     0.187 C 
HETATM   15  O1  UNL     1      -7.562   1.945  16.858  1.00  0.00    -0.388 OA
HETATM   16  C15 UNL     1      -6.631   0.916  16.968  1.00  0.00     0.187 C 
HETATM   17  C14 UNL     1      -5.220   1.441  16.691  1.00  0.00     0.145 C 
ENDBRANCH   1  12
BRANCH  11  18
HETATM   18  C10 UNL     1      -3.040   4.452  14.726  1.00  0.00     0.279 C 
BRANCH  18  19
HETATM   19  C11 UNL     1      -3.625   5.845  14.578  1.00  0.00     0.014 A 
HETATM   20  C12 UNL     1      -2.581   6.946  14.643  1.00  0.00     0.007 A 
HETATM   21  C13 UNL     1      -3.293   6.688  13.384  1.00  0.00     0.007 A 
ENDBRANCH  18  19
ENDBRANCH  11  18
TORSDOF 3
ENDMDL
MODEL 4
REMARK VINA RESULT: -6.603685587      2.219      5.215
REMARK  3 active torsions:
REMARK  status: ('A' for Active; 'I' for Inactive)
REMARK    1  A    between atoms: N1_3  and  C3_4 
REMARK    2  A    between atoms: N3_14  and  C10_15 
REMARK    3  A    between atoms: C10_15  and  C11_16 
ROOT
HETATM    1  C3  UNL     1      -4.893   3.085  14.010  1.00  0.00     0.320 C 
HETATM    2  C4  UNL     1      -5.258   2.569  12.635  1.00  0.00     0.064 C 
HETATM    3  C5  UNL     1      -4.065   1.989  11.941  1.00  0.00     0.022 C 
HETATM    4  C6  UNL     1      -4.453   1.513  10.566  1.00  0.00     0.237 C 
HETATM    5  N2  UNL     1      -4.376   0.070  10.575  1.00  0.00    -0.074 N 
ATOM      6  H21 UNL     1      -3.539  -0.292  10.117  1.00  0.00     0.277 HD
ATOM      7  H22 UNL     1      -5.058  -0.374   9.961  1.00  0.00     0.277 HD
HETATM    8  C7  UNL     1      -4.494  -0.340  11.955  1.00  0.00     0.239 C 
HETATM    9  C8  UNL     1      -3.704   0.726  12.678  1.00  0.00     0.045 C 
HETATM   10  C9  UNL     1      -4.217   0.791  14.100  1.00  0.00     0.281 C 
HETATM   11  N3  UNL     1      -4.062   2.117  14.687  1.00  0.00     0.112 N 
ENDROOT
BRANCH   1  12
HETATM   12  N1  UNL     1      -4.222   4.342  13.802  1.00  0.00    -0.380 N 
HETATM   13  C2  UNL     1      -3.245   4.729  14.743  1.00  0.00     0.145 C 
HETATM   14  C1  UNL     1      -3.237   6.265  14.807  1.00  0.00     0.187 C 
HETATM   15  O1  UNL     1      -3.138   6.832  13.555  1.00  0.00    -0.388 OA
HETATM   16  C15 UNL     1      -4.165   6.454  12.695  1.00  0.00     0.187 C 
HETATM   17  C14 UNL     1      -5.058   5.404  13.360  1.00  0.00     0.145 C 
ENDBRANCH   1  12
BRANCH  11  18
HETATM   18  C10 UNL     1      -4.428   1.973  16.091  1.00  0.00     0.279 C 
BRANCH  18  19
HETATM   19  C11 UNL     1      -5.908   2.225  16.311  1.00  0.00     0.014 A 
HETATM   20  C12 UNL     1      -6.613   1.087  17.026  1.00  0.00     0.007 A 
HETATM   21  C13 UNL     1      -6.456   2.385  17.697  1.00  0.00     0.007 A 
ENDBRANCH  18  19
ENDBRANCH  11  18
TORSDOF 3
ENDMDL
MODEL 5
REMARK VINA RESULT: -6.552430648      2.022      4.321
REMARK  3 active torsions:
REMARK  status: ('A' for Active; 'I' for Inactive)
REMARK    1  A    between atoms: N1_3  and  C3_4 
REMARK    2  A    between atoms: N3_14  and  C10_15 
REMARK    3  A    between atoms: C10_15  and  C11_16 
ROOT
HETATM    1  C3  UNL     1      -4.192   2.890  14.311  1.00  0.00     0.320 C 
HETATM    2  C4  UNL     1      -2.882   3.638  14.435  1.00  0.00     0.064 C 
HETATM    3  C5  UNL     1      -2.849   4.826  13.524  1.00  0.00     0.022 C 
HETATM    4  C6  UNL     1      -1.525   5.530  13.648  1.00  0.00     0.237 C 
HETATM    5  N2  UNL     1      -1.774   6.803  14.287  1.00  0.00    -0.074 N 
ATOM      6  H21 UNL     1      -1.770   7.589  13.636  1.00  0.00     0.277 HD
ATOM      7  H22 UNL     1      -1.000   7.119  14.871  1.00  0.00     0.277 HD
HETATM    8  C7  UNL     1      -3.017   6.665  15.009  1.00  0.00     0.239 C 
HETATM    9  C8  UNL     1      -3.844   5.818  14.068  1.00  0.00     0.045 C 
HETATM   10  C9  UNL     1      -4.890   5.103  14.896  1.00  0.00     0.281 C 
HETATM   11  N3  UNL     1      -5.289   3.830  14.308  1.00  0.00     0.112 N 
ENDROOT
BRANCH   1  12
HETATM   12  N1  UNL     1      -4.107   2.134  13.088  1.00  0.00    -0.380 N 
HETATM   13  C2  UNL     1      -4.745   2.660  11.945  1.00  0.00     0.145 C 
HETATM   14  C1  UNL     1      -5.196   1.479  11.072  1.00  0.00     0.187 C 
HETATM   15  O1  UNL     1      -4.172   0.585  10.844  1.00  0.00    -0.388 OA
HETATM   16  C15 UNL     1      -3.628   0.060  12.013  1.00  0.00     0.187 C 
HETATM   17  C14 UNL     1      -4.253   0.727  13.240  1.00  0.00     0.145 C 
ENDBRANCH   1  12
BRANCH  11  18
HETATM   18  C10 UNL     1      -6.410   3.358  15.111  1.00  0.00     0.279 C 
BRANCH  18  19
HETATM   19  C11 UNL     1      -5.973   2.318  16.126  1.00  0.00     0.014 A 
HETATM   20  C12 UNL     1      -6.453   2.613  17.536  1.00  0.00     0.007 A 
HETATM   21  C13 UNL     1      -6.984   1.450  16.812  1.00  0.00     0.007 A 
ENDBRANCH  18  19
ENDBRANCH  11  18
TORSDOF 3
ENDMDL
