MODEL 1
REMARK VINA RESULT: -7.066540247      0.000      0.000
REMARK  9 active torsions:
REMARK  status: ('A' for Active; 'I' for Inactive)
REMARK    1  A    between atoms: N1_1  and  C1_4 
REMARK    2  A    between atoms: C2_7  and  C3_8 
REMARK    3  A    between atoms: C3_8  and  N3_9 
REMARK    4  A    between atoms: N3_9  and  C4_11 
REMARK    5  A    between atoms: C4_11  and  O1_12 
REMARK    6  A    between atoms: C4_11  and  C5_14 
REMARK    7  A    between atoms: C5_14  and  N4_15 
REMARK    8  A    between atoms: C8_23  and  N7_24 
REMARK    9  A    between atoms: C10_30  and  C11_31 
ROOT
HETATM    1  N3  UNL     1     -11.975  -1.912  -2.219  1.00  0.00    -0.389 N 
ATOM      2  H3  UNL     1     -11.667  -2.418  -3.049  1.00  0.00     0.156 HD
ENDROOT
BRANCH   1   3
HETATM    3  C3  UNL     1     -12.742  -0.709  -2.299  1.00  0.00     0.193 C 
BRANCH   3   4
HETATM    4  C2  UNL     1     -12.661  -0.227  -3.715  1.00  0.00     0.100 A 
HETATM    5  N2  UNL     1     -13.068  -0.987  -4.743  1.00  0.00    -0.330 N 
HETATM    6  C1  UNL     1     -13.004  -0.562  -6.043  1.00  0.00     0.115 A 
ATOM      7  H2  UNL     1     -13.440  -1.917  -4.548  1.00  0.00     0.168 HD
HETATM    8  C10 UNL     1     -12.508   0.685  -6.340  1.00  0.00     0.060 A 
HETATM    9  C9  UNL     1     -12.088   1.460  -5.257  1.00  0.00     0.107 A 
HETATM   10  N8  UNL     1     -12.174   0.995  -3.996  1.00  0.00    -0.353 N 
ATOM     11  H8  UNL     1     -11.859   1.589  -3.229  1.00  0.00     0.166 HD
BRANCH   6  12
HETATM   12  N1  UNL     1     -13.410  -1.339  -6.967  1.00  0.00    -0.385 N 
ATOM     13  H12 UNL     1     -14.077  -2.085  -6.766  1.00  0.00     0.157 HD
ATOM     14  H11 UNL     1     -13.059  -1.205  -7.915  1.00  0.00     0.157 HD
ENDBRANCH   6  12
BRANCH   8  15
HETATM   15  C11 UNL     1     -12.410   1.203  -7.702  1.00  0.00     0.275 C 
HETATM   16  O3  UNL     1     -11.546   0.794  -8.517  1.00  0.00    -0.301 OA
ENDBRANCH   8  15
ENDBRANCH   3   4
ENDBRANCH   1   3
BRANCH   1  17
HETATM   17  C4  UNL     1     -11.667  -2.359  -0.892  1.00  0.00     0.234 C 
BRANCH  17  18
HETATM   18  O1  UNL     1     -11.865  -3.718  -0.774  1.00  0.00    -0.375 OA
ATOM     19  H1  UNL     1     -11.789  -3.994   0.132  1.00  0.00     0.212 HD
ENDBRANCH  17  18
BRANCH  17  20
HETATM   20  C5  UNL     1     -10.257  -2.013  -0.500  1.00  0.00     0.221 C 
BRANCH  20  21
HETATM   21  N4  UNL     1      -9.387  -1.734  -1.625  1.00  0.00    -0.120 N 
HETATM   22  N5  UNL     1      -9.170  -0.519  -2.060  1.00  0.00    -0.290 N 
HETATM   23  C6  UNL     1      -8.371  -0.305  -3.107  1.00  0.00     0.182 A 
ATOM     24  H5  UNL     1      -9.617   0.272  -1.595  1.00  0.00     0.187 HD
HETATM   25  C7  UNL     1      -7.750  -1.355  -3.756  1.00  0.00     0.276 A 
HETATM   26  O2  UNL     1      -6.989  -1.205  -4.745  1.00  0.00    -0.266 OA
HETATM   27  N6  UNL     1      -7.983  -2.587  -3.298  1.00  0.00    -0.154 N 
HETATM   28  C8  UNL     1      -8.792  -2.787  -2.242  1.00  0.00     0.695 A 
ATOM     29  H6  UNL     1      -7.542  -3.387  -3.753  1.00  0.00     0.187 HD
BRANCH  28  30
HETATM   30  N7  UNL     1      -9.000  -4.000  -1.792  1.00  0.00    -0.233 N 
ATOM     31  H72 UNL     1      -9.235  -4.753  -2.438  1.00  0.00     0.174 HD
ATOM     32  H71 UNL     1      -8.915  -4.186  -0.793  1.00  0.00     0.174 HD
ENDBRANCH  28  30
ENDBRANCH  20  21
ENDBRANCH  17  20
ENDBRANCH   1  17
TORSDOF 9
ENDMDL
MODEL 2
REMARK VINA RESULT: -6.895790568      1.299      1.551
REMARK  9 active torsions:
REMARK  status: ('A' for Active; 'I' for Inactive)
REMARK    1  A    between atoms: N1_1  and  C1_4 
REMARK    2  A    between atoms: C2_7  and  C3_8 
REMARK    3  A    between atoms: C3_8  and  N3_9 
REMARK    4  A    between atoms: N3_9  and  C4_11 
REMARK    5  A    between atoms: C4_11  and  O1_12 
REMARK    6  A    between atoms: C4_11  and  C5_14 
REMARK    7  A    between atoms: C5_14  and  N4_15 
REMARK    8  A    between atoms: C8_23  and  N7_24 
REMARK    9  A    between atoms: C10_30  and  C11_31 
ROOT
HETATM    1  N3  UNL     1     -10.779  -0.488  -0.466  1.00  0.00    -0.389 N 
ATOM      2  H3  UNL     1     -10.008   0.104  -0.772  1.00  0.00     0.156 HD
ENDROOT
BRANCH   1   3
HETATM    3  C3  UNL     1     -12.144  -0.168  -0.745  1.00  0.00     0.193 C 
BRANCH   3   4
HETATM    4  C2  UNL     1     -12.301  -0.158  -2.234  1.00  0.00     0.100 A 
HETATM    5  N2  UNL     1     -11.865  -1.173  -2.996  1.00  0.00    -0.330 N 
HETATM    6  C1  UNL     1     -12.002  -1.182  -4.358  1.00  0.00     0.115 A 
ATOM      7  H2  UNL     1     -11.414  -1.968  -2.542  1.00  0.00     0.168 HD
HETATM    8  C10 UNL     1     -12.602  -0.126  -5.000  1.00  0.00     0.060 A 
HETATM    9  C9  UNL     1     -13.048   0.920  -4.191  1.00  0.00     0.107 A 
HETATM   10  N8  UNL     1     -12.890   0.879  -2.854  1.00  0.00    -0.353 N 
ATOM     11  H8  UNL     1     -13.229   1.661  -2.294  1.00  0.00     0.166 HD
BRANCH   6  12
HETATM   12  N1  UNL     1     -11.564  -2.182  -5.016  1.00  0.00    -0.385 N 
ATOM     13  H12 UNL     1     -10.735  -2.689  -4.704  1.00  0.00     0.157 HD
ATOM     14  H11 UNL     1     -12.055  -2.469  -5.862  1.00  0.00     0.157 HD
ENDBRANCH   6  12
BRANCH   8  15
HETATM   15  C11 UNL     1     -12.782  -0.069  -6.449  1.00  0.00     0.275 C 
HETATM   16  O3  UNL     1     -11.831   0.166  -7.236  1.00  0.00    -0.301 OA
ENDBRANCH   8  15
ENDBRANCH   3   4
ENDBRANCH   1   3
BRANCH   1  17
HETATM   17  C4  UNL     1     -10.568  -1.699   0.272  1.00  0.00     0.234 C 
BRANCH  17  18
HETATM   18  O1  UNL     1     -11.435  -2.686  -0.146  1.00  0.00    -0.375 OA
ATOM     19  H1  UNL     1     -12.260  -2.313  -0.433  1.00  0.00     0.212 HD
ENDBRANCH  17  18
BRANCH  17  20
HETATM   20  C5  UNL     1      -9.149  -2.182   0.156  1.00  0.00     0.221 C 
BRANCH  20  21
HETATM   21  N4  UNL     1      -8.502  -1.809  -1.086  1.00  0.00    -0.120 N 
HETATM   22  N5  UNL     1      -7.842  -0.687  -1.223  1.00  0.00    -0.290 N 
HETATM   23  C6  UNL     1      -7.269  -0.374  -2.387  1.00  0.00     0.182 A 
ATOM     24  H5  UNL     1      -7.764  -0.046  -0.433  1.00  0.00     0.187 HD
HETATM   25  C7  UNL     1      -7.355  -1.223  -3.475  1.00  0.00     0.276 A 
HETATM   26  O2  UNL     1      -6.833  -0.974  -4.590  1.00  0.00    -0.266 OA
HETATM   27  N6  UNL     1      -8.032  -2.363  -3.315  1.00  0.00    -0.154 N 
HETATM   28  C8  UNL     1      -8.604  -2.664  -2.135  1.00  0.00     0.695 A 
ATOM     29  H6  UNL     1      -8.117  -3.013  -4.096  1.00  0.00     0.187 HD
BRANCH  28  30
HETATM   30  N7  UNL     1      -9.253  -3.792  -1.987  1.00  0.00    -0.233 N 
ATOM     31  H72 UNL     1     -10.154  -3.929  -2.444  1.00  0.00     0.174 HD
ATOM     32  H71 UNL     1      -8.845  -4.535  -1.421  1.00  0.00     0.174 HD
ENDBRANCH  28  30
ENDBRANCH  20  21
ENDBRANCH  17  20
ENDBRANCH   1  17
TORSDOF 9
ENDMDL
MODEL 3
REMARK VINA RESULT: -6.779182097      2.209      4.867
REMARK  9 active torsions:
REMARK  status: ('A' for Active; 'I' for Inactive)
REMARK    1  A    between atoms: N1_1  and  C1_4 
REMARK    2  A    between atoms: C2_7  and  C3_8 
REMARK    3  A    between atoms: C3_8  and  N3_9 
REMARK    4  A    between atoms: N3_9  and  C4_11 
REMARK    5  A    between atoms: C4_11  and  O1_12 
REMARK    6  A    between atoms: C4_11  and  C5_14 
REMARK    7  A    between atoms: C5_14  and  N4_15 
REMARK    8  A    between atoms: C8_23  and  N7_24 
REMARK    9  A    between atoms: C10_30  and  C11_31 
ROOT
HETATM    1  N3  UNL     1      -9.982  -0.758   0.351  1.00  0.00    -0.389 N 
ATOM      2  H3  UNL     1      -9.352  -1.538   0.539  1.00  0.00     0.156 HD
ENDROOT
BRANCH   1   3
HETATM    3  C3  UNL     1      -9.507   0.520  -0.077  1.00  0.00     0.193 C 
BRANCH   3   4
HETATM    4  C2  UNL     1      -8.469   0.277  -1.129  1.00  0.00     0.100 A 
HETATM    5  N2  UNL     1      -8.308  -0.929  -1.695  1.00  0.00    -0.330 N 
HETATM    6  C1  UNL     1      -7.366  -1.169  -2.659  1.00  0.00     0.115 A 
ATOM      7  H2  UNL     1      -8.911  -1.696  -1.396  1.00  0.00     0.168 HD
HETATM    8  C10 UNL     1      -6.537  -0.159  -3.084  1.00  0.00     0.060 A 
HETATM    9  C9  UNL     1      -6.719   1.087  -2.482  1.00  0.00     0.107 A 
HETATM   10  N8  UNL     1      -7.662   1.271  -1.538  1.00  0.00    -0.353 N 
ATOM     11  H8  UNL     1      -7.768   2.196  -1.121  1.00  0.00     0.166 HD
BRANCH   6  12
HETATM   12  N1  UNL     1      -7.272  -2.340  -3.152  1.00  0.00    -0.385 N 
ATOM     13  H12 UNL     1      -7.149  -3.153  -2.548  1.00  0.00     0.157 HD
ATOM     14  H11 UNL     1      -7.322  -2.455  -4.165  1.00  0.00     0.157 HD
ENDBRANCH   6  12
BRANCH   8  15
HETATM   15  C11 UNL     1      -5.511  -0.343  -4.107  1.00  0.00     0.275 C 
HETATM   16  O3  UNL     1      -5.719  -0.998  -5.159  1.00  0.00    -0.301 OA
ENDBRANCH   8  15
ENDBRANCH   3   4
ENDBRANCH   1   3
BRANCH   1  17
HETATM   17  C4  UNL     1     -11.404  -0.870   0.498  1.00  0.00     0.234 C 
BRANCH  17  18
HETATM   18  O1  UNL     1     -12.015   0.350   0.304  1.00  0.00    -0.375 OA
ATOM     19  H1  UNL     1     -12.828   0.403   0.793  1.00  0.00     0.212 HD
ENDBRANCH  17  18
BRANCH  17  20
HETATM   20  C5  UNL     1     -11.984  -1.887  -0.445  1.00  0.00     0.221 C 
BRANCH  20  21
HETATM   21  N4  UNL     1     -11.907  -1.503  -1.841  1.00  0.00    -0.120 N 
HETATM   22  N5  UNL     1     -12.533  -0.457  -2.317  1.00  0.00    -0.290 N 
HETATM   23  C6  UNL     1     -12.446  -0.143  -3.611  1.00  0.00     0.182 A 
ATOM     24  H5  UNL     1     -13.093   0.125  -1.692  1.00  0.00     0.187 HD
HETATM   25  C7  UNL     1     -11.694  -0.910  -4.481  1.00  0.00     0.276 A 
HETATM   26  O2  UNL     1     -11.581  -0.656  -5.706  1.00  0.00    -0.266 OA
HETATM   27  N6  UNL     1     -11.063  -1.973  -3.977  1.00  0.00    -0.154 N 
HETATM   28  C8  UNL     1     -11.161  -2.276  -2.671  1.00  0.00     0.695 A 
ATOM     29  H6  UNL     1     -10.499  -2.563  -4.590  1.00  0.00     0.187 HD
BRANCH  28  30
HETATM   30  N7  UNL     1     -10.524  -3.314  -2.186  1.00  0.00    -0.233 N 
ATOM     31  H72 UNL     1     -11.033  -4.035  -1.675  1.00  0.00     0.174 HD
ATOM     32  H71 UNL     1      -9.518  -3.399  -2.332  1.00  0.00     0.174 HD
ENDBRANCH  28  30
ENDBRANCH  20  21
ENDBRANCH  17  20
ENDBRANCH   1  17
TORSDOF 9
ENDMDL
MODEL 4
REMARK VINA RESULT: -6.671184762      3.173      3.930
REMARK  9 active torsions:
REMARK  status: ('A' for Active; 'I' for Inactive)
REMARK    1  A    between atoms: N1_1  and  C1_4 
REMARK    2  A    between atoms: C2_7  and  C3_8 
REMARK    3  A    between atoms: C3_8  and  N3_9 
REMARK    4  A    between atoms: N3_9  and  C4_11 
REMARK    5  A    between atoms: C4_11  and  O1_12 
REMARK    6  A    between atoms: C4_11  and  C5_14 
REMARK    7  A    between atoms: C5_14  and  N4_15 
REMARK    8  A    between atoms: C8_23  and  N7_24 
REMARK    9  A    between atoms: C10_30  and  C11_31 
ROOT
HETATM    1  N3  UNL     1     -10.754  -0.731   0.641  1.00  0.00    -0.389 N 
ATOM      2  H3  UNL     1     -10.926  -0.378   1.582  1.00  0.00     0.156 HD
ENDROOT
BRANCH   1   3
HETATM    3  C3  UNL     1     -11.601  -1.700   0.023  1.00  0.00     0.193 C 
BRANCH   3   4
HETATM    4  C2  UNL     1     -12.821  -0.978  -0.460  1.00  0.00     0.100 A 
HETATM    5  N2  UNL     1     -13.363  -1.234  -1.661  1.00  0.00    -0.330 N 
HETATM    6  C1  UNL     1     -14.479  -0.585  -2.117  1.00  0.00     0.115 A 
ATOM      7  H2  UNL     1     -12.927  -1.939  -2.256  1.00  0.00     0.168 HD
HETATM    8  C10 UNL     1     -15.090   0.371  -1.342  1.00  0.00     0.060 A 
HETATM    9  C9  UNL     1     -14.511   0.623  -0.097  1.00  0.00     0.107 A 
HETATM   10  N8  UNL     1     -13.413  -0.044   0.306  1.00  0.00    -0.353 N 
ATOM     11  H8  UNL     1     -13.017   0.165   1.222  1.00  0.00     0.166 HD
BRANCH   6  12
HETATM   12  N1  UNL     1     -14.937  -0.882  -3.269  1.00  0.00    -0.385 N 
ATOM     13  H12 UNL     1     -14.709  -0.313  -4.084  1.00  0.00     0.157 HD
ATOM     14  H11 UNL     1     -15.539  -1.699  -3.364  1.00  0.00     0.157 HD
ENDBRANCH   6  12
BRANCH   8  15
HETATM   15  C11 UNL     1     -16.282   1.101  -1.765  1.00  0.00     0.275 C 
HETATM   16  O3  UNL     1     -17.423   0.575  -1.785  1.00  0.00    -0.301 OA
ENDBRANCH   8  15
ENDBRANCH   3   4
ENDBRANCH   1   3
BRANCH   1  17
HETATM   17  C4  UNL     1      -9.643  -0.288  -0.151  1.00  0.00     0.234 C 
BRANCH  17  18
HETATM   18  O1  UNL     1      -8.995   0.766   0.458  1.00  0.00    -0.375 OA
ATOM     19  H1  UNL     1      -8.053   0.661   0.404  1.00  0.00     0.212 HD
ENDBRANCH  17  18
BRANCH  17  20
HETATM   20  C5  UNL     1      -8.668  -1.402  -0.416  1.00  0.00     0.221 C 
BRANCH  20  21
HETATM   21  N4  UNL     1      -8.194  -1.452  -1.785  1.00  0.00    -0.120 N 
HETATM   22  N5  UNL     1      -7.534  -0.465  -2.336  1.00  0.00    -0.290 N 
HETATM   23  C6  UNL     1      -7.124  -0.546  -3.603  1.00  0.00     0.182 A 
ATOM     24  H5  UNL     1      -7.331   0.374  -1.792  1.00  0.00     0.187 HD
HETATM   25  C7  UNL     1      -7.383  -1.670  -4.366  1.00  0.00     0.276 A 
HETATM   26  O2  UNL     1      -7.018  -1.793  -5.561  1.00  0.00    -0.266 OA
HETATM   27  N6  UNL     1      -8.057  -2.666  -3.786  1.00  0.00    -0.154 N 
HETATM   28  C8  UNL     1      -8.463  -2.570  -2.508  1.00  0.00     0.695 A 
ATOM     29  H6  UNL     1      -8.265  -3.511  -4.319  1.00  0.00     0.187 HD
BRANCH  28  30
HETATM   30  N7  UNL     1      -9.110  -3.560  -1.946  1.00  0.00    -0.233 N 
ATOM     31  H72 UNL     1      -9.489  -3.457  -1.005  1.00  0.00     0.174 HD
ATOM     32  H71 UNL     1      -9.241  -4.431  -2.461  1.00  0.00     0.174 HD
ENDBRANCH  28  30
ENDBRANCH  20  21
ENDBRANCH  17  20
ENDBRANCH   1  17
TORSDOF 9
ENDMDL
MODEL 5
REMARK VINA RESULT: -6.649231300      1.889      2.237
REMARK  9 active torsions:
REMARK  status: ('A' for Active; 'I' for Inactive)
REMARK    1  A    between atoms: N1_1  and  C1_4 
REMARK    2  A    between atoms: C2_7  and  C3_8 
REMARK    3  A    between atoms: C3_8  and  N3_9 
REMARK    4  A    between atoms: N3_9  and  C4_11 
REMARK    5  A    between atoms: C4_11  and  O1_12 
REMARK    6  A    between atoms: C4_11  and  C5_14 
REMARK    7  A    between atoms: C5_14  and  N4_15 
REMARK    8  A    between atoms: C8_23  and  N7_24 
REMARK    9  A    between atoms: C10_30  and  C11_31 
ROOT
HETATM    1  N3  UNL     1     -11.960  -1.595  -2.624  1.00  0.00    -0.389 N 
ATOM      2  H3  UNL     1     -11.523  -2.031  -3.435  1.00  0.00     0.156 HD
ENDROOT
BRANCH   1   3
HETATM    3  C3  UNL     1     -12.788  -0.435  -2.736  1.00  0.00     0.193 C 
BRANCH   3   4
HETATM    4  C2  UNL     1     -13.743  -0.681  -3.864  1.00  0.00     0.100 A 
HETATM    5  N2  UNL     1     -13.313  -0.968  -5.102  1.00  0.00    -0.330 N 
HETATM    6  C1  UNL     1     -14.171  -1.197  -6.144  1.00  0.00     0.115 A 
ATOM      7  H2  UNL     1     -12.308  -1.018  -5.273  1.00  0.00     0.168 HD
HETATM    8  C10 UNL     1     -15.530  -1.137  -5.948  1.00  0.00     0.060 A 
HETATM    9  C9  UNL     1     -15.957  -0.835  -4.654  1.00  0.00     0.107 A 
HETATM   10  N8  UNL     1     -15.071  -0.620  -3.663  1.00  0.00    -0.353 N 
ATOM     11  H8  UNL     1     -15.419  -0.403  -2.729  1.00  0.00     0.166 HD
BRANCH   6  12
HETATM   12  N1  UNL     1     -13.689  -1.466  -7.292  1.00  0.00    -0.385 N 
ATOM     13  H12 UNL     1     -12.683  -1.427  -7.458  1.00  0.00     0.157 HD
ATOM     14  H11 UNL     1     -14.325  -1.722  -8.047  1.00  0.00     0.157 HD
ENDBRANCH   6  12
BRANCH   8  15
HETATM   15  C11 UNL     1     -16.502  -1.370  -7.013  1.00  0.00     0.275 C 
HETATM   16  O3  UNL     1     -16.581  -2.465  -7.625  1.00  0.00    -0.301 OA
ENDBRANCH   8  15
ENDBRANCH   3   4
ENDBRANCH   1   3
BRANCH   1  17
HETATM   17  C4  UNL     1     -11.786  -2.102  -1.295  1.00  0.00     0.234 C 
BRANCH  17  18
HETATM   18  O1  UNL     1     -12.073  -3.449  -1.242  1.00  0.00    -0.375 OA
ATOM     19  H1  UNL     1     -11.328  -3.942  -0.920  1.00  0.00     0.212 HD
ENDBRANCH  17  18
BRANCH  17  20
HETATM   20  C5  UNL     1     -10.395  -1.856  -0.781  1.00  0.00     0.221 C 
BRANCH  20  21
HETATM   21  N4  UNL     1      -9.421  -1.601  -1.825  1.00  0.00    -0.120 N 
HETATM   22  N5  UNL     1      -9.122  -0.391  -2.224  1.00  0.00    -0.290 N 
HETATM   23  C6  UNL     1      -8.228  -0.199  -3.196  1.00  0.00     0.182 A 
ATOM     24  H5  UNL     1      -9.576   0.412  -1.789  1.00  0.00     0.187 HD
HETATM   25  C7  UNL     1      -7.595  -1.267  -3.804  1.00  0.00     0.276 A 
HETATM   26  O2  UNL     1      -6.747  -1.137  -4.722  1.00  0.00    -0.266 OA
HETATM   27  N6  UNL     1      -7.914  -2.493  -3.383  1.00  0.00    -0.154 N 
HETATM   28  C8  UNL     1      -8.817  -2.671  -2.402  1.00  0.00     0.695 A 
ATOM     29  H6  UNL     1      -7.467  -3.305  -3.809  1.00  0.00     0.187 HD
BRANCH  28  30
HETATM   30  N7  UNL     1      -9.109  -3.879  -1.988  1.00  0.00    -0.233 N 
ATOM     31  H72 UNL     1      -9.599  -4.527  -2.603  1.00  0.00     0.174 HD
ATOM     32  H71 UNL     1      -8.834  -4.167  -1.049  1.00  0.00     0.174 HD
ENDBRANCH  28  30
ENDBRANCH  20  21
ENDBRANCH  17  20
ENDBRANCH   1  17
TORSDOF 9
ENDMDL
