MODEL 1
REMARK VINA RESULT: -6.473642147      0.000      0.000
REMARK  8 active torsions:
REMARK  status: ('A' for Active; 'I' for Inactive)
REMARK    1  A    between atoms: C2_3  and  N2_4 
REMARK    2  A    between atoms: C2_3  and  O1_8 
REMARK    3  A    between atoms: O1_8  and  C3_9 
REMARK    4  A    between atoms: C3_9  and  C4_11 
REMARK    5  A    between atoms: C4_11  and  C5_12 
REMARK    6  A    between atoms: C4_11  and  C7_18 
REMARK       I    between atoms: C5_12  and  N3_14 
REMARK    7  A    between atoms: N3_14  and  C6_16 
REMARK    8  A    between atoms: C8_19  and  O5_20 
ROOT
HETATM    1  N1  UNL     1     -13.481  -0.829  -0.361  1.00  0.00    -0.193 NA
HETATM    2  C1  UNL     1     -12.494  -1.385  -0.208  1.00  0.00     0.121 C 
HETATM    3  C2  UNL     1     -11.239  -2.113   0.004  1.00  0.00     0.434 C 
ENDROOT
BRANCH   3   4
HETATM    4  N2  UNL     1     -10.129  -1.230   0.229  1.00  0.00    -0.039 N 
ATOM      5  H23 UNL     1      -9.284  -1.578  -0.224  1.00  0.00     0.278 HD
ATOM      6  H22 UNL     1     -10.242  -0.357  -0.286  1.00  0.00     0.278 HD
ATOM      7  H21 UNL     1      -9.969  -1.054   1.221  1.00  0.00     0.278 HD
ENDBRANCH   3   4
BRANCH   3   8
HETATM    8  O1  UNL     1     -10.954  -2.952  -1.125  1.00  0.00    -0.270 OA
BRANCH   8   9
HETATM    9  C3  UNL     1      -9.679  -2.953  -1.726  1.00  0.00     0.304 C 
HETATM   10  O2  UNL     1      -8.783  -3.483  -1.026  1.00  0.00    -0.259 OA
BRANCH   9  11
HETATM   11  C4  UNL     1      -9.416  -2.389  -3.054  1.00  0.00     0.139 C 
BRANCH  11  12
HETATM   12  C5  UNL     1      -8.108  -1.733  -3.128  1.00  0.00     0.266 C 
HETATM   13  O3  UNL     1      -7.473  -1.909  -4.236  1.00  0.00    -0.267 OA
HETATM   14  N3  UNL     1      -7.479  -0.948  -2.150  1.00  0.00    -0.300 N 
ATOM     15  H3  UNL     1      -7.934  -0.782  -1.253  1.00  0.00     0.171 HD
BRANCH  14  16
HETATM   16  C6  UNL     1      -6.185  -0.378  -2.427  1.00  0.00     0.355 C 
HETATM   17  O4  UNL     1      -5.786   0.686  -1.936  1.00  0.00    -0.283 OA
ENDBRANCH  14  16
ENDBRANCH  11  12
BRANCH  11  18
HETATM   18  C7  UNL     1     -10.525  -1.735  -3.741  1.00  0.00     0.121 A 
HETATM   19  C8  UNL     1     -10.908  -0.514  -3.455  1.00  0.00     0.172 A 
HETATM   20  N4  UNL     1     -11.995   0.152  -4.105  1.00  0.00    -0.311 N 
HETATM   21  C9  UNL     1     -12.747  -0.487  -5.123  1.00  0.00     0.192 A 
ATOM     22  H4  UNL     1     -12.234   1.105  -3.831  1.00  0.00     0.170 HD
HETATM   23  S1  UNL     1     -13.992   0.244  -5.883  1.00  0.00    -0.039 SA
HETATM   24  N5  UNL     1     -12.348  -1.820  -5.447  1.00  0.00    -0.276 N 
HETATM   25  N6  UNL     1     -11.277  -2.404  -4.773  1.00  0.00    -0.293 N 
ATOM     26  H5  UNL     1     -12.844  -2.342  -6.169  1.00  0.00     0.189 HD
ATOM     27  H6  UNL     1     -11.011  -3.356  -5.024  1.00  0.00     0.187 HD
BRANCH  19  28
HETATM   28  O5  UNL     1     -10.258   0.203  -2.482  1.00  0.00    -0.344 OA
ATOM     29  H5  UNL     1     -10.198  -0.137  -1.598  1.00  0.00     0.219 HD
ENDBRANCH  19  28
ENDBRANCH  11  18
ENDBRANCH   9  11
ENDBRANCH   8   9
ENDBRANCH   3   8
TORSDOF 8
ENDMDL
MODEL 2
REMARK VINA RESULT: -6.458009392      1.584      1.928
REMARK  8 active torsions:
REMARK  status: ('A' for Active; 'I' for Inactive)
REMARK    1  A    between atoms: C2_3  and  N2_4 
REMARK    2  A    between atoms: C2_3  and  O1_8 
REMARK    3  A    between atoms: O1_8  and  C3_9 
REMARK    4  A    between atoms: C3_9  and  C4_11 
REMARK    5  A    between atoms: C4_11  and  C5_12 
REMARK    6  A    between atoms: C4_11  and  C7_18 
REMARK       I    between atoms: C5_12  and  N3_14 
REMARK    7  A    between atoms: N3_14  and  C6_16 
REMARK    8  A    between atoms: C8_19  and  O5_20 
ROOT
HETATM    1  N1  UNL     1     -12.486  -0.026   0.409  1.00  0.00    -0.193 NA
HETATM    2  C1  UNL     1     -11.725  -0.878   0.398  1.00  0.00     0.121 C 
HETATM    3  C2  UNL     1     -10.762  -1.984   0.401  1.00  0.00     0.434 C 
ENDROOT
BRANCH   3   4
HETATM    4  N2  UNL     1      -9.408  -1.526   0.544  1.00  0.00    -0.039 N 
ATOM      5  H23 UNL     1      -9.351  -0.512   0.455  1.00  0.00     0.278 HD
ATOM      6  H22 UNL     1      -9.085  -1.623   1.507  1.00  0.00     0.278 HD
ATOM      7  H21 UNL     1      -8.772  -1.990  -0.105  1.00  0.00     0.278 HD
ENDBRANCH   3   4
BRANCH   3   8
HETATM    8  O1  UNL     1     -10.877  -2.746  -0.810  1.00  0.00    -0.270 OA
BRANCH   8   9
HETATM    9  C3  UNL     1      -9.797  -2.847  -1.711  1.00  0.00     0.304 C 
HETATM   10  O2  UNL     1      -8.945  -3.711  -1.395  1.00  0.00    -0.259 OA
BRANCH   9  11
HETATM   11  C4  UNL     1      -9.676  -2.019  -2.915  1.00  0.00     0.139 C 
BRANCH  11  12
HETATM   12  C5  UNL     1      -8.367  -1.368  -3.011  1.00  0.00     0.266 C 
HETATM   13  O3  UNL     1      -8.092  -0.557  -2.047  1.00  0.00    -0.267 OA
HETATM   14  N3  UNL     1      -7.396  -1.524  -4.011  1.00  0.00    -0.300 N 
ATOM     15  H3  UNL     1      -7.566  -2.148  -4.800  1.00  0.00     0.171 HD
BRANCH  14  16
HETATM   16  C6  UNL     1      -6.157  -0.795  -3.913  1.00  0.00     0.355 C 
HETATM   17  O4  UNL     1      -5.332  -0.722  -4.831  1.00  0.00    -0.283 OA
ENDBRANCH  14  16
ENDBRANCH  11  12
BRANCH  11  18
HETATM   18  C7  UNL     1     -10.839  -1.231  -3.312  1.00  0.00     0.121 A 
HETATM   19  C8  UNL     1     -11.583  -1.547  -4.345  1.00  0.00     0.172 A 
HETATM   20  N4  UNL     1     -12.724  -0.792  -4.764  1.00  0.00    -0.311 N 
HETATM   21  C9  UNL     1     -13.129   0.377  -4.072  1.00  0.00     0.192 A 
ATOM     22  H4  UNL     1     -13.257  -1.101  -5.578  1.00  0.00     0.170 HD
HETATM   23  S1  UNL     1     -14.424   1.259  -4.524  1.00  0.00    -0.039 SA
HETATM   24  N5  UNL     1     -12.329   0.739  -2.945  1.00  0.00    -0.276 N 
HETATM   25  N6  UNL     1     -11.233  -0.045  -2.594  1.00  0.00    -0.293 N 
ATOM     26  H5  UNL     1     -12.560   1.569  -2.399  1.00  0.00     0.189 HD
ATOM     27  H6  UNL     1     -10.678   0.235  -1.785  1.00  0.00     0.187 HD
BRANCH  19  28
HETATM   28  O5  UNL     1     -11.285  -2.656  -5.096  1.00  0.00    -0.344 OA
ATOM     29  H5  UNL     1     -11.094  -2.568  -6.022  1.00  0.00     0.219 HD
ENDBRANCH  19  28
ENDBRANCH  11  18
ENDBRANCH   9  11
ENDBRANCH   8   9
ENDBRANCH   3   8
TORSDOF 8
ENDMDL
MODEL 3
REMARK VINA RESULT: -6.205234540      2.530      4.604
REMARK  8 active torsions:
REMARK  status: ('A' for Active; 'I' for Inactive)
REMARK    1  A    between atoms: C2_3  and  N2_4 
REMARK    2  A    between atoms: C2_3  and  O1_8 
REMARK    3  A    between atoms: O1_8  and  C3_9 
REMARK    4  A    between atoms: C3_9  and  C4_11 
REMARK    5  A    between atoms: C4_11  and  C5_12 
REMARK    6  A    between atoms: C4_11  and  C7_18 
REMARK       I    between atoms: C5_12  and  N3_14 
REMARK    7  A    between atoms: N3_14  and  C6_16 
REMARK    8  A    between atoms: C8_19  and  O5_20 
ROOT
HETATM    1  N1  UNL     1      -8.987  -2.614  -0.045  1.00  0.00    -0.193 NA
HETATM    2  C1  UNL     1      -9.089  -2.590  -1.182  1.00  0.00     0.121 C 
HETATM    3  C2  UNL     1      -9.235  -2.577  -2.641  1.00  0.00     0.434 C 
ENDROOT
BRANCH   3   4
HETATM    4  N2  UNL     1      -7.967  -2.542  -3.316  1.00  0.00    -0.039 N 
ATOM      5  H23 UNL     1      -8.066  -2.194  -4.269  1.00  0.00     0.278 HD
ATOM      6  H22 UNL     1      -7.368  -1.809  -2.937  1.00  0.00     0.278 HD
ATOM      7  H21 UNL     1      -7.496  -3.447  -3.300  1.00  0.00     0.278 HD
ENDBRANCH   3   4
BRANCH   3   8
HETATM    8  O1  UNL     1     -10.019  -1.447  -3.052  1.00  0.00    -0.270 OA
BRANCH   8   9
HETATM    9  C3  UNL     1     -10.934  -1.546  -4.120  1.00  0.00     0.304 C 
HETATM   10  O2  UNL     1     -10.801  -2.583  -4.814  1.00  0.00    -0.259 OA
BRANCH   9  11
HETATM   11  C4  UNL     1     -11.955  -0.532  -4.400  1.00  0.00     0.139 C 
BRANCH  11  12
HETATM   12  C5  UNL     1     -12.841  -0.307  -3.255  1.00  0.00     0.266 C 
HETATM   13  O3  UNL     1     -14.021   0.117  -3.556  1.00  0.00    -0.267 OA
HETATM   14  N3  UNL     1     -12.559  -0.497  -1.894  1.00  0.00    -0.300 N 
ATOM     15  H3  UNL     1     -11.639  -0.824  -1.601  1.00  0.00     0.171 HD
BRANCH  14  16
HETATM   16  C6  UNL     1     -13.581  -0.227  -0.916  1.00  0.00     0.355 C 
HETATM   17  O4  UNL     1     -14.306  -1.100  -0.423  1.00  0.00    -0.283 OA
ENDBRANCH  14  16
ENDBRANCH  11  12
BRANCH  11  18
HETATM   18  C7  UNL     1     -12.571  -0.541  -5.723  1.00  0.00     0.121 A 
HETATM   19  C8  UNL     1     -12.418   0.442  -6.577  1.00  0.00     0.172 A 
HETATM   20  N4  UNL     1     -13.014   0.467  -7.878  1.00  0.00    -0.311 N 
HETATM   21  C9  UNL     1     -13.831  -0.597  -8.334  1.00  0.00     0.192 A 
ATOM     22  H4  UNL     1     -12.847   1.267  -8.490  1.00  0.00     0.170 HD
HETATM   23  S1  UNL     1     -14.525  -0.600  -9.810  1.00  0.00    -0.039 SA
HETATM   24  N5  UNL     1     -14.013  -1.678  -7.416  1.00  0.00    -0.276 N 
HETATM   25  N6  UNL     1     -13.400  -1.634  -6.166  1.00  0.00    -0.293 N 
ATOM     26  H5  UNL     1     -14.590  -2.478  -7.676  1.00  0.00     0.189 HD
ATOM     27  H6  UNL     1     -13.545  -2.418  -5.530  1.00  0.00     0.187 HD
BRANCH  19  28
HETATM   28  O5  UNL     1     -11.651   1.531  -6.245  1.00  0.00    -0.344 OA
ATOM     29  H5  UNL     1     -11.979   2.410  -6.396  1.00  0.00     0.219 HD
ENDBRANCH  19  28
ENDBRANCH  11  18
ENDBRANCH   9  11
ENDBRANCH   8   9
ENDBRANCH   3   8
TORSDOF 8
ENDMDL
MODEL 4
REMARK VINA RESULT: -6.098697533      3.048      4.978
REMARK  8 active torsions:
REMARK  status: ('A' for Active; 'I' for Inactive)
REMARK    1  A    between atoms: C2_3  and  N2_4 
REMARK    2  A    between atoms: C2_3  and  O1_8 
REMARK    3  A    between atoms: O1_8  and  C3_9 
REMARK    4  A    between atoms: C3_9  and  C4_11 
REMARK    5  A    between atoms: C4_11  and  C5_12 
REMARK    6  A    between atoms: C4_11  and  C7_18 
REMARK       I    between atoms: C5_12  and  N3_14 
REMARK    7  A    between atoms: N3_14  and  C6_16 
REMARK    8  A    between atoms: C8_19  and  O5_20 
ROOT
HETATM    1  N1  UNL     1     -10.952  -0.482  -4.427  1.00  0.00    -0.193 NA
HETATM    2  C1  UNL     1     -10.724  -1.460  -3.882  1.00  0.00     0.121 C 
HETATM    3  C2  UNL     1     -10.431  -2.726  -3.203  1.00  0.00     0.434 C 
ENDROOT
BRANCH   3   4
HETATM    4  N2  UNL     1     -11.314  -2.966  -2.095  1.00  0.00    -0.039 N 
ATOM      5  H23 UNL     1     -10.805  -2.963  -1.211  1.00  0.00     0.278 HD
ATOM      6  H22 UNL     1     -11.928  -2.168  -1.932  1.00  0.00     0.278 HD
ATOM      7  H21 UNL     1     -11.851  -3.826  -2.208  1.00  0.00     0.278 HD
ENDBRANCH   3   4
BRANCH   3   8
HETATM    8  O1  UNL     1      -9.074  -2.738  -2.737  1.00  0.00    -0.270 OA
BRANCH   8   9
HETATM    9  C3  UNL     1      -8.742  -2.259  -1.452  1.00  0.00     0.304 C 
HETATM   10  O2  UNL     1      -8.993  -3.066  -0.524  1.00  0.00    -0.259 OA
BRANCH   9  11
HETATM   11  C4  UNL     1      -8.154  -0.937  -1.215  1.00  0.00     0.139 C 
BRANCH  11  12
HETATM   12  C5  UNL     1      -9.145   0.033  -0.743  1.00  0.00     0.266 C 
HETATM   13  O3  UNL     1      -9.006   0.398   0.486  1.00  0.00    -0.267 OA
HETATM   14  N3  UNL     1     -10.206   0.603  -1.462  1.00  0.00    -0.300 N 
ATOM     15  H3  UNL     1     -10.365   0.344  -2.436  1.00  0.00     0.171 HD
BRANCH  14  16
HETATM   16  C6  UNL     1     -11.069   1.556  -0.812  1.00  0.00     0.355 C 
HETATM   17  O4  UNL     1     -12.089   1.242  -0.186  1.00  0.00    -0.283 OA
ENDBRANCH  14  16
ENDBRANCH  11  12
BRANCH  11  18
HETATM   18  C7  UNL     1      -7.160  -0.459  -2.171  1.00  0.00     0.121 A 
HETATM   19  C8  UNL     1      -6.767   0.791  -2.211  1.00  0.00     0.172 A 
HETATM   20  N4  UNL     1      -5.801   1.293  -3.139  1.00  0.00    -0.311 N 
HETATM   21  C9  UNL     1      -5.196   0.445  -4.101  1.00  0.00     0.192 A 
ATOM     22  H4  UNL     1      -5.543   2.279  -3.109  1.00  0.00     0.170 HD
HETATM   23  S1  UNL     1      -4.091   0.986  -5.174  1.00  0.00    -0.039 SA
HETATM   24  N5  UNL     1      -5.612  -0.921  -4.076  1.00  0.00    -0.276 N 
HETATM   25  N6  UNL     1      -6.557  -1.338  -3.141  1.00  0.00    -0.293 N 
ATOM     26  H5  UNL     1      -5.220  -1.588  -4.739  1.00  0.00     0.189 HD
ATOM     27  H6  UNL     1      -6.837  -2.319  -3.143  1.00  0.00     0.187 HD
BRANCH  19  28
HETATM   28  O5  UNL     1      -7.289   1.706  -1.331  1.00  0.00    -0.344 OA
ATOM     29  H5  UNL     1      -7.745   2.473  -1.655  1.00  0.00     0.219 HD
ENDBRANCH  19  28
ENDBRANCH  11  18
ENDBRANCH   9  11
ENDBRANCH   8   9
ENDBRANCH   3   8
TORSDOF 8
ENDMDL
MODEL 5
REMARK VINA RESULT: -5.967683726      2.585      4.867
REMARK  8 active torsions:
REMARK  status: ('A' for Active; 'I' for Inactive)
REMARK    1  A    between atoms: C2_3  and  N2_4 
REMARK    2  A    between atoms: C2_3  and  O1_8 
REMARK    3  A    between atoms: O1_8  and  C3_9 
REMARK    4  A    between atoms: C3_9  and  C4_11 
REMARK    5  A    between atoms: C4_11  and  C5_12 
REMARK    6  A    between atoms: C4_11  and  C7_18 
REMARK       I    between atoms: C5_12  and  N3_14 
REMARK    7  A    between atoms: N3_14  and  C6_16 
REMARK    8  A    between atoms: C8_19  and  O5_20 
ROOT
HETATM    1  N1  UNL     1      -7.506  -1.600  -4.583  1.00  0.00    -0.193 NA
HETATM    2  C1  UNL     1      -8.193  -1.912  -3.725  1.00  0.00     0.121 C 
HETATM    3  C2  UNL     1      -9.062  -2.299  -2.609  1.00  0.00     0.434 C 
ENDROOT
BRANCH   3   4
HETATM    4  N2  UNL     1      -9.268  -3.719  -2.547  1.00  0.00    -0.039 N 
ATOM      5  H23 UNL     1      -9.834  -4.044  -3.330  1.00  0.00     0.278 HD
ATOM      6  H22 UNL     1      -8.405  -4.226  -2.748  1.00  0.00     0.278 HD
ATOM      7  H21 UNL     1      -9.668  -4.013  -1.656  1.00  0.00     0.278 HD
ENDBRANCH   3   4
BRANCH   3   8
HETATM    8  O1  UNL     1     -10.333  -1.642  -2.718  1.00  0.00    -0.270 OA
BRANCH   8   9
HETATM    9  C3  UNL     1     -11.018  -1.584  -3.950  1.00  0.00     0.304 C 
HETATM   10  O2  UNL     1     -10.785  -2.552  -4.712  1.00  0.00    -0.259 OA
BRANCH   9  11
HETATM   11  C4  UNL     1     -11.925  -0.490  -4.313  1.00  0.00     0.139 C 
BRANCH  11  12
HETATM   12  C5  UNL     1     -12.814  -0.119  -3.209  1.00  0.00     0.266 C 
HETATM   13  O3  UNL     1     -13.113   1.135  -3.151  1.00  0.00    -0.267 OA
HETATM   14  N3  UNL     1     -13.368  -0.953  -2.227  1.00  0.00    -0.300 N 
ATOM     15  H3  UNL     1     -13.158  -1.951  -2.223  1.00  0.00     0.171 HD
BRANCH  14  16
HETATM   16  C6  UNL     1     -14.236  -0.388  -1.226  1.00  0.00     0.355 C 
HETATM   17  O4  UNL     1     -14.513  -0.953  -0.161  1.00  0.00    -0.283 OA
ENDBRANCH  14  16
ENDBRANCH  11  12
BRANCH  11  18
HETATM   18  C7  UNL     1     -12.505  -0.510  -5.652  1.00  0.00     0.121 A 
HETATM   19  C8  UNL     1     -12.428   0.514  -6.467  1.00  0.00     0.172 A 
HETATM   20  N4  UNL     1     -12.991   0.529  -7.782  1.00  0.00    -0.311 N 
HETATM   21  C9  UNL     1     -13.687  -0.593  -8.298  1.00  0.00     0.192 A 
ATOM     22  H4  UNL     1     -12.889   1.363  -8.361  1.00  0.00     0.170 HD
HETATM   23  S1  UNL     1     -14.341  -0.608  -9.793  1.00  0.00    -0.039 SA
HETATM   24  N5  UNL     1     -13.784  -1.719  -7.424  1.00  0.00    -0.276 N 
HETATM   25  N6  UNL     1     -13.209  -1.662  -6.157  1.00  0.00    -0.293 N 
ATOM     26  H5  UNL     1     -14.272  -2.562  -7.727  1.00  0.00     0.189 HD
ATOM     27  H6  UNL     1     -13.292  -2.480  -5.552  1.00  0.00     0.187 HD
BRANCH  19  28
HETATM   28  O5  UNL     1     -11.782   1.660  -6.076  1.00  0.00    -0.344 OA
ATOM     29  H5  UNL     1     -10.843   1.743  -6.195  1.00  0.00     0.219 HD
ENDBRANCH  19  28
ENDBRANCH  11  18
ENDBRANCH   9  11
ENDBRANCH   8   9
ENDBRANCH   3   8
TORSDOF 8
ENDMDL
