MODEL 1
REMARK VINA RESULT: -6.040488382      0.000      0.000
REMARK  9 active torsions:
REMARK  status: ('A' for Active; 'I' for Inactive)
REMARK    1  A    between atoms: C2_2  and  C3_3 
REMARK    2  A    between atoms: C3_3  and  N1_4 
REMARK    3  A    between atoms: N1_4  and  C4_7 
REMARK    4  A    between atoms: C4_7  and  C5_8 
REMARK    5  A    between atoms: C5_8  and  N2_9 
REMARK    6  A    between atoms: C7_12  and  C8_13 
REMARK    7  A    between atoms: C8_13  and  N3_14 
REMARK    8  A    between atoms: C8_13  and  O2_18 
REMARK    9  A    between atoms: C11_27  and  N6_28 
ROOT
HETATM    1  N2  UNL     1      -7.414  -0.019  -2.078  1.00  0.00    -0.294 N 
HETATM    2  C6  UNL     1      -7.817  -1.245  -2.510  1.00  0.00     0.276 A 
HETATM    3  O1  UNL     1      -6.944  -1.955  -3.073  1.00  0.00    -0.266 OA
HETATM    4  C7  UNL     1      -9.106  -1.705  -2.350  1.00  0.00     0.135 A 
HETATM    5  N4  UNL     1      -9.983  -0.890  -1.738  1.00  0.00    -0.344 N 
ATOM      6  H4  UNL     1     -10.945  -1.203  -1.604  1.00  0.00     0.166 HD
HETATM    7  C9  UNL     1      -9.620   0.328  -1.300  1.00  0.00     0.147 A 
HETATM    8  C10 UNL     1     -10.495   1.187  -0.672  1.00  0.00     0.290 A 
HETATM    9  O3  UNL     1     -11.666   0.802  -0.511  1.00  0.00    -0.265 OA
HETATM   10  N5  UNL     1     -10.154   2.406  -0.227  1.00  0.00    -0.154 N 
ATOM     11  H5  UNL     1     -10.838   3.007   0.233  1.00  0.00     0.187 HD
HETATM   12  C11 UNL     1      -8.887   2.814  -0.405  1.00  0.00     0.680 A 
HETATM   13  N7  UNL     1      -7.985   2.013  -1.014  1.00  0.00    -0.174 N 
ATOM     14  H7  UNL     1      -7.029   2.346  -1.136  1.00  0.00     0.186 HD
HETATM   15  C12 UNL     1      -8.312   0.793  -1.463  1.00  0.00     0.158 A 
ENDROOT
BRANCH   1  16
HETATM   16  C5  UNL     1      -6.065   0.432  -2.263  1.00  0.00     0.161 C 
BRANCH  16  17
HETATM   17  C4  UNL     1      -5.856   1.018  -3.658  1.00  0.00     0.253 C 
BRANCH  17  18
HETATM   18  N1  UNL     1      -4.910   0.231  -4.414  1.00  0.00    -0.071 N 
ATOM     19  H12 UNL     1      -5.391  -0.354  -5.098  1.00  0.00     0.277 HD
ATOM     20  H11 UNL     1      -4.496  -0.496  -3.830  1.00  0.00     0.277 HD
BRANCH  18  21
HETATM   21  C3  UNL     1      -3.879   1.022  -5.054  1.00  0.00     0.259 C 
BRANCH  21  22
HETATM   22  C2  UNL     1      -3.008   0.135  -5.861  1.00  0.00    -0.010 C 
HETATM   23  C1  UNL     1      -3.248  -0.122  -7.136  1.00  0.00     0.008 C 
ENDBRANCH  21  22
ENDBRANCH  18  21
ENDBRANCH  17  18
ENDBRANCH  16  17
ENDBRANCH   1  16
BRANCH   4  24
HETATM   24  C8  UNL     1      -9.487  -3.053  -2.837  1.00  0.00     0.373 C 
BRANCH  24  25
HETATM   25  N3  UNL     1     -10.926  -3.127  -2.966  1.00  0.00    -0.047 N 
ATOM     26  H33 UNL     1     -11.313  -3.951  -2.505  1.00  0.00     0.277 HD
ATOM     27  H32 UNL     1     -11.401  -2.414  -2.412  1.00  0.00     0.277 HD
ATOM     28  H31 UNL     1     -11.181  -3.081  -3.952  1.00  0.00     0.277 HD
ENDBRANCH  24  25
BRANCH  24  29
HETATM   29  O2  UNL     1      -9.137  -3.986  -1.855  1.00  0.00    -0.365 OA
ATOM     30  H2  UNL     1      -9.817  -4.648  -1.821  1.00  0.00     0.212 HD
ENDBRANCH  24  29
ENDBRANCH   4  24
BRANCH  12  31
HETATM   31  N6  UNL     1      -8.554   3.976   0.016  1.00  0.00    -0.234 N 
ATOM     32  H62 UNL     1      -9.171   4.507   0.631  1.00  0.00     0.174 HD
ATOM     33  H61 UNL     1      -7.655   4.361  -0.277  1.00  0.00     0.174 HD
ENDBRANCH  12  31
TORSDOF 9
ENDMDL
MODEL 2
REMARK VINA RESULT: -5.990711642      0.607      1.071
REMARK  9 active torsions:
REMARK  status: ('A' for Active; 'I' for Inactive)
REMARK    1  A    between atoms: C2_2  and  C3_3 
REMARK    2  A    between atoms: C3_3  and  N1_4 
REMARK    3  A    between atoms: N1_4  and  C4_7 
REMARK    4  A    between atoms: C4_7  and  C5_8 
REMARK    5  A    between atoms: C5_8  and  N2_9 
REMARK    6  A    between atoms: C7_12  and  C8_13 
REMARK    7  A    between atoms: C8_13  and  N3_14 
REMARK    8  A    between atoms: C8_13  and  O2_18 
REMARK    9  A    between atoms: C11_27  and  N6_28 
ROOT
HETATM    1  N2  UNL     1      -7.459  -0.021  -2.044  1.00  0.00    -0.294 N 
HETATM    2  C6  UNL     1      -7.884  -1.251  -2.445  1.00  0.00     0.276 A 
HETATM    3  O1  UNL     1      -7.033  -1.974  -3.026  1.00  0.00    -0.266 OA
HETATM    4  C7  UNL     1      -9.169  -1.702  -2.237  1.00  0.00     0.135 A 
HETATM    5  N4  UNL     1     -10.021  -0.873  -1.609  1.00  0.00    -0.344 N 
ATOM      6  H4  UNL     1     -10.980  -1.178  -1.440  1.00  0.00     0.166 HD
HETATM    7  C9  UNL     1      -9.638   0.349  -1.199  1.00  0.00     0.147 A 
HETATM    8  C10 UNL     1     -10.488   1.222  -0.556  1.00  0.00     0.290 A 
HETATM    9  O3  UNL     1     -11.654   0.846  -0.352  1.00  0.00    -0.265 OA
HETATM   10  N5  UNL     1     -10.125   2.445  -0.140  1.00  0.00    -0.154 N 
ATOM     11  H5  UNL     1     -10.791   3.056   0.334  1.00  0.00     0.187 HD
HETATM   12  C11 UNL     1      -8.862   2.843  -0.363  1.00  0.00     0.680 A 
HETATM   13  N7  UNL     1      -7.985   2.028  -0.990  1.00  0.00    -0.174 N 
ATOM     14  H7  UNL     1      -7.032   2.353  -1.148  1.00  0.00     0.186 HD
HETATM   15  C12 UNL     1      -8.333   0.804  -1.411  1.00  0.00     0.158 A 
ENDROOT
BRANCH   1  16
HETATM   16  C5  UNL     1      -6.115   0.418  -2.279  1.00  0.00     0.161 C 
BRANCH  16  17
HETATM   17  C4  UNL     1      -5.937   0.941  -3.702  1.00  0.00     0.253 C 
BRANCH  17  18
HETATM   18  N1  UNL     1      -5.011   0.117  -4.445  1.00  0.00    -0.071 N 
ATOM     19  H12 UNL     1      -5.505  -0.444  -5.140  1.00  0.00     0.277 HD
ATOM     20  H11 UNL     1      -4.641  -0.630  -3.856  1.00  0.00     0.277 HD
BRANCH  18  21
HETATM   21  C3  UNL     1      -3.935   0.865  -5.061  1.00  0.00     0.259 C 
BRANCH  21  22
HETATM   22  C2  UNL     1      -3.877   2.222  -4.467  1.00  0.00    -0.010 C 
HETATM   23  C1  UNL     1      -2.736   2.791  -4.115  1.00  0.00     0.008 C 
ENDBRANCH  21  22
ENDBRANCH  18  21
ENDBRANCH  17  18
ENDBRANCH  16  17
ENDBRANCH   1  16
BRANCH   4  24
HETATM   24  C8  UNL     1      -9.573  -3.053  -2.693  1.00  0.00     0.373 C 
BRANCH  24  25
HETATM   25  N3  UNL     1     -11.016  -3.150  -2.686  1.00  0.00    -0.047 N 
ATOM     26  H33 UNL     1     -11.341  -4.058  -2.355  1.00  0.00     0.277 HD
ATOM     27  H32 UNL     1     -11.439  -2.571  -1.960  1.00  0.00     0.277 HD
ATOM     28  H31 UNL     1     -11.375  -2.927  -3.615  1.00  0.00     0.277 HD
ENDBRANCH  24  25
BRANCH  24  29
HETATM   29  O2  UNL     1      -9.117  -3.984  -1.753  1.00  0.00    -0.365 OA
ATOM     30  H2  UNL     1      -9.381  -3.686  -0.890  1.00  0.00     0.212 HD
ENDBRANCH  24  29
ENDBRANCH   4  24
BRANCH  12  31
HETATM   31  N6  UNL     1      -8.509   4.008   0.030  1.00  0.00    -0.234 N 
ATOM     32  H62 UNL     1      -8.916   4.423   0.869  1.00  0.00     0.174 HD
ATOM     33  H61 UNL     1      -7.810   4.516  -0.514  1.00  0.00     0.174 HD
ENDBRANCH  12  31
TORSDOF 9
ENDMDL
MODEL 3
REMARK VINA RESULT: -5.836909351      3.483      5.816
REMARK  9 active torsions:
REMARK  status: ('A' for Active; 'I' for Inactive)
REMARK    1  A    between atoms: C2_2  and  C3_3 
REMARK    2  A    between atoms: C3_3  and  N1_4 
REMARK    3  A    between atoms: N1_4  and  C4_7 
REMARK    4  A    between atoms: C4_7  and  C5_8 
REMARK    5  A    between atoms: C5_8  and  N2_9 
REMARK    6  A    between atoms: C7_12  and  C8_13 
REMARK    7  A    between atoms: C8_13  and  N3_14 
REMARK    8  A    between atoms: C8_13  and  O2_18 
REMARK    9  A    between atoms: C11_27  and  N6_28 
ROOT
HETATM    1  N2  UNL     1     -10.324  -1.532  -3.438  1.00  0.00    -0.294 N 
HETATM    2  C6  UNL     1      -8.981  -1.409  -3.621  1.00  0.00     0.276 A 
HETATM    3  O1  UNL     1      -8.532  -1.787  -4.734  1.00  0.00    -0.266 OA
HETATM    4  C7  UNL     1      -8.139  -0.901  -2.656  1.00  0.00     0.135 A 
HETATM    5  N4  UNL     1      -8.693  -0.517  -1.492  1.00  0.00    -0.344 N 
ATOM      6  H4  UNL     1      -8.096  -0.136  -0.758  1.00  0.00     0.166 HD
HETATM    7  C9  UNL     1     -10.016  -0.624  -1.275  1.00  0.00     0.147 A 
HETATM    8  C10 UNL     1     -10.612  -0.243  -0.094  1.00  0.00     0.290 A 
HETATM    9  O3  UNL     1      -9.882   0.221   0.798  1.00  0.00    -0.265 OA
HETATM   10  N5  UNL     1     -11.930  -0.342   0.143  1.00  0.00    -0.154 N 
ATOM     11  H5  UNL     1     -12.325  -0.044   1.035  1.00  0.00     0.187 HD
HETATM   12  C11 UNL     1     -12.712  -0.843  -0.827  1.00  0.00     0.680 A 
HETATM   13  N7  UNL     1     -12.181  -1.233  -2.006  1.00  0.00    -0.174 N 
ATOM     14  H7  UNL     1     -12.797  -1.610  -2.726  1.00  0.00     0.186 HD
HETATM   15  C12 UNL     1     -10.868  -1.139  -2.256  1.00  0.00     0.158 A 
ENDROOT
BRANCH   1  16
HETATM   16  C5  UNL     1     -11.172  -2.068  -4.463  1.00  0.00     0.161 C 
BRANCH  16  17
HETATM   17  C4  UNL     1     -11.972  -0.970  -5.160  1.00  0.00     0.253 C 
BRANCH  17  18
HETATM   18  N1  UNL     1     -13.045  -1.532  -5.948  1.00  0.00    -0.071 N 
ATOM     19  H12 UNL     1     -13.837  -1.780  -5.355  1.00  0.00     0.277 HD
ATOM     20  H11 UNL     1     -12.792  -2.459  -6.292  1.00  0.00     0.277 HD
BRANCH  18  21
HETATM   21  C3  UNL     1     -13.469  -0.680  -7.040  1.00  0.00     0.259 C 
BRANCH  21  22
HETATM   22  C2  UNL     1     -14.087  -1.510  -8.100  1.00  0.00    -0.010 C 
HETATM   23  C1  UNL     1     -14.007  -1.194  -9.382  1.00  0.00     0.008 C 
ENDBRANCH  21  22
ENDBRANCH  18  21
ENDBRANCH  17  18
ENDBRANCH  16  17
ENDBRANCH   1  16
BRANCH   4  24
HETATM   24  C8  UNL     1      -6.684  -0.786  -2.914  1.00  0.00     0.373 C 
BRANCH  24  25
HETATM   25  N3  UNL     1      -6.079   0.037  -1.889  1.00  0.00    -0.047 N 
ATOM     26  H33 UNL     1      -6.673   0.823  -1.625  1.00  0.00     0.277 HD
ATOM     27  H32 UNL     1      -6.048  -0.433  -0.985  1.00  0.00     0.277 HD
ATOM     28  H31 UNL     1      -5.156   0.339  -2.200  1.00  0.00     0.277 HD
ENDBRANCH  24  25
BRANCH  24  29
HETATM   29  O2  UNL     1      -6.508  -0.099  -4.119  1.00  0.00    -0.365 OA
ATOM     30  H2  UNL     1      -5.598  -0.183  -4.377  1.00  0.00     0.212 HD
ENDBRANCH  24  29
ENDBRANCH   4  24
BRANCH  12  31
HETATM   31  N6  UNL     1     -13.970  -0.941  -0.608  1.00  0.00    -0.234 N 
ATOM     32  H62 UNL     1     -14.464  -0.229  -0.069  1.00  0.00     0.174 HD
ATOM     33  H61 UNL     1     -14.468  -1.748  -0.985  1.00  0.00     0.174 HD
ENDBRANCH  12  31
TORSDOF 9
ENDMDL
MODEL 4
REMARK VINA RESULT: -5.835204447      3.514      5.352
REMARK  9 active torsions:
REMARK  status: ('A' for Active; 'I' for Inactive)
REMARK    1  A    between atoms: C2_2  and  C3_3 
REMARK    2  A    between atoms: C3_3  and  N1_4 
REMARK    3  A    between atoms: N1_4  and  C4_7 
REMARK    4  A    between atoms: C4_7  and  C5_8 
REMARK    5  A    between atoms: C5_8  and  N2_9 
REMARK    6  A    between atoms: C7_12  and  C8_13 
REMARK    7  A    between atoms: C8_13  and  N3_14 
REMARK    8  A    between atoms: C8_13  and  O2_18 
REMARK    9  A    between atoms: C11_27  and  N6_28 
ROOT
HETATM    1  N2  UNL     1     -11.461  -0.456  -2.628  1.00  0.00    -0.294 N 
HETATM    2  C6  UNL     1     -10.576  -1.489  -2.634  1.00  0.00     0.276 A 
HETATM    3  O1  UNL     1     -10.876  -2.478  -3.353  1.00  0.00    -0.266 OA
HETATM    4  C7  UNL     1      -9.408  -1.477  -1.904  1.00  0.00     0.135 A 
HETATM    5  N4  UNL     1      -9.155  -0.385  -1.161  1.00  0.00    -0.344 N 
ATOM      6  H4  UNL     1      -8.298  -0.345  -0.609  1.00  0.00     0.166 HD
HETATM    7  C9  UNL     1     -10.008   0.655  -1.129  1.00  0.00     0.147 A 
HETATM    8  C10 UNL     1      -9.778   1.786  -0.376  1.00  0.00     0.290 A 
HETATM    9  O3  UNL     1      -8.733   1.830   0.295  1.00  0.00    -0.265 OA
HETATM   10  N5  UNL     1     -10.615   2.834  -0.330  1.00  0.00    -0.154 N 
ATOM     11  H5  UNL     1     -10.401   3.650   0.242  1.00  0.00     0.187 HD
HETATM   12  C11 UNL     1     -11.742   2.777  -1.058  1.00  0.00     0.680 A 
HETATM   13  N7  UNL     1     -12.018   1.693  -1.816  1.00  0.00    -0.174 N 
ATOM     14  H7  UNL     1     -12.880   1.675  -2.360  1.00  0.00     0.186 HD
HETATM   15  C12 UNL     1     -11.191   0.640  -1.871  1.00  0.00     0.158 A 
ENDROOT
BRANCH   1  16
HETATM   16  C5  UNL     1     -12.670  -0.503  -3.398  1.00  0.00     0.161 C 
BRANCH  16  17
HETATM   17  C4  UNL     1     -12.398  -0.272  -4.883  1.00  0.00     0.253 C 
BRANCH  17  18
HETATM   18  N1  UNL     1     -12.822  -1.408  -5.669  1.00  0.00    -0.071 N 
ATOM     19  H12 UNL     1     -12.927  -2.235  -5.081  1.00  0.00     0.277 HD
ATOM     20  H11 UNL     1     -12.068  -1.727  -6.278  1.00  0.00     0.277 HD
BRANCH  18  21
HETATM   21  C3  UNL     1     -14.029  -1.165  -6.433  1.00  0.00     0.259 C 
BRANCH  21  22
HETATM   22  C2  UNL     1     -13.683  -1.029  -7.868  1.00  0.00    -0.010 C 
HETATM   23  C1  UNL     1     -14.245  -1.777  -8.804  1.00  0.00     0.008 C 
ENDBRANCH  21  22
ENDBRANCH  18  21
ENDBRANCH  17  18
ENDBRANCH  16  17
ENDBRANCH   1  16
BRANCH   4  24
HETATM   24  C8  UNL     1      -8.479  -2.630  -1.954  1.00  0.00     0.373 C 
BRANCH  24  25
HETATM   25  N3  UNL     1      -7.965  -2.774  -3.299  1.00  0.00    -0.047 N 
ATOM     26  H33 UNL     1      -8.703  -2.971  -3.975  1.00  0.00     0.277 HD
ATOM     27  H32 UNL     1      -7.645  -1.888  -3.687  1.00  0.00     0.277 HD
ATOM     28  H31 UNL     1      -7.235  -3.486  -3.308  1.00  0.00     0.277 HD
ENDBRANCH  24  25
BRANCH  24  29
HETATM   29  O2  UNL     1      -9.212  -3.792  -1.691  1.00  0.00    -0.365 OA
ATOM     30  H2  UNL     1      -9.846  -3.595  -1.012  1.00  0.00     0.212 HD
ENDBRANCH  24  29
ENDBRANCH   4  24
BRANCH  12  31
HETATM   31  N6  UNL     1     -12.546   3.773  -1.019  1.00  0.00    -0.234 N 
ATOM     32  H62 UNL     1     -13.006   4.040  -0.148  1.00  0.00     0.174 HD
ATOM     33  H61 UNL     1     -12.717   4.295  -1.879  1.00  0.00     0.174 HD
ENDBRANCH  12  31
TORSDOF 9
ENDMDL
MODEL 5
REMARK VINA RESULT: -5.787761549      2.083      5.500
REMARK  9 active torsions:
REMARK  status: ('A' for Active; 'I' for Inactive)
REMARK    1  A    between atoms: C2_2  and  C3_3 
REMARK    2  A    between atoms: C3_3  and  N1_4 
REMARK    3  A    between atoms: N1_4  and  C4_7 
REMARK    4  A    between atoms: C4_7  and  C5_8 
REMARK    5  A    between atoms: C5_8  and  N2_9 
REMARK    6  A    between atoms: C7_12  and  C8_13 
REMARK    7  A    between atoms: C8_13  and  N3_14 
REMARK    8  A    between atoms: C8_13  and  O2_18 
REMARK    9  A    between atoms: C11_27  and  N6_28 
ROOT
HETATM    1  N2  UNL     1      -9.088   0.050  -1.035  1.00  0.00    -0.294 N 
HETATM    2  C6  UNL     1     -10.187  -0.752  -1.018  1.00  0.00     0.276 A 
HETATM    3  O1  UNL     1     -11.002  -0.564  -0.077  1.00  0.00    -0.266 OA
HETATM    4  C7  UNL     1     -10.418  -1.724  -1.967  1.00  0.00     0.135 A 
HETATM    5  N4  UNL     1      -9.503  -1.865  -2.943  1.00  0.00    -0.344 N 
ATOM      6  H4  UNL     1      -9.646  -2.574  -3.661  1.00  0.00     0.166 HD
HETATM    7  C9  UNL     1      -8.405  -1.090  -2.991  1.00  0.00     0.147 A 
HETATM    8  C10 UNL     1      -7.449  -1.212  -3.975  1.00  0.00     0.290 A 
HETATM    9  O3  UNL     1      -7.626  -2.079  -4.848  1.00  0.00    -0.265 OA
HETATM   10  N5  UNL     1      -6.346  -0.451  -4.042  1.00  0.00    -0.154 N 
ATOM     11  H5  UNL     1      -5.666  -0.578  -4.792  1.00  0.00     0.187 HD
HETATM   12  C11 UNL     1      -6.162   0.484  -3.095  1.00  0.00     0.680 A 
HETATM   13  N7  UNL     1      -7.068   0.648  -2.106  1.00  0.00    -0.174 N 
ATOM     14  H7  UNL     1      -6.905   1.364  -1.399  1.00  0.00     0.186 HD
HETATM   15  C12 UNL     1      -8.174  -0.105  -2.027  1.00  0.00     0.158 A 
ENDROOT
BRANCH   1  16
HETATM   16  C5  UNL     1      -8.877   1.050  -0.029  1.00  0.00     0.161 C 
BRANCH  16  17
HETATM   17  C4  UNL     1      -9.443   2.403  -0.456  1.00  0.00     0.253 C 
BRANCH  17  18
HETATM   18  N1  UNL     1      -8.625   3.486   0.041  1.00  0.00    -0.071 N 
ATOM     19  H12 UNL     1      -8.022   3.851  -0.697  1.00  0.00     0.277 HD
ATOM     20  H11 UNL     1      -7.914   3.136   0.683  1.00  0.00     0.277 HD
BRANCH  18  21
HETATM   21  C3  UNL     1      -9.388   4.554   0.653  1.00  0.00     0.259 C 
BRANCH  21  22
HETATM   22  C2  UNL     1      -8.492   5.371   1.505  1.00  0.00    -0.010 C 
HETATM   23  C1  UNL     1      -8.888   5.887   2.657  1.00  0.00     0.008 C 
ENDBRANCH  21  22
ENDBRANCH  18  21
ENDBRANCH  17  18
ENDBRANCH  16  17
ENDBRANCH   1  16
BRANCH   4  24
HETATM   24  C8  UNL     1     -11.636  -2.565  -1.899  1.00  0.00     0.373 C 
BRANCH  24  25
HETATM   25  N3  UNL     1     -12.806  -1.715  -1.875  1.00  0.00    -0.047 N 
ATOM     26  H33 UNL     1     -12.656  -0.836  -2.371  1.00  0.00     0.277 HD
ATOM     27  H32 UNL     1     -13.562  -2.081  -2.453  1.00  0.00     0.277 HD
ATOM     28  H31 UNL     1     -13.097  -1.566  -0.909  1.00  0.00     0.277 HD
ENDBRANCH  24  25
BRANCH  24  29
HETATM   29  O2  UNL     1     -11.627  -3.248  -0.679  1.00  0.00    -0.365 OA
ATOM     30  H2  UNL     1     -12.333  -3.883  -0.690  1.00  0.00     0.212 HD
ENDBRANCH  24  29
ENDBRANCH   4  24
BRANCH  12  31
HETATM   31  N6  UNL     1      -5.112   1.214  -3.152  1.00  0.00    -0.234 N 
ATOM     32  H62 UNL     1      -4.484   1.290  -2.351  1.00  0.00     0.174 HD
ATOM     33  H61 UNL     1      -4.916   1.719  -4.017  1.00  0.00     0.174 HD
ENDBRANCH  12  31
TORSDOF 9
ENDMDL
