MODEL 1
REMARK VINA RESULT: -5.629420906      0.000      0.000
REMARK  9 active torsions:
REMARK  status: ('A' for Active; 'I' for Inactive)
REMARK    1  A    between atoms: N1_1  and  C1_4 
REMARK    2  A    between atoms: C2_7  and  N3_8 
REMARK    3  A    between atoms: C3_11  and  N4_12 
REMARK    4  A    between atoms: N4_12  and  C4_13 
REMARK    5  A    between atoms: N4_12  and  C5_15 
REMARK    6  A    between atoms: C5_15  and  C6_16 
REMARK    7  A    between atoms: C6_16  and  C7_17 
REMARK    8  A    between atoms: C7_17  and  N5_18 
REMARK    9  A    between atoms: C8_22  and  N6_23 
REMARK       I    between atoms: N6_23  and  C9_25 
REMARK       I    between atoms: C9_25  and  N7_26 
REMARK       I    between atoms: C9_25  and  N8_30 
ROOT
HETATM    1  C1  UNL     1     -12.728  -1.114  -4.792  1.00  0.00     0.679 A 
HETATM    2  N2  UNL     1     -13.539  -0.513  -3.939  1.00  0.00    -0.169 N 
ATOM      3  H2  UNL     1     -14.440  -0.180  -4.281  1.00  0.00     0.186 HD
HETATM    4  C2  UNL     1     -13.229  -0.315  -2.616  1.00  0.00     0.219 A 
HETATM    5  C3  UNL     1     -12.015  -0.779  -2.203  1.00  0.00     0.133 A 
HETATM    6  C8  UNL     1     -11.143  -1.424  -3.116  1.00  0.00     0.151 A 
HETATM    7  N9  UNL     1     -11.553  -1.555  -4.369  1.00  0.00    -0.175 N 
ATOM      8  H9  UNL     1     -10.936  -2.017  -5.037  1.00  0.00     0.186 HD
ENDROOT
BRANCH   6   9
HETATM    9  N6  UNL     1     -10.027  -1.808  -2.671  1.00  0.00    -0.325 N 
HETATM   10  C9  UNL     1      -9.212  -2.907  -3.021  1.00  0.00     0.481 C 
HETATM   11  N7  UNL     1      -8.938  -3.693  -1.801  1.00  0.00    -0.033 N 
HETATM   12  N8  UNL     1      -7.903  -2.529  -3.533  1.00  0.00    -0.033 N 
ATOM     13  H73 UNL     1      -8.535  -3.129  -1.052  1.00  0.00     0.278 HD
ATOM     14  H72 UNL     1      -9.791  -3.977  -1.317  1.00  0.00     0.278 HD
ATOM     15  H71 UNL     1      -8.349  -4.486  -2.054  1.00  0.00     0.278 HD
ATOM     16  H83 UNL     1      -7.997  -1.886  -4.320  1.00  0.00     0.278 HD
ATOM     17  H82 UNL     1      -7.420  -1.920  -2.872  1.00  0.00     0.278 HD
ATOM     18  H81 UNL     1      -7.314  -3.322  -3.786  1.00  0.00     0.278 HD
ATOM     19  H6  UNL     1      -9.648  -1.223  -1.927  1.00  0.00     0.165 HD
ENDBRANCH   6   9
BRANCH   5  20
HETATM   20  N4  UNL     1     -11.545  -0.679  -0.856  1.00  0.00    -0.319 N 
BRANCH  20  21
HETATM   21  C4  UNL     1     -11.798  -1.742   0.038  1.00  0.00     0.356 C 
HETATM   22  O3  UNL     1     -11.665  -2.931  -0.392  1.00  0.00    -0.283 OA
ENDBRANCH  20  21
BRANCH  20  23
HETATM   23  C5  UNL     1     -10.882   0.521  -0.436  1.00  0.00     0.133 C 
BRANCH  23  24
HETATM   24  C6  UNL     1      -9.421   0.406  -0.133  1.00  0.00     0.047 C 
BRANCH  24  25
HETATM   25  C7  UNL     1      -8.587   1.105  -1.207  1.00  0.00     0.231 C 
BRANCH  25  26
HETATM   26  N5  UNL     1      -7.419   0.294  -1.413  1.00  0.00    -0.079 N 
ATOM     27  H53 UNL     1      -7.087  -0.158  -0.561  1.00  0.00     0.274 HD
ATOM     28  H52 UNL     1      -7.608  -0.558  -1.942  1.00  0.00     0.274 HD
ATOM     29  H51 UNL     1      -6.720   0.895  -1.850  1.00  0.00     0.274 HD
ENDBRANCH  25  26
ENDBRANCH  24  25
ENDBRANCH  23  24
ENDBRANCH  20  23
ENDBRANCH   5  20
BRANCH   4  30
HETATM   30  N3  UNL     1     -14.164   0.354  -1.810  1.00  0.00    -0.095 N 
HETATM   31  O1  UNL     1     -15.023  -0.358  -1.189  1.00  0.00    -0.530 OA
HETATM   32  O2  UNL     1     -14.284   1.675  -1.593  1.00  0.00    -0.530 OA
ENDBRANCH   4  30
BRANCH   1  33
HETATM   33  N1  UNL     1     -13.062  -1.285  -6.044  1.00  0.00    -0.234 N 
ATOM     34  H12 UNL     1     -12.508  -0.837  -6.774  1.00  0.00     0.174 HD
ATOM     35  H11 UNL     1     -13.863  -1.859  -6.306  1.00  0.00     0.174 HD
ENDBRANCH   1  33
TORSDOF 9
ENDMDL
MODEL 2
REMARK VINA RESULT: -5.537605656      1.921      4.175
REMARK  9 active torsions:
REMARK  status: ('A' for Active; 'I' for Inactive)
REMARK    1  A    between atoms: N1_1  and  C1_4 
REMARK    2  A    between atoms: C2_7  and  N3_8 
REMARK    3  A    between atoms: C3_11  and  N4_12 
REMARK    4  A    between atoms: N4_12  and  C4_13 
REMARK    5  A    between atoms: N4_12  and  C5_15 
REMARK    6  A    between atoms: C5_15  and  C6_16 
REMARK    7  A    between atoms: C6_16  and  C7_17 
REMARK    8  A    between atoms: C7_17  and  N5_18 
REMARK    9  A    between atoms: C8_22  and  N6_23 
REMARK       I    between atoms: N6_23  and  C9_25 
REMARK       I    between atoms: C9_25  and  N7_26 
REMARK       I    between atoms: C9_25  and  N8_30 
ROOT
HETATM    1  C1  UNL     1      -8.898   2.337  -0.763  1.00  0.00     0.679 A 
HETATM    2  N2  UNL     1     -10.142   2.020  -0.451  1.00  0.00    -0.169 N 
ATOM      3  H2  UNL     1     -10.750   2.752  -0.083  1.00  0.00     0.186 HD
HETATM    4  C2  UNL     1     -10.658   0.756  -0.598  1.00  0.00     0.219 A 
HETATM    5  C3  UNL     1      -9.809  -0.190  -1.095  1.00  0.00     0.133 A 
HETATM    6  C8  UNL     1      -8.474   0.148  -1.430  1.00  0.00     0.151 A 
HETATM    7  N9  UNL     1      -8.091   1.402  -1.243  1.00  0.00    -0.175 N 
ATOM      8  H9  UNL     1      -7.133   1.660  -1.480  1.00  0.00     0.186 HD
ENDROOT
BRANCH   6   9
HETATM    9  N6  UNL     1      -7.739  -0.781  -1.865  1.00  0.00    -0.325 N 
HETATM   10  C9  UNL     1      -7.207  -1.025  -3.150  1.00  0.00     0.481 C 
HETATM   11  N7  UNL     1      -7.605  -2.384  -3.570  1.00  0.00    -0.033 N 
HETATM   12  N8  UNL     1      -5.752  -1.023  -3.195  1.00  0.00    -0.033 N 
ATOM     13  H73 UNL     1      -7.337  -3.099  -2.893  1.00  0.00     0.278 HD
ATOM     14  H72 UNL     1      -8.615  -2.526  -3.531  1.00  0.00     0.278 HD
ATOM     15  H71 UNL     1      -7.220  -2.560  -4.498  1.00  0.00     0.278 HD
ATOM     16  H83 UNL     1      -5.382  -0.152  -2.813  1.00  0.00     0.278 HD
ATOM     17  H82 UNL     1      -5.370  -1.683  -2.517  1.00  0.00     0.278 HD
ATOM     18  H81 UNL     1      -5.367  -1.199  -4.123  1.00  0.00     0.278 HD
ATOM     19  H6  UNL     1      -7.484  -1.477  -1.165  1.00  0.00     0.165 HD
ENDBRANCH   6   9
BRANCH   5  20
HETATM   20  N4  UNL     1     -10.188  -1.547  -1.334  1.00  0.00    -0.319 N 
BRANCH  20  21
HETATM   21  C4  UNL     1      -9.632  -2.565  -0.528  1.00  0.00     0.356 C 
HETATM   22  O3  UNL     1      -8.949  -3.473  -1.098  1.00  0.00    -0.283 OA
ENDBRANCH  20  21
BRANCH  20  23
HETATM   23  C5  UNL     1     -11.077  -1.843  -2.419  1.00  0.00     0.133 C 
BRANCH  23  24
HETATM   24  C6  UNL     1     -10.859  -1.082  -3.688  1.00  0.00     0.047 C 
BRANCH  24  25
HETATM   25  C7  UNL     1     -12.083  -0.230  -4.027  1.00  0.00     0.231 C 
BRANCH  25  26
HETATM   26  N5  UNL     1     -13.177  -0.761  -3.262  1.00  0.00    -0.079 N 
ATOM     27  H53 UNL     1     -12.880  -1.393  -2.518  1.00  0.00     0.274 HD
ATOM     28  H52 UNL     1     -13.628  -0.067  -2.666  1.00  0.00     0.274 HD
ATOM     29  H51 UNL     1     -13.816  -1.196  -3.929  1.00  0.00     0.274 HD
ENDBRANCH  25  26
ENDBRANCH  24  25
ENDBRANCH  23  24
ENDBRANCH  20  23
ENDBRANCH   5  20
BRANCH   4  30
HETATM   30  N3  UNL     1     -11.990   0.535  -0.213  1.00  0.00    -0.095 N 
HETATM   31  O1  UNL     1     -12.902   1.113  -0.893  1.00  0.00    -0.530 OA
HETATM   32  O2  UNL     1     -12.452  -0.221   0.797  1.00  0.00    -0.530 OA
ENDBRANCH   4  30
BRANCH   1  33
HETATM   33  N1  UNL     1      -8.446   3.554  -0.611  1.00  0.00    -0.234 N 
ATOM     34  H12 UNL     1      -8.817   4.301  -1.200  1.00  0.00     0.174 HD
ATOM     35  H11 UNL     1      -7.734   3.774   0.085  1.00  0.00     0.174 HD
ENDBRANCH   1  33
TORSDOF 9
ENDMDL
MODEL 3
REMARK VINA RESULT: -5.496991457      2.850      5.397
REMARK  9 active torsions:
REMARK  status: ('A' for Active; 'I' for Inactive)
REMARK    1  A    between atoms: N1_1  and  C1_4 
REMARK    2  A    between atoms: C2_7  and  N3_8 
REMARK    3  A    between atoms: C3_11  and  N4_12 
REMARK    4  A    between atoms: N4_12  and  C4_13 
REMARK    5  A    between atoms: N4_12  and  C5_15 
REMARK    6  A    between atoms: C5_15  and  C6_16 
REMARK    7  A    between atoms: C6_16  and  C7_17 
REMARK    8  A    between atoms: C7_17  and  N5_18 
REMARK    9  A    between atoms: C8_22  and  N6_23 
REMARK       I    between atoms: N6_23  and  C9_25 
REMARK       I    between atoms: C9_25  and  N7_26 
REMARK       I    between atoms: C9_25  and  N8_30 
ROOT
HETATM    1  C1  UNL     1      -6.652  -0.728  -3.586  1.00  0.00     0.679 A 
HETATM    2  N2  UNL     1      -7.117  -1.667  -2.781  1.00  0.00    -0.169 N 
ATOM      3  H2  UNL     1      -6.632  -2.563  -2.752  1.00  0.00     0.186 HD
HETATM    4  C2  UNL     1      -8.221  -1.495  -1.982  1.00  0.00     0.219 A 
HETATM    5  C3  UNL     1      -8.836  -0.279  -2.053  1.00  0.00     0.133 A 
HETATM    6  C8  UNL     1      -8.339   0.729  -2.916  1.00  0.00     0.151 A 
HETATM    7  N9  UNL     1      -7.265   0.445  -3.639  1.00  0.00    -0.175 N 
ATOM      8  H9  UNL     1      -6.896   1.161  -4.265  1.00  0.00     0.186 HD
ENDROOT
BRANCH   6   9
HETATM    9  N6  UNL     1      -8.969   1.821  -2.946  1.00  0.00    -0.325 N 
HETATM   10  C9  UNL     1      -8.519   3.155  -3.064  1.00  0.00     0.481 C 
HETATM   11  N7  UNL     1      -9.056   3.931  -1.928  1.00  0.00    -0.033 N 
HETATM   12  N8  UNL     1      -9.004   3.836  -4.256  1.00  0.00    -0.033 N 
ATOM     13  H73 UNL     1     -10.071   3.865  -1.853  1.00  0.00     0.278 HD
ATOM     14  H72 UNL     1      -8.822   3.517  -1.025  1.00  0.00     0.278 HD
ATOM     15  H71 UNL     1      -8.731   4.894  -2.014  1.00  0.00     0.278 HD
ATOM     16  H83 UNL     1      -8.771   3.304  -5.094  1.00  0.00     0.278 HD
ATOM     17  H82 UNL     1     -10.022   3.795  -4.304  1.00  0.00     0.278 HD
ATOM     18  H81 UNL     1      -8.679   4.799  -4.341  1.00  0.00     0.278 HD
ATOM     19  H6  UNL     1      -9.981   1.723  -2.873  1.00  0.00     0.165 HD
ENDBRANCH   6   9
BRANCH   5  20
HETATM   20  N4  UNL     1      -9.981   0.076  -1.273  1.00  0.00    -0.319 N 
BRANCH  20  21
HETATM   21  C4  UNL     1      -9.788   0.672  -0.008  1.00  0.00     0.356 C 
HETATM   22  O3  UNL     1      -9.977   1.924   0.100  1.00  0.00    -0.283 OA
ENDBRANCH  20  21
BRANCH  20  23
HETATM   23  C5  UNL     1     -11.289  -0.235  -1.772  1.00  0.00     0.133 C 
BRANCH  23  24
HETATM   24  C6  UNL     1     -12.291  -0.709  -0.767  1.00  0.00     0.047 C 
BRANCH  24  25
HETATM   25  C7  UNL     1     -12.044  -2.174  -0.405  1.00  0.00     0.231 C 
BRANCH  25  26
HETATM   26  N5  UNL     1     -11.925  -2.889  -1.645  1.00  0.00    -0.079 N 
ATOM     27  H53 UNL     1     -12.409  -2.436  -2.420  1.00  0.00     0.274 HD
ATOM     28  H52 UNL     1     -10.987  -2.854  -2.043  1.00  0.00     0.274 HD
ATOM     29  H51 UNL     1     -12.252  -3.840  -1.466  1.00  0.00     0.274 HD
ENDBRANCH  25  26
ENDBRANCH  24  25
ENDBRANCH  23  24
ENDBRANCH  20  23
ENDBRANCH   5  20
BRANCH   4  30
HETATM   30  N3  UNL     1      -8.634  -2.573  -1.183  1.00  0.00    -0.095 N 
HETATM   31  O1  UNL     1      -9.082  -3.610  -1.777  1.00  0.00    -0.530 OA
HETATM   32  O2  UNL     1      -8.623  -2.669   0.158  1.00  0.00    -0.530 OA
ENDBRANCH   4  30
BRANCH   1  33
HETATM   33  N1  UNL     1      -5.595  -0.930  -4.329  1.00  0.00    -0.234 N 
ATOM     34  H12 UNL     1      -4.753  -1.318  -3.903  1.00  0.00     0.174 HD
ATOM     35  H11 UNL     1      -5.596  -0.711  -5.325  1.00  0.00     0.174 HD
ENDBRANCH   1  33
TORSDOF 9
ENDMDL
MODEL 4
REMARK VINA RESULT: -5.493048919      2.434      4.366
REMARK  9 active torsions:
REMARK  status: ('A' for Active; 'I' for Inactive)
REMARK    1  A    between atoms: N1_1  and  C1_4 
REMARK    2  A    between atoms: C2_7  and  N3_8 
REMARK    3  A    between atoms: C3_11  and  N4_12 
REMARK    4  A    between atoms: N4_12  and  C4_13 
REMARK    5  A    between atoms: N4_12  and  C5_15 
REMARK    6  A    between atoms: C5_15  and  C6_16 
REMARK    7  A    between atoms: C6_16  and  C7_17 
REMARK    8  A    between atoms: C7_17  and  N5_18 
REMARK    9  A    between atoms: C8_22  and  N6_23 
REMARK       I    between atoms: N6_23  and  C9_25 
REMARK       I    between atoms: C9_25  and  N7_26 
REMARK       I    between atoms: C9_25  and  N8_30 
ROOT
HETATM    1  C1  UNL     1      -7.789   1.173  -3.121  1.00  0.00     0.679 A 
HETATM    2  N2  UNL     1      -8.054   1.976  -2.105  1.00  0.00    -0.169 N 
ATOM      3  H2  UNL     1      -7.580   2.878  -2.065  1.00  0.00     0.186 HD
HETATM    4  C2  UNL     1      -8.937   1.657  -1.102  1.00  0.00     0.219 A 
HETATM    5  C3  UNL     1      -9.549   0.441  -1.200  1.00  0.00     0.133 A 
HETATM    6  C8  UNL     1      -9.266  -0.421  -2.287  1.00  0.00     0.151 A 
HETATM    7  N9  UNL     1      -8.394  -0.003  -3.194  1.00  0.00    -0.175 N 
ATOM      8  H9  UNL     1      -8.181  -0.613  -3.982  1.00  0.00     0.186 HD
ENDROOT
BRANCH   6   9
HETATM    9  N6  UNL     1      -9.852  -1.538  -2.302  1.00  0.00    -0.325 N 
HETATM   10  C9  UNL     1      -9.588  -2.721  -3.029  1.00  0.00     0.481 C 
HETATM   11  N7  UNL     1     -10.811  -3.100  -3.765  1.00  0.00    -0.033 N 
HETATM   12  N8  UNL     1      -9.275  -3.869  -2.190  1.00  0.00    -0.033 N 
ATOM     13  H73 UNL     1     -11.624  -3.188  -3.156  1.00  0.00     0.278 HD
ATOM     14  H72 UNL     1     -11.161  -2.346  -4.357  1.00  0.00     0.278 HD
ATOM     15  H71 UNL     1     -10.620  -3.954  -4.289  1.00  0.00     0.278 HD
ATOM     16  H83 UNL     1      -8.502  -3.654  -1.560  1.00  0.00     0.278 HD
ATOM     17  H82 UNL     1     -10.015  -4.026  -1.506  1.00  0.00     0.278 HD
ATOM     18  H81 UNL     1      -9.084  -4.723  -2.714  1.00  0.00     0.278 HD
ATOM     19  H6  UNL     1     -10.658  -1.597  -1.681  1.00  0.00     0.165 HD
ENDBRANCH   6   9
BRANCH   5  20
HETATM   20  N4  UNL     1     -10.512  -0.038  -0.257  1.00  0.00    -0.319 N 
BRANCH  20  21
HETATM   21  C4  UNL     1     -10.083  -0.886   0.787  1.00  0.00     0.356 C 
HETATM   22  O3  UNL     1      -9.850  -2.105   0.511  1.00  0.00    -0.283 OA
ENDBRANCH  20  21
BRANCH  20  23
HETATM   23  C5  UNL     1     -11.892   0.309  -0.431  1.00  0.00     0.133 C 
BRANCH  23  24
HETATM   24  C6  UNL     1     -12.884  -0.801  -0.285  1.00  0.00     0.047 C 
BRANCH  24  25
HETATM   25  C7  UNL     1     -13.980  -0.693  -1.346  1.00  0.00     0.231 C 
BRANCH  25  26
HETATM   26  N5  UNL     1     -13.340  -0.881  -2.619  1.00  0.00    -0.079 N 
ATOM     27  H53 UNL     1     -12.640  -1.624  -2.611  1.00  0.00     0.274 HD
ATOM     28  H52 UNL     1     -13.953  -1.292  -3.323  1.00  0.00     0.274 HD
ATOM     29  H51 UNL     1     -12.962   0.027  -2.892  1.00  0.00     0.274 HD
ENDBRANCH  25  26
ENDBRANCH  24  25
ENDBRANCH  23  24
ENDBRANCH  20  23
ENDBRANCH   5  20
BRANCH   4  30
HETATM   30  N3  UNL     1      -9.123   2.583  -0.064  1.00  0.00    -0.095 N 
HETATM   31  O1  UNL     1      -8.096   2.921   0.615  1.00  0.00    -0.530 OA
HETATM   32  O2  UNL     1     -10.261   3.181   0.326  1.00  0.00    -0.530 OA
ENDBRANCH   4  30
BRANCH   1  33
HETATM   33  N1  UNL     1      -6.944   1.516  -4.057  1.00  0.00    -0.234 N 
ATOM     34  H12 UNL     1      -6.817   2.504  -4.277  1.00  0.00     0.174 HD
ATOM     35  H11 UNL     1      -6.408   0.817  -4.571  1.00  0.00     0.174 HD
ENDBRANCH   1  33
TORSDOF 9
ENDMDL
MODEL 5
REMARK VINA RESULT: -5.449298452      2.159      4.229
REMARK  9 active torsions:
REMARK  status: ('A' for Active; 'I' for Inactive)
REMARK    1  A    between atoms: N1_1  and  C1_4 
REMARK    2  A    between atoms: C2_7  and  N3_8 
REMARK    3  A    between atoms: C3_11  and  N4_12 
REMARK    4  A    between atoms: N4_12  and  C4_13 
REMARK    5  A    between atoms: N4_12  and  C5_15 
REMARK    6  A    between atoms: C5_15  and  C6_16 
REMARK    7  A    between atoms: C6_16  and  C7_17 
REMARK    8  A    between atoms: C7_17  and  N5_18 
REMARK    9  A    between atoms: C8_22  and  N6_23 
REMARK       I    between atoms: N6_23  and  C9_25 
REMARK       I    between atoms: C9_25  and  N7_26 
REMARK       I    between atoms: C9_25  and  N8_30 
ROOT
HETATM    1  C1  UNL     1      -8.679  -1.795  -2.987  1.00  0.00     0.679 A 
HETATM    2  N2  UNL     1      -8.594  -1.151  -1.836  1.00  0.00    -0.169 N 
ATOM      3  H2  UNL     1      -7.698  -1.147  -1.349  1.00  0.00     0.186 HD
HETATM    4  C2  UNL     1      -9.651  -0.486  -1.265  1.00  0.00     0.219 A 
HETATM    5  C3  UNL     1     -10.829  -0.517  -1.954  1.00  0.00     0.133 A 
HETATM    6  C8  UNL     1     -10.922  -1.208  -3.188  1.00  0.00     0.151 A 
HETATM    7  N9  UNL     1      -9.832  -1.813  -3.637  1.00  0.00    -0.175 N 
ATOM      8  H9  UNL     1      -9.884  -2.314  -4.524  1.00  0.00     0.186 HD
ENDROOT
BRANCH   6   9
HETATM    9  N6  UNL     1     -12.046  -1.213  -3.759  1.00  0.00    -0.325 N 
HETATM   10  C9  UNL     1     -12.485  -0.610  -4.959  1.00  0.00     0.481 C 
HETATM   11  N7  UNL     1     -13.667   0.224  -4.657  1.00  0.00    -0.033 N 
HETATM   12  N8  UNL     1     -12.936  -1.560  -5.965  1.00  0.00    -0.033 N 
ATOM     13  H73 UNL     1     -14.406  -0.299  -4.187  1.00  0.00     0.278 HD
ATOM     14  H72 UNL     1     -13.488   0.905  -3.918  1.00  0.00     0.278 HD
ATOM     15  H71 UNL     1     -13.984   0.659  -5.523  1.00  0.00     0.278 HD
ATOM     16  H83 UNL     1     -12.210  -2.252  -6.156  1.00  0.00     0.278 HD
ATOM     17  H82 UNL     1     -13.659  -2.171  -5.584  1.00  0.00     0.278 HD
ATOM     18  H81 UNL     1     -13.253  -1.125  -6.831  1.00  0.00     0.278 HD
ATOM     19  H6  UNL     1     -12.764  -1.747  -3.269  1.00  0.00     0.165 HD
ENDBRANCH   6   9
BRANCH   5  20
HETATM   20  N4  UNL     1     -12.020   0.141  -1.516  1.00  0.00    -0.319 N 
BRANCH  20  21
HETATM   21  C4  UNL     1     -13.050  -0.626  -0.930  1.00  0.00     0.356 C 
HETATM   22  O3  UNL     1     -14.103  -0.833  -1.610  1.00  0.00    -0.283 OA
ENDBRANCH  20  21
BRANCH  20  23
HETATM   23  C5  UNL     1     -12.159   1.551  -1.735  1.00  0.00     0.133 C 
BRANCH  23  24
HETATM   24  C6  UNL     1     -12.460   2.388  -0.531  1.00  0.00     0.047 C 
BRANCH  24  25
HETATM   25  C7  UNL     1     -11.359   3.423  -0.300  1.00  0.00     0.231 C 
BRANCH  25  26
HETATM   26  N5  UNL     1     -10.435   3.290  -1.393  1.00  0.00    -0.079 N 
ATOM     27  H53 UNL     1     -10.416   2.351  -1.792  1.00  0.00     0.274 HD
ATOM     28  H52 UNL     1     -10.733   3.780  -2.236  1.00  0.00     0.274 HD
ATOM     29  H51 UNL     1      -9.527   3.599  -1.047  1.00  0.00     0.274 HD
ENDBRANCH  25  26
ENDBRANCH  24  25
ENDBRANCH  23  24
ENDBRANCH  20  23
ENDBRANCH   5  20
BRANCH   4  30
HETATM   30  N3  UNL     1      -9.446   0.147  -0.028  1.00  0.00    -0.095 N 
HETATM   31  O1  UNL     1      -8.699   1.181  -0.013  1.00  0.00    -0.530 OA
HETATM   32  O2  UNL     1      -9.940  -0.193   1.175  1.00  0.00    -0.530 OA
ENDBRANCH   4  30
BRANCH   1  33
HETATM   33  N1  UNL     1      -7.646  -2.413  -3.498  1.00  0.00    -0.234 N 
ATOM     34  H12 UNL     1      -6.769  -2.434  -2.978  1.00  0.00     0.174 HD
ATOM     35  H11 UNL     1      -7.701  -2.877  -4.405  1.00  0.00     0.174 HD
ENDBRANCH   1  33
TORSDOF 9
ENDMDL
