MODEL 1
REMARK VINA RESULT: -6.001632314      0.000      0.000
REMARK  10 active torsions:
REMARK  status: ('A' for Active; 'I' for Inactive)
REMARK    1  A    between atoms: N1_1  and  C1_4 
REMARK    2  A    between atoms: C2_7  and  C3_8 
REMARK    3  A    between atoms: C3_8  and  C4_9 
REMARK    4  A    between atoms: C4_9  and  C5_10 
REMARK    5  A    between atoms: C5_10  and  C6_11 
REMARK    6  A    between atoms: C6_11  and  N3_12 
REMARK    7  A    between atoms: C9_25  and  O3_26 
REMARK    8  A    between atoms: O3_26  and  C10_27 
REMARK    9  A    between atoms: C10_27  and  N7_28 
REMARK   10  A    between atoms: C10_27  and  N8_32 
ROOT
HETATM    1  C1  UNL     1      -7.449  -1.443  -3.176  1.00  0.00     0.134 A 
HETATM    2  N2  UNL     1      -6.345  -1.030  -3.869  1.00  0.00    -0.329 N 
ATOM      3  H2  UNL     1      -5.871  -1.688  -4.487  1.00  0.00     0.168 HD
HETATM    4  C2  UNL     1      -5.869   0.219  -3.756  1.00  0.00     0.098 A 
HETATM    5  N4  UNL     1      -6.555   1.044  -2.912  1.00  0.00    -0.279 N 
ATOM      6  H4  UNL     1      -6.225   2.003  -2.799  1.00  0.00     0.189 HD
HETATM    7  N5  UNL     1      -7.624   0.664  -2.234  1.00  0.00    -0.206 N 
HETATM    8  C7  UNL     1      -8.271   1.526  -1.405  1.00  0.00     0.335 A 
HETATM    9  O1  UNL     1      -7.820   2.699  -1.303  1.00  0.00    -0.260 OA
HETATM   10  C8  UNL     1      -9.383   1.121  -0.703  1.00  0.00     0.317 A 
HETATM   11  O2  UNL     1     -10.000   1.914   0.076  1.00  0.00    -0.262 OA
HETATM   12  N6  UNL     1      -9.881  -0.131  -0.799  1.00  0.00    -0.297 N 
ATOM     13  H6  UNL     1     -10.706  -0.417  -0.273  1.00  0.00     0.171 HD
HETATM   14  C9  UNL     1      -9.241  -0.983  -1.617  1.00  0.00     0.182 A 
HETATM   15  C11 UNL     1      -8.110  -0.576  -2.334  1.00  0.00     0.154 A 
ENDROOT
BRANCH  14  16
HETATM   16  O3  UNL     1      -9.643  -2.272  -1.803  1.00  0.00    -0.278 OA
BRANCH  16  17
HETATM   17  C10 UNL     1     -10.796  -2.790  -2.353  1.00  0.00     0.525 C 
BRANCH  17  18
HETATM   18  N7  UNL     1     -11.831  -3.054  -1.352  1.00  0.00    -0.027 N 
ATOM     19  H73 UNL     1     -11.518  -2.780  -0.421  1.00  0.00     0.279 HD
ATOM     20  H72 UNL     1     -12.616  -2.412  -1.459  1.00  0.00     0.279 HD
ATOM     21  H71 UNL     1     -12.148  -4.024  -1.360  1.00  0.00     0.279 HD
ENDBRANCH  17  18
BRANCH  17  22
HETATM   22  N8  UNL     1     -11.422  -1.915  -3.328  1.00  0.00    -0.027 N 
ATOM     23  H83 UNL     1     -12.147  -1.348  -2.889  1.00  0.00     0.279 HD
ATOM     24  H82 UNL     1     -10.779  -1.178  -3.616  1.00  0.00     0.279 HD
ATOM     25  H81 UNL     1     -11.793  -2.406  -4.142  1.00  0.00     0.279 HD
ENDBRANCH  17  22
ENDBRANCH  16  17
ENDBRANCH  14  16
BRANCH   1  26
HETATM   26  N1  UNL     1      -7.892  -2.644  -3.296  1.00  0.00    -0.383 N 
ATOM     27  H12 UNL     1      -7.223  -3.401  -3.441  1.00  0.00     0.157 HD
ATOM     28  H11 UNL     1      -8.892  -2.841  -3.248  1.00  0.00     0.157 HD
ENDBRANCH   1  26
BRANCH   4  29
HETATM   29  C3  UNL     1      -4.670   0.745  -4.440  1.00  0.00     0.078 C 
BRANCH  29  30
HETATM   30  C4  UNL     1      -4.178   2.063  -3.991  1.00  0.00     0.009 C 
BRANCH  30  31
HETATM   31  C5  UNL     1      -3.257   2.790  -4.908  1.00  0.00     0.027 C 
BRANCH  31  32
HETATM   32  C6  UNL     1      -2.299   3.596  -4.017  1.00  0.00     0.229 C 
BRANCH  32  33
HETATM   33  N3  UNL     1      -2.131   2.837  -2.791  1.00  0.00    -0.079 N 
ATOM     34  H33 UNL     1      -2.946   2.275  -2.551  1.00  0.00     0.274 HD
ATOM     35  H32 UNL     1      -1.466   2.069  -2.882  1.00  0.00     0.274 HD
ATOM     36  H31 UNL     1      -1.875   3.506  -2.065  1.00  0.00     0.274 HD
ENDBRANCH  32  33
ENDBRANCH  31  32
ENDBRANCH  30  31
ENDBRANCH  29  30
ENDBRANCH   4  29
TORSDOF 10
ENDMDL
MODEL 2
REMARK VINA RESULT: -5.977202416      1.411      1.616
REMARK  10 active torsions:
REMARK  status: ('A' for Active; 'I' for Inactive)
REMARK    1  A    between atoms: N1_1  and  C1_4 
REMARK    2  A    between atoms: C2_7  and  C3_8 
REMARK    3  A    between atoms: C3_8  and  C4_9 
REMARK    4  A    between atoms: C4_9  and  C5_10 
REMARK    5  A    between atoms: C5_10  and  C6_11 
REMARK    6  A    between atoms: C6_11  and  N3_12 
REMARK    7  A    between atoms: C9_25  and  O3_26 
REMARK    8  A    between atoms: O3_26  and  C10_27 
REMARK    9  A    between atoms: C10_27  and  N7_28 
REMARK   10  A    between atoms: C10_27  and  N8_32 
ROOT
HETATM    1  C1  UNL     1      -7.359  -1.297  -3.265  1.00  0.00     0.134 A 
HETATM    2  N2  UNL     1      -6.255  -0.808  -3.906  1.00  0.00    -0.329 N 
ATOM      3  H2  UNL     1      -5.740  -1.416  -4.543  1.00  0.00     0.168 HD
HETATM    4  C2  UNL     1      -5.831   0.451  -3.719  1.00  0.00     0.098 A 
HETATM    5  N4  UNL     1      -6.569   1.206  -2.855  1.00  0.00    -0.279 N 
ATOM      6  H4  UNL     1      -6.280   2.170  -2.686  1.00  0.00     0.189 HD
HETATM    7  N5  UNL     1      -7.640   0.753  -2.226  1.00  0.00    -0.206 N 
HETATM    8  C7  UNL     1      -8.341   1.547  -1.373  1.00  0.00     0.335 A 
HETATM    9  O1  UNL     1      -7.938   2.730  -1.202  1.00  0.00    -0.260 OA
HETATM   10  C8  UNL     1      -9.453   1.066  -0.723  1.00  0.00     0.317 A 
HETATM   11  O2  UNL     1     -10.120   1.795   0.077  1.00  0.00    -0.262 OA
HETATM   12  N6  UNL     1      -9.900  -0.198  -0.894  1.00  0.00    -0.297 N 
ATOM     13  H6  UNL     1     -10.726  -0.541  -0.405  1.00  0.00     0.171 HD
HETATM   14  C9  UNL     1      -9.207  -0.983  -1.735  1.00  0.00     0.182 A 
HETATM   15  C11 UNL     1      -8.074  -0.498  -2.400  1.00  0.00     0.154 A 
ENDROOT
BRANCH  14  16
HETATM   16  O3  UNL     1      -9.552  -2.276  -1.995  1.00  0.00    -0.278 OA
BRANCH  16  17
HETATM   17  C10 UNL     1     -10.704  -2.813  -2.529  1.00  0.00     0.525 C 
BRANCH  17  18
HETATM   18  N7  UNL     1     -11.728  -3.077  -1.516  1.00  0.00    -0.027 N 
ATOM     19  H73 UNL     1     -11.448  -2.707  -0.608  1.00  0.00     0.279 HD
ATOM     20  H72 UNL     1     -12.558  -2.506  -1.678  1.00  0.00     0.279 HD
ATOM     21  H71 UNL     1     -11.971  -4.065  -1.449  1.00  0.00     0.279 HD
ENDBRANCH  17  18
BRANCH  17  22
HETATM   22  N8  UNL     1     -11.347  -1.959  -3.511  1.00  0.00    -0.027 N 
ATOM     23  H83 UNL     1     -10.894  -1.046  -3.545  1.00  0.00     0.279 HD
ATOM     24  H82 UNL     1     -11.148  -2.285  -4.456  1.00  0.00     0.279 HD
ATOM     25  H81 UNL     1     -12.352  -1.856  -3.370  1.00  0.00     0.279 HD
ENDBRANCH  17  22
ENDBRANCH  16  17
ENDBRANCH  14  16
BRANCH   1  26
HETATM   26  N1  UNL     1      -7.751  -2.506  -3.456  1.00  0.00    -0.383 N 
ATOM     27  H12 UNL     1      -7.466  -3.225  -2.790  1.00  0.00     0.157 HD
ATOM     28  H11 UNL     1      -8.335  -2.747  -4.257  1.00  0.00     0.157 HD
ENDBRANCH   1  26
BRANCH   4  29
HETATM   29  C3  UNL     1      -4.636   1.055  -4.344  1.00  0.00     0.078 C 
BRANCH  29  30
HETATM   30  C4  UNL     1      -3.874   0.202  -5.277  1.00  0.00     0.009 C 
BRANCH  30  31
HETATM   31  C5  UNL     1      -3.277   0.866  -6.468  1.00  0.00     0.027 C 
BRANCH  31  32
HETATM   32  C6  UNL     1      -2.306  -0.148  -7.093  1.00  0.00     0.229 C 
BRANCH  32  33
HETATM   33  N3  UNL     1      -1.142  -0.199  -6.230  1.00  0.00    -0.079 N 
ATOM     34  H33 UNL     1      -1.343  -0.580  -5.305  1.00  0.00     0.274 HD
ATOM     35  H32 UNL     1      -0.461  -0.904  -6.514  1.00  0.00     0.274 HD
ATOM     36  H31 UNL     1      -0.755   0.744  -6.201  1.00  0.00     0.274 HD
ENDBRANCH  32  33
ENDBRANCH  31  32
ENDBRANCH  30  31
ENDBRANCH  29  30
ENDBRANCH   4  29
TORSDOF 10
ENDMDL
MODEL 3
REMARK VINA RESULT: -5.852186058      3.308      7.636
REMARK  10 active torsions:
REMARK  status: ('A' for Active; 'I' for Inactive)
REMARK    1  A    between atoms: N1_1  and  C1_4 
REMARK    2  A    between atoms: C2_7  and  C3_8 
REMARK    3  A    between atoms: C3_8  and  C4_9 
REMARK    4  A    between atoms: C4_9  and  C5_10 
REMARK    5  A    between atoms: C5_10  and  C6_11 
REMARK    6  A    between atoms: C6_11  and  N3_12 
REMARK    7  A    between atoms: C9_25  and  O3_26 
REMARK    8  A    between atoms: O3_26  and  C10_27 
REMARK    9  A    between atoms: C10_27  and  N7_28 
REMARK   10  A    between atoms: C10_27  and  N8_32 
ROOT
HETATM    1  C1  UNL     1     -11.544   0.590  -3.359  1.00  0.00     0.134 A 
HETATM    2  N2  UNL     1     -12.906   0.707  -3.341  1.00  0.00    -0.329 N 
ATOM      3  H2  UNL     1     -13.341   1.512  -3.792  1.00  0.00     0.168 HD
HETATM    4  C2  UNL     1     -13.684  -0.210  -2.748  1.00  0.00     0.098 A 
HETATM    5  N4  UNL     1     -13.033  -1.260  -2.168  1.00  0.00    -0.279 N 
ATOM      6  H4  UNL     1     -13.590  -1.979  -1.706  1.00  0.00     0.189 HD
HETATM    7  N5  UNL     1     -11.717  -1.391  -2.174  1.00  0.00    -0.206 N 
HETATM    8  C7  UNL     1     -11.117  -2.457  -1.580  1.00  0.00     0.335 A 
HETATM    9  O1  UNL     1     -11.854  -3.316  -1.024  1.00  0.00    -0.260 OA
HETATM   10  C8  UNL     1      -9.748  -2.585  -1.591  1.00  0.00     0.317 A 
HETATM   11  O2  UNL     1      -9.170  -3.575  -1.041  1.00  0.00    -0.262 OA
HETATM   12  N6  UNL     1      -8.942  -1.675  -2.181  1.00  0.00    -0.297 N 
ATOM     13  H6  UNL     1      -7.928  -1.783  -2.182  1.00  0.00     0.171 HD
HETATM   14  C9  UNL     1      -9.535  -0.622  -2.767  1.00  0.00     0.182 A 
HETATM   15  C11 UNL     1     -10.929  -0.487  -2.759  1.00  0.00     0.154 A 
ENDROOT
BRANCH  14  16
HETATM   16  O3  UNL     1      -8.836   0.365  -3.397  1.00  0.00    -0.278 OA
BRANCH  16  17
HETATM   17  C10 UNL     1      -7.571   0.862  -3.169  1.00  0.00     0.525 C 
BRANCH  17  18
HETATM   18  N7  UNL     1      -7.265   2.031  -3.997  1.00  0.00    -0.027 N 
ATOM     19  H73 UNL     1      -6.383   1.907  -4.493  1.00  0.00     0.279 HD
ATOM     20  H72 UNL     1      -7.897   2.089  -4.796  1.00  0.00     0.279 HD
ATOM     21  H71 UNL     1      -7.267   2.901  -3.466  1.00  0.00     0.279 HD
ENDBRANCH  17  18
BRANCH  17  22
HETATM   22  N8  UNL     1      -7.349   1.295  -1.801  1.00  0.00    -0.027 N 
ATOM     23  H83 UNL     1      -7.891   2.134  -1.598  1.00  0.00     0.279 HD
ATOM     24  H82 UNL     1      -7.784   0.647  -1.145  1.00  0.00     0.279 HD
ATOM     25  H81 UNL     1      -6.366   1.436  -1.569  1.00  0.00     0.279 HD
ENDBRANCH  17  22
ENDBRANCH  16  17
ENDBRANCH  14  16
BRANCH   1  26
HETATM   26  N1  UNL     1     -10.813   1.478  -3.932  1.00  0.00    -0.383 N 
ATOM     27  H12 UNL     1     -11.249   2.120  -4.595  1.00  0.00     0.157 HD
ATOM     28  H11 UNL     1      -9.815   1.545  -3.730  1.00  0.00     0.157 HD
ENDBRANCH   1  26
BRANCH   4  29
HETATM   29  C3  UNL     1     -15.158  -0.153  -2.654  1.00  0.00     0.078 C 
BRANCH  29  30
HETATM   30  C4  UNL     1     -15.915  -0.796  -3.746  1.00  0.00     0.009 C 
BRANCH  30  31
HETATM   31  C5  UNL     1     -15.760  -0.219  -5.109  1.00  0.00     0.027 C 
BRANCH  31  32
HETATM   32  C6  UNL     1     -15.518  -1.401  -6.060  1.00  0.00     0.229 C 
BRANCH  32  33
HETATM   33  N3  UNL     1     -14.083  -1.606  -6.117  1.00  0.00    -0.079 N 
ATOM     34  H33 UNL     1     -13.731  -2.199  -5.366  1.00  0.00     0.274 HD
ATOM     35  H32 UNL     1     -13.792  -2.197  -6.896  1.00  0.00     0.274 HD
ATOM     36  H31 UNL     1     -13.654  -0.680  -6.134  1.00  0.00     0.274 HD
ENDBRANCH  32  33
ENDBRANCH  31  32
ENDBRANCH  30  31
ENDBRANCH  29  30
ENDBRANCH   4  29
TORSDOF 10
ENDMDL
MODEL 4
REMARK VINA RESULT: -5.836616773      3.040      5.086
REMARK  10 active torsions:
REMARK  status: ('A' for Active; 'I' for Inactive)
REMARK    1  A    between atoms: N1_1  and  C1_4 
REMARK    2  A    between atoms: C2_7  and  C3_8 
REMARK    3  A    between atoms: C3_8  and  C4_9 
REMARK    4  A    between atoms: C4_9  and  C5_10 
REMARK    5  A    between atoms: C5_10  and  C6_11 
REMARK    6  A    between atoms: C6_11  and  N3_12 
REMARK    7  A    between atoms: C9_25  and  O3_26 
REMARK    8  A    between atoms: O3_26  and  C10_27 
REMARK    9  A    between atoms: C10_27  and  N7_28 
REMARK   10  A    between atoms: C10_27  and  N8_32 
ROOT
HETATM    1  C1  UNL     1      -8.927   0.383  -0.516  1.00  0.00     0.134 A 
HETATM    2  N2  UNL     1      -9.046   1.707  -0.194  1.00  0.00    -0.329 N 
ATOM      3  H2  UNL     1      -9.522   1.968   0.669  1.00  0.00     0.168 HD
HETATM    4  C2  UNL     1      -8.552   2.671  -0.985  1.00  0.00     0.098 A 
HETATM    5  N4  UNL     1      -7.927   2.248  -2.122  1.00  0.00    -0.279 N 
ATOM      6  H4  UNL     1      -7.537   2.951  -2.751  1.00  0.00     0.189 HD
HETATM    7  N5  UNL     1      -7.802   0.973  -2.451  1.00  0.00    -0.206 N 
HETATM    8  C7  UNL     1      -7.170   0.604  -3.597  1.00  0.00     0.335 A 
HETATM    9  O1  UNL     1      -6.707   1.515  -4.336  1.00  0.00    -0.260 OA
HETATM   10  C8  UNL     1      -7.045  -0.725  -3.930  1.00  0.00     0.317 A 
HETATM   11  O2  UNL     1      -6.457  -1.088  -4.997  1.00  0.00    -0.262 OA
HETATM   12  N6  UNL     1      -7.533  -1.714  -3.151  1.00  0.00    -0.297 N 
ATOM     13  H6  UNL     1      -7.433  -2.695  -3.411  1.00  0.00     0.171 HD
HETATM   14  C9  UNL     1      -8.158  -1.349  -2.019  1.00  0.00     0.182 A 
HETATM   15  C11 UNL     1      -8.288   0.002  -1.675  1.00  0.00     0.154 A 
ENDROOT
BRANCH  14  16
HETATM   16  O3  UNL     1      -8.695  -2.249  -1.147  1.00  0.00    -0.278 OA
BRANCH  16  17
HETATM   17  C10 UNL     1      -9.658  -3.219  -1.328  1.00  0.00     0.525 C 
BRANCH  17  18
HETATM   18  N7  UNL     1     -10.811  -2.736  -2.091  1.00  0.00    -0.027 N 
ATOM     19  H73 UNL     1     -10.646  -2.820  -3.094  1.00  0.00     0.279 HD
ATOM     20  H72 UNL     1     -11.602  -3.373  -2.000  1.00  0.00     0.279 HD
ATOM     21  H71 UNL     1     -11.077  -1.784  -1.843  1.00  0.00     0.279 HD
ENDBRANCH  17  18
BRANCH  17  22
HETATM   22  N8  UNL     1      -9.184  -4.387  -2.048  1.00  0.00    -0.027 N 
ATOM     23  H83 UNL     1      -8.193  -4.295  -2.270  1.00  0.00     0.279 HD
ATOM     24  H82 UNL     1      -9.147  -5.199  -1.433  1.00  0.00     0.279 HD
ATOM     25  H81 UNL     1      -9.722  -4.597  -2.889  1.00  0.00     0.279 HD
ENDBRANCH  17  22
ENDBRANCH  16  17
ENDBRANCH  14  16
BRANCH   1  26
HETATM   26  N1  UNL     1      -9.406  -0.528   0.254  1.00  0.00    -0.383 N 
ATOM     27  H12 UNL     1     -10.206  -1.072  -0.069  1.00  0.00     0.157 HD
ATOM     28  H11 UNL     1      -8.998  -0.705   1.172  1.00  0.00     0.157 HD
ENDBRANCH   1  26
BRANCH   4  29
HETATM   29  C3  UNL     1      -8.658   4.124  -0.736  1.00  0.00     0.078 C 
BRANCH  29  30
HETATM   30  C4  UNL     1      -9.291   4.532   0.534  1.00  0.00     0.009 C 
BRANCH  30  31
HETATM   31  C5  UNL     1      -8.566   5.536   1.360  1.00  0.00     0.027 C 
BRANCH  31  32
HETATM   32  C6  UNL     1      -9.474   5.855   2.558  1.00  0.00     0.229 C 
BRANCH  32  33
HETATM   33  N3  UNL     1      -8.624   6.423   3.587  1.00  0.00    -0.079 N 
ATOM     34  H33 UNL     1      -8.758   5.993   4.503  1.00  0.00     0.274 HD
ATOM     35  H32 UNL     1      -7.639   6.182   3.475  1.00  0.00     0.274 HD
ATOM     36  H31 UNL     1      -8.793   7.429   3.587  1.00  0.00     0.274 HD
ENDBRANCH  32  33
ENDBRANCH  31  32
ENDBRANCH  30  31
ENDBRANCH  29  30
ENDBRANCH   4  29
TORSDOF 10
ENDMDL
MODEL 5
REMARK VINA RESULT: -5.835328517      3.554      5.425
REMARK  10 active torsions:
REMARK  status: ('A' for Active; 'I' for Inactive)
REMARK    1  A    between atoms: N1_1  and  C1_4 
REMARK    2  A    between atoms: C2_7  and  C3_8 
REMARK    3  A    between atoms: C3_8  and  C4_9 
REMARK    4  A    between atoms: C4_9  and  C5_10 
REMARK    5  A    between atoms: C5_10  and  C6_11 
REMARK    6  A    between atoms: C6_11  and  N3_12 
REMARK    7  A    between atoms: C9_25  and  O3_26 
REMARK    8  A    between atoms: O3_26  and  C10_27 
REMARK    9  A    between atoms: C10_27  and  N7_28 
REMARK   10  A    between atoms: C10_27  and  N8_32 
ROOT
HETATM    1  C1  UNL     1      -8.525   0.858  -1.073  1.00  0.00     0.134 A 
HETATM    2  N2  UNL     1      -8.234   2.176  -0.854  1.00  0.00    -0.329 N 
ATOM      3  H2  UNL     1      -7.278   2.503  -0.990  1.00  0.00     0.168 HD
HETATM    4  C2  UNL     1      -9.174   3.050  -0.465  1.00  0.00     0.098 A 
HETATM    5  N4  UNL     1     -10.431   2.542  -0.304  1.00  0.00    -0.279 N 
ATOM      6  H4  UNL     1     -11.175   3.175  -0.009  1.00  0.00     0.189 HD
HETATM    7  N5  UNL     1     -10.733   1.272  -0.511  1.00  0.00    -0.206 N 
HETATM    8  C7  UNL     1     -12.002   0.816  -0.336  1.00  0.00     0.335 A 
HETATM    9  O1  UNL     1     -12.881   1.642   0.029  1.00  0.00    -0.260 OA
HETATM   10  C8  UNL     1     -12.306  -0.508  -0.553  1.00  0.00     0.317 A 
HETATM   11  O2  UNL     1     -13.487  -0.951  -0.394  1.00  0.00    -0.262 OA
HETATM   12  N6  UNL     1     -11.378  -1.408  -0.945  1.00  0.00    -0.297 N 
ATOM     13  H6  UNL     1     -11.618  -2.386  -1.102  1.00  0.00     0.171 HD
HETATM   14  C9  UNL     1     -10.124  -0.957  -1.117  1.00  0.00     0.182 A 
HETATM   15  C11 UNL     1      -9.809   0.389  -0.897  1.00  0.00     0.154 A 
ENDROOT
BRANCH  14  16
HETATM   16  O3  UNL     1      -9.096  -1.762  -1.510  1.00  0.00    -0.278 OA
BRANCH  16  17
HETATM   17  C10 UNL     1      -9.048  -2.775  -2.444  1.00  0.00     0.525 C 
BRANCH  17  18
HETATM   18  N7  UNL     1      -7.849  -2.714  -3.282  1.00  0.00    -0.027 N 
ATOM     19  H73 UNL     1      -7.971  -2.051  -4.048  1.00  0.00     0.279 HD
ATOM     20  H72 UNL     1      -7.081  -2.258  -2.790  1.00  0.00     0.279 HD
ATOM     21  H71 UNL     1      -7.566  -3.629  -3.633  1.00  0.00     0.279 HD
ENDBRANCH  17  18
BRANCH  17  22
HETATM   22  N8  UNL     1      -9.042  -4.106  -1.864  1.00  0.00    -0.027 N 
ATOM     23  H83 UNL     1      -8.088  -4.460  -1.787  1.00  0.00     0.279 HD
ATOM     24  H82 UNL     1      -9.291  -4.069  -0.877  1.00  0.00     0.279 HD
ATOM     25  H81 UNL     1      -9.633  -4.772  -2.360  1.00  0.00     0.279 HD
ENDBRANCH  17  22
ENDBRANCH  16  17
ENDBRANCH  14  16
BRANCH   1  26
HETATM   26  N1  UNL     1      -7.612   0.034  -1.445  1.00  0.00    -0.383 N 
ATOM     27  H12 UNL     1      -7.878  -0.768  -2.017  1.00  0.00     0.157 HD
ATOM     28  H11 UNL     1      -6.638   0.176  -1.177  1.00  0.00     0.157 HD
ENDBRANCH   1  26
BRANCH   4  29
HETATM   29  C3  UNL     1      -8.948   4.481  -0.177  1.00  0.00     0.078 C 
BRANCH  29  30
HETATM   30  C4  UNL     1      -9.011   4.889   1.241  1.00  0.00     0.009 C 
BRANCH  30  31
HETATM   31  C5  UNL     1     -10.280   5.508   1.712  1.00  0.00     0.027 C 
BRANCH  31  32
HETATM   32  C6  UNL     1      -9.953   6.227   3.030  1.00  0.00     0.229 C 
BRANCH  32  33
HETATM   33  N3  UNL     1      -8.565   5.934   3.333  1.00  0.00    -0.079 N 
ATOM     34  H33 UNL     1      -7.953   6.002   2.520  1.00  0.00     0.274 HD
ATOM     35  H32 UNL     1      -8.115   6.657   3.894  1.00  0.00     0.274 HD
ATOM     36  H31 UNL     1      -8.548   5.015   3.774  1.00  0.00     0.274 HD
ENDBRANCH  32  33
ENDBRANCH  31  32
ENDBRANCH  30  31
ENDBRANCH  29  30
ENDBRANCH   4  29
TORSDOF 10
ENDMDL
