MODEL 1
REMARK VINA RESULT: -5.306070548      0.000      0.000
REMARK  11 active torsions:
REMARK  status: ('A' for Active; 'I' for Inactive)
REMARK    1  A    between atoms: C2_2  and  O1_4 
REMARK    2  A    between atoms: C2_2  and  C4_6 
REMARK    3  A    between atoms: C4_6  and  C5_7 
REMARK    4  A    between atoms: C5_7  and  C6_8 
REMARK    5  A    between atoms: C6_8  and  O2_9 
REMARK    6  A    between atoms: C6_8  and  C7_11 
REMARK    7  A    between atoms: C7_11  and  C8_12 
REMARK    8  A    between atoms: C10_14  and  C12_16 
REMARK    9  A    between atoms: C12_16  and  O3_17 
REMARK   10  A    between atoms: C15_21  and  O4_22 
REMARK   11  A    between atoms: C16_24  and  C18_26 
ROOT
HETATM    1  C8  UNL     1      13.648   5.169   2.198  1.00  0.00    -0.022 C 
HETATM    2  C9  UNL     1      13.364   5.894   0.909  1.00  0.00     0.017 C 
HETATM    3  C10 UNL     1      14.527   6.144   2.930  1.00  0.00    -0.015 C 
HETATM    4  C11 UNL     1      13.969   7.564   2.944  1.00  0.00     0.018 C 
HETATM    5  C13 UNL     1      14.604   5.788   4.433  1.00  0.00     0.014 C 
HETATM    6  C14 UNL     1      13.317   6.126   5.020  1.00  0.00     0.033 C 
HETATM    7  C15 UNL     1      12.271   5.301   4.362  1.00  0.00     0.127 C 
HETATM    8  C16 UNL     1      12.277   5.080   2.905  1.00  0.00    -0.005 C 
HETATM    9  C17 UNL     1      11.235   5.964   2.260  1.00  0.00     0.019 C 
ENDROOT
BRANCH   1  10
HETATM   10  C7  UNL     1      14.214   3.842   1.932  1.00  0.00     0.042 C 
BRANCH  10  11
HETATM   11  C6  UNL     1      15.186   3.070   2.676  1.00  0.00     0.119 C 
BRANCH  11  12
HETATM   12  C5  UNL     1      16.156   2.459   1.573  1.00  0.00     0.034 C 
BRANCH  12  13
HETATM   13  C4  UNL     1      15.355   2.054   0.396  1.00  0.00     0.039 C 
BRANCH  13  14
HETATM   14  C2  UNL     1      15.116   0.563   0.315  1.00  0.00     0.051 C 
HETATM   15  C1  UNL     1      15.474   0.003  -1.042  1.00  0.00     0.045 C 
HETATM   16  C3  UNL     1      13.627   0.349   0.554  1.00  0.00     0.045 C 
BRANCH  14  17
HETATM   17  O1  UNL     1      15.795  -0.088   1.337  1.00  0.00    -0.391 OA
ATOM     18  H1  UNL     1      15.387  -0.916   1.561  1.00  0.00     0.210 HD
ENDBRANCH  14  17
ENDBRANCH  13  14
ENDBRANCH  12  13
ENDBRANCH  11  12
BRANCH  11  19
HETATM   19  O2  UNL     1      14.976   1.981   3.415  1.00  0.00    -0.396 OA
ATOM     20  H2  UNL     1      14.051   2.093   3.604  1.00  0.00     0.210 HD
ENDBRANCH  11  19
ENDBRANCH  10  11
ENDBRANCH   1  10
BRANCH   3  21
HETATM   21  C12 UNL     1      15.912   6.431   2.594  1.00  0.00     0.173 C 
BRANCH  21  22
HETATM   22  O3  UNL     1      16.773   6.937   3.553  1.00  0.00    -0.400 OA
ATOM     23  H3  UNL     1      17.668   6.622   3.607  1.00  0.00     0.209 HD
ENDBRANCH  21  22
ENDBRANCH   3  21
BRANCH   8  24
HETATM   24  C18 UNL     1      11.554   3.722   2.746  1.00  0.00     0.014 C 
HETATM   25  C19 UNL     1      10.112   3.814   3.175  1.00  0.00     0.088 C 
HETATM   26  S1  UNL     1       9.053   3.164   1.845  1.00  0.00    -0.092 SA
HETATM   27  C20 UNL     1      10.318   3.283   0.629  1.00  0.00     0.186 C 
HETATM   28  O5  UNL     1      10.132   3.476  -0.540  1.00  0.00    -0.285 OA
HETATM   29  C21 UNL     1      11.540   3.087   1.440  1.00  0.00     0.097 C 
ENDBRANCH   8  24
BRANCH   7  30
HETATM   30  O4  UNL     1      12.358   4.070   5.084  1.00  0.00    -0.395 OA
ATOM     31  H4  UNL     1      11.829   3.488   4.551  1.00  0.00     0.210 HD
ENDBRANCH   7  30
TORSDOF 11
ENDMDL
MODEL 2
REMARK VINA RESULT: -5.093208920      1.147      1.370
REMARK  11 active torsions:
REMARK  status: ('A' for Active; 'I' for Inactive)
REMARK    1  A    between atoms: C2_2  and  O1_4 
REMARK    2  A    between atoms: C2_2  and  C4_6 
REMARK    3  A    between atoms: C4_6  and  C5_7 
REMARK    4  A    between atoms: C5_7  and  C6_8 
REMARK    5  A    between atoms: C6_8  and  O2_9 
REMARK    6  A    between atoms: C6_8  and  C7_11 
REMARK    7  A    between atoms: C7_11  and  C8_12 
REMARK    8  A    between atoms: C10_14  and  C12_16 
REMARK    9  A    between atoms: C12_16  and  O3_17 
REMARK   10  A    between atoms: C15_21  and  O4_22 
REMARK   11  A    between atoms: C16_24  and  C18_26 
ROOT
HETATM    1  C8  UNL     1      13.295   4.717   2.163  1.00  0.00    -0.022 C 
HETATM    2  C9  UNL     1      13.116   5.417   0.841  1.00  0.00     0.017 C 
HETATM    3  C10 UNL     1      14.176   5.672   2.918  1.00  0.00    -0.015 C 
HETATM    4  C11 UNL     1      13.685   7.116   2.863  1.00  0.00     0.018 C 
HETATM    5  C13 UNL     1      14.152   5.358   4.432  1.00  0.00     0.014 C 
HETATM    6  C14 UNL     1      12.852   5.770   4.935  1.00  0.00     0.033 C 
HETATM    7  C15 UNL     1      11.807   4.975   4.241  1.00  0.00     0.127 C 
HETATM    8  C16 UNL     1      11.883   4.711   2.793  1.00  0.00    -0.005 C 
HETATM    9  C17 UNL     1      10.922   5.622   2.066  1.00  0.00     0.019 C 
ENDROOT
BRANCH   1  10
HETATM   10  C7  UNL     1      13.812   3.359   1.965  1.00  0.00     0.042 C 
BRANCH  10  11
HETATM   11  C6  UNL     1      14.878   2.875   1.114  1.00  0.00     0.119 C 
BRANCH  11  12
HETATM   12  C5  UNL     1      14.576   1.325   0.919  1.00  0.00     0.034 C 
BRANCH  12  13
HETATM   13  C4  UNL     1      15.271   0.848  -0.297  1.00  0.00     0.039 C 
BRANCH  13  14
HETATM   14  C2  UNL     1      14.721  -0.454  -0.832  1.00  0.00     0.051 C 
HETATM   15  C1  UNL     1      13.257  -0.631  -0.501  1.00  0.00     0.045 C 
HETATM   16  C3  UNL     1      15.512  -1.569  -0.159  1.00  0.00     0.045 C 
BRANCH  14  17
HETATM   17  O1  UNL     1      14.956  -0.549  -2.198  1.00  0.00    -0.391 OA
ATOM     18  H1  UNL     1      15.745  -1.042  -2.387  1.00  0.00     0.210 HD
ENDBRANCH  14  17
ENDBRANCH  13  14
ENDBRANCH  12  13
ENDBRANCH  11  12
BRANCH  11  19
HETATM   19  O2  UNL     1      16.181   2.816   1.386  1.00  0.00    -0.396 OA
ATOM     20  H2  UNL     1      16.377   3.745   1.424  1.00  0.00     0.210 HD
ENDBRANCH  11  19
ENDBRANCH  10  11
ENDBRANCH   1  10
BRANCH   3  21
HETATM   21  C12 UNL     1      15.589   5.887   2.653  1.00  0.00     0.173 C 
BRANCH  21  22
HETATM   22  O3  UNL     1      16.358   6.634   3.529  1.00  0.00    -0.400 OA
ATOM     23  H3  UNL     1      16.412   6.391   4.446  1.00  0.00     0.209 HD
ENDBRANCH  21  22
ENDBRANCH   3  21
BRANCH   8  24
HETATM   24  C18 UNL     1      11.108   3.383   2.629  1.00  0.00     0.014 C 
HETATM   25  C19 UNL     1       9.627   3.584   2.829  1.00  0.00     0.088 C 
HETATM   26  S1  UNL     1       8.734   2.880   1.409  1.00  0.00    -0.092 SA
HETATM   27  C20 UNL     1      10.167   2.834   0.389  1.00  0.00     0.186 C 
HETATM   28  O5  UNL     1      10.165   2.939  -0.805  1.00  0.00    -0.285 OA
HETATM   29  C21 UNL     1      11.244   2.643   1.386  1.00  0.00     0.097 C 
ENDBRANCH   8  24
BRANCH   7  30
HETATM   30  O4  UNL     1      11.797   3.762   4.999  1.00  0.00    -0.395 OA
ATOM     31  H4  UNL     1      11.955   3.106   4.330  1.00  0.00     0.210 HD
ENDBRANCH   7  30
TORSDOF 11
ENDMDL
MODEL 3
REMARK VINA RESULT: -5.057431702      2.476      5.656
REMARK  11 active torsions:
REMARK  status: ('A' for Active; 'I' for Inactive)
REMARK    1  A    between atoms: C2_2  and  O1_4 
REMARK    2  A    between atoms: C2_2  and  C4_6 
REMARK    3  A    between atoms: C4_6  and  C5_7 
REMARK    4  A    between atoms: C5_7  and  C6_8 
REMARK    5  A    between atoms: C6_8  and  O2_9 
REMARK    6  A    between atoms: C6_8  and  C7_11 
REMARK    7  A    between atoms: C7_11  and  C8_12 
REMARK    8  A    between atoms: C10_14  and  C12_16 
REMARK    9  A    between atoms: C12_16  and  O3_17 
REMARK   10  A    between atoms: C15_21  and  O4_22 
REMARK   11  A    between atoms: C16_24  and  C18_26 
ROOT
HETATM    1  C8  UNL     1      12.172   3.325   3.856  1.00  0.00    -0.022 C 
HETATM    2  C9  UNL     1      11.534   3.986   2.662  1.00  0.00     0.017 C 
HETATM    3  C10 UNL     1      10.986   3.004   4.721  1.00  0.00    -0.015 C 
HETATM    4  C11 UNL     1       9.857   2.314   3.962  1.00  0.00     0.018 C 
HETATM    5  C13 UNL     1      11.363   1.964   5.801  1.00  0.00     0.014 C 
HETATM    6  C14 UNL     1      11.529   0.686   5.126  1.00  0.00     0.033 C 
HETATM    7  C15 UNL     1      12.637   0.815   4.146  1.00  0.00     0.127 C 
HETATM    8  C16 UNL     1      12.773   2.013   3.299  1.00  0.00    -0.005 C 
HETATM    9  C17 UNL     1      12.284   1.701   1.905  1.00  0.00     0.019 C 
ENDROOT
BRANCH   1  10
HETATM   10  C7  UNL     1      13.200   4.192   4.441  1.00  0.00     0.042 C 
BRANCH  10  11
HETATM   11  C6  UNL     1      13.208   4.932   5.685  1.00  0.00     0.119 C 
BRANCH  11  12
HETATM   12  C5  UNL     1      13.330   6.459   5.254  1.00  0.00     0.034 C 
BRANCH  12  13
HETATM   13  C4  UNL     1      13.590   6.531   3.799  1.00  0.00     0.039 C 
BRANCH  13  14
HETATM   14  C2  UNL     1      14.741   7.442   3.438  1.00  0.00     0.051 C 
HETATM   15  C1  UNL     1      14.950   8.529   4.468  1.00  0.00     0.045 C 
HETATM   16  C3  UNL     1      14.379   8.093   2.109  1.00  0.00     0.045 C 
BRANCH  14  17
HETATM   17  O1  UNL     1      15.896   6.698   3.232  1.00  0.00    -0.391 OA
ATOM     18  H1  UNL     1      16.142   6.206   4.007  1.00  0.00     0.210 HD
ENDBRANCH  14  17
ENDBRANCH  13  14
ENDBRANCH  12  13
ENDBRANCH  11  12
BRANCH  11  19
HETATM   19  O2  UNL     1      14.123   4.900   6.652  1.00  0.00    -0.396 OA
ATOM     20  H2  UNL     1      14.149   3.964   6.815  1.00  0.00     0.210 HD
ENDBRANCH  11  19
ENDBRANCH  10  11
ENDBRANCH   1  10
BRANCH   3  21
HETATM   21  C12 UNL     1      10.213   3.983   5.469  1.00  0.00     0.173 C 
BRANCH  21  22
HETATM   22  O3  UNL     1      10.035   3.836   6.834  1.00  0.00    -0.400 OA
ATOM     23  H3  UNL     1       9.180   3.615   7.184  1.00  0.00     0.209 HD
ENDBRANCH  21  22
ENDBRANCH   3  21
BRANCH   8  24
HETATM   24  C18 UNL     1      14.290   2.073   3.002  1.00  0.00     0.014 C 
HETATM   25  C19 UNL     1      14.639   1.272   1.773  1.00  0.00     0.088 C 
HETATM   26  S1  UNL     1      15.602   2.316   0.636  1.00  0.00    -0.092 SA
HETATM   27  C20 UNL     1      15.116   3.813   1.423  1.00  0.00     0.186 C 
HETATM   28  O5  UNL     1      15.006   4.873   0.875  1.00  0.00    -0.285 OA
HETATM   29  C21 UNL     1      14.916   3.371   2.821  1.00  0.00     0.097 C 
ENDBRANCH   8  24
BRANCH   7  30
HETATM   30  O4  UNL     1      13.791   0.614   4.966  1.00  0.00    -0.395 OA
ATOM     31  H4  UNL     1      14.293   1.404   4.803  1.00  0.00     0.210 HD
ENDBRANCH   7  30
TORSDOF 11
ENDMDL
MODEL 4
REMARK VINA RESULT: -5.007751059      2.238      4.719
REMARK  11 active torsions:
REMARK  status: ('A' for Active; 'I' for Inactive)
REMARK    1  A    between atoms: C2_2  and  O1_4 
REMARK    2  A    between atoms: C2_2  and  C4_6 
REMARK    3  A    between atoms: C4_6  and  C5_7 
REMARK    4  A    between atoms: C5_7  and  C6_8 
REMARK    5  A    between atoms: C6_8  and  O2_9 
REMARK    6  A    between atoms: C6_8  and  C7_11 
REMARK    7  A    between atoms: C7_11  and  C8_12 
REMARK    8  A    between atoms: C10_14  and  C12_16 
REMARK    9  A    between atoms: C12_16  and  O3_17 
REMARK   10  A    between atoms: C15_21  and  O4_22 
REMARK   11  A    between atoms: C16_24  and  C18_26 
ROOT
HETATM    1  C8  UNL     1      13.259   2.394   2.235  1.00  0.00    -0.022 C 
HETATM    2  C9  UNL     1      14.089   2.166   3.471  1.00  0.00     0.017 C 
HETATM    3  C10 UNL     1      12.074   1.501   2.470  1.00  0.00    -0.015 C 
HETATM    4  C11 UNL     1      11.462   1.666   3.858  1.00  0.00     0.018 C 
HETATM    5  C13 UNL     1      10.907   1.882   1.531  1.00  0.00     0.014 C 
HETATM    6  C14 UNL     1      10.365   3.143   2.009  1.00  0.00     0.033 C 
HETATM    7  C15 UNL     1      11.432   4.173   1.927  1.00  0.00     0.127 C 
HETATM    8  C16 UNL     1      12.817   3.872   2.331  1.00  0.00    -0.005 C 
HETATM    9  C17 UNL     1      13.083   4.468   3.693  1.00  0.00     0.019 C 
ENDROOT
BRANCH   1  10
HETATM   10  C7  UNL     1      14.049   2.137   1.026  1.00  0.00     0.042 C 
BRANCH  10  11
HETATM   11  C6  UNL     1      15.279   1.395   0.849  1.00  0.00     0.119 C 
BRANCH  11  12
HETATM   12  C5  UNL     1      15.143   0.708  -0.579  1.00  0.00     0.034 C 
BRANCH  12  13
HETATM   13  C4  UNL     1      14.590  -0.655  -0.408  1.00  0.00     0.039 C 
BRANCH  13  14
HETATM   14  C2  UNL     1      15.306  -1.702  -1.231  1.00  0.00     0.051 C 
HETATM   15  C1  UNL     1      14.625  -1.945  -2.558  1.00  0.00     0.045 C 
HETATM   16  C3  UNL     1      15.268  -2.991  -0.420  1.00  0.00     0.045 C 
BRANCH  14  17
HETATM   17  O1  UNL     1      16.641  -1.355  -1.392  1.00  0.00    -0.391 OA
ATOM     18  H1  UNL     1      16.877  -0.604  -0.861  1.00  0.00     0.210 HD
ENDBRANCH  14  17
ENDBRANCH  13  14
ENDBRANCH  12  13
ENDBRANCH  11  12
BRANCH  11  19
HETATM   19  O2  UNL     1      15.718   0.355   1.556  1.00  0.00    -0.396 OA
ATOM     20  H2  UNL     1      16.617   0.629   1.700  1.00  0.00     0.210 HD
ENDBRANCH  11  19
ENDBRANCH  10  11
ENDBRANCH   1  10
BRANCH   3  21
HETATM   21  C12 UNL     1      12.097   0.049   2.387  1.00  0.00     0.173 C 
BRANCH  21  22
HETATM   22  O3  UNL     1      11.805  -0.718   3.503  1.00  0.00    -0.400 OA
ATOM     23  H3  UNL     1      12.502  -1.015   4.076  1.00  0.00     0.209 HD
ENDBRANCH  21  22
ENDBRANCH   3  21
BRANCH   8  24
HETATM   24  C18 UNL     1      13.659   4.855   1.483  1.00  0.00     0.014 C 
HETATM   25  C19 UNL     1      13.078   6.246   1.519  1.00  0.00     0.088 C 
HETATM   26  S1  UNL     1      14.383   7.424   1.987  1.00  0.00    -0.092 SA
HETATM   27  C20 UNL     1      15.440   6.170   2.624  1.00  0.00     0.186 C 
HETATM   28  O5  UNL     1      16.228   6.322   3.514  1.00  0.00    -0.285 OA
HETATM   29  C21 UNL     1      15.071   5.007   1.787  1.00  0.00     0.097 C 
ENDBRANCH   8  24
BRANCH   7  30
HETATM   30  O4  UNL     1      11.357   4.578   0.558  1.00  0.00    -0.395 OA
ATOM     31  H4  UNL     1      11.792   3.860   0.112  1.00  0.00     0.210 HD
ENDBRANCH   7  30
TORSDOF 11
ENDMDL
MODEL 5
REMARK VINA RESULT: -4.984674027      1.982      4.283
REMARK  11 active torsions:
REMARK  status: ('A' for Active; 'I' for Inactive)
REMARK    1  A    between atoms: C2_2  and  O1_4 
REMARK    2  A    between atoms: C2_2  and  C4_6 
REMARK    3  A    between atoms: C4_6  and  C5_7 
REMARK    4  A    between atoms: C5_7  and  C6_8 
REMARK    5  A    between atoms: C6_8  and  O2_9 
REMARK    6  A    between atoms: C6_8  and  C7_11 
REMARK    7  A    between atoms: C7_11  and  C8_12 
REMARK    8  A    between atoms: C10_14  and  C12_16 
REMARK    9  A    between atoms: C12_16  and  O3_17 
REMARK   10  A    between atoms: C15_21  and  O4_22 
REMARK   11  A    between atoms: C16_24  and  C18_26 
ROOT
HETATM    1  C8  UNL     1      12.806   3.035   2.723  1.00  0.00    -0.022 C 
HETATM    2  C9  UNL     1      13.339   3.239   4.117  1.00  0.00     0.017 C 
HETATM    3  C10 UNL     1      11.743   1.993   2.932  1.00  0.00    -0.015 C 
HETATM    4  C11 UNL     1      10.799   2.320   4.085  1.00  0.00     0.018 C 
HETATM    5  C13 UNL     1      10.793   1.930   1.714  1.00  0.00     0.014 C 
HETATM    6  C14 UNL     1       9.973   3.130   1.747  1.00  0.00     0.033 C 
HETATM    7  C15 UNL     1      10.865   4.311   1.627  1.00  0.00     0.127 C 
HETATM    8  C16 UNL     1      12.141   4.383   2.360  1.00  0.00    -0.005 C 
HETATM    9  C17 UNL     1      11.983   5.290   3.557  1.00  0.00     0.019 C 
ENDROOT
BRANCH   1  10
HETATM   10  C7  UNL     1      13.892   2.693   1.798  1.00  0.00     0.042 C 
BRANCH  10  11
HETATM   11  C6  UNL     1      15.158   2.035   2.039  1.00  0.00     0.119 C 
BRANCH  11  12
HETATM   12  C5  UNL     1      15.678   1.604   0.599  1.00  0.00     0.034 C 
BRANCH  12  13
HETATM   13  C4  UNL     1      14.545   1.056  -0.180  1.00  0.00     0.039 C 
BRANCH  13  14
HETATM   14  C2  UNL     1      14.612  -0.442  -0.367  1.00  0.00     0.051 C 
HETATM   15  C1  UNL     1      14.909  -0.823  -1.799  1.00  0.00     0.045 C 
HETATM   16  C3  UNL     1      13.241  -0.989   0.010  1.00  0.00     0.045 C 
BRANCH  14  17
HETATM   17  O1  UNL     1      15.533  -0.995   0.515  1.00  0.00    -0.391 OA
ATOM     18  H1  UNL     1      15.827  -0.363   1.159  1.00  0.00     0.210 HD
ENDBRANCH  14  17
ENDBRANCH  13  14
ENDBRANCH  12  13
ENDBRANCH  11  12
BRANCH  11  19
HETATM   19  O2  UNL     1      15.379   0.901   2.704  1.00  0.00    -0.396 OA
ATOM     20  H2  UNL     1      16.018   1.210   3.336  1.00  0.00     0.210 HD
ENDBRANCH  11  19
ENDBRANCH  10  11
ENDBRANCH   1  10
BRANCH   3  21
HETATM   21  C12 UNL     1      11.999   0.591   3.218  1.00  0.00     0.173 C 
BRANCH  21  22
HETATM   22  O3  UNL     1      12.826   0.232   4.269  1.00  0.00    -0.400 OA
ATOM     23  H3  UNL     1      12.457  -0.116   5.072  1.00  0.00     0.209 HD
ENDBRANCH  21  22
ENDBRANCH   3  21
BRANCH   8  24
HETATM   24  C18 UNL     1      13.008   5.314   1.480  1.00  0.00     0.014 C 
HETATM   25  C19 UNL     1      12.672   6.764   1.719  1.00  0.00     0.088 C 
HETATM   26  S1  UNL     1      14.202   7.679   2.082  1.00  0.00    -0.092 SA
HETATM   27  C20 UNL     1      15.118   6.221   2.444  1.00  0.00     0.186 C 
HETATM   28  O5  UNL     1      16.034   6.159   3.215  1.00  0.00    -0.285 OA
HETATM   29  C21 UNL     1      14.455   5.222   1.579  1.00  0.00     0.097 C 
ENDBRANCH   8  24
BRANCH   7  30
HETATM   30  O4  UNL     1      11.062   4.398   0.213  1.00  0.00    -0.395 OA
ATOM     31  H4  UNL     1      10.610   5.205  -0.003  1.00  0.00     0.210 HD
ENDBRANCH   7  30
TORSDOF 11
ENDMDL
