MODEL 1
REMARK VINA RESULT: -6.312868246      0.000      0.000
REMARK  10 active torsions:
REMARK  status: ('A' for Active; 'I' for Inactive)
REMARK    1  A    between atoms: C2_2  and  C3_3 
REMARK    2  A    between atoms: C3_3  and  C4_4 
REMARK    3  A    between atoms: C4_4  and  C5_5 
REMARK    4  A    between atoms: C5_5  and  C6_6 
REMARK    5  A    between atoms: C8_10  and  N2_11 
REMARK    6  A    between atoms: C9_16  and  N4_17 
REMARK    7  A    between atoms: N4_17  and  C10_19 
REMARK    8  A    between atoms: C10_19  and  C12_21 
REMARK    9  A    between atoms: C12_21  and  O1_22 
REMARK   10  A    between atoms: N6_29  and  C15_30 
ROOT
HETATM    1  C6  UNL     1      14.088   4.536   3.198  1.00  0.00     0.087 A 
HETATM    2  N1  UNL     1      15.066   3.748   2.741  1.00  0.00    -0.341 N 
ATOM      3  H1  UNL     1      16.021   3.904   3.065  1.00  0.00     0.167 HD
HETATM    4  C7  UNL     1      14.829   2.756   1.868  1.00  0.00     0.111 A 
HETATM    5  C8  UNL     1      15.862   1.952   1.410  1.00  0.00     0.144 A 
HETATM    6  N3  UNL     1      15.639   0.952   0.535  1.00  0.00    -0.175 N 
ATOM      7  H3  UNL     1      16.411   0.370   0.207  1.00  0.00     0.186 HD
HETATM    8  C9  UNL     1      14.391   0.734   0.100  1.00  0.00     0.680 A 
HETATM    9  N5  UNL     1      13.353   1.501   0.528  1.00  0.00    -0.184 N 
ATOM     10  H5  UNL     1      12.410   1.318   0.186  1.00  0.00     0.184 HD
HETATM   11  C13 UNL     1      13.563   2.491   1.392  1.00  0.00     0.147 A 
HETATM   12  C14 UNL     1      12.565   3.326   1.884  1.00  0.00     0.279 A 
HETATM   13  O2  UNL     1      11.374   3.135   1.484  1.00  0.00    -0.265 OA
HETATM   14  N6  UNL     1      12.801   4.320   2.758  1.00  0.00    -0.297 N 
ENDROOT
BRANCH   8  15
HETATM   15  N4  UNL     1      14.183  -0.218  -0.733  1.00  0.00    -0.220 N 
ATOM     16  H4  UNL     1      13.735   0.042  -1.612  1.00  0.00     0.178 HD
BRANCH  15  17
HETATM   17  C10 UNL     1      14.506  -1.594  -0.576  1.00  0.00     0.118 C 
HETATM   18  C11 UNL     1      13.217  -2.393  -0.818  1.00  0.00     0.035 C 
BRANCH  17  19
HETATM   19  C12 UNL     1      15.517  -2.102  -1.584  1.00  0.00     0.189 C 
BRANCH  19  20
HETATM   20  O1  UNL     1      16.727  -1.455  -1.340  1.00  0.00    -0.399 OA
ATOM     21  H1  UNL     1      17.029  -1.082  -2.160  1.00  0.00     0.209 HD
ENDBRANCH  19  20
ENDBRANCH  17  19
ENDBRANCH  15  17
ENDBRANCH   8  15
BRANCH   5  22
HETATM   22  N2  UNL     1      17.070   2.141   1.811  1.00  0.00    -0.383 N 
ATOM     23  H22 UNL     1      17.206   2.597   2.713  1.00  0.00     0.157 HD
ATOM     24  H21 UNL     1      17.861   1.842   1.241  1.00  0.00     0.157 HD
ENDBRANCH   5  22
BRANCH  14  25
HETATM   25  C15 UNL     1      11.677   5.111   3.200  1.00  0.00     0.094 C 
HETATM   26  C16 UNL     1      10.698   4.337   4.056  1.00  0.00     0.026 C 
HETATM   27  C17 UNL     1       9.658   5.383   4.488  1.00  0.00     0.002 C 
HETATM   28  C18 UNL     1       8.787   5.576   3.276  1.00  0.00     0.000 C 
HETATM   29  C19 UNL     1       9.553   5.823   2.034  1.00  0.00     0.002 C 
HETATM   30  C20 UNL     1      11.021   5.923   2.133  1.00  0.00     0.026 C 
ENDBRANCH  14  25
BRANCH   1  31
HETATM   31  C5  UNL     1      14.253   5.645   4.154  1.00  0.00     0.077 C 
BRANCH  31  32
HETATM   32  C4  UNL     1      15.019   6.784   3.548  1.00  0.00     0.007 C 
BRANCH  32  33
HETATM   33  C3  UNL     1      14.440   8.139   3.782  1.00  0.00     0.000 C 
BRANCH  33  34
HETATM   34  C2  UNL     1      13.610   8.493   2.530  1.00  0.00    -0.005 C 
HETATM   35  C1  UNL     1      14.139   7.796   1.320  1.00  0.00     0.005 C 
ENDBRANCH  33  34
ENDBRANCH  32  33
ENDBRANCH  31  32
ENDBRANCH   1  31
TORSDOF 10
ENDMDL
MODEL 2
REMARK VINA RESULT: -6.285566301      1.561      3.792
REMARK  10 active torsions:
REMARK  status: ('A' for Active; 'I' for Inactive)
REMARK    1  A    between atoms: C2_2  and  C3_3 
REMARK    2  A    between atoms: C3_3  and  C4_4 
REMARK    3  A    between atoms: C4_4  and  C5_5 
REMARK    4  A    between atoms: C5_5  and  C6_6 
REMARK    5  A    between atoms: C8_10  and  N2_11 
REMARK    6  A    between atoms: C9_16  and  N4_17 
REMARK    7  A    between atoms: N4_17  and  C10_19 
REMARK    8  A    between atoms: C10_19  and  C12_21 
REMARK    9  A    between atoms: C12_21  and  O1_22 
REMARK   10  A    between atoms: N6_29  and  C15_30 
ROOT
HETATM    1  C6  UNL     1      12.422   4.325   1.950  1.00  0.00     0.087 A 
HETATM    2  N1  UNL     1      11.992   3.151   1.475  1.00  0.00    -0.341 N 
ATOM      3  H1  UNL     1      10.991   2.954   1.473  1.00  0.00     0.167 HD
HETATM    4  C7  UNL     1      12.840   2.225   1.002  1.00  0.00     0.111 A 
HETATM    5  C8  UNL     1      12.369   1.015   0.515  1.00  0.00     0.144 A 
HETATM    6  N3  UNL     1      13.208   0.075   0.035  1.00  0.00    -0.175 N 
ATOM      7  H3  UNL     1      12.846  -0.810  -0.319  1.00  0.00     0.186 HD
HETATM    8  C9  UNL     1      14.525   0.321   0.032  1.00  0.00     0.680 A 
HETATM    9  N5  UNL     1      15.024   1.496   0.501  1.00  0.00    -0.184 N 
ATOM     10  H5  UNL     1      16.030   1.663   0.489  1.00  0.00     0.184 HD
HETATM   11  C13 UNL     1      14.203   2.429   0.976  1.00  0.00     0.147 A 
HETATM   12  C14 UNL     1      14.621   3.658   1.476  1.00  0.00     0.279 A 
HETATM   13  O2  UNL     1      15.867   3.910   1.482  1.00  0.00    -0.265 OA
HETATM   14  N6  UNL     1      13.773   4.587   1.951  1.00  0.00    -0.297 N 
ENDROOT
BRANCH   8  15
HETATM   15  N4  UNL     1      15.320  -0.576  -0.424  1.00  0.00    -0.220 N 
ATOM     16  H4  UNL     1      16.310  -0.330  -0.450  1.00  0.00     0.178 HD
BRANCH  15  17
HETATM   17  C10 UNL     1      14.983  -1.874  -0.898  1.00  0.00     0.118 C 
HETATM   18  C11 UNL     1      14.967  -1.808  -2.431  1.00  0.00     0.035 C 
BRANCH  17  19
HETATM   19  C12 UNL     1      15.995  -2.940  -0.529  1.00  0.00     0.189 C 
BRANCH  19  20
HETATM   20  O1  UNL     1      16.744  -2.464   0.547  1.00  0.00    -0.399 OA
ATOM     21  H1  UNL     1      17.603  -2.870   0.507  1.00  0.00     0.209 HD
ENDBRANCH  19  20
ENDBRANCH  17  19
ENDBRANCH  15  17
ENDBRANCH   8  15
BRANCH   5  22
HETATM   22  N2  UNL     1      11.109   0.754   0.508  1.00  0.00    -0.383 N 
ATOM     23  H22 UNL     1      10.472   1.480   0.835  1.00  0.00     0.157 HD
ATOM     24  H21 UNL     1      10.766  -0.149   0.183  1.00  0.00     0.157 HD
ENDBRANCH   5  22
BRANCH  14  25
HETATM   25  C15 UNL     1      14.332   5.827   2.434  1.00  0.00     0.094 C 
HETATM   26  C16 UNL     1      13.891   6.178   3.838  1.00  0.00     0.026 C 
HETATM   27  C17 UNL     1      14.673   7.457   4.177  1.00  0.00     0.002 C 
HETATM   28  C18 UNL     1      13.949   8.551   3.438  1.00  0.00     0.000 C 
HETATM   29  C19 UNL     1      13.705   8.237   2.013  1.00  0.00     0.002 C 
HETATM   30  C20 UNL     1      14.242   6.972   1.480  1.00  0.00     0.026 C 
ENDBRANCH  14  25
BRANCH   1  31
HETATM   31  C5  UNL     1      11.568   5.399   2.488  1.00  0.00     0.077 C 
BRANCH  31  32
HETATM   32  C4  UNL     1      10.294   5.532   1.707  1.00  0.00     0.007 C 
BRANCH  32  33
HETATM   33  C3  UNL     1       9.088   5.892   2.509  1.00  0.00     0.000 C 
BRANCH  33  34
HETATM   34  C2  UNL     1       8.052   6.471   1.523  1.00  0.00    -0.005 C 
HETATM   35  C1  UNL     1       7.783   5.519   0.404  1.00  0.00     0.005 C 
ENDBRANCH  33  34
ENDBRANCH  32  33
ENDBRANCH  31  32
ENDBRANCH   1  31
TORSDOF 10
ENDMDL
MODEL 3
REMARK VINA RESULT: -6.182431560      1.604      3.654
REMARK  10 active torsions:
REMARK  status: ('A' for Active; 'I' for Inactive)
REMARK    1  A    between atoms: C2_2  and  C3_3 
REMARK    2  A    between atoms: C3_3  and  C4_4 
REMARK    3  A    between atoms: C4_4  and  C5_5 
REMARK    4  A    between atoms: C5_5  and  C6_6 
REMARK    5  A    between atoms: C8_10  and  N2_11 
REMARK    6  A    between atoms: C9_16  and  N4_17 
REMARK    7  A    between atoms: N4_17  and  C10_19 
REMARK    8  A    between atoms: C10_19  and  C12_21 
REMARK    9  A    between atoms: C12_21  and  O1_22 
REMARK   10  A    between atoms: N6_29  and  C15_30 
ROOT
HETATM    1  C6  UNL     1      12.473   4.468   1.841  1.00  0.00     0.087 A 
HETATM    2  N1  UNL     1      12.032   3.287   1.395  1.00  0.00    -0.341 N 
ATOM      3  H1  UNL     1      11.029   3.101   1.392  1.00  0.00     0.167 HD
HETATM    4  C7  UNL     1      12.871   2.339   0.951  1.00  0.00     0.111 A 
HETATM    5  C8  UNL     1      12.389   1.122   0.492  1.00  0.00     0.144 A 
HETATM    6  N3  UNL     1      13.219   0.160   0.043  1.00  0.00    -0.175 N 
ATOM      7  H3  UNL     1      12.848  -0.730  -0.291  1.00  0.00     0.186 HD
HETATM    8  C9  UNL     1      14.539   0.390   0.040  1.00  0.00     0.680 A 
HETATM    9  N5  UNL     1      15.049   1.571   0.481  1.00  0.00    -0.184 N 
ATOM     10  H5  UNL     1      16.057   1.726   0.470  1.00  0.00     0.184 HD
HETATM   11  C13 UNL     1      14.237   2.526   0.927  1.00  0.00     0.147 A 
HETATM   12  C14 UNL     1      14.667   3.763   1.397  1.00  0.00     0.279 A 
HETATM   13  O2  UNL     1      15.916   4.000   1.403  1.00  0.00    -0.265 OA
HETATM   14  N6  UNL     1      13.828   4.714   1.843  1.00  0.00    -0.297 N 
ENDROOT
BRANCH   8  15
HETATM   15  N4  UNL     1      15.325  -0.527  -0.388  1.00  0.00    -0.220 N 
ATOM     16  H4  UNL     1      16.319  -0.298  -0.404  1.00  0.00     0.178 HD
BRANCH  15  17
HETATM   17  C10 UNL     1      14.974  -1.829  -0.843  1.00  0.00     0.118 C 
HETATM   18  C11 UNL     1      14.930  -1.776  -2.377  1.00  0.00     0.035 C 
BRANCH  17  19
HETATM   19  C12 UNL     1      15.988  -2.895  -0.483  1.00  0.00     0.189 C 
BRANCH  19  20
HETATM   20  O1  UNL     1      16.769  -2.407   0.564  1.00  0.00    -0.399 OA
ATOM     21  H1  UNL     1      17.569  -2.919   0.595  1.00  0.00     0.209 HD
ENDBRANCH  19  20
ENDBRANCH  17  19
ENDBRANCH  15  17
ENDBRANCH   8  15
BRANCH   5  22
HETATM   22  N2  UNL     1      11.126   0.876   0.485  1.00  0.00    -0.383 N 
ATOM     23  H22 UNL     1      10.512   1.524   0.979  1.00  0.00     0.157 HD
ATOM     24  H21 UNL     1      10.757   0.060  -0.001  1.00  0.00     0.157 HD
ENDBRANCH   5  22
BRANCH  14  25
HETATM   25  C15 UNL     1      14.399   5.959   2.296  1.00  0.00     0.094 C 
HETATM   26  C16 UNL     1      14.166   6.227   3.767  1.00  0.00     0.026 C 
HETATM   27  C17 UNL     1      14.933   7.529   4.046  1.00  0.00     0.002 C 
HETATM   28  C18 UNL     1      14.055   8.614   3.482  1.00  0.00     0.000 C 
HETATM   29  C19 UNL     1      13.608   8.350   2.098  1.00  0.00     0.002 C 
HETATM   30  C20 UNL     1      14.111   7.137   1.426  1.00  0.00     0.026 C 
ENDBRANCH  14  25
BRANCH   1  31
HETATM   31  C5  UNL     1      11.629   5.566   2.347  1.00  0.00     0.077 C 
BRANCH  31  32
HETATM   32  C4  UNL     1      10.627   5.072   3.348  1.00  0.00     0.007 C 
BRANCH  32  33
HETATM   33  C3  UNL     1      11.196   4.621   4.652  1.00  0.00     0.000 C 
BRANCH  33  34
HETATM   34  C2  UNL     1      10.725   5.631   5.719  1.00  0.00    -0.005 C 
HETATM   35  C1  UNL     1      11.844   6.012   6.631  1.00  0.00     0.005 C 
ENDBRANCH  33  34
ENDBRANCH  32  33
ENDBRANCH  31  32
ENDBRANCH   1  31
TORSDOF 10
ENDMDL
MODEL 4
REMARK VINA RESULT: -6.033559915      0.996      1.440
REMARK  10 active torsions:
REMARK  status: ('A' for Active; 'I' for Inactive)
REMARK    1  A    between atoms: C2_2  and  C3_3 
REMARK    2  A    between atoms: C3_3  and  C4_4 
REMARK    3  A    between atoms: C4_4  and  C5_5 
REMARK    4  A    between atoms: C5_5  and  C6_6 
REMARK    5  A    between atoms: C8_10  and  N2_11 
REMARK    6  A    between atoms: C9_16  and  N4_17 
REMARK    7  A    between atoms: N4_17  and  C10_19 
REMARK    8  A    between atoms: C10_19  and  C12_21 
REMARK    9  A    between atoms: C12_21  and  O1_22 
REMARK   10  A    between atoms: N6_29  and  C15_30 
ROOT
HETATM    1  C6  UNL     1      13.166   3.946   2.781  1.00  0.00     0.087 A 
HETATM    2  N1  UNL     1      14.354   3.408   2.486  1.00  0.00    -0.341 N 
ATOM      3  H1  UNL     1      15.179   3.716   3.000  1.00  0.00     0.167 HD
HETATM    4  C7  UNL     1      14.492   2.474   1.532  1.00  0.00     0.111 A 
HETATM    5  C8  UNL     1      15.735   1.931   1.246  1.00  0.00     0.144 A 
HETATM    6  N3  UNL     1      15.890   0.992   0.291  1.00  0.00    -0.175 N 
ATOM      7  H3  UNL     1      16.812   0.603   0.092  1.00  0.00     0.186 HD
HETATM    8  C9  UNL     1      14.814   0.577  -0.393  1.00  0.00     0.680 A 
HETATM    9  N5  UNL     1      13.580   1.086  -0.139  1.00  0.00    -0.184 N 
ATOM     10  H5  UNL     1      12.774   0.756  -0.671  1.00  0.00     0.184 HD
HETATM   11  C13 UNL     1      13.418   2.013   0.801  1.00  0.00     0.147 A 
HETATM   12  C14 UNL     1      12.195   2.590   1.129  1.00  0.00     0.279 A 
HETATM   13  O2  UNL     1      11.163   2.210   0.492  1.00  0.00    -0.265 OA
HETATM   14  N6  UNL     1      12.055   3.527   2.084  1.00  0.00    -0.297 N 
ENDROOT
BRANCH   8  15
HETATM   15  N4  UNL     1      14.966  -0.315  -1.300  1.00  0.00    -0.220 N 
ATOM     16  H4  UNL     1      15.315   0.012  -2.201  1.00  0.00     0.178 HD
BRANCH  15  17
HETATM   17  C10 UNL     1      14.704  -1.710  -1.197  1.00  0.00     0.118 C 
HETATM   18  C11 UNL     1      14.244  -2.189  -2.581  1.00  0.00     0.035 C 
BRANCH  17  19
HETATM   19  C12 UNL     1      15.925  -2.536  -0.846  1.00  0.00     0.189 C 
BRANCH  19  20
HETATM   20  O1  UNL     1      16.330  -2.176   0.439  1.00  0.00    -0.399 OA
ATOM     21  H1  UNL     1      16.293  -1.229   0.501  1.00  0.00     0.209 HD
ENDBRANCH  19  20
ENDBRANCH  17  19
ENDBRANCH  15  17
ENDBRANCH   8  15
BRANCH   5  22
HETATM   22  N2  UNL     1      16.783   2.313   1.887  1.00  0.00    -0.383 N 
ATOM     23  H22 UNL     1      16.649   2.758   2.795  1.00  0.00     0.157 HD
ATOM     24  H21 UNL     1      17.714   2.172   1.495  1.00  0.00     0.157 HD
ENDBRANCH   5  22
BRANCH  14  25
HETATM   25  C15 UNL     1      10.730   4.041   2.336  1.00  0.00     0.094 C 
HETATM   26  C16 UNL     1      10.630   5.543   2.185  1.00  0.00     0.026 C 
HETATM   27  C17 UNL     1       9.139   5.851   2.394  1.00  0.00     0.002 C 
HETATM   28  C18 UNL     1       8.939   5.764   3.884  1.00  0.00     0.000 C 
HETATM   29  C19 UNL     1       9.488   4.527   4.480  1.00  0.00     0.002 C 
HETATM   30  C20 UNL     1      10.079   3.524   3.576  1.00  0.00     0.026 C 
ENDBRANCH  14  25
BRANCH   1  31
HETATM   31  C5  UNL     1      12.918   4.974   3.808  1.00  0.00     0.077 C 
BRANCH  31  32
HETATM   32  C4  UNL     1      14.146   5.797   4.069  1.00  0.00     0.007 C 
BRANCH  32  33
HETATM   33  C3  UNL     1      13.891   7.199   4.510  1.00  0.00     0.000 C 
BRANCH  33  34
HETATM   34  C2  UNL     1      14.594   8.122   3.493  1.00  0.00    -0.005 C 
HETATM   35  C1  UNL     1      13.829   8.192   2.212  1.00  0.00     0.005 C 
ENDBRANCH  33  34
ENDBRANCH  32  33
ENDBRANCH  31  32
ENDBRANCH   1  31
TORSDOF 10
ENDMDL
MODEL 5
REMARK VINA RESULT: -6.033367182      1.862      2.192
REMARK  10 active torsions:
REMARK  status: ('A' for Active; 'I' for Inactive)
REMARK    1  A    between atoms: C2_2  and  C3_3 
REMARK    2  A    between atoms: C3_3  and  C4_4 
REMARK    3  A    between atoms: C4_4  and  C5_5 
REMARK    4  A    between atoms: C5_5  and  C6_6 
REMARK    5  A    between atoms: C8_10  and  N2_11 
REMARK    6  A    between atoms: C9_16  and  N4_17 
REMARK    7  A    between atoms: N4_17  and  C10_19 
REMARK    8  A    between atoms: C10_19  and  C12_21 
REMARK    9  A    between atoms: C12_21  and  O1_22 
REMARK   10  A    between atoms: N6_29  and  C15_30 
ROOT
HETATM    1  C6  UNL     1      12.441   3.844   2.197  1.00  0.00     0.087 A 
HETATM    2  N1  UNL     1      13.732   3.519   2.069  1.00  0.00    -0.341 N 
ATOM      3  H1  UNL     1      14.431   4.050   2.589  1.00  0.00     0.167 HD
HETATM    4  C7  UNL     1      14.134   2.513   1.277  1.00  0.00     0.111 A 
HETATM    5  C8  UNL     1      15.479   2.194   1.163  1.00  0.00     0.144 A 
HETATM    6  N3  UNL     1      15.898   1.187   0.372  1.00  0.00    -0.175 N 
ATOM      7  H3  UNL     1      16.892   0.965   0.298  1.00  0.00     0.186 HD
HETATM    8  C9  UNL     1      14.991   0.480  -0.316  1.00  0.00     0.680 A 
HETATM    9  N5  UNL     1      13.665   0.762  -0.228  1.00  0.00    -0.184 N 
ATOM     10  H5  UNL     1      12.991   0.211  -0.760  1.00  0.00     0.184 HD
HETATM   11  C13 UNL     1      13.242   1.755   0.550  1.00  0.00     0.147 A 
HETATM   12  C14 UNL     1      11.907   2.116   0.701  1.00  0.00     0.279 A 
HETATM   13  O2  UNL     1      11.031   1.458   0.057  1.00  0.00    -0.265 OA
HETATM   14  N6  UNL     1      11.502   3.124   1.494  1.00  0.00    -0.297 N 
ENDROOT
BRANCH   8  15
HETATM   15  N4  UNL     1      15.394  -0.477  -1.068  1.00  0.00    -0.220 N 
ATOM     16  H4  UNL     1      16.169  -0.262  -1.696  1.00  0.00     0.178 HD
BRANCH  15  17
HETATM   17  C10 UNL     1      14.888  -1.806  -1.128  1.00  0.00     0.118 C 
HETATM   18  C11 UNL     1      14.399  -2.041  -2.563  1.00  0.00     0.035 C 
BRANCH  17  19
HETATM   19  C12 UNL     1      15.933  -2.869  -0.855  1.00  0.00     0.189 C 
BRANCH  19  20
HETATM   20  O1  UNL     1      16.684  -2.459   0.247  1.00  0.00    -0.399 OA
ATOM     21  H1  UNL     1      16.087  -2.328   0.974  1.00  0.00     0.209 HD
ENDBRANCH  19  20
ENDBRANCH  17  19
ENDBRANCH  15  17
ENDBRANCH   8  15
BRANCH   5  22
HETATM   22  N2  UNL     1      16.370   2.858   1.812  1.00  0.00    -0.383 N 
ATOM     23  H22 UNL     1      16.219   3.859   1.939  1.00  0.00     0.157 HD
ATOM     24  H21 UNL     1      17.197   2.393   2.186  1.00  0.00     0.157 HD
ENDBRANCH   5  22
BRANCH  14  25
HETATM   25  C15 UNL     1      10.086   3.394   1.573  1.00  0.00     0.094 C 
HETATM   26  C16 UNL     1       9.280   2.222   2.090  1.00  0.00     0.026 C 
HETATM   27  C17 UNL     1       7.842   2.759   2.186  1.00  0.00     0.002 C 
HETATM   28  C18 UNL     1       7.344   2.761   0.766  1.00  0.00     0.000 C 
HETATM   29  C19 UNL     1       8.271   3.413  -0.184  1.00  0.00     0.002 C 
HETATM   30  C20 UNL     1       9.497   4.029   0.357  1.00  0.00     0.026 C 
ENDBRANCH  14  25
BRANCH   1  31
HETATM   31  C5  UNL     1      11.908   4.929   3.040  1.00  0.00     0.077 C 
BRANCH  31  32
HETATM   32  C4  UNL     1      12.751   6.167   2.942  1.00  0.00     0.007 C 
BRANCH  32  33
HETATM   33  C3  UNL     1      12.632   6.921   1.660  1.00  0.00     0.000 C 
BRANCH  33  34
HETATM   34  C2  UNL     1      13.592   8.124   1.758  1.00  0.00    -0.005 C 
HETATM   35  C1  UNL     1      14.274   8.161   3.086  1.00  0.00     0.005 C 
ENDBRANCH  33  34
ENDBRANCH  32  33
ENDBRANCH  31  32
ENDBRANCH   1  31
TORSDOF 10
ENDMDL
