MODEL 1
REMARK VINA RESULT: -7.186250914      0.000      0.000
REMARK  11 active torsions:
REMARK  status: ('A' for Active; 'I' for Inactive)
REMARK    1  A    between atoms: C4_5  and  O2_6 
REMARK    2  A    between atoms: O2_6  and  C5_7 
REMARK    3  A    between atoms: C5_7  and  C6_8 
REMARK    4  A    between atoms: C6_8  and  C20_24 
REMARK    5  A    between atoms: C7_9  and  C8_10 
REMARK    6  A    between atoms: C8_10  and  C9_11 
REMARK    7  A    between atoms: C9_11  and  C10_12 
REMARK    8  A    between atoms: C10_12  and  O3_13 
REMARK    9  A    between atoms: C20_24  and  O4_25 
REMARK   10  A    between atoms: C21_27  and  O5_28 
REMARK   11  A    between atoms: C22_30  and  O6_31 
ROOT
HETATM    1  C6  UNL     1      14.833   1.229   1.852  1.00  0.00    -0.037 C 
HETATM    2  C7  UNL     1      13.763   1.450   2.571  1.00  0.00    -0.020 C 
ENDROOT
BRANCH   1   3
HETATM    3  C5  UNL     1      14.672   0.809   0.405  1.00  0.00     0.204 C 
BRANCH   3   4
HETATM    4  O2  UNL     1      14.712  -0.457   0.079  1.00  0.00    -0.377 OA
BRANCH   4   5
HETATM    5  C4  UNL     1      15.433  -1.098  -0.821  1.00  0.00     0.176 C 
HETATM    6  C3  UNL     1      15.963  -2.458  -0.328  1.00  0.00     0.203 C 
HETATM    7  O1  UNL     1      14.959  -3.138   0.311  1.00  0.00    -0.381 OA
HETATM    8  C2  UNL     1      13.876  -3.427  -0.501  1.00  0.00     0.148 C 
HETATM    9  C1  UNL     1      12.613  -3.078   0.221  1.00  0.00     0.042 C 
HETATM   10  C22 UNL     1      13.980  -2.875  -1.878  1.00  0.00     0.178 C 
HETATM   11  C21 UNL     1      14.508  -1.488  -1.993  1.00  0.00     0.180 C 
BRANCH  10  12
HETATM   12  O6  UNL     1      14.640  -3.777  -2.745  1.00  0.00    -0.390 OA
ATOM     13  H6  UNL     1      15.569  -3.825  -2.552  1.00  0.00     0.210 HD
ENDBRANCH  10  12
BRANCH  11  14
HETATM   14  O5  UNL     1      15.249  -1.398  -3.186  1.00  0.00    -0.390 OA
ATOM     15  H5  UNL     1      14.690  -1.017  -3.854  1.00  0.00     0.210 HD
ENDBRANCH  11  14
ENDBRANCH   4   5
ENDBRANCH   3   4
ENDBRANCH   1   3
BRANCH   1  16
HETATM   16  C20 UNL     1      16.197   1.324   2.400  1.00  0.00     0.200 C 
BRANCH  16  17
HETATM   17  O4  UNL     1      16.763   0.014   2.405  1.00  0.00    -0.397 OA
ATOM     18  H4  UNL     1      17.060  -0.174   3.287  1.00  0.00     0.209 HD
ENDBRANCH  16  17
ENDBRANCH   1  16
BRANCH   2  19
HETATM   19  C8  UNL     1      13.700   1.856   3.963  1.00  0.00     0.030 C 
BRANCH  19  20
HETATM   20  C9  UNL     1      12.709   2.944   4.214  1.00  0.00     0.041 C 
BRANCH  20  21
HETATM   21  C10 UNL     1      13.295   4.329   4.123  1.00  0.00     0.058 C 
HETATM   22  C11 UNL     1      13.234   5.000   5.477  1.00  0.00     0.038 C 
HETATM   23  C12 UNL     1      13.126   6.467   5.516  1.00  0.00     0.003 C 
HETATM   24  C13 UNL     1      14.367   7.201   5.063  1.00  0.00     0.000 C 
HETATM   25  C14 UNL     1      14.021   8.267   4.021  1.00  0.00     0.000 C 
HETATM   26  C15 UNL     1      14.831   8.136   2.772  1.00  0.00     0.000 C 
HETATM   27  C16 UNL     1      14.048   8.012   1.510  1.00  0.00     0.000 C 
HETATM   28  C17 UNL     1      13.069   6.897   1.445  1.00  0.00     0.000 C 
HETATM   29  C18 UNL     1      13.616   5.574   1.946  1.00  0.00     0.003 C 
HETATM   30  C19 UNL     1      12.671   5.092   3.028  1.00  0.00     0.038 C 
BRANCH  21  31
HETATM   31  O3  UNL     1      14.657   4.182   3.864  1.00  0.00    -0.390 OA
ATOM     32  H3  UNL     1      15.063   5.028   4.014  1.00  0.00     0.210 HD
ENDBRANCH  21  31
ENDBRANCH  20  21
ENDBRANCH  19  20
ENDBRANCH   2  19
TORSDOF 11
ENDMDL
MODEL 2
REMARK VINA RESULT: -7.020800247      0.905      1.970
REMARK  11 active torsions:
REMARK  status: ('A' for Active; 'I' for Inactive)
REMARK    1  A    between atoms: C4_5  and  O2_6 
REMARK    2  A    between atoms: O2_6  and  C5_7 
REMARK    3  A    between atoms: C5_7  and  C6_8 
REMARK    4  A    between atoms: C6_8  and  C20_24 
REMARK    5  A    between atoms: C7_9  and  C8_10 
REMARK    6  A    between atoms: C8_10  and  C9_11 
REMARK    7  A    between atoms: C9_11  and  C10_12 
REMARK    8  A    between atoms: C10_12  and  O3_13 
REMARK    9  A    between atoms: C20_24  and  O4_25 
REMARK   10  A    between atoms: C21_27  and  O5_28 
REMARK   11  A    between atoms: C22_30  and  O6_31 
ROOT
HETATM    1  C6  UNL     1      14.856   1.289   1.658  1.00  0.00    -0.037 C 
HETATM    2  C7  UNL     1      13.680   1.629   2.118  1.00  0.00    -0.020 C 
ENDROOT
BRANCH   1   3
HETATM    3  C5  UNL     1      14.953   0.652   0.287  1.00  0.00     0.204 C 
BRANCH   3   4
HETATM    4  O2  UNL     1      15.140  -0.638   0.173  1.00  0.00    -0.377 OA
BRANCH   4   5
HETATM    5  C4  UNL     1      15.663  -1.354  -0.804  1.00  0.00     0.176 C 
HETATM    6  C3  UNL     1      15.833  -2.844  -0.451  1.00  0.00     0.203 C 
HETATM    7  O1  UNL     1      14.697  -3.304   0.163  1.00  0.00    -0.381 OA
HETATM    8  C2  UNL     1      13.566  -3.233  -0.631  1.00  0.00     0.148 C 
HETATM    9  C1  UNL     1      12.444  -2.643   0.163  1.00  0.00     0.042 C 
HETATM   10  C22 UNL     1      13.791  -2.599  -1.959  1.00  0.00     0.178 C 
HETATM   11  C21 UNL     1      14.654  -1.387  -1.971  1.00  0.00     0.180 C 
BRANCH  10  12
HETATM   12  O6  UNL     1      14.188  -3.555  -2.924  1.00  0.00    -0.390 OA
ATOM     13  H6  UNL     1      13.655  -4.340  -2.872  1.00  0.00     0.210 HD
ENDBRANCH  10  12
BRANCH  11  14
HETATM   14  O5  UNL     1      15.378  -1.377  -3.179  1.00  0.00    -0.390 OA
ATOM     15  H5  UNL     1      15.047  -2.078  -3.729  1.00  0.00     0.210 HD
ENDBRANCH  11  14
ENDBRANCH   4   5
ENDBRANCH   3   4
ENDBRANCH   1   3
BRANCH   1  16
HETATM   16  C20 UNL     1      16.096   1.455   2.436  1.00  0.00     0.200 C 
BRANCH  16  17
HETATM   17  O4  UNL     1      16.692   0.169   2.595  1.00  0.00    -0.397 OA
ATOM     18  H4  UNL     1      16.950   0.075   3.504  1.00  0.00     0.209 HD
ENDBRANCH  16  17
ENDBRANCH   1  16
BRANCH   2  19
HETATM   19  C8  UNL     1      13.373   2.247   3.395  1.00  0.00     0.030 C 
BRANCH  19  20
HETATM   20  C9  UNL     1      12.178   3.141   3.344  1.00  0.00     0.041 C 
BRANCH  20  21
HETATM   21  C10 UNL     1      12.510   4.576   3.027  1.00  0.00     0.058 C 
HETATM   22  C11 UNL     1      12.611   4.758   1.529  1.00  0.00     0.038 C 
HETATM   23  C12 UNL     1      13.509   5.807   1.020  1.00  0.00     0.003 C 
HETATM   24  C13 UNL     1      13.043   7.219   1.290  1.00  0.00     0.000 C 
HETATM   25  C14 UNL     1      14.162   8.053   1.919  1.00  0.00     0.000 C 
HETATM   26  C15 UNL     1      13.743   8.715   3.191  1.00  0.00     0.000 C 
HETATM   27  C16 UNL     1      14.595   8.421   4.377  1.00  0.00     0.000 C 
HETATM   28  C17 UNL     1      14.764   6.989   4.733  1.00  0.00     0.000 C 
HETATM   29  C18 UNL     1      13.470   6.198   4.711  1.00  0.00     0.003 C 
HETATM   30  C19 UNL     1      13.693   5.021   3.783  1.00  0.00     0.038 C 
BRANCH  21  31
HETATM   31  O3  UNL     1      11.408   5.345   3.400  1.00  0.00    -0.390 OA
ATOM     32  H3  UNL     1      10.720   5.172   2.769  1.00  0.00     0.210 HD
ENDBRANCH  21  31
ENDBRANCH  20  21
ENDBRANCH  19  20
ENDBRANCH   2  19
TORSDOF 11
ENDMDL
MODEL 3
REMARK VINA RESULT: -6.421091885      1.607      2.649
REMARK  11 active torsions:
REMARK  status: ('A' for Active; 'I' for Inactive)
REMARK    1  A    between atoms: C4_5  and  O2_6 
REMARK    2  A    between atoms: O2_6  and  C5_7 
REMARK    3  A    between atoms: C5_7  and  C6_8 
REMARK    4  A    between atoms: C6_8  and  C20_24 
REMARK    5  A    between atoms: C7_9  and  C8_10 
REMARK    6  A    between atoms: C8_10  and  C9_11 
REMARK    7  A    between atoms: C9_11  and  C10_12 
REMARK    8  A    between atoms: C10_12  and  O3_13 
REMARK    9  A    between atoms: C20_24  and  O4_25 
REMARK   10  A    between atoms: C21_27  and  O5_28 
REMARK   11  A    between atoms: C22_30  and  O6_31 
ROOT
HETATM    1  C6  UNL     1      15.186   1.637   1.173  1.00  0.00    -0.037 C 
HETATM    2  C7  UNL     1      15.211   2.903   0.843  1.00  0.00    -0.020 C 
ENDROOT
BRANCH   1   3
HETATM    3  C5  UNL     1      14.665   0.627   0.171  1.00  0.00     0.204 C 
BRANCH   3   4
HETATM    4  O2  UNL     1      15.125  -0.598   0.172  1.00  0.00    -0.377 OA
BRANCH   4   5
HETATM    5  C4  UNL     1      15.653  -1.325  -0.794  1.00  0.00     0.176 C 
HETATM    6  C3  UNL     1      15.802  -2.815  -0.431  1.00  0.00     0.203 C 
HETATM    7  O1  UNL     1      14.652  -3.259   0.170  1.00  0.00    -0.381 OA
HETATM    8  C2  UNL     1      13.533  -3.179  -0.641  1.00  0.00     0.148 C 
HETATM    9  C1  UNL     1      12.407  -2.572   0.135  1.00  0.00     0.042 C 
HETATM   10  C22 UNL     1      13.783  -2.555  -1.968  1.00  0.00     0.178 C 
HETATM   11  C21 UNL     1      14.660  -1.352  -1.975  1.00  0.00     0.180 C 
BRANCH  10  12
HETATM   12  O6  UNL     1      14.182  -3.520  -2.923  1.00  0.00    -0.390 OA
ATOM     13  H6  UNL     1      15.129  -3.570  -2.988  1.00  0.00     0.210 HD
ENDBRANCH  10  12
BRANCH  11  14
HETATM   14  O5  UNL     1      15.401  -1.357  -3.172  1.00  0.00    -0.390 OA
ATOM     15  H5  UNL     1      14.925  -0.848  -3.817  1.00  0.00     0.210 HD
ENDBRANCH  11  14
ENDBRANCH   4   5
ENDBRANCH   3   4
ENDBRANCH   1   3
BRANCH   1  16
HETATM   16  C20 UNL     1      15.599   1.150   2.500  1.00  0.00     0.200 C 
BRANCH  16  17
HETATM   17  O4  UNL     1      16.603   0.155   2.312  1.00  0.00    -0.397 OA
ATOM     18  H4  UNL     1      17.151   0.140   3.088  1.00  0.00     0.209 HD
ENDBRANCH  16  17
ENDBRANCH   1  16
BRANCH   2  19
HETATM   19  C8  UNL     1      15.669   4.020   1.649  1.00  0.00     0.030 C 
BRANCH  19  20
HETATM   20  C9  UNL     1      14.760   5.203   1.584  1.00  0.00     0.041 C 
BRANCH  20  21
HETATM   21  C10 UNL     1      13.636   5.158   2.587  1.00  0.00     0.058 C 
HETATM   22  C11 UNL     1      14.011   4.248   3.735  1.00  0.00     0.038 C 
HETATM   23  C12 UNL     1      12.927   3.555   4.449  1.00  0.00     0.003 C 
HETATM   24  C13 UNL     1      12.045   4.456   5.281  1.00  0.00     0.000 C 
HETATM   25  C14 UNL     1      10.566   4.206   4.976  1.00  0.00     0.000 C 
HETATM   26  C15 UNL     1       9.831   5.456   4.615  1.00  0.00     0.000 C 
HETATM   27  C16 UNL     1       9.123   5.427   3.304  1.00  0.00     0.000 C 
HETATM   28  C17 UNL     1       9.950   5.115   2.111  1.00  0.00     0.000 C 
HETATM   29  C18 UNL     1      11.266   5.868   2.066  1.00  0.00     0.003 C 
HETATM   30  C19 UNL     1      12.360   4.828   1.929  1.00  0.00     0.038 C 
BRANCH  21  31
HETATM   31  O3  UNL     1      13.545   6.427   3.158  1.00  0.00    -0.390 OA
ATOM     32  H3  UNL     1      13.031   6.964   2.567  1.00  0.00     0.210 HD
ENDBRANCH  21  31
ENDBRANCH  20  21
ENDBRANCH  19  20
ENDBRANCH   2  19
TORSDOF 11
ENDMDL
MODEL 4
REMARK VINA RESULT: -6.369817360      1.393      2.815
REMARK  11 active torsions:
REMARK  status: ('A' for Active; 'I' for Inactive)
REMARK    1  A    between atoms: C4_5  and  O2_6 
REMARK    2  A    between atoms: O2_6  and  C5_7 
REMARK    3  A    between atoms: C5_7  and  C6_8 
REMARK    4  A    between atoms: C6_8  and  C20_24 
REMARK    5  A    between atoms: C7_9  and  C8_10 
REMARK    6  A    between atoms: C8_10  and  C9_11 
REMARK    7  A    between atoms: C9_11  and  C10_12 
REMARK    8  A    between atoms: C10_12  and  O3_13 
REMARK    9  A    between atoms: C20_24  and  O4_25 
REMARK   10  A    between atoms: C21_27  and  O5_28 
REMARK   11  A    between atoms: C22_30  and  O6_31 
ROOT
HETATM    1  C6  UNL     1      15.308   1.413   1.069  1.00  0.00    -0.037 C 
HETATM    2  C7  UNL     1      15.235   2.658   0.674  1.00  0.00    -0.020 C 
ENDROOT
BRANCH   1   3
HETATM    3  C5  UNL     1      14.895   0.313   0.111  1.00  0.00     0.204 C 
BRANCH   3   4
HETATM    4  O2  UNL     1      15.532  -0.830   0.109  1.00  0.00    -0.377 OA
BRANCH   4   5
HETATM    5  C4  UNL     1      15.908  -1.610  -0.887  1.00  0.00     0.176 C 
HETATM    6  C3  UNL     1      15.870  -3.110  -0.540  1.00  0.00     0.203 C 
HETATM    7  O1  UNL     1      14.702  -3.402   0.115  1.00  0.00    -0.381 OA
HETATM    8  C2  UNL     1      13.565  -3.161  -0.637  1.00  0.00     0.148 C 
HETATM    9  C1  UNL     1      12.572  -2.418   0.199  1.00  0.00     0.042 C 
HETATM   10  C22 UNL     1      13.832  -2.560  -1.972  1.00  0.00     0.178 C 
HETATM   11  C21 UNL     1      14.863  -1.487  -2.016  1.00  0.00     0.180 C 
BRANCH  10  12
HETATM   12  O6  UNL     1      14.048  -3.558  -2.951  1.00  0.00    -0.390 OA
ATOM     13  H6  UNL     1      14.884  -3.439  -3.387  1.00  0.00     0.210 HD
ENDBRANCH  10  12
BRANCH  11  14
HETATM   14  O5  UNL     1      15.535  -1.577  -3.249  1.00  0.00    -0.390 OA
ATOM     15  H5  UNL     1      16.470  -1.583  -3.078  1.00  0.00     0.210 HD
ENDBRANCH  11  14
ENDBRANCH   4   5
ENDBRANCH   3   4
ENDBRANCH   1   3
BRANCH   1  16
HETATM   16  C20 UNL     1      15.729   1.029   2.427  1.00  0.00     0.200 C 
BRANCH  16  17
HETATM   17  O4  UNL     1      16.795   0.089   2.309  1.00  0.00    -0.397 OA
ATOM     18  H4  UNL     1      17.248   0.052   3.143  1.00  0.00     0.209 HD
ENDBRANCH  16  17
ENDBRANCH   1  16
BRANCH   2  19
HETATM   19  C8  UNL     1      15.580   3.848   1.429  1.00  0.00     0.030 C 
BRANCH  19  20
HETATM   20  C9  UNL     1      14.391   4.667   1.811  1.00  0.00     0.041 C 
BRANCH  20  21
HETATM   21  C10 UNL     1      13.896   4.400   3.209  1.00  0.00     0.058 C 
HETATM   22  C11 UNL     1      12.945   3.225   3.199  1.00  0.00     0.038 C 
HETATM   23  C12 UNL     1      11.889   3.182   4.222  1.00  0.00     0.003 C 
HETATM   24  C13 UNL     1      12.385   2.936   5.628  1.00  0.00     0.000 C 
HETATM   25  C14 UNL     1      11.809   3.968   6.600  1.00  0.00     0.000 C 
HETATM   26  C15 UNL     1      12.866   4.661   7.398  1.00  0.00     0.000 C 
HETATM   27  C16 UNL     1      12.861   6.149   7.311  1.00  0.00     0.000 C 
HETATM   28  C17 UNL     1      12.969   6.733   5.950  1.00  0.00     0.000 C 
HETATM   29  C18 UNL     1      14.037   6.084   5.090  1.00  0.00     0.003 C 
HETATM   30  C19 UNL     1      13.353   5.628   3.816  1.00  0.00     0.038 C 
BRANCH  21  31
HETATM   31  O3  UNL     1      14.990   3.962   3.955  1.00  0.00    -0.390 OA
ATOM     32  H3  UNL     1      14.884   3.027   4.083  1.00  0.00     0.210 HD
ENDBRANCH  21  31
ENDBRANCH  20  21
ENDBRANCH  19  20
ENDBRANCH   2  19
TORSDOF 11
ENDMDL
MODEL 5
REMARK VINA RESULT: -6.354497709      1.221      2.557
REMARK  11 active torsions:
REMARK  status: ('A' for Active; 'I' for Inactive)
REMARK    1  A    between atoms: C4_5  and  O2_6 
REMARK    2  A    between atoms: O2_6  and  C5_7 
REMARK    3  A    between atoms: C5_7  and  C6_8 
REMARK    4  A    between atoms: C6_8  and  C20_24 
REMARK    5  A    between atoms: C7_9  and  C8_10 
REMARK    6  A    between atoms: C8_10  and  C9_11 
REMARK    7  A    between atoms: C9_11  and  C10_12 
REMARK    8  A    between atoms: C10_12  and  O3_13 
REMARK    9  A    between atoms: C20_24  and  O4_25 
REMARK   10  A    between atoms: C21_27  and  O5_28 
REMARK   11  A    between atoms: C22_30  and  O6_31 
ROOT
HETATM    1  C6  UNL     1      15.416   1.365   1.009  1.00  0.00    -0.037 C 
HETATM    2  C7  UNL     1      15.524   2.567   0.504  1.00  0.00    -0.020 C 
ENDROOT
BRANCH   1   3
HETATM    3  C5  UNL     1      14.857   0.253   0.145  1.00  0.00     0.204 C 
BRANCH   3   4
HETATM    4  O2  UNL     1      15.430  -0.923   0.134  1.00  0.00    -0.377 OA
BRANCH   4   5
HETATM    5  C4  UNL     1      15.867  -1.665  -0.866  1.00  0.00     0.176 C 
HETATM    6  C3  UNL     1      15.941  -3.167  -0.530  1.00  0.00     0.203 C 
HETATM    7  O1  UNL     1      14.796  -3.551   0.118  1.00  0.00    -0.381 OA
HETATM    8  C2  UNL     1      13.647  -3.390  -0.637  1.00  0.00     0.148 C 
HETATM    9  C1  UNL     1      12.597  -2.730   0.200  1.00  0.00     0.042 C 
HETATM   10  C22 UNL     1      13.872  -2.761  -1.966  1.00  0.00     0.178 C 
HETATM   11  C21 UNL     1      14.820  -1.613  -1.998  1.00  0.00     0.180 C 
BRANCH  10  12
HETATM   12  O6  UNL     1      14.167  -3.732  -2.951  1.00  0.00    -0.390 OA
ATOM     13  H6  UNL     1      15.086  -3.714  -3.191  1.00  0.00     0.210 HD
ENDBRANCH  10  12
BRANCH  11  14
HETATM   14  O5  UNL     1      15.501  -1.642  -3.229  1.00  0.00    -0.390 OA
ATOM     15  H5  UNL     1      16.296  -2.151  -3.116  1.00  0.00     0.210 HD
ENDBRANCH  11  14
ENDBRANCH   4   5
ENDBRANCH   3   4
ENDBRANCH   1   3
BRANCH   1  16
HETATM   16  C20 UNL     1      15.770   1.050   2.403  1.00  0.00     0.200 C 
BRANCH  16  17
HETATM   17  O4  UNL     1      16.736   0.000   2.387  1.00  0.00    -0.397 OA
ATOM     18  H4  UNL     1      17.450   0.249   2.961  1.00  0.00     0.209 HD
ENDBRANCH  16  17
ENDBRANCH   1  16
BRANCH   2  19
HETATM   19  C8  UNL     1      16.030   3.760   1.158  1.00  0.00     0.030 C 
BRANCH  19  20
HETATM   20  C9  UNL     1      15.206   4.975   0.885  1.00  0.00     0.041 C 
BRANCH  20  21
HETATM   21  C10 UNL     1      14.581   5.573   2.118  1.00  0.00     0.058 C 
HETATM   22  C11 UNL     1      15.256   6.885   2.449  1.00  0.00     0.038 C 
HETATM   23  C12 UNL     1      15.297   7.305   3.858  1.00  0.00     0.003 C 
HETATM   24  C13 UNL     1      13.958   7.699   4.436  1.00  0.00     0.000 C 
HETATM   25  C14 UNL     1      13.701   6.982   5.763  1.00  0.00     0.000 C 
HETATM   26  C15 UNL     1      12.396   6.255   5.784  1.00  0.00     0.000 C 
HETATM   27  C16 UNL     1      12.476   4.803   6.110  1.00  0.00     0.000 C 
HETATM   28  C17 UNL     1      13.356   3.977   5.244  1.00  0.00     0.000 C 
HETATM   29  C18 UNL     1      13.186   4.253   3.762  1.00  0.00     0.003 C 
HETATM   30  C19 UNL     1      14.559   4.596   3.221  1.00  0.00     0.038 C 
BRANCH  21  31
HETATM   31  O3  UNL     1      13.273   5.923   1.787  1.00  0.00    -0.390 OA
ATOM     32  H3  UNL     1      12.733   5.155   1.928  1.00  0.00     0.210 HD
ENDBRANCH  21  31
ENDBRANCH  20  21
ENDBRANCH  19  20
ENDBRANCH   2  19
TORSDOF 11
ENDMDL
