MODEL 1
REMARK VINA RESULT: -6.208695858      0.000      0.000
REMARK  9 active torsions:
REMARK  status: ('A' for Active; 'I' for Inactive)
REMARK    1  A    between atoms: O1_1  and  C1_3 
REMARK    2  A    between atoms: C2_6  and  O2_7 
REMARK    3  A    between atoms: C4_10  and  N2_11 
REMARK    4  A    between atoms: C8_15  and  C9_16 
REMARK    5  A    between atoms: C9_16  and  N3_17 
REMARK    6  A    between atoms: N3_17  and  C10_19 
REMARK    7  A    between atoms: C10_19  and  C11_20 
REMARK    8  A    between atoms: C11_20  and  C12_21 
REMARK    9  A    between atoms: C12_21  and  N4_22 
ROOT
HETATM    1  N2  UNL     1      12.766   0.416   1.007  1.00  0.00    -0.379 N 
HETATM    2  C5  UNL     1      12.144   1.621   0.513  1.00  0.00     0.123 C 
HETATM    3  C6  UNL     1      11.316   2.111   1.734  1.00  0.00     0.021 C 
HETATM    4  C7  UNL     1      12.387   2.659   2.673  1.00  0.00     0.013 C 
HETATM    5  C8  UNL     1      13.400   1.665   3.057  1.00  0.00     0.042 C 
HETATM    6  C19 UNL     1      13.412   0.373   2.284  1.00  0.00     0.133 C 
ENDROOT
BRANCH   1   7
HETATM    7  C4  UNL     1      12.731  -0.760   0.227  1.00  0.00     0.048 A 
HETATM    8  C3  UNL     1      13.664  -1.111  -0.717  1.00  0.00     0.072 A 
HETATM    9  C2  UNL     1      14.830  -0.528  -1.144  1.00  0.00     0.157 A 
HETATM   10  C22 UNL     1      13.557  -2.268  -1.477  1.00  0.00     0.100 A 
HETATM   11  N1  UNL     1      15.386  -1.298  -2.109  1.00  0.00    -0.315 N 
HETATM   12  C1  UNL     1      14.627  -2.375  -2.335  1.00  0.00     0.170 A 
ATOM     13  H1  UNL     1      16.259  -1.088  -2.593  1.00  0.00     0.170 HD
HETATM   14  N5  UNL     1      12.497  -3.087  -1.286  1.00  0.00    -0.362 N 
HETATM   15  C21 UNL     1      11.575  -2.763  -0.368  1.00  0.00     0.090 A 
ATOM     16  H5  UNL     1      12.401  -3.941  -1.835  1.00  0.00     0.165 HD
HETATM   17  C20 UNL     1      11.648  -1.633   0.397  1.00  0.00     0.047 A 
BRANCH   9  18
HETATM   18  O2  UNL     1      15.337   0.669  -0.643  1.00  0.00    -0.345 OA
ATOM     19  H2  UNL     1      14.902   1.513  -0.647  1.00  0.00     0.219 HD
ENDBRANCH   9  18
BRANCH  12  20
HETATM   20  O1  UNL     1      14.913  -3.362  -3.261  1.00  0.00    -0.344 OA
ATOM     21  H1  UNL     1      15.051  -4.279  -3.052  1.00  0.00     0.219 HD
ENDBRANCH  12  20
ENDBRANCH   1   7
BRANCH   5  22
HETATM   22  C9  UNL     1      14.791   2.232   3.168  1.00  0.00     0.061 C 
BRANCH  22  23
HETATM   23  N3  UNL     1      15.658   2.157   2.100  1.00  0.00    -0.402 N 
ATOM     24  H3  UNL     1      15.914   1.227   1.770  1.00  0.00     0.158 HD
BRANCH  23  25
HETATM   25  C10 UNL     1      16.216   3.253   1.430  1.00  0.00     0.120 C 
BRANCH  25  26
HETATM   26  C11 UNL     1      15.164   4.193   0.794  1.00  0.00     0.050 C 
BRANCH  26  27
HETATM   27  C12 UNL     1      15.338   5.560   1.376  1.00  0.00     0.274 C 
BRANCH  27  28
HETATM   28  N4  UNL     1      14.963   5.579   2.763  1.00  0.00     0.088 N 
HETATM   29  C13 UNL     1      15.895   6.431   3.527  1.00  0.00     0.272 C 
HETATM   30  C14 UNL     1      15.547   7.873   3.501  1.00  0.00     0.030 C 
HETATM   31  C15 UNL     1      14.416   8.316   4.351  1.00  0.00     0.002 C 
HETATM   32  C16 UNL     1      13.894   7.205   5.193  1.00  0.00     0.002 C 
HETATM   33  C17 UNL     1      13.281   6.077   4.413  1.00  0.00     0.030 C 
HETATM   34  C18 UNL     1      13.620   6.145   2.941  1.00  0.00     0.272 C 
ENDBRANCH  27  28
ENDBRANCH  26  27
ENDBRANCH  25  26
ENDBRANCH  23  25
ENDBRANCH  22  23
ENDBRANCH   5  22
TORSDOF 9
ENDMDL
MODEL 2
REMARK VINA RESULT: -5.967926263      1.918      3.036
REMARK  9 active torsions:
REMARK  status: ('A' for Active; 'I' for Inactive)
REMARK    1  A    between atoms: O1_1  and  C1_3 
REMARK    2  A    between atoms: C2_6  and  O2_7 
REMARK    3  A    between atoms: C4_10  and  N2_11 
REMARK    4  A    between atoms: C8_15  and  C9_16 
REMARK    5  A    between atoms: C9_16  and  N3_17 
REMARK    6  A    between atoms: N3_17  and  C10_19 
REMARK    7  A    between atoms: C10_19  and  C11_20 
REMARK    8  A    between atoms: C11_20  and  C12_21 
REMARK    9  A    between atoms: C12_21  and  N4_22 
ROOT
HETATM    1  N2  UNL     1      12.738   0.981   1.600  1.00  0.00    -0.379 N 
HETATM    2  C5  UNL     1      11.752   1.994   1.309  1.00  0.00     0.123 C 
HETATM    3  C6  UNL     1      10.410   1.218   1.418  1.00  0.00     0.021 C 
HETATM    4  C7  UNL     1      10.248   1.030   2.924  1.00  0.00     0.013 C 
HETATM    5  C8  UNL     1      11.361   0.301   3.550  1.00  0.00     0.042 C 
HETATM    6  C19 UNL     1      12.595   0.093   2.714  1.00  0.00     0.133 C 
ENDROOT
BRANCH   1   7
HETATM    7  C4  UNL     1      13.867   0.843   0.765  1.00  0.00     0.048 A 
HETATM    8  C3  UNL     1      14.018  -0.111  -0.210  1.00  0.00     0.072 A 
HETATM    9  C2  UNL     1      13.203  -1.112  -0.676  1.00  0.00     0.157 A 
HETATM   10  C22 UNL     1      15.169  -0.216  -0.979  1.00  0.00     0.100 A 
HETATM   11  N1  UNL     1      13.838  -1.778  -1.670  1.00  0.00    -0.315 N 
HETATM   12  C1  UNL     1      15.048  -1.250  -1.880  1.00  0.00     0.170 A 
ATOM     13  H1  UNL     1      13.450  -2.568  -2.184  1.00  0.00     0.170 HD
HETATM   14  N5  UNL     1      16.184   0.652  -0.768  1.00  0.00    -0.362 N 
HETATM   15  C21 UNL     1      16.057   1.594   0.178  1.00  0.00     0.090 A 
ATOM     16  H5  UNL     1      17.038   0.592  -1.323  1.00  0.00     0.165 HD
HETATM   17  C20 UNL     1      14.939   1.726   0.954  1.00  0.00     0.047 A 
BRANCH   9  18
HETATM   18  O2  UNL     1      11.927  -1.377  -0.183  1.00  0.00    -0.345 OA
ATOM     19  H2  UNL     1      11.715  -1.862   0.605  1.00  0.00     0.219 HD
ENDBRANCH   9  18
BRANCH  12  20
HETATM   20  O1  UNL     1      15.952  -1.698  -2.826  1.00  0.00    -0.344 OA
ATOM     21  H1  UNL     1      16.854  -1.410  -2.894  1.00  0.00     0.219 HD
ENDBRANCH  12  20
ENDBRANCH   1   7
BRANCH   5  22
HETATM   22  C9  UNL     1      11.725   0.814   4.919  1.00  0.00     0.061 C 
BRANCH  22  23
HETATM   23  N3  UNL     1      12.555   1.906   5.051  1.00  0.00    -0.402 N 
ATOM     24  H3  UNL     1      13.558   1.743   4.969  1.00  0.00     0.158 HD
BRANCH  23  25
HETATM   25  C10 UNL     1      12.135   3.220   5.289  1.00  0.00     0.120 C 
BRANCH  25  26
HETATM   26  C11 UNL     1      12.513   4.207   4.159  1.00  0.00     0.050 C 
BRANCH  26  27
HETATM   27  C12 UNL     1      13.932   3.947   3.758  1.00  0.00     0.274 C 
BRANCH  27  28
HETATM   28  N4  UNL     1      14.752   5.102   3.996  1.00  0.00     0.088 N 
HETATM   29  C13 UNL     1      15.440   5.499   2.752  1.00  0.00     0.272 C 
HETATM   30  C14 UNL     1      14.624   6.366   1.867  1.00  0.00     0.030 C 
HETATM   31  C15 UNL     1      14.473   7.787   2.258  1.00  0.00     0.002 C 
HETATM   32  C16 UNL     1      15.296   8.118   3.453  1.00  0.00     0.002 C 
HETATM   33  C17 UNL     1      14.882   7.399   4.705  1.00  0.00     0.030 C 
HETATM   34  C18 UNL     1      13.942   6.249   4.423  1.00  0.00     0.272 C 
ENDBRANCH  27  28
ENDBRANCH  26  27
ENDBRANCH  25  26
ENDBRANCH  23  25
ENDBRANCH  22  23
ENDBRANCH   5  22
TORSDOF 9
ENDMDL
MODEL 3
REMARK VINA RESULT: -5.895682882      2.016      3.707
REMARK  9 active torsions:
REMARK  status: ('A' for Active; 'I' for Inactive)
REMARK    1  A    between atoms: O1_1  and  C1_3 
REMARK    2  A    between atoms: C2_6  and  O2_7 
REMARK    3  A    between atoms: C4_10  and  N2_11 
REMARK    4  A    between atoms: C8_15  and  C9_16 
REMARK    5  A    between atoms: C9_16  and  N3_17 
REMARK    6  A    between atoms: N3_17  and  C10_19 
REMARK    7  A    between atoms: C10_19  and  C11_20 
REMARK    8  A    between atoms: C11_20  and  C12_21 
REMARK    9  A    between atoms: C12_21  and  N4_22 
ROOT
HETATM    1  N2  UNL     1      12.628   2.300   1.711  1.00  0.00    -0.379 N 
HETATM    2  C5  UNL     1      12.080   3.536   1.207  1.00  0.00     0.123 C 
HETATM    3  C6  UNL     1      10.671   3.114   0.705  1.00  0.00     0.021 C 
HETATM    4  C7  UNL     1       9.893   2.919   2.003  1.00  0.00     0.013 C 
HETATM    5  C8  UNL     1      10.483   1.914   2.900  1.00  0.00     0.042 C 
HETATM    6  C19 UNL     1      11.871   1.436   2.566  1.00  0.00     0.133 C 
ENDROOT
BRANCH   1   7
HETATM    7  C4  UNL     1      13.937   1.916   1.349  1.00  0.00     0.048 A 
HETATM    8  C3  UNL     1      14.251   0.957   0.418  1.00  0.00     0.072 A 
HETATM    9  C2  UNL     1      13.490   0.167  -0.406  1.00  0.00     0.157 A 
HETATM   10  C22 UNL     1      15.560   0.600   0.128  1.00  0.00     0.100 A 
HETATM   11  N1  UNL     1      14.306  -0.620  -1.147  1.00  0.00    -0.315 N 
HETATM   12  C1  UNL     1      15.585  -0.376  -0.842  1.00  0.00     0.170 A 
ATOM     13  H1  UNL     1      13.991  -1.300  -1.839  1.00  0.00     0.170 HD
HETATM   14  N5  UNL     1      16.573   1.216   0.780  1.00  0.00    -0.362 N 
HETATM   15  C21 UNL     1      16.288   2.158   1.692  1.00  0.00     0.090 A 
ATOM     16  H5  UNL     1      17.542   0.968   0.580  1.00  0.00     0.165 HD
HETATM   17  C20 UNL     1      15.012   2.534   2.004  1.00  0.00     0.047 A 
BRANCH   9  18
HETATM   18  O2  UNL     1      12.098   0.193  -0.451  1.00  0.00    -0.345 OA
ATOM     19  H2  UNL     1      11.528  -0.510  -0.738  1.00  0.00     0.219 HD
ENDBRANCH   9  18
BRANCH  12  20
HETATM   20  O1  UNL     1      16.669  -1.012  -1.420  1.00  0.00    -0.344 OA
ATOM     21  H1  UNL     1      17.574  -0.882  -1.162  1.00  0.00     0.219 HD
ENDBRANCH  12  20
ENDBRANCH   1   7
BRANCH   5  22
HETATM   22  C9  UNL     1      10.379   2.272   4.359  1.00  0.00     0.061 C 
BRANCH  22  23
HETATM   23  N3  UNL     1      10.004   3.543   4.736  1.00  0.00    -0.402 N 
ATOM     24  H3  UNL     1       9.057   3.840   4.500  1.00  0.00     0.158 HD
BRANCH  23  25
HETATM   25  C10 UNL     1      10.814   4.459   5.417  1.00  0.00     0.120 C 
BRANCH  25  26
HETATM   26  C11 UNL     1      11.825   5.192   4.503  1.00  0.00     0.050 C 
BRANCH  26  27
HETATM   27  C12 UNL     1      13.166   4.549   4.669  1.00  0.00     0.274 C 
BRANCH  27  28
HETATM   28  N4  UNL     1      14.206   5.538   4.731  1.00  0.00     0.088 N 
HETATM   29  C13 UNL     1      15.046   5.466   3.519  1.00  0.00     0.272 C 
HETATM   30  C14 UNL     1      14.504   6.231   2.369  1.00  0.00     0.030 C 
HETATM   31  C15 UNL     1      14.648   7.705   2.403  1.00  0.00     0.002 C 
HETATM   32  C16 UNL     1      15.443   8.152   3.579  1.00  0.00     0.002 C 
HETATM   33  C17 UNL     1      14.797   7.866   4.904  1.00  0.00     0.030 C 
HETATM   34  C18 UNL     1      13.646   6.894   4.784  1.00  0.00     0.272 C 
ENDBRANCH  27  28
ENDBRANCH  26  27
ENDBRANCH  25  26
ENDBRANCH  23  25
ENDBRANCH  22  23
ENDBRANCH   5  22
TORSDOF 9
ENDMDL
MODEL 4
REMARK VINA RESULT: -5.817095703      3.939      5.718
REMARK  9 active torsions:
REMARK  status: ('A' for Active; 'I' for Inactive)
REMARK    1  A    between atoms: O1_1  and  C1_3 
REMARK    2  A    between atoms: C2_6  and  O2_7 
REMARK    3  A    between atoms: C4_10  and  N2_11 
REMARK    4  A    between atoms: C8_15  and  C9_16 
REMARK    5  A    between atoms: C9_16  and  N3_17 
REMARK    6  A    between atoms: N3_17  and  C10_19 
REMARK    7  A    between atoms: C10_19  and  C11_20 
REMARK    8  A    between atoms: C11_20  and  C12_21 
REMARK    9  A    between atoms: C12_21  and  N4_22 
ROOT
HETATM    1  N2  UNL     1      10.024   2.911   1.010  1.00  0.00    -0.379 N 
HETATM    2  C5  UNL     1       9.714   1.544   1.354  1.00  0.00     0.123 C 
HETATM    3  C6  UNL     1      10.748   0.732   0.525  1.00  0.00     0.021 C 
HETATM    4  C7  UNL     1      12.052   0.970   1.283  1.00  0.00     0.013 C 
HETATM    5  C8  UNL     1      12.421   2.389   1.389  1.00  0.00     0.042 C 
HETATM    6  C19 UNL     1      11.370   3.396   1.004  1.00  0.00     0.133 C 
ENDROOT
BRANCH   1   7
HETATM    7  C4  UNL     1       8.983   3.795   0.653  1.00  0.00     0.048 A 
HETATM    8  C3  UNL     1       8.495   3.971  -0.617  1.00  0.00     0.072 A 
HETATM    9  C2  UNL     1       8.789   3.387  -1.823  1.00  0.00     0.157 A 
HETATM   10  C22 UNL     1       7.489   4.882  -0.910  1.00  0.00     0.100 A 
HETATM   11  N1  UNL     1       8.000   3.925  -2.783  1.00  0.00    -0.315 N 
HETATM   12  C1  UNL     1       7.190   4.847  -2.253  1.00  0.00     0.170 A 
ATOM     13  H1  UNL     1       8.020   3.665  -3.769  1.00  0.00     0.170 HD
HETATM   14  N5  UNL     1       6.964   5.629   0.088  1.00  0.00    -0.362 N 
HETATM   15  C21 UNL     1       7.426   5.472   1.338  1.00  0.00     0.090 A 
ATOM     16  H5  UNL     1       6.225   6.304  -0.107  1.00  0.00     0.165 HD
HETATM   17  C20 UNL     1       8.415   4.585   1.662  1.00  0.00     0.047 A 
BRANCH   9  18
HETATM   18  O2  UNL     1       9.754   2.398  -2.001  1.00  0.00    -0.345 OA
ATOM     19  H2  UNL     1       9.945   1.932  -2.805  1.00  0.00     0.219 HD
ENDBRANCH   9  18
BRANCH  12  20
HETATM   20  O1  UNL     1       6.260   5.583  -2.963  1.00  0.00    -0.344 OA
ATOM     21  H1  UNL     1       6.447   6.077  -3.753  1.00  0.00     0.219 HD
ENDBRANCH  12  20
ENDBRANCH   1   7
BRANCH   5  22
HETATM   22  C9  UNL     1      13.050   2.752   2.709  1.00  0.00     0.061 C 
BRANCH  22  23
HETATM   23  N3  UNL     1      14.417   2.882   2.813  1.00  0.00    -0.402 N 
ATOM     24  H3  UNL     1      14.811   2.943   3.752  1.00  0.00     0.158 HD
BRANCH  23  25
HETATM   25  C10 UNL     1      15.311   2.937   1.737  1.00  0.00     0.120 C 
BRANCH  25  26
HETATM   26  C11 UNL     1      15.955   4.330   1.535  1.00  0.00     0.050 C 
BRANCH  26  27
HETATM   27  C12 UNL     1      14.874   5.308   1.199  1.00  0.00     0.274 C 
BRANCH  27  28
HETATM   28  N4  UNL     1      15.008   6.509   1.977  1.00  0.00     0.088 N 
HETATM   29  C13 UNL     1      13.694   6.911   2.515  1.00  0.00     0.272 C 
HETATM   30  C14 UNL     1      13.332   6.231   3.783  1.00  0.00     0.030 C 
HETATM   31  C15 UNL     1      14.003   6.697   5.020  1.00  0.00     0.002 C 
HETATM   32  C16 UNL     1      14.863   7.884   4.765  1.00  0.00     0.002 C 
HETATM   33  C17 UNL     1      16.027   7.617   3.855  1.00  0.00     0.030 C 
HETATM   34  C18 UNL     1      15.897   6.299   3.126  1.00  0.00     0.272 C 
ENDBRANCH  27  28
ENDBRANCH  26  27
ENDBRANCH  25  26
ENDBRANCH  23  25
ENDBRANCH  22  23
ENDBRANCH   5  22
TORSDOF 9
ENDMDL
MODEL 5
REMARK VINA RESULT: -5.798742331      2.567      4.146
REMARK  9 active torsions:
REMARK  status: ('A' for Active; 'I' for Inactive)
REMARK    1  A    between atoms: O1_1  and  C1_3 
REMARK    2  A    between atoms: C2_6  and  O2_7 
REMARK    3  A    between atoms: C4_10  and  N2_11 
REMARK    4  A    between atoms: C8_15  and  C9_16 
REMARK    5  A    between atoms: C9_16  and  N3_17 
REMARK    6  A    between atoms: N3_17  and  C10_19 
REMARK    7  A    between atoms: C10_19  and  C11_20 
REMARK    8  A    between atoms: C11_20  and  C12_21 
REMARK    9  A    between atoms: C12_21  and  N4_22 
ROOT
HETATM    1  N2  UNL     1      12.716  -0.066   2.310  1.00  0.00    -0.379 N 
HETATM    2  C5  UNL     1      12.494  -0.873   1.134  1.00  0.00     0.123 C 
HETATM    3  C6  UNL     1      11.022  -1.343   1.305  1.00  0.00     0.021 C 
HETATM    4  C7  UNL     1      10.224  -0.081   0.989  1.00  0.00     0.013 C 
HETATM    5  C8  UNL     1      10.546   1.056   1.864  1.00  0.00     0.042 C 
HETATM    6  C19 UNL     1      11.769   0.920   2.733  1.00  0.00     0.133 C 
ENDROOT
BRANCH   1   7
HETATM    7  C4  UNL     1      13.885  -0.256   3.078  1.00  0.00     0.048 A 
HETATM    8  C3  UNL     1      15.094   0.347   2.839  1.00  0.00     0.072 A 
HETATM    9  C2  UNL     1      15.518   1.260   1.907  1.00  0.00     0.157 A 
HETATM   10  C22 UNL     1      16.218   0.095   3.613  1.00  0.00     0.100 A 
HETATM   11  N1  UNL     1      16.827   1.536   2.116  1.00  0.00    -0.315 N 
HETATM   12  C1  UNL     1      17.286   0.835   3.158  1.00  0.00     0.170 A 
ATOM     13  H1  UNL     1      17.384   2.184   1.559  1.00  0.00     0.170 HD
HETATM   14  N5  UNL     1      16.128  -0.775   4.645  1.00  0.00    -0.362 N 
HETATM   15  C21 UNL     1      14.955  -1.374   4.897  1.00  0.00     0.090 A 
ATOM     16  H5  UNL     1      16.943  -0.973   5.225  1.00  0.00     0.165 HD
HETATM   17  C20 UNL     1      13.828  -1.150   4.156  1.00  0.00     0.047 A 
BRANCH   9  18
HETATM   18  O2  UNL     1      14.705   1.802   0.914  1.00  0.00    -0.345 OA
ATOM     19  H2  UNL     1      13.842   2.181   1.033  1.00  0.00     0.219 HD
ENDBRANCH   9  18
BRANCH  12  20
HETATM   20  O1  UNL     1      18.584   0.886   3.634  1.00  0.00    -0.344 OA
ATOM     21  H1  UNL     1      18.826   0.863   4.552  1.00  0.00     0.219 HD
ENDBRANCH  12  20
ENDBRANCH   1   7
BRANCH   5  22
HETATM   22  C9  UNL     1      10.541   2.384   1.154  1.00  0.00     0.061 C 
BRANCH  22  23
HETATM   23  N3  UNL     1      11.724   3.053   0.927  1.00  0.00    -0.402 N 
ATOM     24  H3  UNL     1      12.471   2.538   0.463  1.00  0.00     0.158 HD
BRANCH  23  25
HETATM   25  C10 UNL     1      11.984   4.383   1.280  1.00  0.00     0.120 C 
BRANCH  25  26
HETATM   26  C11 UNL     1      12.091   4.610   2.807  1.00  0.00     0.050 C 
BRANCH  26  27
HETATM   27  C12 UNL     1      13.421   4.102   3.269  1.00  0.00     0.274 C 
BRANCH  27  28
HETATM   28  N4  UNL     1      14.124   5.108   4.015  1.00  0.00     0.088 N 
HETATM   29  C13 UNL     1      15.282   5.596   3.240  1.00  0.00     0.272 C 
HETATM   30  C14 UNL     1      14.946   6.669   2.272  1.00  0.00     0.030 C 
HETATM   31  C15 UNL     1      14.715   8.028   2.816  1.00  0.00     0.002 C 
HETATM   32  C16 UNL     1      14.986   8.088   4.278  1.00  0.00     0.002 C 
HETATM   33  C17 UNL     1      14.059   7.251   5.111  1.00  0.00     0.030 C 
HETATM   34  C18 UNL     1      13.266   6.270   4.279  1.00  0.00     0.272 C 
ENDBRANCH  27  28
ENDBRANCH  26  27
ENDBRANCH  25  26
ENDBRANCH  23  25
ENDBRANCH  22  23
ENDBRANCH   5  22
TORSDOF 9
ENDMDL
