MODEL 1
REMARK VINA RESULT: -6.648728675      0.000      0.000
REMARK  9 active torsions:
REMARK  status: ('A' for Active; 'I' for Inactive)
REMARK    1  A    between atoms: C2_2  and  C3_3 
REMARK    2  A    between atoms: C4_4  and  O1_5 
REMARK    3  A    between atoms: C5_9  and  S1_10 
REMARK    4  A    between atoms: S1_10  and  C6_11 
REMARK    5  A    between atoms: C6_11  and  C7_12 
REMARK    6  A    between atoms: C7_12  and  N2_14 
REMARK    7  A    between atoms: N2_14  and  O2_15 
REMARK    8  A    between atoms: N2_14  and  C9_17 
REMARK    9  A    between atoms: C15_25  and  C16_26 
ROOT
HETATM    1  C7  UNL     1      14.627   1.491   2.704  1.00  0.00     0.120 C 
HETATM    2  C8  UNL     1      14.953   0.516   3.797  1.00  0.00     0.036 C 
ENDROOT
BRANCH   1   3
HETATM    3  C6  UNL     1      15.827   1.897   1.891  1.00  0.00     0.109 C 
BRANCH   3   4
HETATM    4  S1  UNL     1      15.657   1.804   0.129  1.00  0.00    -0.092 SA
BRANCH   4   5
HETATM    5  C5  UNL     1      14.956   0.349  -0.540  1.00  0.00     0.149 A 
HETATM    6  N1  UNL     1      15.637  -0.377  -1.446  1.00  0.00    -0.317 N 
HETATM    7  C4  UNL     1      15.197  -1.495  -2.010  1.00  0.00     0.153 A 
ATOM      8  H1  UNL     1      16.562  -0.043  -1.718  1.00  0.00     0.170 HD
HETATM    9  C3  UNL     1      13.936  -1.982  -1.661  1.00  0.00     0.060 A 
HETATM   10  C20 UNL     1      13.237  -1.257  -0.748  1.00  0.00     0.257 A 
HETATM   11  N4  UNL     1      13.737  -0.131  -0.211  1.00  0.00    -0.303 N 
HETATM   12  O3  UNL     1      12.110  -1.652  -0.406  1.00  0.00    -0.267 OA
ATOM     13  H4  UNL     1      13.175   0.379   0.471  1.00  0.00     0.171 HD
BRANCH   7  14
HETATM   14  O1  UNL     1      15.995  -2.167  -2.941  1.00  0.00    -0.345 OA
ATOM     15  H1  UNL     1      16.907  -1.933  -3.061  1.00  0.00     0.219 HD
ENDBRANCH   7  14
BRANCH   9  16
HETATM   16  C2  UNL     1      13.505  -3.212  -2.311  1.00  0.00     0.044 C 
HETATM   17  C1  UNL     1      13.784  -4.475  -1.590  1.00  0.00     0.010 C 
ENDBRANCH   9  16
ENDBRANCH   4   5
ENDBRANCH   3   4
ENDBRANCH   1   3
BRANCH   1  18
HETATM   18  N2  UNL     1      13.947   2.668   3.214  1.00  0.00    -0.253 N 
BRANCH  18  19
HETATM   19  O2  UNL     1      13.649   2.733   4.534  1.00  0.00    -0.287 OA
ATOM     20  H2  UNL     1      12.828   2.364   4.839  1.00  0.00     0.244 HD
ENDBRANCH  18  19
BRANCH  18  21
HETATM   21  C9  UNL     1      13.556   3.777   2.409  1.00  0.00     0.087 A 
HETATM   22  C10 UNL     1      12.546   3.770   1.476  1.00  0.00     0.035 A 
HETATM   23  C11 UNL     1      11.635   2.633   1.072  1.00  0.00     0.070 C 
HETATM   24  N3  UNL     1      12.514   5.019   0.953  1.00  0.00    -0.361 N 
HETATM   25  C12 UNL     1      13.445   5.810   1.505  1.00  0.00     0.018 A 
ATOM     26  H3  UNL     1      11.864   5.321   0.228  1.00  0.00     0.165 HD
HETATM   27  C13 UNL     1      14.122   5.060   2.429  1.00  0.00    -0.004 A 
HETATM   28  C19 UNL     1      13.763   7.255   1.230  1.00  0.00     0.058 C 
HETATM   29  C14 UNL     1      15.239   5.602   3.251  1.00  0.00     0.047 C 
HETATM   30  C15 UNL     1      15.549   7.005   2.850  1.00  0.00    -0.010 C 
HETATM   31  C18 UNL     1      14.311   7.814   2.523  1.00  0.00     0.011 C 
BRANCH  30  32
HETATM   32  C16 UNL     1      16.310   7.756   3.918  1.00  0.00     0.000 C 
HETATM   33  C17 UNL     1      15.412   8.437   4.899  1.00  0.00     0.005 C 
ENDBRANCH  30  32
ENDBRANCH  18  21
ENDBRANCH   1  18
TORSDOF 9
ENDMDL
MODEL 2
REMARK VINA RESULT: -6.543919330      3.092      6.041
REMARK  9 active torsions:
REMARK  status: ('A' for Active; 'I' for Inactive)
REMARK    1  A    between atoms: C2_2  and  C3_3 
REMARK    2  A    between atoms: C4_4  and  O1_5 
REMARK    3  A    between atoms: C5_9  and  S1_10 
REMARK    4  A    between atoms: S1_10  and  C6_11 
REMARK    5  A    between atoms: C6_11  and  C7_12 
REMARK    6  A    between atoms: C7_12  and  N2_14 
REMARK    7  A    between atoms: N2_14  and  O2_15 
REMARK    8  A    between atoms: N2_14  and  C9_17 
REMARK    9  A    between atoms: C15_25  and  C16_26 
ROOT
HETATM    1  C7  UNL     1      13.993   0.477   1.883  1.00  0.00     0.120 C 
HETATM    2  C8  UNL     1      15.111   0.580   2.879  1.00  0.00     0.036 C 
ENDROOT
BRANCH   1   3
HETATM    3  C6  UNL     1      14.165   1.391   0.700  1.00  0.00     0.109 C 
BRANCH   3   4
HETATM    4  S1  UNL     1      15.542   2.507   0.756  1.00  0.00    -0.092 SA
BRANCH   4   5
HETATM    5  C5  UNL     1      15.242   4.133   1.322  1.00  0.00     0.149 A 
HETATM    6  N1  UNL     1      15.993   4.656   2.310  1.00  0.00    -0.317 N 
HETATM    7  C4  UNL     1      15.849   5.878   2.808  1.00  0.00     0.153 A 
ATOM      8  H1  UNL     1      16.728   4.068   2.704  1.00  0.00     0.170 HD
HETATM    9  C3  UNL     1      14.853   6.709   2.292  1.00  0.00     0.060 A 
HETATM   10  C20 UNL     1      14.088   6.193   1.295  1.00  0.00     0.257 A 
HETATM   11  N4  UNL     1      14.282   4.947   0.831  1.00  0.00    -0.303 N 
HETATM   12  O3  UNL     1      13.189   6.896   0.805  1.00  0.00    -0.267 OA
ATOM     13  H4  UNL     1      13.682   4.603   0.082  1.00  0.00     0.171 HD
BRANCH   7  14
HETATM   14  O1  UNL     1      16.689   6.314   3.836  1.00  0.00    -0.345 OA
ATOM     15  H1  UNL     1      17.632   6.327   3.725  1.00  0.00     0.219 HD
ENDBRANCH   7  14
BRANCH   9  16
HETATM   16  C2  UNL     1      14.741   8.039   2.877  1.00  0.00     0.044 C 
HETATM   17  C1  UNL     1      14.168   8.116   4.240  1.00  0.00     0.010 C 
ENDBRANCH   9  16
ENDBRANCH   4   5
ENDBRANCH   3   4
ENDBRANCH   1   3
BRANCH   1  18
HETATM   18  N2  UNL     1      12.697   0.696   2.500  1.00  0.00    -0.253 N 
BRANCH  18  19
HETATM   19  O2  UNL     1      12.127  -0.312   3.202  1.00  0.00    -0.287 OA
ATOM     20  H2  UNL     1      11.460  -0.105   3.846  1.00  0.00     0.244 HD
ENDBRANCH  18  19
BRANCH  18  21
HETATM   21  C9  UNL     1      11.966   1.916   2.412  1.00  0.00     0.087 A 
HETATM   22  C10 UNL     1      10.934   2.167   1.540  1.00  0.00     0.035 A 
HETATM   23  C11 UNL     1      10.339   1.260   0.488  1.00  0.00     0.070 C 
HETATM   24  N3  UNL     1      10.529   3.434   1.798  1.00  0.00    -0.361 N 
HETATM   25  C12 UNL     1      11.247   3.992   2.783  1.00  0.00     0.018 A 
ATOM     26  H3  UNL     1       9.772   3.906   1.304  1.00  0.00     0.165 HD
HETATM   27  C13 UNL     1      12.164   3.062   3.196  1.00  0.00    -0.004 A 
HETATM   28  C19 UNL     1      11.143   5.365   3.388  1.00  0.00     0.058 C 
HETATM   29  C14 UNL     1      13.147   3.322   4.284  1.00  0.00     0.047 C 
HETATM   30  C15 UNL     1      13.038   4.732   4.761  1.00  0.00    -0.010 C 
HETATM   31  C18 UNL     1      11.607   5.227   4.819  1.00  0.00     0.011 C 
BRANCH  30  32
HETATM   32  C16 UNL     1      13.639   4.925   6.133  1.00  0.00     0.000 C 
HETATM   33  C17 UNL     1      12.887   5.916   6.961  1.00  0.00     0.005 C 
ENDBRANCH  30  32
ENDBRANCH  18  21
ENDBRANCH   1  18
TORSDOF 9
ENDMDL
MODEL 3
REMARK VINA RESULT: -6.282186978      1.827      2.409
REMARK  9 active torsions:
REMARK  status: ('A' for Active; 'I' for Inactive)
REMARK    1  A    between atoms: C2_2  and  C3_3 
REMARK    2  A    between atoms: C4_4  and  O1_5 
REMARK    3  A    between atoms: C5_9  and  S1_10 
REMARK    4  A    between atoms: S1_10  and  C6_11 
REMARK    5  A    between atoms: C6_11  and  C7_12 
REMARK    6  A    between atoms: C7_12  and  N2_14 
REMARK    7  A    between atoms: N2_14  and  O2_15 
REMARK    8  A    between atoms: N2_14  and  C9_17 
REMARK    9  A    between atoms: C15_25  and  C16_26 
ROOT
HETATM    1  C7  UNL     1      15.349   3.118   1.329  1.00  0.00     0.120 C 
HETATM    2  C8  UNL     1      14.255   4.048   0.891  1.00  0.00     0.036 C 
ENDROOT
BRANCH   1   3
HETATM    3  C6  UNL     1      15.390   1.835   0.544  1.00  0.00     0.109 C 
BRANCH   3   4
HETATM    4  S1  UNL     1      13.839   1.016   0.286  1.00  0.00    -0.092 SA
BRANCH   4   5
HETATM    5  C5  UNL     1      13.859  -0.494  -0.595  1.00  0.00     0.149 A 
HETATM    6  N1  UNL     1      14.766  -0.698  -1.569  1.00  0.00    -0.317 N 
HETATM    7  C4  UNL     1      14.867  -1.807  -2.293  1.00  0.00     0.153 A 
ATOM      8  H1  UNL     1      15.425   0.055  -1.764  1.00  0.00     0.170 HD
HETATM    9  C3  UNL     1      13.980  -2.859  -2.052  1.00  0.00     0.060 A 
HETATM   10  C20 UNL     1      13.059  -2.664  -1.072  1.00  0.00     0.257 A 
HETATM   11  N4  UNL     1      13.007  -1.518  -0.372  1.00  0.00    -0.303 N 
HETATM   12  O3  UNL     1      12.250  -3.572  -0.822  1.00  0.00    -0.267 OA
ATOM     13  H4  UNL     1      12.298  -1.418   0.354  1.00  0.00     0.171 HD
BRANCH   7  14
HETATM   14  O1  UNL     1      15.851  -1.907  -3.281  1.00  0.00    -0.345 OA
ATOM     15  H1  UNL     1      16.712  -1.527  -3.153  1.00  0.00     0.219 HD
ENDBRANCH   7  14
BRANCH   9  16
HETATM   16  C2  UNL     1      14.137  -4.049  -2.876  1.00  0.00     0.044 C 
HETATM   17  C1  UNL     1      15.010  -5.118  -2.336  1.00  0.00     0.010 C 
ENDBRANCH   9  16
ENDBRANCH   4   5
ENDBRANCH   3   4
ENDBRANCH   1   3
BRANCH   1  18
HETATM   18  N2  UNL     1      15.278   2.833   2.751  1.00  0.00    -0.253 N 
BRANCH  18  19
HETATM   19  O2  UNL     1      16.262   2.097   3.322  1.00  0.00    -0.287 OA
ATOM     20  H2  UNL     1      16.259   1.978   4.265  1.00  0.00     0.244 HD
ENDBRANCH  18  19
BRANCH  18  21
HETATM   21  C9  UNL     1      14.223   3.272   3.602  1.00  0.00     0.087 A 
HETATM   22  C10 UNL     1      13.234   2.473   4.126  1.00  0.00     0.035 A 
HETATM   23  C11 UNL     1      13.013   0.990   3.937  1.00  0.00     0.070 C 
HETATM   24  N3  UNL     1      12.453   3.290   4.873  1.00  0.00    -0.361 N 
HETATM   25  C12 UNL     1      12.895   4.555   4.848  1.00  0.00     0.018 A 
ATOM     26  H3  UNL     1      11.630   2.982   5.389  1.00  0.00     0.165 HD
HETATM   27  C13 UNL     1      14.012   4.582   4.056  1.00  0.00    -0.004 A 
HETATM   28  C19 UNL     1      12.341   5.779   5.526  1.00  0.00     0.058 C 
HETATM   29  C14 UNL     1      14.785   5.826   3.788  1.00  0.00     0.047 C 
HETATM   30  C15 UNL     1      14.117   7.003   4.417  1.00  0.00    -0.010 C 
HETATM   31  C18 UNL     1      13.523   6.688   5.775  1.00  0.00     0.011 C 
BRANCH  30  32
HETATM   32  C16 UNL     1      15.055   8.172   4.595  1.00  0.00     0.000 C 
HETATM   33  C17 UNL     1      16.449   7.872   4.146  1.00  0.00     0.005 C 
ENDBRANCH  30  32
ENDBRANCH  18  21
ENDBRANCH   1  18
TORSDOF 9
ENDMDL
MODEL 4
REMARK VINA RESULT: -6.258167111      4.570      8.723
REMARK  9 active torsions:
REMARK  status: ('A' for Active; 'I' for Inactive)
REMARK    1  A    between atoms: C2_2  and  C3_3 
REMARK    2  A    between atoms: C4_4  and  O1_5 
REMARK    3  A    between atoms: C5_9  and  S1_10 
REMARK    4  A    between atoms: S1_10  and  C6_11 
REMARK    5  A    between atoms: C6_11  and  C7_12 
REMARK    6  A    between atoms: C7_12  and  N2_14 
REMARK    7  A    between atoms: N2_14  and  O2_15 
REMARK    8  A    between atoms: N2_14  and  C9_17 
REMARK    9  A    between atoms: C15_25  and  C16_26 
ROOT
HETATM    1  C7  UNL     1      10.292   2.531   1.600  1.00  0.00     0.120 C 
HETATM    2  C8  UNL     1       9.143   2.410   2.557  1.00  0.00     0.036 C 
ENDROOT
BRANCH   1   3
HETATM    3  C6  UNL     1      11.635   2.361   2.257  1.00  0.00     0.109 C 
BRANCH   3   4
HETATM    4  S1  UNL     1      11.805   3.025   3.892  1.00  0.00    -0.092 SA
BRANCH   4   5
HETATM    5  C5  UNL     1      12.698   4.518   4.071  1.00  0.00     0.149 A 
HETATM    6  N1  UNL     1      13.005   5.256   2.989  1.00  0.00    -0.317 N 
HETATM    7  C4  UNL     1      13.675   6.403   3.017  1.00  0.00     0.153 A 
ATOM      8  H1  UNL     1      12.700   4.909   2.079  1.00  0.00     0.170 HD
HETATM    9  C3  UNL     1      14.107   6.907   4.245  1.00  0.00     0.060 A 
HETATM   10  C20 UNL     1      13.803   6.170   5.345  1.00  0.00     0.257 A 
HETATM   11  N4  UNL     1      13.121   5.015   5.253  1.00  0.00    -0.303 N 
HETATM   12  O3  UNL     1      14.167   6.579   6.460  1.00  0.00    -0.267 OA
ATOM     13  H4  UNL     1      12.917   4.496   6.107  1.00  0.00     0.171 HD
BRANCH   7  14
HETATM   14  O1  UNL     1      13.937   7.085   1.826  1.00  0.00    -0.345 OA
ATOM     15  H1  UNL     1      14.798   7.056   1.425  1.00  0.00     0.219 HD
ENDBRANCH   7  14
BRANCH   9  16
HETATM   16  C2  UNL     1      14.837   8.168   4.215  1.00  0.00     0.044 C 
HETATM   17  C1  UNL     1      16.315   8.077   4.227  1.00  0.00     0.010 C 
ENDBRANCH   9  16
ENDBRANCH   4   5
ENDBRANCH   3   4
ENDBRANCH   1   3
BRANCH   1  18
HETATM   18  N2  UNL     1      10.251   3.781   0.862  1.00  0.00    -0.253 N 
BRANCH  18  19
HETATM   19  O2  UNL     1      11.411   4.436   0.615  1.00  0.00    -0.287 OA
ATOM     20  H2  UNL     1      11.415   5.386   0.623  1.00  0.00     0.244 HD
ENDBRANCH  18  19
BRANCH  18  21
HETATM   21  C9  UNL     1       9.054   4.384   0.378  1.00  0.00     0.087 A 
HETATM   22  C10 UNL     1       8.419   5.465   0.942  1.00  0.00     0.035 A 
HETATM   23  C11 UNL     1       8.803   6.254   2.172  1.00  0.00     0.070 C 
HETATM   24  N3  UNL     1       7.335   5.706   0.167  1.00  0.00    -0.361 N 
HETATM   25  C12 UNL     1       7.253   4.839  -0.851  1.00  0.00     0.018 A 
ATOM     26  H3  UNL     1       6.663   6.453   0.338  1.00  0.00     0.165 HD
HETATM   27  C13 UNL     1       8.323   3.989  -0.751  1.00  0.00    -0.004 A 
HETATM   28  C19 UNL     1       6.225   4.736  -1.946  1.00  0.00     0.058 C 
HETATM   29  C14 UNL     1       8.570   2.881  -1.715  1.00  0.00     0.047 C 
HETATM   30  C15 UNL     1       7.458   2.792  -2.706  1.00  0.00    -0.010 C 
HETATM   31  C18 UNL     1       6.942   4.149  -3.139  1.00  0.00     0.011 C 
BRANCH  30  32
HETATM   32  C16 UNL     1       7.856   2.042  -3.954  1.00  0.00     0.000 C 
HETATM   33  C17 UNL     1       7.117   2.503  -5.169  1.00  0.00     0.005 C 
ENDBRANCH  30  32
ENDBRANCH  18  21
ENDBRANCH   1  18
TORSDOF 9
ENDMDL
MODEL 5
REMARK VINA RESULT: -6.220947965      4.444      8.741
REMARK  9 active torsions:
REMARK  status: ('A' for Active; 'I' for Inactive)
REMARK    1  A    between atoms: C2_2  and  C3_3 
REMARK    2  A    between atoms: C4_4  and  O1_5 
REMARK    3  A    between atoms: C5_9  and  S1_10 
REMARK    4  A    between atoms: S1_10  and  C6_11 
REMARK    5  A    between atoms: C6_11  and  C7_12 
REMARK    6  A    between atoms: C7_12  and  N2_14 
REMARK    7  A    between atoms: N2_14  and  O2_15 
REMARK    8  A    between atoms: N2_14  and  C9_17 
REMARK    9  A    between atoms: C15_25  and  C16_26 
ROOT
HETATM    1  C7  UNL     1      10.327   2.553   1.573  1.00  0.00     0.120 C 
HETATM    2  C8  UNL     1       9.338   2.533   2.702  1.00  0.00     0.036 C 
ENDROOT
BRANCH   1   3
HETATM    3  C6  UNL     1      11.739   2.277   2.014  1.00  0.00     0.109 C 
BRANCH   3   4
HETATM    4  S1  UNL     1      12.187   2.845   3.632  1.00  0.00    -0.092 SA
BRANCH   4   5
HETATM    5  C5  UNL     1      12.957   4.410   3.756  1.00  0.00     0.149 A 
HETATM    6  N1  UNL     1      13.278   4.913   4.962  1.00  0.00    -0.317 N 
HETATM    7  C4  UNL     1      13.866   6.087   5.164  1.00  0.00     0.153 A 
ATOM      8  H1  UNL     1      13.055   4.350   5.783  1.00  0.00     0.170 HD
HETATM    9  C3  UNL     1      14.187   6.884   4.063  1.00  0.00     0.060 A 
HETATM   10  C20 UNL     1      13.866   6.387   2.840  1.00  0.00     0.257 A 
HETATM   11  N4  UNL     1      13.271   5.191   2.699  1.00  0.00    -0.303 N 
HETATM   12  O3  UNL     1      14.133   7.061   1.831  1.00  0.00    -0.267 OA
ATOM     13  H4  UNL     1      13.050   4.860   1.760  1.00  0.00     0.171 HD
BRANCH   7  14
HETATM   14  O1  UNL     1      14.154   6.508   6.465  1.00  0.00    -0.345 OA
ATOM     15  H1  UNL     1      14.158   5.892   7.188  1.00  0.00     0.219 HD
ENDBRANCH   7  14
BRANCH   9  16
HETATM   16  C2  UNL     1      14.830   8.161   4.344  1.00  0.00     0.044 C 
HETATM   17  C1  UNL     1      16.310   8.182   4.291  1.00  0.00     0.010 C 
ENDBRANCH   9  16
ENDBRANCH   4   5
ENDBRANCH   3   4
ENDBRANCH   1   3
BRANCH   1  18
HETATM   18  N2  UNL     1      10.269   3.797   0.827  1.00  0.00    -0.253 N 
BRANCH  18  19
HETATM   19  O2  UNL     1      11.422   4.454   0.556  1.00  0.00    -0.287 OA
ATOM     20  H2  UNL     1      11.647   5.221   1.070  1.00  0.00     0.244 HD
ENDBRANCH  18  19
BRANCH  18  21
HETATM   21  C9  UNL     1       9.062   4.392   0.357  1.00  0.00     0.087 A 
HETATM   22  C10 UNL     1       8.425   5.466   0.930  1.00  0.00     0.035 A 
HETATM   23  C11 UNL     1       8.816   6.256   2.158  1.00  0.00     0.070 C 
HETATM   24  N3  UNL     1       7.330   5.700   0.167  1.00  0.00    -0.361 N 
HETATM   25  C12 UNL     1       7.244   4.835  -0.852  1.00  0.00     0.018 A 
ATOM     26  H3  UNL     1       6.655   6.442   0.347  1.00  0.00     0.165 HD
HETATM   27  C13 UNL     1       8.321   3.993  -0.765  1.00  0.00    -0.004 A 
HETATM   28  C19 UNL     1       6.205   4.727  -1.935  1.00  0.00     0.058 C 
HETATM   29  C14 UNL     1       8.567   2.890  -1.734  1.00  0.00     0.047 C 
HETATM   30  C15 UNL     1       7.445   2.794  -2.714  1.00  0.00    -0.010 C 
HETATM   31  C18 UNL     1       6.914   4.148  -3.137  1.00  0.00     0.011 C 
BRANCH  30  32
HETATM   32  C16 UNL     1       7.835   2.049  -3.968  1.00  0.00     0.000 C 
HETATM   33  C17 UNL     1       7.096   2.522  -5.177  1.00  0.00     0.005 C 
ENDBRANCH  30  32
ENDBRANCH  18  21
ENDBRANCH   1  18
TORSDOF 9
ENDMDL
