MODEL 1
REMARK VINA RESULT: -5.059514945      0.000      0.000
REMARK  2 active torsions:
REMARK  status: ('A' for Active; 'I' for Inactive)
REMARK    1  A    between atoms: C2_2  and  C3_3 
REMARK    2  A    between atoms: C5_5  and  N1_6 
ROOT
HETATM    1  C3  UNL     1      13.106   9.338  -2.722  1.00  0.00     0.014 C 
HETATM    2  C4  UNL     1      13.038  10.393  -1.677  1.00  0.00     0.047 C 
HETATM    3  C5  UNL     1      13.969   9.863  -0.594  1.00  0.00     0.124 C 
HETATM    4  C6  UNL     1      15.124  10.826  -0.488  1.00  0.00     0.038 C 
HETATM    5  C7  UNL     1      16.127  10.486  -1.533  1.00  0.00     0.003 C 
HETATM    6  C8  UNL     1      15.548   9.963  -2.811  1.00  0.00     0.005 C 
HETATM    7  C9  UNL     1      14.535   8.884  -2.634  1.00  0.00    -0.004 C 
HETATM    8  C10 UNL     1      14.533   8.554  -1.129  1.00  0.00     0.043 C 
ENDROOT
BRANCH   3   9
HETATM    9  N1  UNL     1      13.283   9.658   0.655  1.00  0.00    -0.070 N 
ATOM     10  H13 UNL     1      13.091  10.545   1.121  1.00  0.00     0.275 HD
ATOM     11  H12 UNL     1      12.324   9.344   0.503  1.00  0.00     0.275 HD
ATOM     12  H11 UNL     1      13.789   9.020   1.269  1.00  0.00     0.275 HD
ENDBRANCH   3   9
BRANCH   1  13
HETATM   13  C2  UNL     1      12.640   9.716  -4.048  1.00  0.00    -0.032 C 
HETATM   14  C1  UNL     1      11.515   9.335  -4.609  1.00  0.00     0.007 C 
ENDBRANCH   1  13
TORSDOF 2
ENDMDL
MODEL 2
REMARK VINA RESULT: -4.784675650      2.279      3.167
REMARK  2 active torsions:
REMARK  status: ('A' for Active; 'I' for Inactive)
REMARK    1  A    between atoms: C2_2  and  C3_3 
REMARK    2  A    between atoms: C5_5  and  N1_6 
ROOT
HETATM    1  C3  UNL     1      13.397   9.851   0.185  1.00  0.00     0.014 C 
HETATM    2  C4  UNL     1      13.218  10.602   1.455  1.00  0.00     0.047 C 
HETATM    3  C5  UNL     1      13.898   9.707   2.483  1.00  0.00     0.124 C 
HETATM    4  C6  UNL     1      15.082  10.468   3.024  1.00  0.00     0.038 C 
HETATM    5  C7  UNL     1      16.229  10.293   2.094  1.00  0.00     0.003 C 
HETATM    6  C8  UNL     1      15.854  10.188   0.648  1.00  0.00     0.005 C 
HETATM    7  C9  UNL     1      14.751   9.225   0.365  1.00  0.00    -0.004 C 
HETATM    8  C10 UNL     1      14.454   8.523   1.704  1.00  0.00     0.043 C 
ENDROOT
BRANCH   3   9
HETATM    9  N1  UNL     1      12.986   9.270   3.506  1.00  0.00    -0.070 N 
ATOM     10  H13 UNL     1      12.729  10.039   4.125  1.00  0.00     0.275 HD
ATOM     11  H12 UNL     1      12.066   9.061   3.117  1.00  0.00     0.275 HD
ATOM     12  H11 UNL     1      13.353   8.478   4.034  1.00  0.00     0.275 HD
ENDBRANCH   3   9
BRANCH   1  13
HETATM   13  C2  UNL     1      13.206  10.609  -1.042  1.00  0.00    -0.032 C 
HETATM   14  C1  UNL     1      13.097  10.107  -2.251  1.00  0.00     0.007 C 
ENDBRANCH   1  13
TORSDOF 2
ENDMDL
MODEL 3
REMARK VINA RESULT: -4.770445922      1.532      2.130
REMARK  2 active torsions:
REMARK  status: ('A' for Active; 'I' for Inactive)
REMARK    1  A    between atoms: C2_2  and  C3_3 
REMARK    2  A    between atoms: C5_5  and  N1_6 
ROOT
HETATM    1  C3  UNL     1      13.707   9.646  -1.260  1.00  0.00     0.014 C 
HETATM    2  C4  UNL     1      13.225  10.418  -0.085  1.00  0.00     0.047 C 
HETATM    3  C5  UNL     1      13.710   9.586   1.095  1.00  0.00     0.124 C 
HETATM    4  C6  UNL     1      14.713  10.422   1.848  1.00  0.00     0.038 C 
HETATM    5  C7  UNL     1      16.040  10.287   1.191  1.00  0.00     0.003 C 
HETATM    6  C8  UNL     1      15.989  10.126  -0.297  1.00  0.00     0.005 C 
HETATM    7  C9  UNL     1      15.019   9.099  -0.774  1.00  0.00    -0.004 C 
HETATM    8  C10 UNL     1      14.476   8.414   0.495  1.00  0.00     0.043 C 
ENDROOT
BRANCH   3   9
HETATM    9  N1  UNL     1      12.621   9.125   1.916  1.00  0.00    -0.070 N 
ATOM     10  H13 UNL     1      12.795   8.183   2.264  1.00  0.00     0.275 HD
ATOM     11  H12 UNL     1      12.592   9.624   2.806  1.00  0.00     0.275 HD
ATOM     12  H11 UNL     1      11.726   9.181   1.431  1.00  0.00     0.275 HD
ENDBRANCH   3   9
BRANCH   1  13
HETATM   13  C2  UNL     1      13.748  10.362  -2.526  1.00  0.00    -0.032 C 
HETATM   14  C1  UNL     1      14.329   9.948  -3.630  1.00  0.00     0.007 C 
ENDBRANCH   1  13
TORSDOF 2
ENDMDL
MODEL 4
REMARK VINA RESULT: -4.731411227      1.785      2.683
REMARK  2 active torsions:
REMARK  status: ('A' for Active; 'I' for Inactive)
REMARK    1  A    between atoms: C2_2  and  C3_3 
REMARK    2  A    between atoms: C5_5  and  N1_6 
ROOT
HETATM    1  C3  UNL     1      15.089   9.904  -2.570  1.00  0.00     0.014 C 
HETATM    2  C4  UNL     1      15.340   8.912  -1.492  1.00  0.00     0.047 C 
HETATM    3  C5  UNL     1      15.272   9.756  -0.226  1.00  0.00     0.124 C 
HETATM    4  C6  UNL     1      14.090   9.269   0.573  1.00  0.00     0.038 C 
HETATM    5  C7  UNL     1      12.859   9.925   0.054  1.00  0.00     0.003 C 
HETATM    6  C8  UNL     1      12.862  10.186  -1.420  1.00  0.00     0.005 C 
HETATM    7  C9  UNL     1      14.102  10.838  -1.930  1.00  0.00    -0.004 C 
HETATM    8  C10 UNL     1      14.942  11.171  -0.682  1.00  0.00     0.043 C 
ENDROOT
BRANCH   3   9
HETATM    9  N1  UNL     1      16.508   9.726   0.511  1.00  0.00    -0.070 N 
ATOM     10  H13 UNL     1      16.409  10.184   1.417  1.00  0.00     0.275 HD
ATOM     11  H12 UNL     1      16.725   8.781   0.830  1.00  0.00     0.275 HD
ATOM     12  H11 UNL     1      17.281  10.124  -0.021  1.00  0.00     0.275 HD
ENDBRANCH   3   9
BRANCH   1  13
HETATM   13  C2  UNL     1      14.704   9.363  -3.864  1.00  0.00    -0.032 C 
HETATM   14  C1  UNL     1      14.843   9.963  -5.025  1.00  0.00     0.007 C 
ENDBRANCH   1  13
TORSDOF 2
ENDMDL
MODEL 5
REMARK VINA RESULT: -4.656949773      2.120      4.356
REMARK  2 active torsions:
REMARK  status: ('A' for Active; 'I' for Inactive)
REMARK    1  A    between atoms: C2_2  and  C3_3 
REMARK    2  A    between atoms: C5_5  and  N1_6 
ROOT
HETATM    1  C3  UNL     1      15.890   9.801   0.355  1.00  0.00     0.014 C 
HETATM    2  C4  UNL     1      15.827  10.830  -0.716  1.00  0.00     0.047 C 
HETATM    3  C5  UNL     1      15.180  10.082  -1.874  1.00  0.00     0.124 C 
HETATM    4  C6  UNL     1      13.850  10.739  -2.142  1.00  0.00     0.038 C 
HETATM    5  C7  UNL     1      12.842  10.182  -1.201  1.00  0.00     0.003 C 
HETATM    6  C8  UNL     1      13.376   9.827   0.152  1.00  0.00     0.005 C 
HETATM    7  C9  UNL     1      14.628   9.018   0.128  1.00  0.00    -0.004 C 
HETATM    8  C10 UNL     1      14.882   8.682  -1.354  1.00  0.00     0.043 C 
ENDROOT
BRANCH   3   9
HETATM    9  N1  UNL     1      16.034  10.032  -3.031  1.00  0.00    -0.070 N 
ATOM     10  H13 UNL     1      17.016  10.126  -2.769  1.00  0.00     0.275 HD
ATOM     11  H12 UNL     1      16.062   9.093  -3.430  1.00  0.00     0.275 HD
ATOM     12  H11 UNL     1      15.771  10.724  -3.732  1.00  0.00     0.275 HD
ENDBRANCH   3   9
BRANCH   1  13
HETATM   13  C2  UNL     1      16.097  10.294   1.708  1.00  0.00    -0.032 C 
HETATM   14  C1  UNL     1      16.071   9.572   2.806  1.00  0.00     0.007 C 
ENDBRANCH   1  13
TORSDOF 2
ENDMDL
