MODEL 1
REMARK VINA RESULT: -4.743302798      0.000      0.000
REMARK  1 active torsions:
REMARK  status: ('A' for Active; 'I' for Inactive)
REMARK    1  A    between atoms: C1_2  and  C2_3 
ROOT
HETATM    1  C2  UNL     1      15.658  10.687  -0.505  1.00  0.00     0.000 C 
HETATM    2  C3  UNL     1      15.916  10.351  -1.943  1.00  0.00     0.010 C 
HETATM    3  C4  UNL     1      14.877   9.325  -2.304  1.00  0.00    -0.014 C 
HETATM    4  C5  UNL     1      13.509   9.898  -2.508  1.00  0.00     0.005 C 
HETATM    5  C6  UNL     1      13.058  10.782  -1.384  1.00  0.00     0.001 C 
HETATM    6  C7  UNL     1      13.324  10.188  -0.033  1.00  0.00     0.005 C 
HETATM    7  C8  UNL     1      14.729   9.621   0.017  1.00  0.00    -0.009 C 
HETATM    8  C9  UNL     1      14.822   8.494  -1.015  1.00  0.00     0.009 C 
ENDROOT
BRANCH   1   9
HETATM    9  C1  UNL     1      16.931  10.793   0.311  1.00  0.00     0.091 C 
HETATM   10  S1  UNL     1      16.533  10.467   2.037  1.00  0.00    -0.097 SA
ENDBRANCH   1   9
TORSDOF 1
ENDMDL
MODEL 2
REMARK VINA RESULT: -4.484254968      2.345      3.757
REMARK  1 active torsions:
REMARK  status: ('A' for Active; 'I' for Inactive)
REMARK    1  A    between atoms: C1_2  and  C2_3 
ROOT
HETATM    1  C2  UNL     1      13.671  10.181  -1.709  1.00  0.00     0.000 C 
HETATM    2  C3  UNL     1      13.210   9.858  -0.320  1.00  0.00     0.010 C 
HETATM    3  C4  UNL     1      14.350   9.108   0.314  1.00  0.00    -0.014 C 
HETATM    4  C5  UNL     1      15.496   9.983   0.718  1.00  0.00     0.005 C 
HETATM    5  C6  UNL     1      15.963  10.897  -0.375  1.00  0.00     0.001 C 
HETATM    6  C7  UNL     1      16.104  10.201  -1.696  1.00  0.00     0.005 C 
HETATM    7  C8  UNL     1      14.892   9.331  -1.956  1.00  0.00    -0.009 C 
HETATM    8  C9  UNL     1      14.836   8.258  -0.866  1.00  0.00     0.009 C 
ENDROOT
BRANCH   1   9
HETATM    9  C1  UNL     1      12.594   9.963  -2.752  1.00  0.00     0.091 C 
HETATM   10  S1  UNL     1      13.368   9.328  -4.249  1.00  0.00    -0.097 SA
ENDBRANCH   1   9
TORSDOF 1
ENDMDL
MODEL 3
REMARK VINA RESULT: -4.480492113      2.118      3.147
REMARK  1 active torsions:
REMARK  status: ('A' for Active; 'I' for Inactive)
REMARK    1  A    between atoms: C1_2  and  C2_3 
ROOT
HETATM    1  C2  UNL     1      14.851  10.286   0.640  1.00  0.00     0.000 C 
HETATM    2  C3  UNL     1      14.162   9.007   0.273  1.00  0.00     0.010 C 
HETATM    3  C4  UNL     1      13.843   8.337   1.581  1.00  0.00    -0.014 C 
HETATM    4  C5  UNL     1      12.685   8.949   2.305  1.00  0.00     0.005 C 
HETATM    5  C6  UNL     1      12.788  10.438   2.447  1.00  0.00     0.001 C 
HETATM    6  C7  UNL     1      14.149  10.888   2.890  1.00  0.00     0.005 C 
HETATM    7  C8  UNL     1      15.218  10.165   2.097  1.00  0.00    -0.009 C 
HETATM    8  C9  UNL     1      15.100   8.668   2.397  1.00  0.00     0.009 C 
ENDROOT
BRANCH   1   9
HETATM    9  C1  UNL     1      16.052  10.580  -0.236  1.00  0.00     0.091 C 
HETATM   10  S1  UNL     1      17.342  11.309   0.788  1.00  0.00    -0.097 SA
ENDBRANCH   1   9
TORSDOF 1
ENDMDL
MODEL 4
REMARK VINA RESULT: -4.394490919      2.752      3.774
REMARK  1 active torsions:
REMARK  status: ('A' for Active; 'I' for Inactive)
REMARK    1  A    between atoms: C1_2  and  C2_3 
ROOT
HETATM    1  C2  UNL     1      13.768   9.040  -2.493  1.00  0.00     0.000 C 
HETATM    2  C3  UNL     1      14.773   8.231  -1.730  1.00  0.00     0.010 C 
HETATM    3  C4  UNL     1      15.508   9.220  -0.867  1.00  0.00    -0.014 C 
HETATM    4  C5  UNL     1      14.724   9.679   0.323  1.00  0.00     0.005 C 
HETATM    5  C6  UNL     1      13.342  10.149  -0.017  1.00  0.00     0.001 C 
HETATM    6  C7  UNL     1      13.311  11.056  -1.211  1.00  0.00     0.005 C 
HETATM    7  C8  UNL     1      14.169  10.483  -2.320  1.00  0.00    -0.009 C 
HETATM    8  C9  UNL     1      15.614  10.420  -1.817  1.00  0.00     0.009 C 
ENDROOT
BRANCH   1   9
HETATM    9  C1  UNL     1      13.674   8.638  -3.951  1.00  0.00     0.091 C 
HETATM   10  S1  UNL     1      12.168   9.342  -4.643  1.00  0.00    -0.097 SA
ENDBRANCH   1   9
TORSDOF 1
ENDMDL
MODEL 5
REMARK VINA RESULT: -4.383611394      2.464      3.451
REMARK  1 active torsions:
REMARK  status: ('A' for Active; 'I' for Inactive)
REMARK    1  A    between atoms: C1_2  and  C2_3 
ROOT
HETATM    1  C2  UNL     1      14.479  10.205   0.518  1.00  0.00     0.000 C 
HETATM    2  C3  UNL     1      14.230   8.744   0.294  1.00  0.00     0.010 C 
HETATM    3  C4  UNL     1      14.200   8.130   1.667  1.00  0.00    -0.014 C 
HETATM    4  C5  UNL     1      12.936   8.402   2.421  1.00  0.00     0.005 C 
HETATM    5  C6  UNL     1      12.555   9.851   2.445  1.00  0.00     0.001 C 
HETATM    6  C7  UNL     1      13.711  10.753   2.761  1.00  0.00     0.005 C 
HETATM    7  C8  UNL     1      14.925  10.342   1.952  1.00  0.00    -0.009 C 
HETATM    8  C9  UNL     1      15.312   8.921   2.368  1.00  0.00     0.009 C 
ENDROOT
BRANCH   1   9
HETATM    9  C1  UNL     1      15.483  10.786  -0.457  1.00  0.00     0.091 C 
HETATM   10  S1  UNL     1      15.265   9.979  -2.052  1.00  0.00    -0.097 SA
ENDBRANCH   1   9
TORSDOF 1
ENDMDL
