MODEL 1
REMARK VINA RESULT: -4.772221754      0.000      0.000
REMARK  2 active torsions:
REMARK  status: ('A' for Active; 'I' for Inactive)
REMARK    1  A    between atoms: C2_2  and  C3_3 
REMARK    2  A    between atoms: C3_3  and  O1_4 
ROOT
HETATM    1  C3  UNL     1      14.264   9.277   6.640  1.00  0.00     0.067 C 
HETATM    2  C4  UNL     1      14.225   7.897   7.181  1.00  0.00     0.112 C 
HETATM    3  S1  UNL     1      14.921   8.164   8.861  1.00  0.00    -0.157 SA
HETATM    4  C5  UNL     1      14.169   9.807   9.041  1.00  0.00     0.004 C 
HETATM    5  C6  UNL     1      15.014  10.696   9.927  1.00  0.00     0.026 C 
HETATM    6  C7  UNL     1      12.799   9.601   9.650  1.00  0.00     0.026 C 
HETATM    7  C8  UNL     1      14.041  10.287   7.660  1.00  0.00     0.058 C 
ENDROOT
BRANCH   1   8
HETATM    8  C2  UNL     1      15.560   9.593   5.904  1.00  0.00     0.034 C 
HETATM    9  C1  UNL     1      15.455  10.779   5.009  1.00  0.00     0.008 C 
ENDBRANCH   1   8
BRANCH   1  10
HETATM   10  O1  UNL     1      13.252   9.360   5.655  1.00  0.00    -0.389 OA
ATOM     11  H1  UNL     1      12.595   8.728   5.921  1.00  0.00     0.210 HD
ENDBRANCH   1  10
TORSDOF 2
ENDMDL
MODEL 2
REMARK VINA RESULT: -4.701899115      1.948      3.746
REMARK  2 active torsions:
REMARK  status: ('A' for Active; 'I' for Inactive)
REMARK    1  A    between atoms: C2_2  and  C3_3 
REMARK    2  A    between atoms: C3_3  and  O1_4 
ROOT
HETATM    1  C3  UNL     1      14.639   9.649   9.023  1.00  0.00     0.067 C 
HETATM    2  C4  UNL     1      14.881   8.191   9.142  1.00  0.00     0.112 C 
HETATM    3  S1  UNL     1      14.246   7.602   7.521  1.00  0.00    -0.157 SA
HETATM    4  C5  UNL     1      14.792   9.088   6.632  1.00  0.00     0.004 C 
HETATM    5  C6  UNL     1      13.890   9.377   5.453  1.00  0.00     0.026 C 
HETATM    6  C7  UNL     1      16.208   8.828   6.164  1.00  0.00     0.026 C 
HETATM    7  C8  UNL     1      14.786  10.134   7.662  1.00  0.00     0.058 C 
ENDROOT
BRANCH   1   8
HETATM    8  C2  UNL     1      13.277  10.073   9.557  1.00  0.00     0.034 C 
HETATM    9  C1  UNL     1      13.221  11.506   9.957  1.00  0.00     0.008 C 
ENDBRANCH   1   8
BRANCH   1  10
HETATM   10  O1  UNL     1      15.580  10.291   9.864  1.00  0.00    -0.389 OA
ATOM     11  H1  UNL     1      15.877   9.616  10.463  1.00  0.00     0.210 HD
ENDBRANCH   1  10
TORSDOF 2
ENDMDL
MODEL 3
REMARK VINA RESULT: -4.398933182      3.635      5.705
REMARK  2 active torsions:
REMARK  status: ('A' for Active; 'I' for Inactive)
REMARK    1  A    between atoms: C2_2  and  C3_3 
REMARK    2  A    between atoms: C3_3  and  O1_4 
ROOT
HETATM    1  C3  UNL     1      15.314  11.289   3.594  1.00  0.00     0.067 C 
HETATM    2  C4  UNL     1      16.294  10.890   2.555  1.00  0.00     0.112 C 
HETATM    3  S1  UNL     1      15.590   9.280   2.017  1.00  0.00    -0.157 SA
HETATM    4  C5  UNL     1      13.872   9.817   2.249  1.00  0.00     0.004 C 
HETATM    5  C6  UNL     1      12.982   8.649   2.610  1.00  0.00     0.026 C 
HETATM    6  C7  UNL     1      13.424  10.441   0.945  1.00  0.00     0.026 C 
HETATM    7  C8  UNL     1      13.965  10.844   3.294  1.00  0.00     0.058 C 
ENDROOT
BRANCH   1   8
HETATM    8  C2  UNL     1      15.695  10.812   4.989  1.00  0.00     0.034 C 
HETATM    9  C1  UNL     1      14.519  10.476   5.839  1.00  0.00     0.008 C 
ENDBRANCH   1   8
BRANCH   1  10
HETATM   10  O1  UNL     1      15.347  12.702   3.667  1.00  0.00    -0.389 OA
ATOM     11  H1  UNL     1      15.500  12.993   2.776  1.00  0.00     0.210 HD
ENDBRANCH   1  10
TORSDOF 2
ENDMDL
MODEL 4
REMARK VINA RESULT: -4.354517584      6.370      8.173
REMARK  2 active torsions:
REMARK  status: ('A' for Active; 'I' for Inactive)
REMARK    1  A    between atoms: C2_2  and  C3_3 
REMARK    2  A    between atoms: C3_3  and  O1_4 
ROOT
HETATM    1  C3  UNL     1      14.636  10.099   1.361  1.00  0.00     0.067 C 
HETATM    2  C4  UNL     1      15.923  10.779   1.078  1.00  0.00     0.112 C 
HETATM    3  S1  UNL     1      16.253  10.197  -0.633  1.00  0.00    -0.157 SA
HETATM    4  C5  UNL     1      14.497  10.182  -1.095  1.00  0.00     0.004 C 
HETATM    5  C6  UNL     1      14.220   9.125  -2.140  1.00  0.00     0.026 C 
HETATM    6  C7  UNL     1      14.170  11.558  -1.633  1.00  0.00     0.026 C 
HETATM    7  C8  UNL     1      13.803   9.961   0.179  1.00  0.00     0.058 C 
ENDROOT
BRANCH   1   8
HETATM    8  C2  UNL     1      14.813   8.731   2.007  1.00  0.00     0.034 C 
HETATM    9  C1  UNL     1      13.770   7.749   1.601  1.00  0.00     0.008 C 
ENDBRANCH   1   8
BRANCH   1  10
HETATM   10  O1  UNL     1      13.964  10.880   2.332  1.00  0.00    -0.389 OA
ATOM     11  H1  UNL     1      13.066  10.934   2.027  1.00  0.00     0.210 HD
ENDBRANCH   1  10
TORSDOF 2
ENDMDL
MODEL 5
REMARK VINA RESULT: -4.343007921      5.777      7.351
REMARK  2 active torsions:
REMARK  status: ('A' for Active; 'I' for Inactive)
REMARK    1  A    between atoms: C2_2  and  C3_3 
REMARK    2  A    between atoms: C3_3  and  O1_4 
ROOT
HETATM    1  C3  UNL     1      14.888  10.330  -0.438  1.00  0.00     0.067 C 
HETATM    2  C4  UNL     1      13.626   9.561  -0.317  1.00  0.00     0.112 C 
HETATM    3  S1  UNL     1      14.004   8.501   1.136  1.00  0.00    -0.157 SA
HETATM    4  C5  UNL     1      15.001   9.777   1.957  1.00  0.00     0.004 C 
HETATM    5  C6  UNL     1      16.081   9.154   2.814  1.00  0.00     0.026 C 
HETATM    6  C7  UNL     1      14.055  10.595   2.810  1.00  0.00     0.026 C 
HETATM    7  C8  UNL     1      15.512  10.590   0.848  1.00  0.00     0.058 C 
ENDROOT
BRANCH   1   8
HETATM    8  C2  UNL     1      15.905   9.668  -1.358  1.00  0.00     0.034 C 
HETATM    9  C1  UNL     1      15.791  10.109  -2.776  1.00  0.00     0.008 C 
ENDBRANCH   1   8
BRANCH   1  10
HETATM   10  O1  UNL     1      14.564  11.555  -1.069  1.00  0.00    -0.389 OA
ATOM     11  H1  UNL     1      14.838  12.228  -0.457  1.00  0.00     0.210 HD
ENDBRANCH   1  10
TORSDOF 2
ENDMDL
