MODEL 1
REMARK VINA RESULT: -5.111478003      0.000      0.000
REMARK  2 active torsions:
REMARK  status: ('A' for Active; 'I' for Inactive)
REMARK    1  A    between atoms: C8_8  and  C9_9 
REMARK    2  A    between atoms: N1_10  and  N2_12 
ROOT
HETATM    1  C1  UNL     1      16.490   8.909   5.601  1.00  0.00     0.010 C 
HETATM    2  C2  UNL     1      15.749   9.281   6.898  1.00  0.00    -0.010 C 
HETATM    3  C3  UNL     1      15.590   8.009   7.672  1.00  0.00     0.005 C 
HETATM    4  C4  UNL     1      14.549   8.002   8.701  1.00  0.00     0.000 C 
HETATM    5  C5  UNL     1      14.389   9.212   9.539  1.00  0.00     0.000 C 
HETATM    6  C6  UNL     1      14.313  10.514   8.868  1.00  0.00     0.001 C 
HETATM    7  C7  UNL     1      13.663  10.535   7.523  1.00  0.00     0.010 C 
HETATM    8  C8  UNL     1      14.428   9.857   6.445  1.00  0.00     0.029 C 
ENDROOT
BRANCH   8   9
HETATM    9  C9  UNL     1      14.704  10.730   5.280  1.00  0.00     0.084 C 
HETATM   10  N1  UNL     1      14.090  10.545   4.187  1.00  0.00    -0.322 N 
ATOM     11  H1  UNL     1      14.305  11.166   3.406  1.00  0.00     0.185 HD
BRANCH  10  12
HETATM   12  N2  UNL     1      13.138   9.543   3.988  1.00  0.00    -0.346 N 
ATOM     13  H22 UNL     1      13.432   8.725   3.455  1.00  0.00     0.176 HD
ATOM     14  H21 UNL     1      12.183   9.588   4.343  1.00  0.00     0.176 HD
ENDBRANCH  10  12
ENDBRANCH   8   9
TORSDOF 2
ENDMDL
MODEL 2
REMARK VINA RESULT: -4.946790176      6.510      8.769
REMARK  2 active torsions:
REMARK  status: ('A' for Active; 'I' for Inactive)
REMARK    1  A    between atoms: C8_8  and  C9_9 
REMARK    2  A    between atoms: N1_10  and  N2_12 
ROOT
HETATM    1  C1  UNL     1      12.880  10.421   0.545  1.00  0.00     0.010 C 
HETATM    2  C2  UNL     1      13.784  10.413  -0.701  1.00  0.00    -0.010 C 
HETATM    3  C3  UNL     1      12.871  10.340  -1.884  1.00  0.00     0.005 C 
HETATM    4  C4  UNL     1      13.468   9.874  -3.137  1.00  0.00     0.000 C 
HETATM    5  C5  UNL     1      14.826  10.353  -3.483  1.00  0.00     0.000 C 
HETATM    6  C6  UNL     1      15.871  10.272  -2.458  1.00  0.00     0.001 C 
HETATM    7  C7  UNL     1      15.785   9.124  -1.506  1.00  0.00     0.010 C 
HETATM    8  C8  UNL     1      14.647   9.183  -0.553  1.00  0.00     0.029 C 
ENDROOT
BRANCH   8   9
HETATM    9  C9  UNL     1      15.064   9.104   0.867  1.00  0.00     0.084 C 
HETATM   10  N1  UNL     1      14.888   8.035   1.524  1.00  0.00    -0.322 N 
ATOM     11  H1  UNL     1      15.188   8.017   2.499  1.00  0.00     0.185 HD
BRANCH  10  12
HETATM   12  N2  UNL     1      14.309   6.881   0.992  1.00  0.00    -0.346 N 
ATOM     13  H22 UNL     1      13.399   6.984   0.542  1.00  0.00     0.176 HD
ATOM     14  H21 UNL     1      14.742   5.959   1.030  1.00  0.00     0.176 HD
ENDBRANCH  10  12
ENDBRANCH   8   9
TORSDOF 2
ENDMDL
MODEL 3
REMARK VINA RESULT: -4.907845382      2.997      4.127
REMARK  2 active torsions:
REMARK  status: ('A' for Active; 'I' for Inactive)
REMARK    1  A    between atoms: C8_8  and  C9_9 
REMARK    2  A    between atoms: N1_10  and  N2_12 
ROOT
HETATM    1  C1  UNL     1      12.540   9.026   9.923  1.00  0.00     0.010 C 
HETATM    2  C2  UNL     1      13.271   9.115   8.571  1.00  0.00    -0.010 C 
HETATM    3  C3  UNL     1      14.216   7.955   8.526  1.00  0.00     0.005 C 
HETATM    4  C4  UNL     1      15.325   8.058   7.576  1.00  0.00     0.000 C 
HETATM    5  C5  UNL     1      15.047   8.629   6.238  1.00  0.00     0.000 C 
HETATM    6  C6  UNL     1      14.306   9.893   6.165  1.00  0.00     0.001 C 
HETATM    7  C7  UNL     1      14.530  10.863   7.278  1.00  0.00     0.010 C 
HETATM    8  C8  UNL     1      13.983  10.446   8.595  1.00  0.00     0.029 C 
ENDROOT
BRANCH   8   9
HETATM    9  C9  UNL     1      13.049  11.435   9.184  1.00  0.00     0.084 C 
HETATM   10  N1  UNL     1      13.341  12.017  10.271  1.00  0.00    -0.322 N 
ATOM     11  H1  UNL     1      12.675  12.692  10.647  1.00  0.00     0.185 HD
BRANCH  10  12
HETATM   12  N2  UNL     1      14.520  11.789  10.984  1.00  0.00    -0.346 N 
ATOM     13  H22 UNL     1      14.546  10.967  11.586  1.00  0.00     0.176 HD
ATOM     14  H21 UNL     1      15.340  12.393  10.933  1.00  0.00     0.176 HD
ENDBRANCH  10  12
ENDBRANCH   8   9
TORSDOF 2
ENDMDL
MODEL 4
REMARK VINA RESULT: -4.810471358      3.927      5.241
REMARK  2 active torsions:
REMARK  status: ('A' for Active; 'I' for Inactive)
REMARK    1  A    between atoms: C8_8  and  C9_9 
REMARK    2  A    between atoms: N1_10  and  N2_12 
ROOT
HETATM    1  C1  UNL     1      12.326   9.151   2.254  1.00  0.00     0.010 C 
HETATM    2  C2  UNL     1      13.635   9.419   3.017  1.00  0.00    -0.010 C 
HETATM    3  C3  UNL     1      13.692  10.896   3.252  1.00  0.00     0.005 C 
HETATM    4  C4  UNL     1      15.012  11.456   3.547  1.00  0.00     0.000 C 
HETATM    5  C5  UNL     1      15.908  10.694   4.446  1.00  0.00     0.000 C 
HETATM    6  C6  UNL     1      16.103   9.265   4.180  1.00  0.00     0.001 C 
HETATM    7  C7  UNL     1      16.066   8.841   2.749  1.00  0.00     0.010 C 
HETATM    8  C8  UNL     1      14.732   8.932   2.101  1.00  0.00     0.029 C 
ENDROOT
BRANCH   8   9
HETATM    9  C9  UNL     1      14.276   7.651   1.510  1.00  0.00     0.084 C 
HETATM   10  N1  UNL     1      14.460   7.417   0.278  1.00  0.00    -0.322 N 
ATOM     11  H1  UNL     1      14.134   6.525  -0.094  1.00  0.00     0.185 HD
BRANCH  10  12
HETATM   12  N2  UNL     1      15.081   8.309  -0.599  1.00  0.00    -0.346 N 
ATOM     13  H22 UNL     1      15.953   8.735  -0.285  1.00  0.00     0.176 HD
ATOM     14  H21 UNL     1      14.714   8.550  -1.519  1.00  0.00     0.176 HD
ENDBRANCH  10  12
ENDBRANCH   8   9
TORSDOF 2
ENDMDL
MODEL 5
REMARK VINA RESULT: -4.798986374      5.364      6.696
REMARK  2 active torsions:
REMARK  status: ('A' for Active; 'I' for Inactive)
REMARK    1  A    between atoms: C8_8  and  C9_9 
REMARK    2  A    between atoms: N1_10  and  N2_12 
ROOT
HETATM    1  C1  UNL     1      16.751  10.838  -1.168  1.00  0.00     0.010 C 
HETATM    2  C2  UNL     1      16.241  10.258   0.163  1.00  0.00    -0.010 C 
HETATM    3  C3  UNL     1      14.747  10.327   0.108  1.00  0.00     0.005 C 
HETATM    4  C4  UNL     1      14.047  10.263   1.392  1.00  0.00     0.000 C 
HETATM    5  C5  UNL     1      14.543   9.310   2.410  1.00  0.00     0.000 C 
HETATM    6  C6  UNL     1      15.979   9.303   2.709  1.00  0.00     0.001 C 
HETATM    7  C7  UNL     1      16.689  10.613   2.610  1.00  0.00     0.010 C 
HETATM    8  C8  UNL     1      16.827  11.150   1.231  1.00  0.00     0.029 C 
ENDROOT
BRANCH   8   9
HETATM    9  C9  UNL     1      18.230  11.434   0.848  1.00  0.00     0.084 C 
HETATM   10  N1  UNL     1      18.734  12.574   1.074  1.00  0.00    -0.322 N 
ATOM     11  H1  UNL     1      19.702  12.734   0.798  1.00  0.00     0.185 HD
BRANCH  10  12
HETATM   12  N2  UNL     1      18.041  13.625   1.680  1.00  0.00    -0.346 N 
ATOM     13  H22 UNL     1      17.321  13.375   2.358  1.00  0.00     0.176 HD
ATOM     14  H21 UNL     1      18.215  14.610   1.482  1.00  0.00     0.176 HD
ENDBRANCH  10  12
ENDBRANCH   8   9
TORSDOF 2
ENDMDL
