MODEL 1
REMARK VINA RESULT: -5.463758668      0.000      0.000
REMARK  1 active torsions:
REMARK  status: ('A' for Active; 'I' for Inactive)
REMARK    1  A    between atoms: C3_5  and  C4_6 
ROOT
HETATM    1  C1  UNL     1      15.193   9.320   5.361  1.00  0.00     0.039 C 
HETATM    2  C2  UNL     1      16.026   8.967   6.566  1.00  0.00     0.122 C 
HETATM    3  N1  UNL     1      15.457   9.484   7.774  1.00  0.00    -0.380 N 
ATOM      4  H1  UNL     1      16.096   9.662   8.549  1.00  0.00     0.160 HD
HETATM    5  C3  UNL     1      14.219   9.744   7.969  1.00  0.00     0.077 C 
HETATM    6  N2  UNL     1      13.310   9.511   6.921  1.00  0.00    -0.380 N 
ATOM      7  H2  UNL     1      12.322   9.724   7.058  1.00  0.00     0.160 HD
HETATM    8  C9  UNL     1      13.751   8.972   5.649  1.00  0.00     0.122 C 
ENDROOT
BRANCH   5   9
HETATM    9  C4  UNL     1      13.829  10.274   9.292  1.00  0.00     0.053 C 
HETATM   10  C5  UNL     1      12.991  11.508   9.226  1.00  0.00     0.012 C 
HETATM   11  C6  UNL     1      13.016  11.956  10.691  1.00  0.00     0.001 C 
HETATM   12  C7  UNL     1      14.350  11.481  11.224  1.00  0.00     0.001 C 
HETATM   13  C8  UNL     1      15.047  10.783  10.070  1.00  0.00     0.012 C 
ENDBRANCH   5   9
TORSDOF 1
ENDMDL
MODEL 2
REMARK VINA RESULT: -5.311091253      2.010      2.900
REMARK  1 active torsions:
REMARK  status: ('A' for Active; 'I' for Inactive)
REMARK    1  A    between atoms: C3_5  and  C4_6 
ROOT
HETATM    1  C1  UNL     1      14.167  11.080   3.304  1.00  0.00     0.039 C 
HETATM    2  C2  UNL     1      15.263  11.198   4.332  1.00  0.00     0.122 C 
HETATM    3  N1  UNL     1      14.915  10.545   5.556  1.00  0.00    -0.380 N 
ATOM      4  H1  UNL     1      15.360  10.886   6.408  1.00  0.00     0.160 HD
HETATM    5  C3  UNL     1      14.095   9.570   5.679  1.00  0.00     0.077 C 
HETATM    6  N2  UNL     1      13.462   9.073   4.525  1.00  0.00    -0.380 N 
ATOM      7  H2  UNL     1      12.796   8.304   4.610  1.00  0.00     0.160 HD
HETATM    8  C9  UNL     1      13.737   9.634   3.217  1.00  0.00     0.122 C 
ENDROOT
BRANCH   5   9
HETATM    9  C4  UNL     1      13.868   9.030   7.037  1.00  0.00     0.053 C 
HETATM   10  C5  UNL     1      13.715  10.079   8.087  1.00  0.00     0.012 C 
HETATM   11  C6  UNL     1      13.801   9.232   9.360  1.00  0.00     0.001 C 
HETATM   12  C7  UNL     1      14.697   8.068   8.999  1.00  0.00     0.001 C 
HETATM   13  C8  UNL     1      15.098   8.273   7.549  1.00  0.00     0.012 C 
ENDBRANCH   5   9
TORSDOF 1
ENDMDL
MODEL 3
REMARK VINA RESULT: -5.188814665      6.465      9.632
REMARK  1 active torsions:
REMARK  status: ('A' for Active; 'I' for Inactive)
REMARK    1  A    between atoms: C3_5  and  C4_6 
ROOT
HETATM    1  C1  UNL     1      13.795   9.219   2.845  1.00  0.00     0.039 C 
HETATM    2  C2  UNL     1      15.164   8.942   2.277  1.00  0.00     0.122 C 
HETATM    3  N1  UNL     1      15.151   8.927   0.846  1.00  0.00    -0.380 N 
ATOM      4  H1  UNL     1      15.872   8.377   0.381  1.00  0.00     0.160 HD
HETATM    5  C3  UNL     1      14.316   9.544   0.097  1.00  0.00     0.077 C 
HETATM    6  N2  UNL     1      13.307  10.314   0.705  1.00  0.00    -0.380 N 
ATOM      7  H2  UNL     1      12.627  10.800   0.120  1.00  0.00     0.160 HD
HETATM    8  C9  UNL     1      13.215  10.428   2.147  1.00  0.00     0.122 C 
ENDROOT
BRANCH   5   9
HETATM    9  C4  UNL     1      14.472   9.401  -1.366  1.00  0.00     0.053 C 
HETATM   10  C5  UNL     1      15.634  10.152  -1.926  1.00  0.00     0.012 C 
HETATM   11  C6  UNL     1      15.348  10.054  -3.428  1.00  0.00     0.001 C 
HETATM   12  C7  UNL     1      13.840   9.992  -3.537  1.00  0.00     0.001 C 
HETATM   13  C8  UNL     1      13.306  10.054  -2.117  1.00  0.00     0.012 C 
ENDBRANCH   5   9
TORSDOF 1
ENDMDL
MODEL 4
REMARK VINA RESULT: -5.172820052      7.797     10.217
REMARK  1 active torsions:
REMARK  status: ('A' for Active; 'I' for Inactive)
REMARK    1  A    between atoms: C3_5  and  C4_6 
ROOT
HETATM    1  C1  UNL     1      18.187  12.416   1.046  1.00  0.00     0.039 C 
HETATM    2  C2  UNL     1      17.352  11.319   1.657  1.00  0.00     0.122 C 
HETATM    3  N1  UNL     1      16.449  10.747   0.706  1.00  0.00    -0.380 N 
ATOM      4  H1  UNL     1      15.600  10.317   1.072  1.00  0.00     0.160 HD
HETATM    5  C3  UNL     1      16.611  10.726  -0.564  1.00  0.00     0.077 C 
HETATM    6  N2  UNL     1      17.772  11.311  -1.104  1.00  0.00    -0.380 N 
ATOM      7  H2  UNL     1      17.907  11.313  -2.115  1.00  0.00     0.160 HD
HETATM    8  C9  UNL     1      18.778  11.911  -0.250  1.00  0.00     0.122 C 
ENDROOT
BRANCH   5   9
HETATM    9  C4  UNL     1      15.558  10.085  -1.379  1.00  0.00     0.053 C 
HETATM   10  C5  UNL     1      15.776  10.206  -2.851  1.00  0.00     0.012 C 
HETATM   11  C6  UNL     1      14.420   9.733  -3.386  1.00  0.00     0.001 C 
HETATM   12  C7  UNL     1      13.420  10.123  -2.320  1.00  0.00     0.001 C 
HETATM   13  C8  UNL     1      14.213  10.800  -1.216  1.00  0.00     0.012 C 
ENDBRANCH   5   9
TORSDOF 1
ENDMDL
MODEL 5
REMARK VINA RESULT: -5.163674765      1.963      3.022
REMARK  1 active torsions:
REMARK  status: ('A' for Active; 'I' for Inactive)
REMARK    1  A    between atoms: C3_5  and  C4_6 
ROOT
HETATM    1  C1  UNL     1      13.926  10.862   3.107  1.00  0.00     0.039 C 
HETATM    2  C2  UNL     1      15.214  11.268   3.777  1.00  0.00     0.122 C 
HETATM    3  N1  UNL     1      15.238  10.886   5.156  1.00  0.00    -0.380 N 
ATOM      4  H1  UNL     1      15.831  11.433   5.780  1.00  0.00     0.160 HD
HETATM    5  C3  UNL     1      14.581   9.918   5.677  1.00  0.00     0.077 C 
HETATM    6  N2  UNL     1      13.753   9.142   4.846  1.00  0.00    -0.380 N 
ATOM      7  H2  UNL     1      13.215   8.375   5.251  1.00  0.00     0.160 HD
HETATM    8  C9  UNL     1      13.650   9.411   3.426  1.00  0.00     0.122 C 
ENDROOT
BRANCH   5   9
HETATM    9  C4  UNL     1      14.742   9.683   7.128  1.00  0.00     0.053 C 
HETATM   10  C5  UNL     1      14.605   8.251   7.527  1.00  0.00     0.012 C 
HETATM   11  C6  UNL     1      14.519   8.381   9.051  1.00  0.00     0.001 C 
HETATM   12  C7  UNL     1      13.870   9.725   9.296  1.00  0.00     0.001 C 
HETATM   13  C8  UNL     1      13.603  10.325   7.927  1.00  0.00     0.012 C 
ENDBRANCH   5   9
TORSDOF 1
ENDMDL
