MODEL 1
REMARK VINA RESULT: -4.600873844      0.000      0.000
REMARK  1 active torsions:
REMARK  status: ('A' for Active; 'I' for Inactive)
REMARK    1  A    between atoms: C2_2  and  C3_3 
ROOT
HETATM    1  C3  UNL     1      14.545  11.060   9.388  1.00  0.00     0.247 C 
HETATM    2  N1  UNL     1      15.579  10.092   9.371  1.00  0.00    -0.057 N 
ATOM      3  H11 UNL     1      15.845   9.830  10.320  1.00  0.00     0.279 HD
ATOM      4  H12 UNL     1      16.457  10.507   9.058  1.00  0.00     0.279 HD
HETATM    5  C4  UNL     1      15.266   8.962   8.614  1.00  0.00     0.201 C 
HETATM    6  C5  UNL     1      14.506   7.903   9.400  1.00  0.00     0.041 C 
HETATM    7  C6  UNL     1      14.522   9.331   7.383  1.00  0.00     0.031 C 
HETATM    8  C7  UNL     1      13.836   8.223   6.695  1.00  0.00     0.029 C 
HETATM    9  C8  UNL     1      15.374  10.154   6.455  1.00  0.00     0.029 C 
HETATM   10  S1  UNL     1      13.333  10.514   8.144  1.00  0.00    -0.125 SA
ENDROOT
BRANCH   1  11
HETATM   11  C2  UNL     1      13.904  11.269  10.733  1.00  0.00     0.039 C 
HETATM   12  C1  UNL     1      12.825  12.339  10.525  1.00  0.00     0.008 C 
ENDBRANCH   1  11
TORSDOF 1
ENDMDL
MODEL 2
REMARK VINA RESULT: -4.452311294      5.824      7.933
REMARK  1 active torsions:
REMARK  status: ('A' for Active; 'I' for Inactive)
REMARK    1  A    between atoms: C2_2  and  C3_3 
ROOT
HETATM    1  C3  UNL     1      13.842   8.999   0.614  1.00  0.00     0.247 C 
HETATM    2  N1  UNL     1      15.051   8.617   1.244  1.00  0.00    -0.057 N 
ATOM      3  H11 UNL     1      15.784   8.454   0.553  1.00  0.00     0.279 HD
ATOM      4  H12 UNL     1      14.974   7.678   1.634  1.00  0.00     0.279 HD
HETATM    5  C4  UNL     1      15.479   9.524   2.215  1.00  0.00     0.201 C 
HETATM    6  C5  UNL     1      16.320  10.660   1.648  1.00  0.00     0.041 C 
HETATM    7  C6  UNL     1      14.331  10.062   2.989  1.00  0.00     0.031 C 
HETATM    8  C7  UNL     1      14.607  11.271   3.784  1.00  0.00     0.029 C 
HETATM    9  C8  UNL     1      13.655   8.980   3.788  1.00  0.00     0.029 C 
HETATM   10  S1  UNL     1      13.205  10.409   1.573  1.00  0.00    -0.125 SA
ENDROOT
BRANCH   1  11
HETATM   11  C2  UNL     1      13.976   9.337  -0.847  1.00  0.00     0.039 C 
HETATM   12  C1  UNL     1      13.360  10.732  -1.016  1.00  0.00     0.008 C 
ENDBRANCH   1  11
TORSDOF 1
ENDMDL
MODEL 3
REMARK VINA RESULT: -4.451805263      6.680      8.556
REMARK  1 active torsions:
REMARK  status: ('A' for Active; 'I' for Inactive)
REMARK    1  A    between atoms: C2_2  and  C3_3 
ROOT
HETATM    1  C3  UNL     1      14.307   8.807  -0.324  1.00  0.00     0.247 C 
HETATM    2  N1  UNL     1      14.856   8.150   0.804  1.00  0.00    -0.057 N 
ATOM      3  H11 UNL     1      15.787   7.790   0.595  1.00  0.00     0.279 HD
ATOM      4  H12 UNL     1      14.371   7.270   0.982  1.00  0.00     0.279 HD
HETATM    5  C4  UNL     1      14.878   8.945   1.951  1.00  0.00     0.201 C 
HETATM    6  C5  UNL     1      16.121   9.818   2.055  1.00  0.00     0.041 C 
HETATM    7  C6  UNL     1      13.649   9.774   2.052  1.00  0.00     0.031 C 
HETATM    8  C7  UNL     1      13.711  10.895   3.006  1.00  0.00     0.029 C 
HETATM    9  C8  UNL     1      12.425   8.918   2.237  1.00  0.00     0.029 C 
HETATM   10  S1  UNL     1      13.587  10.357   0.305  1.00  0.00    -0.125 SA
ENDROOT
BRANCH   1  11
HETATM   11  C2  UNL     1      15.286   9.063  -1.438  1.00  0.00     0.039 C 
HETATM   12  C1  UNL     1      15.407  10.588  -1.553  1.00  0.00     0.008 C 
ENDBRANCH   1  11
TORSDOF 1
ENDMDL
MODEL 4
REMARK VINA RESULT: -4.450399639      7.712      9.400
REMARK  1 active torsions:
REMARK  status: ('A' for Active; 'I' for Inactive)
REMARK    1  A    between atoms: C2_2  and  C3_3 
ROOT
HETATM    1  C3  UNL     1      13.811   9.058   0.476  1.00  0.00     0.247 C 
HETATM    2  N1  UNL     1      13.863  10.463   0.309  1.00  0.00    -0.057 N 
ATOM      3  H11 UNL     1      14.107  10.923   1.186  1.00  0.00     0.279 HD
ATOM      4  H12 UNL     1      12.928  10.846   0.172  1.00  0.00     0.279 HD
HETATM    5  C4  UNL     1      14.720  10.867  -0.717  1.00  0.00     0.201 C 
HETATM    6  C5  UNL     1      16.165  11.027  -0.266  1.00  0.00     0.041 C 
HETATM    7  C6  UNL     1      14.635   9.945  -1.879  1.00  0.00     0.031 C 
HETATM    8  C7  UNL     1      15.728  10.053  -2.861  1.00  0.00     0.029 C 
HETATM    9  C8  UNL     1      13.272   9.991  -2.516  1.00  0.00     0.029 C 
HETATM   10  S1  UNL     1      14.695   8.354  -0.951  1.00  0.00    -0.125 SA
ENDROOT
BRANCH   1  11
HETATM   11  C2  UNL     1      14.375   8.560   1.779  1.00  0.00     0.039 C 
HETATM   12  C1  UNL     1      13.320   8.879   2.846  1.00  0.00     0.008 C 
ENDBRANCH   1  11
TORSDOF 1
ENDMDL
MODEL 5
REMARK VINA RESULT: -4.399244456      6.846      8.308
REMARK  1 active torsions:
REMARK  status: ('A' for Active; 'I' for Inactive)
REMARK    1  A    between atoms: C2_2  and  C3_3 
ROOT
HETATM    1  C3  UNL     1      15.492   9.782  -0.157  1.00  0.00     0.247 C 
HETATM    2  N1  UNL     1      15.938   9.506   1.158  1.00  0.00    -0.057 N 
ATOM      3  H11 UNL     1      16.628  10.194   1.459  1.00  0.00     0.279 HD
ATOM      4  H12 UNL     1      16.518   8.667   1.175  1.00  0.00     0.279 HD
HETATM    5  C4  UNL     1      14.899   9.408   2.086  1.00  0.00     0.201 C 
HETATM    6  C5  UNL     1      14.492  10.750   2.677  1.00  0.00     0.041 C 
HETATM    7  C6  UNL     1      13.721   8.719   1.499  1.00  0.00     0.031 C 
HETATM    8  C7  UNL     1      12.458   8.869   2.243  1.00  0.00     0.029 C 
HETATM    9  C8  UNL     1      14.035   7.285   1.167  1.00  0.00     0.029 C 
HETATM   10  S1  UNL     1      13.680   9.604  -0.115  1.00  0.00    -0.125 SA
ENDROOT
BRANCH   1  11
HETATM   11  C2  UNL     1      15.905  11.128  -0.689  1.00  0.00     0.039 C 
HETATM   12  C1  UNL     1      17.280  11.421  -0.074  1.00  0.00     0.008 C 
ENDBRANCH   1  11
TORSDOF 1
ENDMDL
