MODEL 1
REMARK VINA RESULT: -7.917489070      0.000      0.000
REMARK  4 active torsions:
REMARK  status: ('A' for Active; 'I' for Inactive)
REMARK    1  A    between atoms: N1_1  and  C1_4 
REMARK    2  A    between atoms: C2_7  and  C3_8 
REMARK    3  A    between atoms: C4_9  and  N3_10 
REMARK    4  A    between atoms: C6_19  and  N6_20 
ROOT
HETATM    1  C1  UNL     1      13.515  10.160  -1.522  1.00  0.00     0.145 A 
HETATM    2  N2  UNL     1      13.411  10.121  -0.202  1.00  0.00    -0.332 N 
ATOM      3  H2  UNL     1      12.509   9.949   0.242  1.00  0.00     0.168 HD
HETATM    4  C2  UNL     1      14.503  10.308   0.537  1.00  0.00     0.113 A 
HETATM    5  C6  UNL     1      15.671  10.532  -0.133  1.00  0.00     0.176 A 
HETATM    6  S1  UNL     1      15.157  10.463  -1.786  1.00  0.00    -0.028 SA
ENDROOT
BRANCH   4   7
HETATM    7  C3  UNL     1      14.510  10.313   2.034  1.00  0.00     0.164 C 
HETATM    8  C4  UNL     1      14.108   9.285   2.723  1.00  0.00     0.209 C 
HETATM    9  C5  UNL     1      14.174   9.440   4.195  1.00  0.00     0.294 C 
HETATM   10  O3  UNL     1      13.789   8.456   4.879  1.00  0.00    -0.264 OA
HETATM   11  N4  UNL     1      14.640  10.619   4.818  1.00  0.00    -0.242 N 
HETATM   12  N5  UNL     1      15.170  11.618   4.002  1.00  0.00     0.030 NA
ATOM     13  H4  UNL     1      14.590  10.736   5.830  1.00  0.00     0.188 HD
HETATM   14  O4  UNL     1      14.959  11.434   2.682  1.00  0.00    -0.219 OA
BRANCH   8  15
HETATM   15  N3  UNL     1      13.645   8.118   2.116  1.00  0.00    -0.107 N 
HETATM   16  O1  UNL     1      12.393   8.018   1.920  1.00  0.00    -0.531 OA
HETATM   17  O2  UNL     1      14.438   7.069   1.726  1.00  0.00    -0.531 OA
ENDBRANCH   8  15
ENDBRANCH   4   7
BRANCH   5  18
HETATM   18  N6  UNL     1      17.008  10.803   0.298  1.00  0.00    -0.106 N 
HETATM   19  O5  UNL     1      17.721  10.035   0.945  1.00  0.00    -0.531 OA
HETATM   20  O6  UNL     1      17.562  12.046  -0.020  1.00  0.00    -0.531 OA
ENDBRANCH   5  18
BRANCH   1  21
HETATM   21  N1  UNL     1      12.556   9.999  -2.414  1.00  0.00    -0.380 N 
ATOM     22  H12 UNL     1      11.633   9.586  -2.286  1.00  0.00     0.158 HD
ATOM     23  H11 UNL     1      12.569  10.261  -3.400  1.00  0.00     0.158 HD
ENDBRANCH   1  21
TORSDOF 4
ENDMDL
MODEL 2
REMARK VINA RESULT: -7.766005755      3.204      5.523
REMARK  4 active torsions:
REMARK  status: ('A' for Active; 'I' for Inactive)
REMARK    1  A    between atoms: N1_1  and  C1_4 
REMARK    2  A    between atoms: C2_7  and  C3_8 
REMARK    3  A    between atoms: C4_9  and  N3_10 
REMARK    4  A    between atoms: C6_19  and  N6_20 
ROOT
HETATM    1  C1  UNL     1      15.200   9.482   0.985  1.00  0.00     0.145 A 
HETATM    2  N2  UNL     1      16.522   9.525   0.904  1.00  0.00    -0.332 N 
ATOM      3  H2  UNL     1      17.018   8.950   0.222  1.00  0.00     0.168 HD
HETATM    4  C2  UNL     1      17.193  10.329   1.725  1.00  0.00     0.113 A 
HETATM    5  C6  UNL     1      16.456  11.065   2.608  1.00  0.00     0.176 A 
HETATM    6  S1  UNL     1      14.840  10.575   2.224  1.00  0.00    -0.028 SA
ENDROOT
BRANCH   4   7
HETATM    7  C3  UNL     1      18.685  10.446   1.748  1.00  0.00     0.164 C 
HETATM    8  C4  UNL     1      19.322  11.233   0.930  1.00  0.00     0.209 C 
HETATM    9  C5  UNL     1      20.797  11.240   1.073  1.00  0.00     0.294 C 
HETATM   10  O3  UNL     1      21.431  11.995   0.290  1.00  0.00    -0.264 OA
HETATM   11  N4  UNL     1      21.474  10.453   2.031  1.00  0.00    -0.242 N 
HETATM   12  N5  UNL     1      20.703   9.741   2.949  1.00  0.00     0.030 NA
ATOM     13  H4  UNL     1      22.493  10.406   2.049  1.00  0.00     0.188 HD
HETATM   14  O4  UNL     1      19.385   9.705   2.664  1.00  0.00    -0.219 OA
BRANCH   8  15
HETATM   15  N3  UNL     1      18.660  12.012  -0.019  1.00  0.00    -0.107 N 
HETATM   16  O1  UNL     1      18.556  13.257   0.217  1.00  0.00    -0.531 OA
HETATM   17  O2  UNL     1      18.106  11.532  -1.178  1.00  0.00    -0.531 OA
ENDBRANCH   8  15
ENDBRANCH   4   7
BRANCH   5  18
HETATM   18  N6  UNL     1      16.806  11.990   3.642  1.00  0.00    -0.106 N 
HETATM   19  O5  UNL     1      17.631  11.788   4.534  1.00  0.00    -0.531 OA
HETATM   20  O6  UNL     1      16.154  13.226   3.666  1.00  0.00    -0.531 OA
ENDBRANCH   5  18
BRANCH   1  21
HETATM   21  N1  UNL     1      14.368   8.755   0.264  1.00  0.00    -0.380 N 
ATOM     22  H12 UNL     1      14.196   7.751   0.313  1.00  0.00     0.158 HD
ATOM     23  H11 UNL     1      13.742   9.071  -0.477  1.00  0.00     0.158 HD
ENDBRANCH   1  21
TORSDOF 4
ENDMDL
MODEL 3
REMARK VINA RESULT: -7.699485756      2.785      4.663
REMARK  4 active torsions:
REMARK  status: ('A' for Active; 'I' for Inactive)
REMARK    1  A    between atoms: N1_1  and  C1_4 
REMARK    2  A    between atoms: C2_7  and  C3_8 
REMARK    3  A    between atoms: C4_9  and  N3_10 
REMARK    4  A    between atoms: C6_19  and  N6_20 
ROOT
HETATM    1  C1  UNL     1      17.705   8.477   3.985  1.00  0.00     0.145 A 
HETATM    2  N2  UNL     1      17.062   8.600   2.834  1.00  0.00    -0.332 N 
ATOM      3  H2  UNL     1      16.924   7.791   2.228  1.00  0.00     0.168 HD
HETATM    4  C2  UNL     1      16.598   9.797   2.479  1.00  0.00     0.113 A 
HETATM    5  C6  UNL     1      16.824  10.828   3.345  1.00  0.00     0.176 A 
HETATM    6  S1  UNL     1      17.687  10.042   4.624  1.00  0.00    -0.028 SA
ENDROOT
BRANCH   4   7
HETATM    7  C3  UNL     1      15.880  10.069   1.194  1.00  0.00     0.164 C 
HETATM    8  C4  UNL     1      14.715   9.550   0.939  1.00  0.00     0.209 C 
HETATM    9  C5  UNL     1      14.131   9.911  -0.374  1.00  0.00     0.294 C 
HETATM   10  O3  UNL     1      13.003   9.418  -0.639  1.00  0.00    -0.264 OA
HETATM   11  N4  UNL     1      14.785  10.761  -1.292  1.00  0.00    -0.242 N 
HETATM   12  N5  UNL     1      15.969  11.374  -0.880  1.00  0.00     0.030 NA
ATOM     13  H4  UNL     1      14.406  10.922  -2.225  1.00  0.00     0.188 HD
HETATM   14  O4  UNL     1      16.475  10.893   0.275  1.00  0.00    -0.219 OA
BRANCH   8  15
HETATM   15  N3  UNL     1      14.062   8.708   1.840  1.00  0.00    -0.107 N 
HETATM   16  O1  UNL     1      14.300   7.462   1.752  1.00  0.00    -0.531 OA
HETATM   17  O2  UNL     1      13.178   9.124   2.802  1.00  0.00    -0.531 OA
ENDBRANCH   8  15
ENDBRANCH   4   7
BRANCH   5  18
HETATM   18  N6  UNL     1      16.519  12.225   3.301  1.00  0.00    -0.106 N 
HETATM   19  O5  UNL     1      15.494  12.748   3.740  1.00  0.00    -0.531 OA
HETATM   20  O6  UNL     1      17.444  13.081   2.697  1.00  0.00    -0.531 OA
ENDBRANCH   5  18
BRANCH   1  21
HETATM   21  N1  UNL     1      18.232   7.384   4.505  1.00  0.00    -0.380 N 
ATOM     22  H12 UNL     1      18.375   6.476   4.063  1.00  0.00     0.158 HD
ATOM     23  H11 UNL     1      18.595   7.252   5.449  1.00  0.00     0.158 HD
ENDBRANCH   1  21
TORSDOF 4
ENDMDL
MODEL 4
REMARK VINA RESULT: -7.501862486      3.208      5.739
REMARK  4 active torsions:
REMARK  status: ('A' for Active; 'I' for Inactive)
REMARK    1  A    between atoms: N1_1  and  C1_4 
REMARK    2  A    between atoms: C2_7  and  C3_8 
REMARK    3  A    between atoms: C4_9  and  N3_10 
REMARK    4  A    between atoms: C6_19  and  N6_20 
ROOT
HETATM    1  C1  UNL     1      15.086   9.991   0.947  1.00  0.00     0.145 A 
HETATM    2  N2  UNL     1      16.384   9.967   0.681  1.00  0.00    -0.332 N 
ATOM      3  H2  UNL     1      16.716   9.767  -0.262  1.00  0.00     0.168 HD
HETATM    4  C2  UNL     1      17.248  10.210   1.665  1.00  0.00     0.113 A 
HETATM    5  C6  UNL     1      16.723  10.469   2.898  1.00  0.00     0.176 A 
HETATM    6  S1  UNL     1      15.021  10.356   2.596  1.00  0.00    -0.028 SA
ENDROOT
BRANCH   4   7
HETATM    7  C3  UNL     1      18.735  10.186   1.497  1.00  0.00     0.164 C 
HETATM    8  C4  UNL     1      19.389  11.217   1.044  1.00  0.00     0.209 C 
HETATM    9  C5  UNL     1      20.856  11.041   0.934  1.00  0.00     0.294 C 
HETATM   10  O3  UNL     1      21.506  12.028   0.497  1.00  0.00    -0.264 OA
HETATM   11  N4  UNL     1      21.510   9.843   1.294  1.00  0.00    -0.242 N 
HETATM   12  N5  UNL     1      20.746   8.840   1.890  1.00  0.00     0.030 NA
ATOM     13  H4  UNL     1      22.508   9.715   1.123  1.00  0.00     0.188 HD
HETATM   14  O4  UNL     1      19.414   9.046   1.838  1.00  0.00    -0.219 OA
BRANCH   8  15
HETATM   15  N3  UNL     1      18.749  12.403   0.685  1.00  0.00    -0.107 N 
HETATM   16  O1  UNL     1      18.356  12.514  -0.519  1.00  0.00    -0.531 OA
HETATM   17  O2  UNL     1      18.526  13.460   1.530  1.00  0.00    -0.531 OA
ENDBRANCH   8  15
ENDBRANCH   4   7
BRANCH   5  18
HETATM   18  N6  UNL     1      17.312  10.736   4.174  1.00  0.00    -0.106 N 
HETATM   19  O5  UNL     1      17.905  11.769   4.488  1.00  0.00    -0.531 OA
HETATM   20  O6  UNL     1      17.232   9.743   5.155  1.00  0.00    -0.531 OA
ENDBRANCH   5  18
BRANCH   1  21
HETATM   21  N1  UNL     1      14.085   9.778   0.113  1.00  0.00    -0.380 N 
ATOM     22  H12 UNL     1      13.977   9.030  -0.571  1.00  0.00     0.158 HD
ATOM     23  H11 UNL     1      13.234  10.330   0.004  1.00  0.00     0.158 HD
ENDBRANCH   1  21
TORSDOF 4
ENDMDL
MODEL 5
REMARK VINA RESULT: -7.416416726      2.949      4.584
REMARK  4 active torsions:
REMARK  status: ('A' for Active; 'I' for Inactive)
REMARK    1  A    between atoms: N1_1  and  C1_4 
REMARK    2  A    between atoms: C2_7  and  C3_8 
REMARK    3  A    between atoms: C4_9  and  N3_10 
REMARK    4  A    between atoms: C6_19  and  N6_20 
ROOT
HETATM    1  C1  UNL     1      19.672   9.010   2.530  1.00  0.00     0.145 A 
HETATM    2  N2  UNL     1      18.393   9.001   2.186  1.00  0.00    -0.332 N 
ATOM      3  H2  UNL     1      17.839   8.149   2.273  1.00  0.00     0.168 HD
HETATM    4  C2  UNL     1      17.841  10.122   1.726  1.00  0.00     0.113 A 
HETATM    5  C6  UNL     1      18.649  11.218   1.640  1.00  0.00     0.176 A 
HETATM    6  S1  UNL     1      20.159  10.599   2.222  1.00  0.00    -0.028 SA
ENDROOT
BRANCH   4   7
HETATM    7  C3  UNL     1      16.416  10.232   1.281  1.00  0.00     0.164 C 
HETATM    8  C4  UNL     1      15.428  10.144   2.124  1.00  0.00     0.209 C 
HETATM    9  C5  UNL     1      14.075  10.272   1.533  1.00  0.00     0.294 C 
HETATM   10  O3  UNL     1      13.106  10.189   2.332  1.00  0.00    -0.264 OA
HETATM   11  N4  UNL     1      13.861  10.477   0.152  1.00  0.00    -0.242 N 
HETATM   12  N5  UNL     1      14.980  10.688  -0.653  1.00  0.00     0.030 NA
ATOM     13  H4  UNL     1      12.921  10.471  -0.243  1.00  0.00     0.188 HD
HETATM   14  O4  UNL     1      16.160  10.436  -0.050  1.00  0.00    -0.219 OA
BRANCH   8  15
HETATM   15  N3  UNL     1      15.630   9.940   3.488  1.00  0.00    -0.107 N 
HETATM   16  O1  UNL     1      15.710   8.737   3.894  1.00  0.00    -0.531 OA
HETATM   17  O2  UNL     1      15.738  10.938   4.423  1.00  0.00    -0.531 OA
ENDBRANCH   8  15
ENDBRANCH   4   7
BRANCH   5  18
HETATM   18  N6  UNL     1      18.437  12.555   1.177  1.00  0.00    -0.106 N 
HETATM   19  O5  UNL     1      18.652  12.960   0.034  1.00  0.00    -0.531 OA
HETATM   20  O6  UNL     1      17.964  13.500   2.092  1.00  0.00    -0.531 OA
ENDBRANCH   5  18
BRANCH   1  21
HETATM   21  N1  UNL     1      20.390   8.008   3.003  1.00  0.00    -0.380 N 
ATOM     22  H12 UNL     1      21.396   7.859   2.930  1.00  0.00     0.158 HD
ATOM     23  H11 UNL     1      20.063   7.199   3.531  1.00  0.00     0.158 HD
ENDBRANCH   1  21
TORSDOF 4
ENDMDL
