MODEL 1
REMARK VINA RESULT: -8.146194107      0.000      0.000
REMARK  2 active torsions:
REMARK  status: ('A' for Active; 'I' for Inactive)
REMARK    1  A    between atoms: C6_13  and  N5_14 
REMARK    2  A    between atoms: C8_19  and  N7_20 
ROOT
HETATM    1  N1  UNL     1      13.436   7.352   1.454  1.00  0.00    -0.190 NA
HETATM    2  C1  UNL     1      14.018   8.181   2.007  1.00  0.00     0.120 C 
HETATM    3  C2  UNL     1      14.712   9.138   2.782  1.00  0.00     0.143 C 
HETATM    4  N2  UNL     1      14.415   9.184   4.049  1.00  0.00    -0.289 N 
ATOM      5  H2  UNL     1      13.701   8.499   4.293  1.00  0.00     0.188 HD
HETATM    6  N3  UNL     1      14.810   9.913   5.141  1.00  0.00    -0.295 N 
ATOM      7  H3  UNL     1      14.164   9.899   5.931  1.00  0.00     0.187 HD
HETATM    8  C3  UNL     1      16.007  10.696   5.336  1.00  0.00     0.197 C 
HETATM    9  N4  UNL     1      16.982  10.575   4.294  1.00  0.00    -0.350 N 
ATOM     10  H4  UNL     1      17.946  10.498   4.618  1.00  0.00     0.166 HD
HETATM   11  C4  UNL     1      16.824  10.545   2.879  1.00  0.00     0.051 A 
HETATM   12  C5  UNL     1      17.783  11.243   2.231  1.00  0.00     0.068 A 
HETATM   13  C6  UNL     1      17.690  11.389   0.871  1.00  0.00     0.131 A 
HETATM   14  C7  UNL     1      16.646  10.834   0.203  1.00  0.00     0.113 A 
HETATM   15  N6  UNL     1      16.499  10.957  -1.214  1.00  0.00    -0.097 NA
HETATM   16  C8  UNL     1      15.614  10.088   0.844  1.00  0.00     0.145 A 
HETATM   17  C9  UNL     1      15.735   9.959   2.176  1.00  0.00     0.065 A 
ENDROOT
BRANCH  16  18
HETATM   18  N7  UNL     1      14.657   9.619  -0.031  1.00  0.00    -0.113 N 
HETATM   19  O3  UNL     1      13.581  10.185  -0.176  1.00  0.00    -0.532 OA
HETATM   20  O4  UNL     1      14.911   8.553  -0.831  1.00  0.00    -0.532 OA
ENDBRANCH  16  18
BRANCH  13  21
HETATM   21  N5  UNL     1      18.689  12.105   0.148  1.00  0.00    -0.114 N 
HETATM   22  O1  UNL     1      18.624  13.324  -0.076  1.00  0.00    -0.532 OA
HETATM   23  O2  UNL     1      19.773  11.408  -0.325  1.00  0.00    -0.532 OA
ENDBRANCH  13  21
TORSDOF 2
ENDMDL
MODEL 2
REMARK VINA RESULT: -8.105157989      2.525      3.964
REMARK  2 active torsions:
REMARK  status: ('A' for Active; 'I' for Inactive)
REMARK    1  A    between atoms: C6_13  and  N5_14 
REMARK    2  A    between atoms: C8_19  and  N7_20 
ROOT
HETATM    1  N1  UNL     1      15.914  11.274  -0.777  1.00  0.00    -0.190 NA
HETATM    2  C1  UNL     1      16.367  10.929   0.227  1.00  0.00     0.120 C 
HETATM    3  C2  UNL     1      16.825  10.446   1.474  1.00  0.00     0.143 C 
HETATM    4  N2  UNL     1      15.911  10.056   2.316  1.00  0.00    -0.289 N 
ATOM      5  H2  UNL     1      14.974  10.165   1.931  1.00  0.00     0.188 HD
HETATM    6  N3  UNL     1      15.879   9.537   3.584  1.00  0.00    -0.295 N 
ATOM      7  H3  UNL     1      14.984   9.619   4.066  1.00  0.00     0.187 HD
HETATM    8  C3  UNL     1      16.928   8.891   4.337  1.00  0.00     0.197 C 
HETATM    9  N4  UNL     1      18.127   8.631   3.598  1.00  0.00    -0.350 N 
ATOM     10  H4  UNL     1      18.544   7.715   3.770  1.00  0.00     0.166 HD
HETATM   11  C4  UNL     1      18.832   9.442   2.663  1.00  0.00     0.051 A 
HETATM   12  C5  UNL     1      20.173   9.357   2.805  1.00  0.00     0.068 A 
HETATM   13  C6  UNL     1      20.971  10.169   2.041  1.00  0.00     0.131 A 
HETATM   14  C7  UNL     1      20.406  11.037   1.163  1.00  0.00     0.113 A 
HETATM   15  N6  UNL     1      21.190  11.908   0.344  1.00  0.00    -0.097 NA
HETATM   16  C8  UNL     1      18.997  11.159   0.979  1.00  0.00     0.145 A 
HETATM   17  C9  UNL     1      18.242  10.346   1.738  1.00  0.00     0.065 A 
ENDROOT
BRANCH  16  18
HETATM   18  N7  UNL     1      18.650  12.103   0.036  1.00  0.00    -0.113 N 
HETATM   19  O3  UNL     1      18.387  13.259   0.344  1.00  0.00    -0.532 OA
HETATM   20  O4  UNL     1      18.672  11.803  -1.288  1.00  0.00    -0.532 OA
ENDBRANCH  16  18
BRANCH  13  21
HETATM   21  N5  UNL     1      22.391  10.100   2.149  1.00  0.00    -0.114 N 
HETATM   22  O1  UNL     1      23.040  10.733   2.995  1.00  0.00    -0.532 OA
HETATM   23  O2  UNL     1      23.070   9.295   1.269  1.00  0.00    -0.532 OA
ENDBRANCH  13  21
TORSDOF 2
ENDMDL
MODEL 3
REMARK VINA RESULT: -7.700364960      2.401      5.434
REMARK  2 active torsions:
REMARK  status: ('A' for Active; 'I' for Inactive)
REMARK    1  A    between atoms: C6_13  and  N5_14 
REMARK    2  A    between atoms: C8_19  and  N7_20 
ROOT
HETATM    1  N1  UNL     1      19.021  11.801  -0.734  1.00  0.00    -0.190 NA
HETATM    2  C1  UNL     1      17.960  11.458  -0.434  1.00  0.00     0.120 C 
HETATM    3  C2  UNL     1      16.647  11.004  -0.175  1.00  0.00     0.143 C 
HETATM    4  N2  UNL     1      15.851  10.913  -1.203  1.00  0.00    -0.289 N 
ATOM      5  H2  UNL     1      16.316  11.196  -2.064  1.00  0.00     0.188 HD
HETATM    6  N3  UNL     1      14.552  10.538  -1.429  1.00  0.00    -0.295 N 
ATOM      7  H3  UNL     1      14.150  10.867  -2.307  1.00  0.00     0.187 HD
HETATM    8  C3  UNL     1      13.671   9.745  -0.605  1.00  0.00     0.197 C 
HETATM    9  N4  UNL     1      14.290   9.150   0.541  1.00  0.00    -0.350 N 
ATOM     10  H4  UNL     1      14.015   8.185   0.722  1.00  0.00     0.166 HD
HETATM   11  C4  UNL     1      15.227   9.688   1.469  1.00  0.00     0.051 A 
HETATM   12  C5  UNL     1      14.974   9.314   2.743  1.00  0.00     0.068 A 
HETATM   13  C6  UNL     1      15.734   9.848   3.751  1.00  0.00     0.131 A 
HETATM   14  C7  UNL     1      16.720  10.734   3.457  1.00  0.00     0.113 A 
HETATM   15  N6  UNL     1      17.540  11.322   4.469  1.00  0.00    -0.097 NA
HETATM   16  C8  UNL     1      17.023  11.154   2.128  1.00  0.00     0.145 A 
HETATM   17  C9  UNL     1      16.264  10.611   1.162  1.00  0.00     0.065 A 
ENDROOT
BRANCH  16  18
HETATM   18  N7  UNL     1      18.062  12.059   2.068  1.00  0.00    -0.113 N 
HETATM   19  O3  UNL     1      17.865  13.266   1.999  1.00  0.00    -0.532 OA
HETATM   20  O4  UNL     1      19.351  11.644   2.168  1.00  0.00    -0.532 OA
ENDBRANCH  16  18
BRANCH  13  21
HETATM   21  N5  UNL     1      15.510   9.468   5.108  1.00  0.00    -0.114 N 
HETATM   22  O1  UNL     1      16.015   8.459   5.623  1.00  0.00    -0.532 OA
HETATM   23  O2  UNL     1      14.691  10.257   5.876  1.00  0.00    -0.532 OA
ENDBRANCH  13  21
TORSDOF 2
ENDMDL
MODEL 4
REMARK VINA RESULT: -7.695877944      1.029      1.283
REMARK  2 active torsions:
REMARK  status: ('A' for Active; 'I' for Inactive)
REMARK    1  A    between atoms: C6_13  and  N5_14 
REMARK    2  A    between atoms: C8_19  and  N7_20 
ROOT
HETATM    1  N1  UNL     1      13.412   7.414   1.323  1.00  0.00    -0.190 NA
HETATM    2  C1  UNL     1      13.805   8.207   2.065  1.00  0.00     0.120 C 
HETATM    3  C2  UNL     1      14.250   9.109   3.057  1.00  0.00     0.143 C 
HETATM    4  N2  UNL     1      13.672   9.022   4.222  1.00  0.00    -0.289 N 
ATOM      5  H2  UNL     1      12.962   8.291   4.235  1.00  0.00     0.188 HD
HETATM    6  N3  UNL     1      13.768   9.655   5.433  1.00  0.00    -0.295 N 
ATOM      7  H3  UNL     1      12.963   9.543   6.049  1.00  0.00     0.187 HD
HETATM    8  C3  UNL     1      14.843  10.459   5.964  1.00  0.00     0.197 C 
HETATM    9  N4  UNL     1      16.034  10.475   5.168  1.00  0.00    -0.350 N 
ATOM     10  H4  UNL     1      16.903  10.402   5.698  1.00  0.00     0.166 HD
HETATM   11  C4  UNL     1      16.201  10.576   3.758  1.00  0.00     0.051 A 
HETATM   12  C5  UNL     1      17.240  11.368   3.410  1.00  0.00     0.068 A 
HETATM   13  C6  UNL     1      17.448  11.640   2.083  1.00  0.00     0.131 A 
HETATM   14  C7  UNL     1      16.616  11.115   1.148  1.00  0.00     0.113 A 
HETATM   15  N6  UNL     1      16.786  11.368  -0.249  1.00  0.00    -0.097 NA
HETATM   16  C8  UNL     1      15.510  10.273   1.468  1.00  0.00     0.145 A 
HETATM   17  C9  UNL     1      15.335  10.021   2.776  1.00  0.00     0.065 A 
ENDROOT
BRANCH  16  18
HETATM   18  N7  UNL     1      14.804   9.857   0.359  1.00  0.00    -0.113 N 
HETATM   19  O3  UNL     1      13.740  10.372   0.040  1.00  0.00    -0.532 OA
HETATM   20  O4  UNL     1      15.311   8.911  -0.472  1.00  0.00    -0.532 OA
ENDBRANCH  16  18
BRANCH  13  21
HETATM   21  N5  UNL     1      18.542  12.459   1.673  1.00  0.00    -0.114 N 
HETATM   22  O1  UNL     1      19.670  12.008   1.417  1.00  0.00    -0.532 OA
HETATM   23  O2  UNL     1      18.335  13.811   1.562  1.00  0.00    -0.532 OA
ENDBRANCH  13  21
TORSDOF 2
ENDMDL
MODEL 5
REMARK VINA RESULT: -7.671713431      3.274      5.498
REMARK  2 active torsions:
REMARK  status: ('A' for Active; 'I' for Inactive)
REMARK    1  A    between atoms: C6_13  and  N5_14 
REMARK    2  A    between atoms: C8_19  and  N7_20 
ROOT
HETATM    1  N1  UNL     1      22.851   9.391   5.312  1.00  0.00    -0.190 NA
HETATM    2  C1  UNL     1      21.770   9.294   4.917  1.00  0.00     0.120 C 
HETATM    3  C2  UNL     1      20.416   9.146   4.540  1.00  0.00     0.143 C 
HETATM    4  N2  UNL     1      19.687   8.369   5.289  1.00  0.00    -0.289 N 
ATOM      5  H2  UNL     1      20.227   7.973   6.058  1.00  0.00     0.188 HD
HETATM    6  N3  UNL     1      18.384   7.943   5.315  1.00  0.00    -0.295 N 
ATOM      7  H3  UNL     1      18.211   7.102   5.865  1.00  0.00     0.187 HD
HETATM    8  C3  UNL     1      17.222   8.512   4.676  1.00  0.00     0.197 C 
HETATM    9  N4  UNL     1      17.440   9.780   4.046  1.00  0.00    -0.350 N 
ATOM     10  H4  UNL     1      16.698  10.464   4.194  1.00  0.00     0.166 HD
HETATM   11  C4  UNL     1      18.525  10.239   3.245  1.00  0.00     0.051 A 
HETATM   12  C5  UNL     1      18.119  10.993   2.199  1.00  0.00     0.068 A 
HETATM   13  C6  UNL     1      19.052  11.410   1.285  1.00  0.00     0.131 A 
HETATM   14  C7  UNL     1      20.355  11.063   1.443  1.00  0.00     0.113 A 
HETATM   15  N6  UNL     1      21.367  11.470   0.519  1.00  0.00    -0.097 NA
HETATM   16  C8  UNL     1      20.827  10.273   2.532  1.00  0.00     0.145 A 
HETATM   17  C9  UNL     1      19.891   9.883   3.414  1.00  0.00     0.065 A 
ENDROOT
BRANCH  16  18
HETATM   18  N7  UNL     1      22.187  10.045   2.490  1.00  0.00    -0.113 N 
HETATM   19  O3  UNL     1      22.655   9.009   2.036  1.00  0.00    -0.532 OA
HETATM   20  O4  UNL     1      23.064  11.007   2.875  1.00  0.00    -0.532 OA
ENDBRANCH  16  18
BRANCH  13  21
HETATM   21  N5  UNL     1      18.667  12.220   0.175  1.00  0.00    -0.114 N 
HETATM   22  O1  UNL     1      18.607  13.458   0.226  1.00  0.00    -0.532 OA
HETATM   23  O2  UNL     1      18.346  11.595  -1.004  1.00  0.00    -0.532 OA
ENDBRANCH  13  21
TORSDOF 2
ENDMDL
