MODEL 1
REMARK VINA RESULT: -8.135939543      0.000      0.000
REMARK  9 active torsions:
REMARK  status: ('A' for Active; 'I' for Inactive)
REMARK    1  A    between atoms: N1_3  and  N2_5 
REMARK       I    between atoms: N2_5  and  C3_7 
REMARK    2  A    between atoms: C3_7  and  C4_9 
REMARK    3  A    between atoms: C6_12  and  N3_13 
REMARK    4  A    between atoms: C8_16  and  C9_17 
REMARK    5  A    between atoms: C9_17  and  O3_19 
REMARK    6  A    between atoms: C11_21  and  C12_22 
REMARK    7  A    between atoms: C12_22  and  O4_23 
REMARK    8  A    between atoms: C12_22  and  C13_25 
REMARK    9  A    between atoms: S2_29  and  N4_30 
ROOT
HETATM    1  N3  UNL     1      16.761  11.025   1.446  1.00  0.00    -0.330 N 
ATOM      2  H3  UNL     1      17.777  11.096   1.387  1.00  0.00     0.168 HD
HETATM    3  C7  UNL     1      16.042  10.896   0.364  1.00  0.00     0.097 A 
HETATM    4  C8  UNL     1      16.469  10.829  -1.056  1.00  0.00     0.083 A 
HETATM    5  C11 UNL     1      15.510  10.696  -1.928  1.00  0.00     0.001 A 
HETATM    6  C16 UNL     1      14.140  10.632  -1.351  1.00  0.00     0.133 A 
HETATM    7  S2  UNL     1      14.271  10.754   0.249  1.00  0.00    -0.077 SA
ENDROOT
BRANCH   1   8
HETATM    8  C6  UNL     1      16.103  11.064   2.717  1.00  0.00     0.150 A 
HETATM    9  S1  UNL     1      15.436  12.330   3.642  1.00  0.00    -0.063 SA
HETATM   10  C5  UNL     1      14.889  11.413   4.979  1.00  0.00     0.088 A 
HETATM   11  C4  UNL     1      15.271  10.142   4.612  1.00  0.00     0.111 A 
HETATM   12  N5  UNL     1      15.874  10.010   3.474  1.00  0.00    -0.332 N 
ATOM     13  H5  UNL     1      16.174   9.087   3.163  1.00  0.00     0.168 HD
BRANCH  11  14
HETATM   14  C3  UNL     1      14.983   8.998   5.512  1.00  0.00     0.287 C 
HETATM   15  N2  UNL     1      15.677   8.788   6.717  1.00  0.00    -0.265 N 
ATOM     16  H2  UNL     1      16.412   9.431   7.011  1.00  0.00     0.190 HD
HETATM   17  O1  UNL     1      14.081   8.204   5.158  1.00  0.00    -0.264 OA
BRANCH  15  18
HETATM   18  N1  UNL     1      15.343   7.689   7.501  1.00  0.00    -0.313 N 
HETATM   19  C2  UNL     1      14.681   7.735   8.577  1.00  0.00     0.076 C 
HETATM   20  C1  UNL     1      14.201   9.042   9.085  1.00  0.00     0.056 C 
ATOM     21  H1  UNL     1      15.658   6.773   7.182  1.00  0.00     0.185 HD
ENDBRANCH  15  18
ENDBRANCH  11  14
ENDBRANCH   1   8
BRANCH   4  22
HETATM   22  C9  UNL     1      17.936  10.967  -1.272  1.00  0.00     0.296 C 
HETATM   23  O2  UNL     1      18.557  11.717  -2.003  1.00  0.00    -0.259 OA
BRANCH  22  24
HETATM   24  O3  UNL     1      18.821  10.118  -0.542  1.00  0.00    -0.322 OA
HETATM   25  C10 UNL     1      19.988  10.648   0.059  1.00  0.00     0.213 C 
ENDBRANCH  22  24
ENDBRANCH   4  22
BRANCH   7  26
HETATM   26  N4  UNL     1      13.116  10.512   1.579  1.00  0.00    -0.378 N 
ATOM     27  H42 UNL     1      13.213  10.531   2.594  1.00  0.00     0.163 HD
ATOM     28  H41 UNL     1      12.098  10.494   1.521  1.00  0.00     0.163 HD
ENDBRANCH   7  26
BRANCH   5  29
HETATM   29  C12 UNL     1      15.578  10.590  -3.397  1.00  0.00     0.055 C 
BRANCH  29  30
HETATM   30  O4  UNL     1      16.839  10.443  -3.832  1.00  0.00    -0.364 OA
ATOM     31  H4  UNL     1      16.892   9.853  -4.575  1.00  0.00     0.217 HD
ENDBRANCH  29  30
BRANCH  29  32
HETATM   32  C13 UNL     1      14.659  10.615  -4.493  1.00  0.00     0.035 C 
HETATM   33  C14 UNL     1      14.015   9.171  -4.557  1.00  0.00     0.016 C 
HETATM   34  C15 UNL     1      15.390  10.618  -5.869  1.00  0.00     0.016 C 
ENDBRANCH  29  32
ENDBRANCH   5  29
TORSDOF 9
ENDMDL
MODEL 2
REMARK VINA RESULT: -7.767648781      3.859      5.957
REMARK  9 active torsions:
REMARK  status: ('A' for Active; 'I' for Inactive)
REMARK    1  A    between atoms: N1_3  and  N2_5 
REMARK       I    between atoms: N2_5  and  C3_7 
REMARK    2  A    between atoms: C3_7  and  C4_9 
REMARK    3  A    between atoms: C6_12  and  N3_13 
REMARK    4  A    between atoms: C8_16  and  C9_17 
REMARK    5  A    between atoms: C9_17  and  O3_19 
REMARK    6  A    between atoms: C11_21  and  C12_22 
REMARK    7  A    between atoms: C12_22  and  O4_23 
REMARK    8  A    between atoms: C12_22  and  C13_25 
REMARK    9  A    between atoms: S2_29  and  N4_30 
ROOT
HETATM    1  N3  UNL     1      16.343  10.964   1.153  1.00  0.00    -0.330 N 
ATOM      2  H3  UNL     1      15.605  10.767   1.828  1.00  0.00     0.168 HD
HETATM    3  C7  UNL     1      16.132  10.799  -0.125  1.00  0.00     0.097 A 
HETATM    4  C8  UNL     1      14.913  10.338  -0.834  1.00  0.00     0.083 A 
HETATM    5  C11 UNL     1      15.004  10.274  -2.131  1.00  0.00     0.001 A 
HETATM    6  C16 UNL     1      16.323  10.675  -2.690  1.00  0.00     0.133 A 
HETATM    7  S2  UNL     1      17.277  11.085  -1.459  1.00  0.00    -0.077 SA
ENDROOT
BRANCH   1   8
HETATM    8  C6  UNL     1      17.627  11.426   1.591  1.00  0.00     0.150 A 
HETATM    9  S1  UNL     1      19.046  10.622   2.082  1.00  0.00    -0.063 SA
HETATM   10  C5  UNL     1      20.017  11.991   2.410  1.00  0.00     0.088 A 
HETATM   11  C4  UNL     1      19.152  13.019   2.110  1.00  0.00     0.111 A 
HETATM   12  N5  UNL     1      17.967  12.694   1.703  1.00  0.00    -0.332 N 
ATOM     13  H5  UNL     1      17.293  13.423   1.469  1.00  0.00     0.168 HD
BRANCH  11  14
HETATM   14  C3  UNL     1      19.599  14.426   2.258  1.00  0.00     0.287 C 
HETATM   15  N2  UNL     1      20.854  14.770   2.792  1.00  0.00    -0.265 N 
ATOM     16  H2  UNL     1      21.505  14.046   3.098  1.00  0.00     0.190 HD
HETATM   17  O1  UNL     1      18.806  15.321   1.884  1.00  0.00    -0.264 OA
BRANCH  15  18
HETATM   18  N1  UNL     1      21.192  16.115   2.896  1.00  0.00    -0.313 N 
HETATM   19  C2  UNL     1      21.224  16.777   3.974  1.00  0.00     0.076 C 
HETATM   20  C1  UNL     1      20.881  16.111   5.252  1.00  0.00     0.056 C 
ATOM     21  H1  UNL     1      21.433  16.606   2.036  1.00  0.00     0.185 HD
ENDBRANCH  15  18
ENDBRANCH  11  14
ENDBRANCH   1   8
BRANCH   4  22
HETATM   22  C9  UNL     1      13.775   9.978   0.057  1.00  0.00     0.296 C 
HETATM   23  O2  UNL     1      13.126   8.950   0.129  1.00  0.00    -0.259 OA
BRANCH  22  24
HETATM   24  O3  UNL     1      13.313  10.939   1.006  1.00  0.00    -0.322 OA
HETATM   25  C10 UNL     1      12.924  10.534   2.305  1.00  0.00     0.213 C 
ENDBRANCH  22  24
ENDBRANCH   4  22
BRANCH   7  26
HETATM   26  N4  UNL     1      18.863  11.884  -1.372  1.00  0.00    -0.378 N 
ATOM     27  H42 UNL     1      19.508  12.224  -2.086  1.00  0.00     0.163 HD
ATOM     28  H41 UNL     1      19.302  12.304  -0.553  1.00  0.00     0.163 HD
ENDBRANCH   7  26
BRANCH   5  29
HETATM   29  C12 UNL     1      13.996   9.871  -3.129  1.00  0.00     0.055 C 
BRANCH  29  30
HETATM   30  O4  UNL     1      12.759  10.250  -2.775  1.00  0.00    -0.364 OA
ATOM     31  H4  UNL     1      12.110   9.999  -3.423  1.00  0.00     0.217 HD
ENDBRANCH  29  30
BRANCH  29  32
HETATM   32  C13 UNL     1      13.978   9.171  -4.377  1.00  0.00     0.035 C 
HETATM   33  C14 UNL     1      14.417  10.221  -5.475  1.00  0.00     0.016 C 
HETATM   34  C15 UNL     1      12.527   8.892  -4.870  1.00  0.00     0.016 C 
ENDBRANCH  29  32
ENDBRANCH   5  29
TORSDOF 9
ENDMDL
MODEL 3
REMARK VINA RESULT: -7.700830352      3.989      5.695
REMARK  9 active torsions:
REMARK  status: ('A' for Active; 'I' for Inactive)
REMARK    1  A    between atoms: N1_3  and  N2_5 
REMARK       I    between atoms: N2_5  and  C3_7 
REMARK    2  A    between atoms: C3_7  and  C4_9 
REMARK    3  A    between atoms: C6_12  and  N3_13 
REMARK    4  A    between atoms: C8_16  and  C9_17 
REMARK    5  A    between atoms: C9_17  and  O3_19 
REMARK    6  A    between atoms: C11_21  and  C12_22 
REMARK    7  A    between atoms: C12_22  and  O4_23 
REMARK    8  A    between atoms: C12_22  and  C13_25 
REMARK    9  A    between atoms: S2_29  and  N4_30 
ROOT
HETATM    1  N3  UNL     1      16.318  11.169   1.475  1.00  0.00    -0.330 N 
ATOM      2  H3  UNL     1      15.536  11.018   2.112  1.00  0.00     0.168 HD
HETATM    3  C7  UNL     1      16.173  10.976   0.192  1.00  0.00     0.097 A 
HETATM    4  C8  UNL     1      14.978  10.540  -0.574  1.00  0.00     0.083 A 
HETATM    5  C11 UNL     1      15.140  10.437  -1.862  1.00  0.00     0.001 A 
HETATM    6  C16 UNL     1      16.503  10.773  -2.354  1.00  0.00     0.133 A 
HETATM    7  S2  UNL     1      17.401  11.182  -1.082  1.00  0.00    -0.077 SA
ENDROOT
BRANCH   1   8
HETATM    8  C6  UNL     1      17.591  11.595   1.974  1.00  0.00     0.150 A 
HETATM    9  S1  UNL     1      19.016  10.759   2.387  1.00  0.00    -0.063 SA
HETATM   10  C5  UNL     1      19.967  12.096   2.874  1.00  0.00     0.088 A 
HETATM   11  C4  UNL     1      19.090  13.140   2.680  1.00  0.00     0.111 A 
HETATM   12  N5  UNL     1      17.913  12.847   2.229  1.00  0.00    -0.332 N 
ATOM     13  H5  UNL     1      17.232  13.589   2.069  1.00  0.00     0.168 HD
BRANCH  11  14
HETATM   14  C3  UNL     1      19.517  14.527   2.987  1.00  0.00     0.287 C 
HETATM   15  N2  UNL     1      18.891  15.312   3.972  1.00  0.00    -0.265 N 
ATOM     16  H2  UNL     1      18.110  14.941   4.513  1.00  0.00     0.190 HD
HETATM   17  O1  UNL     1      20.476  14.990   2.327  1.00  0.00    -0.264 OA
BRANCH  15  18
HETATM   18  N1  UNL     1      19.355  16.604   4.194  1.00  0.00    -0.313 N 
HETATM   19  C2  UNL     1      20.160  16.942   5.111  1.00  0.00     0.076 C 
HETATM   20  C1  UNL     1      20.676  15.915   6.046  1.00  0.00     0.056 C 
ATOM     21  H1  UNL     1      19.021  17.337   3.570  1.00  0.00     0.185 HD
ENDBRANCH  15  18
ENDBRANCH  11  14
ENDBRANCH   1   8
BRANCH   4  22
HETATM   22  C9  UNL     1      13.779  10.247   0.259  1.00  0.00     0.296 C 
HETATM   23  O2  UNL     1      13.129  10.975   0.987  1.00  0.00    -0.259 OA
BRANCH  22  24
HETATM   24  O3  UNL     1      13.247   8.922   0.258  1.00  0.00    -0.322 OA
HETATM   25  C10 UNL     1      13.660   7.983   1.232  1.00  0.00     0.213 C 
ENDBRANCH  22  24
ENDBRANCH   4  22
BRANCH   7  26
HETATM   26  N4  UNL     1      19.009  11.925  -0.925  1.00  0.00    -0.378 N 
ATOM     27  H42 UNL     1      19.592  12.151  -0.119  1.00  0.00     0.163 HD
ATOM     28  H41 UNL     1      19.696  12.078  -1.662  1.00  0.00     0.163 HD
ENDBRANCH   7  26
BRANCH   5  29
HETATM   29  C12 UNL     1      14.175  10.043  -2.905  1.00  0.00     0.055 C 
BRANCH  29  30
HETATM   30  O4  UNL     1      12.924  10.421  -2.601  1.00  0.00    -0.364 OA
ATOM     31  H4  UNL     1      12.317   9.691  -2.624  1.00  0.00     0.217 HD
ENDBRANCH  29  30
BRANCH  29  32
HETATM   32  C13 UNL     1      14.210   9.353  -4.158  1.00  0.00     0.035 C 
HETATM   33  C14 UNL     1      14.670  10.418  -5.233  1.00  0.00     0.016 C 
HETATM   34  C15 UNL     1      12.780   9.057  -4.702  1.00  0.00     0.016 C 
ENDBRANCH  29  32
ENDBRANCH   5  29
TORSDOF 9
ENDMDL
MODEL 4
REMARK VINA RESULT: -7.632901168      3.718      5.674
REMARK  9 active torsions:
REMARK  status: ('A' for Active; 'I' for Inactive)
REMARK    1  A    between atoms: N1_3  and  N2_5 
REMARK       I    between atoms: N2_5  and  C3_7 
REMARK    2  A    between atoms: C3_7  and  C4_9 
REMARK    3  A    between atoms: C6_12  and  N3_13 
REMARK    4  A    between atoms: C8_16  and  C9_17 
REMARK    5  A    between atoms: C9_17  and  O3_19 
REMARK    6  A    between atoms: C11_21  and  C12_22 
REMARK    7  A    between atoms: C12_22  and  O4_23 
REMARK    8  A    between atoms: C12_22  and  C13_25 
REMARK    9  A    between atoms: S2_29  and  N4_30 
ROOT
HETATM    1  N3  UNL     1      16.719  10.158   1.104  1.00  0.00    -0.330 N 
ATOM      2  H3  UNL     1      16.066   9.771   1.786  1.00  0.00     0.168 HD
HETATM    3  C7  UNL     1      16.373  10.276  -0.149  1.00  0.00     0.097 A 
HETATM    4  C8  UNL     1      15.098   9.919  -0.820  1.00  0.00     0.083 A 
HETATM    5  C11 UNL     1      15.048  10.157  -2.099  1.00  0.00     0.001 A 
HETATM    6  C16 UNL     1      16.284  10.748  -2.679  1.00  0.00     0.133 A 
HETATM    7  S2  UNL     1      17.354  10.921  -1.488  1.00  0.00    -0.077 SA
ENDROOT
BRANCH   1   8
HETATM    8  C6  UNL     1      18.027  10.580   1.508  1.00  0.00     0.150 A 
HETATM    9  S1  UNL     1      18.624  12.021   2.191  1.00  0.00    -0.063 SA
HETATM   10  C5  UNL     1      20.274  11.584   2.312  1.00  0.00     0.088 A 
HETATM   11  C4  UNL     1      20.257  10.307   1.799  1.00  0.00     0.111 A 
HETATM   12  N5  UNL     1      19.114   9.842   1.408  1.00  0.00    -0.332 N 
ATOM     13  H5  UNL     1      19.055   8.900   1.022  1.00  0.00     0.168 HD
BRANCH  11  14
HETATM   14  C3  UNL     1      21.518   9.530   1.714  1.00  0.00     0.287 C 
HETATM   15  N2  UNL     1      21.558   8.131   1.859  1.00  0.00    -0.265 N 
ATOM     16  H2  UNL     1      20.702   7.603   2.029  1.00  0.00     0.190 HD
HETATM   17  O1  UNL     1      22.573  10.172   1.504  1.00  0.00    -0.264 OA
BRANCH  15  18
HETATM   18  N1  UNL     1      22.785   7.482   1.765  1.00  0.00    -0.313 N 
HETATM   19  C2  UNL     1      23.067   6.377   2.311  1.00  0.00     0.076 C 
HETATM   20  C1  UNL     1      22.044   5.680   3.125  1.00  0.00     0.056 C 
ATOM     21  H1  UNL     1      23.513   7.934   1.214  1.00  0.00     0.185 HD
ENDBRANCH  15  18
ENDBRANCH  11  14
ENDBRANCH   1   8
BRANCH   4  22
HETATM   22  C9  UNL     1      14.078   9.302   0.072  1.00  0.00     0.296 C 
HETATM   23  O2  UNL     1      13.680   8.153   0.137  1.00  0.00    -0.259 OA
BRANCH  22  24
HETATM   24  O3  UNL     1      13.415  10.125   1.032  1.00  0.00    -0.322 OA
HETATM   25  C10 UNL     1      12.954   9.575   2.251  1.00  0.00     0.213 C 
ENDBRANCH  22  24
ENDBRANCH   4  22
BRANCH   7  26
HETATM   26  N4  UNL     1      18.913  11.768  -1.377  1.00  0.00    -0.378 N 
ATOM     27  H42 UNL     1      19.308  12.406  -0.687  1.00  0.00     0.163 HD
ATOM     28  H41 UNL     1      19.755  11.592  -1.925  1.00  0.00     0.163 HD
ENDBRANCH   7  26
BRANCH   5  29
HETATM   29  C12 UNL     1      13.949   9.935  -3.057  1.00  0.00     0.055 C 
BRANCH  29  30
HETATM   30  O4  UNL     1      12.817  10.545  -2.674  1.00  0.00    -0.364 OA
ATOM     31  H4  UNL     1      12.097   9.932  -2.582  1.00  0.00     0.217 HD
ENDBRANCH  29  30
BRANCH  29  32
HETATM   32  C13 UNL     1      13.758   9.230  -4.288  1.00  0.00     0.035 C 
HETATM   33  C14 UNL     1      14.255  10.204  -5.432  1.00  0.00     0.016 C 
HETATM   34  C15 UNL     1      12.254   9.138  -4.682  1.00  0.00     0.016 C 
ENDBRANCH  29  32
ENDBRANCH   5  29
TORSDOF 9
ENDMDL
MODEL 5
REMARK VINA RESULT: -7.338686092      3.981      5.346
REMARK  9 active torsions:
REMARK  status: ('A' for Active; 'I' for Inactive)
REMARK    1  A    between atoms: N1_3  and  N2_5 
REMARK       I    between atoms: N2_5  and  C3_7 
REMARK    2  A    between atoms: C3_7  and  C4_9 
REMARK    3  A    between atoms: C6_12  and  N3_13 
REMARK    4  A    between atoms: C8_16  and  C9_17 
REMARK    5  A    between atoms: C9_17  and  O3_19 
REMARK    6  A    between atoms: C11_21  and  C12_22 
REMARK    7  A    between atoms: C12_22  and  O4_23 
REMARK    8  A    between atoms: C12_22  and  C13_25 
REMARK    9  A    between atoms: S2_29  and  N4_30 
ROOT
HETATM    1  N3  UNL     1      17.335  10.236   2.169  1.00  0.00    -0.330 N 
ATOM      2  H3  UNL     1      16.579  10.113   2.843  1.00  0.00     0.168 HD
HETATM    3  C7  UNL     1      17.070  10.508   0.920  1.00  0.00     0.097 A 
HETATM    4  C8  UNL     1      15.761  10.685   0.244  1.00  0.00     0.083 A 
HETATM    5  C11 UNL     1      15.815  10.955  -1.029  1.00  0.00     0.001 A 
HETATM    6  C16 UNL     1      17.187  11.041  -1.596  1.00  0.00     0.133 A 
HETATM    7  S2  UNL     1      18.233  10.760  -0.405  1.00  0.00    -0.077 SA
ENDROOT
BRANCH   1   8
HETATM    8  C6  UNL     1      18.702  10.113   2.580  1.00  0.00     0.150 A 
HETATM    9  S1  UNL     1      19.847  11.234   3.158  1.00  0.00    -0.063 SA
HETATM   10  C5  UNL     1      21.167  10.167   3.372  1.00  0.00     0.088 A 
HETATM   11  C4  UNL     1      20.619   8.970   2.969  1.00  0.00     0.111 A 
HETATM   12  N5  UNL     1      19.384   8.986   2.580  1.00  0.00    -0.332 N 
ATOM     13  H5  UNL     1      18.937   8.122   2.273  1.00  0.00     0.168 HD
BRANCH  11  14
HETATM   14  C3  UNL     1      21.443   7.736   2.993  1.00  0.00     0.287 C 
HETATM   15  N2  UNL     1      20.881   6.451   3.101  1.00  0.00    -0.265 N 
ATOM     16  H2  UNL     1      19.870   6.331   3.165  1.00  0.00     0.190 HD
HETATM   17  O1  UNL     1      22.685   7.876   2.913  1.00  0.00    -0.264 OA
BRANCH  15  18
HETATM   18  N1  UNL     1      21.728   5.348   3.117  1.00  0.00    -0.313 N 
HETATM   19  C2  UNL     1      21.352   4.141   3.156  1.00  0.00     0.076 C 
HETATM   20  C1  UNL     1      19.904   3.827   3.190  1.00  0.00     0.056 C 
ATOM     21  H1  UNL     1      22.731   5.527   3.096  1.00  0.00     0.185 HD
ENDBRANCH  15  18
ENDBRANCH  11  14
ENDBRANCH   1   8
BRANCH   4  22
HETATM   22  C9  UNL     1      14.576  10.486   1.123  1.00  0.00     0.296 C 
HETATM   23  O2  UNL     1      13.638  11.225   1.360  1.00  0.00    -0.259 OA
BRANCH  22  24
HETATM   24  O3  UNL     1      14.446   9.256   1.836  1.00  0.00    -0.322 OA
HETATM   25  C10 UNL     1      14.009   8.085   1.172  1.00  0.00     0.213 C 
ENDBRANCH  22  24
ENDBRANCH   4  22
BRANCH   7  26
HETATM   26  N4  UNL     1      19.998  10.941  -0.277  1.00  0.00    -0.378 N 
ATOM     27  H42 UNL     1      20.645  10.883   0.509  1.00  0.00     0.163 HD
ATOM     28  H41 UNL     1      20.677  10.951  -1.037  1.00  0.00     0.163 HD
ENDBRANCH   7  26
BRANCH   5  29
HETATM   29  C12 UNL     1      14.722  11.195  -1.989  1.00  0.00     0.055 C 
BRANCH  29  30
HETATM   30  O4  UNL     1      14.077  12.345  -1.739  1.00  0.00    -0.364 OA
ATOM     31  H4  UNL     1      13.135  12.245  -1.804  1.00  0.00     0.217 HD
ENDBRANCH  29  30
BRANCH  29  32
HETATM   32  C13 UNL     1      14.152  10.524  -3.117  1.00  0.00     0.035 C 
HETATM   33  C14 UNL     1      14.156   8.984  -2.758  1.00  0.00     0.016 C 
HETATM   34  C15 UNL     1      15.124  10.495  -4.334  1.00  0.00     0.016 C 
ENDBRANCH  29  32
ENDBRANCH   5  29
TORSDOF 9
ENDMDL
