MODEL 1
REMARK VINA RESULT: -8.667533832      0.000      0.000
REMARK  9 active torsions:
REMARK  status: ('A' for Active; 'I' for Inactive)
REMARK    1  A    between atoms: O1_2  and  C2_3 
REMARK    2  A    between atoms: C2_3  and  C3_5 
REMARK    3  A    between atoms: C5_7  and  N1_8 
REMARK    4  A    between atoms: C6_11  and  N2_12 
REMARK    5  A    between atoms: N2_12  and  N3_14 
REMARK    6  A    between atoms: C7_16  and  C8_17 
REMARK    7  A    between atoms: C10_19  and  O5_20 
REMARK    8  A    between atoms: C12_22  and  O6_23 
REMARK    9  A    between atoms: C13_25  and  N4_26 
ROOT
HETATM    1  N2  UNL     1      14.810   9.810   2.165  1.00  0.00    -0.284 N 
ATOM      2  H2  UNL     1      15.635   9.389   1.738  1.00  0.00     0.188 HD
ENDROOT
BRANCH   1   3
HETATM    3  C6  UNL     1      14.719   9.920   3.470  1.00  0.00     0.153 A 
HETATM    4  C5  UNL     1      15.110  11.084   4.070  1.00  0.00     0.149 A 
HETATM    5  C4  UNL     1      15.010  11.199   5.452  1.00  0.00     0.059 A 
HETATM    6  C3  UNL     1      14.511  10.118   6.188  1.00  0.00     0.064 A 
HETATM    7  C15 UNL     1      14.130   8.971   5.546  1.00  0.00     0.023 A 
HETATM    8  N5  UNL     1      14.236   8.878   4.190  1.00  0.00    -0.342 N 
HETATM    9  C16 UNL     1      13.600   7.824   6.327  1.00  0.00     0.069 C 
ATOM     10  H5  UNL     1      13.952   8.021   3.715  1.00  0.00     0.167 HD
BRANCH   4  11
HETATM   11  N1  UNL     1      15.619  12.145   3.278  1.00  0.00    -0.112 N 
HETATM   12  O3  UNL     1      15.301  13.341   3.565  1.00  0.00    -0.532 OA
HETATM   13  O4  UNL     1      16.443  12.011   2.204  1.00  0.00    -0.532 OA
ENDBRANCH   4  11
BRANCH   6  14
HETATM   14  C2  UNL     1      14.426  10.290   7.637  1.00  0.00     0.294 C 
HETATM   15  O2  UNL     1      13.382  10.759   8.184  1.00  0.00    -0.259 OA
BRANCH  14  16
HETATM   16  O1  UNL     1      15.450   9.968   8.502  1.00  0.00    -0.322 OA
HETATM   17  C1  UNL     1      15.638   8.729   9.123  1.00  0.00     0.213 C 
ENDBRANCH  14  16
ENDBRANCH   6  14
ENDBRANCH   1   3
BRANCH   1  18
HETATM   18  N3  UNL     1      13.817  10.253   1.411  1.00  0.00    -0.309 N 
HETATM   19  C7  UNL     1      13.406  10.578   0.317  1.00  0.00     0.118 C 
ATOM     20  H3  UNL     1      13.030  10.383   2.047  1.00  0.00     0.186 HD
BRANCH  19  21
HETATM   21  C8  UNL     1      14.176  10.561  -0.920  1.00  0.00    -0.014 A 
HETATM   22  C9  UNL     1      15.520  10.919  -0.911  1.00  0.00     0.052 A 
HETATM   23  C10 UNL     1      16.229  10.900  -2.065  1.00  0.00     0.104 A 
HETATM   24  C12 UNL     1      15.624  10.529  -3.232  1.00  0.00     0.132 A 
HETATM   25  C13 UNL     1      14.315  10.172  -3.289  1.00  0.00     0.139 A 
HETATM   26  C14 UNL     1      13.571  10.187  -2.100  1.00  0.00     0.052 A 
BRANCH  23  27
HETATM   27  O5  UNL     1      17.557  11.243  -2.116  1.00  0.00    -0.353 OA
HETATM   28  C11 UNL     1      18.323  11.610  -0.984  1.00  0.00     0.210 C 
ENDBRANCH  23  27
BRANCH  24  29
HETATM   29  O6  UNL     1      16.344  10.505  -4.427  1.00  0.00    -0.356 OA
ATOM     30  H6  UNL     1      16.002  10.930  -5.205  1.00  0.00     0.218 HD
ENDBRANCH  24  29
BRANCH  25  31
HETATM   31  N4  UNL     1      13.648   9.780  -4.486  1.00  0.00    -0.113 N 
HETATM   32  O7  UNL     1      12.796   8.884  -4.447  1.00  0.00    -0.532 OA
HETATM   33  O8  UNL     1      13.952  10.395  -5.677  1.00  0.00    -0.532 OA
ENDBRANCH  25  31
ENDBRANCH  19  21
ENDBRANCH   1  18
TORSDOF 9
ENDMDL
MODEL 2
REMARK VINA RESULT: -8.620036139      1.655      2.949
REMARK  9 active torsions:
REMARK  status: ('A' for Active; 'I' for Inactive)
REMARK    1  A    between atoms: O1_2  and  C2_3 
REMARK    2  A    between atoms: C2_3  and  C3_5 
REMARK    3  A    between atoms: C5_7  and  N1_8 
REMARK    4  A    between atoms: C6_11  and  N2_12 
REMARK    5  A    between atoms: N2_12  and  N3_14 
REMARK    6  A    between atoms: C7_16  and  C8_17 
REMARK    7  A    between atoms: C10_19  and  O5_20 
REMARK    8  A    between atoms: C12_22  and  O6_23 
REMARK    9  A    between atoms: C13_25  and  N4_26 
ROOT
HETATM    1  N2  UNL     1      14.877   9.318   2.982  1.00  0.00    -0.284 N 
ATOM      2  H2  UNL     1      15.705   8.828   2.644  1.00  0.00     0.188 HD
ENDROOT
BRANCH   1   3
HETATM    3  C6  UNL     1      14.708   9.532   4.266  1.00  0.00     0.153 A 
HETATM    4  C5  UNL     1      14.925  10.785   4.767  1.00  0.00     0.149 A 
HETATM    5  C4  UNL     1      14.742  11.010   6.127  1.00  0.00     0.059 A 
HETATM    6  C3  UNL     1      14.342   9.945   6.943  1.00  0.00     0.064 A 
HETATM    7  C15 UNL     1      14.136   8.706   6.398  1.00  0.00     0.023 A 
HETATM    8  N5  UNL     1      14.321   8.506   5.063  1.00  0.00    -0.342 N 
HETATM    9  C16 UNL     1      13.711   7.577   7.264  1.00  0.00     0.069 C 
ATOM     10  H5  UNL     1      14.167   7.581   4.661  1.00  0.00     0.167 HD
BRANCH   4  11
HETATM   11  N1  UNL     1      15.340  11.827   3.898  1.00  0.00    -0.112 N 
HETATM   12  O3  UNL     1      14.469  12.615   3.414  1.00  0.00    -0.532 OA
HETATM   13  O4  UNL     1      16.621  12.080   3.515  1.00  0.00    -0.532 OA
ENDBRANCH   4  11
BRANCH   6  14
HETATM   14  C2  UNL     1      14.166  10.235   8.365  1.00  0.00     0.294 C 
HETATM   15  O2  UNL     1      13.058  10.655   8.817  1.00  0.00    -0.259 OA
BRANCH  14  16
HETATM   16  O1  UNL     1      15.164  10.081   9.302  1.00  0.00    -0.322 OA
HETATM   17  C1  UNL     1      15.520  11.014  10.281  1.00  0.00     0.213 C 
ENDBRANCH  14  16
ENDBRANCH   6  14
ENDBRANCH   1   3
BRANCH   1  18
HETATM   18  N3  UNL     1      13.959   9.748   2.132  1.00  0.00    -0.309 N 
HETATM   19  C7  UNL     1      13.676  10.164   1.028  1.00  0.00     0.118 C 
ATOM     20  H3  UNL     1      13.077   9.714   2.644  1.00  0.00     0.186 HD
BRANCH  19  21
HETATM   21  C8  UNL     1      14.615  10.383  -0.065  1.00  0.00    -0.014 A 
HETATM   22  C9  UNL     1      14.271  10.023  -1.364  1.00  0.00     0.052 A 
HETATM   23  C10 UNL     1      15.148  10.231  -2.375  1.00  0.00     0.104 A 
HETATM   24  C12 UNL     1      16.366  10.792  -2.116  1.00  0.00     0.132 A 
HETATM   25  C13 UNL     1      16.745  11.159  -0.864  1.00  0.00     0.139 A 
HETATM   26  C14 UNL     1      15.844  10.949   0.189  1.00  0.00     0.052 A 
BRANCH  23  27
HETATM   27  O5  UNL     1      14.863   9.896  -3.675  1.00  0.00    -0.353 OA
HETATM   28  C11 UNL     1      13.571   9.549  -4.137  1.00  0.00     0.210 C 
ENDBRANCH  23  27
BRANCH  24  29
HETATM   29  O6  UNL     1      17.279  11.011  -3.149  1.00  0.00    -0.356 OA
ATOM     30  H6  UNL     1      17.822  11.790  -3.155  1.00  0.00     0.218 HD
ENDBRANCH  24  29
BRANCH  25  31
HETATM   31  N4  UNL     1      18.006  11.746  -0.555  1.00  0.00    -0.113 N 
HETATM   32  O7  UNL     1      18.075  12.630   0.309  1.00  0.00    -0.532 OA
HETATM   33  O8  UNL     1      19.140  11.333  -1.214  1.00  0.00    -0.532 OA
ENDBRANCH  25  31
ENDBRANCH  19  21
ENDBRANCH   1  18
TORSDOF 9
ENDMDL
MODEL 3
REMARK VINA RESULT: -8.516879702      2.851      4.240
REMARK  9 active torsions:
REMARK  status: ('A' for Active; 'I' for Inactive)
REMARK    1  A    between atoms: O1_2  and  C2_3 
REMARK    2  A    between atoms: C2_3  and  C3_5 
REMARK    3  A    between atoms: C5_7  and  N1_8 
REMARK    4  A    between atoms: C6_11  and  N2_12 
REMARK    5  A    between atoms: N2_12  and  N3_14 
REMARK    6  A    between atoms: C7_16  and  C8_17 
REMARK    7  A    between atoms: C10_19  and  O5_20 
REMARK    8  A    between atoms: C12_22  and  O6_23 
REMARK    9  A    between atoms: C13_25  and  N4_26 
ROOT
HETATM    1  N2  UNL     1      15.670   8.753   4.388  1.00  0.00    -0.284 N 
ATOM      2  H2  UNL     1      15.013   8.435   3.677  1.00  0.00     0.188 HD
ENDROOT
BRANCH   1   3
HETATM    3  C6  UNL     1      15.237   9.184   5.550  1.00  0.00     0.153 A 
HETATM    4  C5  UNL     1      14.648  10.415   5.627  1.00  0.00     0.149 A 
HETATM    5  C4  UNL     1      14.187  10.868   6.858  1.00  0.00     0.059 A 
HETATM    6  C3  UNL     1      14.340  10.049   7.983  1.00  0.00     0.064 A 
HETATM    7  C15 UNL     1      14.937   8.823   7.860  1.00  0.00     0.023 A 
HETATM    8  N5  UNL     1      15.382   8.397   6.644  1.00  0.00    -0.342 N 
HETATM    9  C16 UNL     1      15.099   7.953   9.053  1.00  0.00     0.069 C 
ATOM     10  H5  UNL     1      15.826   7.483   6.556  1.00  0.00     0.167 HD
BRANCH   4  11
HETATM   11  N1  UNL     1      14.527  11.210   4.458  1.00  0.00    -0.112 N 
HETATM   12  O3  UNL     1      15.256  12.242   4.331  1.00  0.00    -0.532 OA
HETATM   13  O4  UNL     1      13.678  10.974   3.421  1.00  0.00    -0.532 OA
ENDBRANCH   4  11
BRANCH   6  14
HETATM   14  C2  UNL     1      13.840  10.572   9.252  1.00  0.00     0.294 C 
HETATM   15  O2  UNL     1      12.697  10.244   9.693  1.00  0.00    -0.259 OA
BRANCH  14  16
HETATM   16  O1  UNL     1      14.551  11.442  10.050  1.00  0.00    -0.322 OA
HETATM   17  C1  UNL     1      15.784  11.178  10.655  1.00  0.00     0.213 C 
ENDBRANCH  14  16
ENDBRANCH   6  14
ENDBRANCH   1   3
BRANCH   1  18
HETATM   18  N3  UNL     1      16.972   8.738   4.152  1.00  0.00    -0.309 N 
HETATM   19  C7  UNL     1      17.906   9.062   3.449  1.00  0.00     0.118 C 
ATOM     20  H3  UNL     1      17.381   8.204   4.919  1.00  0.00     0.186 HD
BRANCH  19  21
HETATM   21  C8  UNL     1      17.817   9.845   2.224  1.00  0.00    -0.014 A 
HETATM   22  C9  UNL     1      16.575  10.235   1.733  1.00  0.00     0.052 A 
HETATM   23  C10 UNL     1      16.500  10.964   0.594  1.00  0.00     0.104 A 
HETATM   24  C12 UNL     1      17.642  11.313  -0.069  1.00  0.00     0.132 A 
HETATM   25  C13 UNL     1      18.876  10.954   0.372  1.00  0.00     0.139 A 
HETATM   26  C14 UNL     1      18.965  10.200   1.551  1.00  0.00     0.052 A 
BRANCH  23  27
HETATM   27  O5  UNL     1      15.303  11.376   0.064  1.00  0.00    -0.353 OA
HETATM   28  C11 UNL     1      14.254  10.498  -0.298  1.00  0.00     0.210 C 
ENDBRANCH  23  27
BRANCH  24  29
HETATM   29  O6  UNL     1      17.578  12.064  -1.244  1.00  0.00    -0.356 OA
ATOM     30  H6  UNL     1      18.367  12.260  -1.734  1.00  0.00     0.218 HD
ENDBRANCH  24  29
BRANCH  25  31
HETATM   31  N4  UNL     1      20.089  11.299  -0.292  1.00  0.00    -0.113 N 
HETATM   32  O7  UNL     1      20.892  10.409  -0.600  1.00  0.00    -0.532 OA
HETATM   33  O8  UNL     1      20.364  12.613  -0.587  1.00  0.00    -0.532 OA
ENDBRANCH  25  31
ENDBRANCH  19  21
ENDBRANCH   1  18
TORSDOF 9
ENDMDL
MODEL 4
REMARK VINA RESULT: -8.404075940      2.037      3.349
REMARK  9 active torsions:
REMARK  status: ('A' for Active; 'I' for Inactive)
REMARK    1  A    between atoms: O1_2  and  C2_3 
REMARK    2  A    between atoms: C2_3  and  C3_5 
REMARK    3  A    between atoms: C5_7  and  N1_8 
REMARK    4  A    between atoms: C6_11  and  N2_12 
REMARK    5  A    between atoms: N2_12  and  N3_14 
REMARK    6  A    between atoms: C7_16  and  C8_17 
REMARK    7  A    between atoms: C10_19  and  O5_20 
REMARK    8  A    between atoms: C12_22  and  O6_23 
REMARK    9  A    between atoms: C13_25  and  N4_26 
ROOT
HETATM    1  N2  UNL     1      14.690  11.272   3.071  1.00  0.00    -0.284 N 
ATOM      2  H2  UNL     1      15.284  12.074   2.860  1.00  0.00     0.188 HD
ENDROOT
BRANCH   1   3
HETATM    3  C6  UNL     1      14.811  10.636   4.214  1.00  0.00     0.153 A 
HETATM    4  C5  UNL     1      15.647   9.558   4.290  1.00  0.00     0.149 A 
HETATM    5  C4  UNL     1      15.776   8.888   5.502  1.00  0.00     0.059 A 
HETATM    6  C3  UNL     1      15.044   9.339   6.607  1.00  0.00     0.064 A 
HETATM    7  C15 UNL     1      14.219  10.423   6.485  1.00  0.00     0.023 A 
HETATM    8  N5  UNL     1      14.106  11.067   5.288  1.00  0.00    -0.342 N 
HETATM    9  C16 UNL     1      13.443  10.902   7.658  1.00  0.00     0.069 C 
ATOM     10  H5  UNL     1      13.489  11.874   5.201  1.00  0.00     0.167 HD
BRANCH   4  11
HETATM   11  N1  UNL     1      16.357   9.135   3.137  1.00  0.00    -0.112 N 
HETATM   12  O3  UNL     1      15.818   8.299   2.348  1.00  0.00    -0.532 OA
HETATM   13  O4  UNL     1      17.602   9.549   2.775  1.00  0.00    -0.532 OA
ENDBRANCH   4  11
BRANCH   6  14
HETATM   14  C2  UNL     1      15.215   8.599   7.856  1.00  0.00     0.294 C 
HETATM   15  O2  UNL     1      14.479   7.605   8.138  1.00  0.00    -0.259 OA
BRANCH  14  16
HETATM   16  O1  UNL     1      16.164   8.916   8.805  1.00  0.00    -0.322 OA
HETATM   17  C1  UNL     1      16.016   9.856   9.829  1.00  0.00     0.213 C 
ENDBRANCH  14  16
ENDBRANCH   6  14
ENDBRANCH   1   3
BRANCH   1  18
HETATM   18  N3  UNL     1      13.787  10.858   2.197  1.00  0.00    -0.309 N 
HETATM   19  C7  UNL     1      13.497  10.584   1.051  1.00  0.00     0.118 C 
ATOM     20  H3  UNL     1      12.939  10.694   2.740  1.00  0.00     0.186 HD
BRANCH  19  21
HETATM   21  C8  UNL     1      14.393  10.663  -0.095  1.00  0.00    -0.014 A 
HETATM   22  C9  UNL     1      13.895  10.492  -1.383  1.00  0.00     0.052 A 
HETATM   23  C10 UNL     1      14.735  10.568  -2.444  1.00  0.00     0.104 A 
HETATM   24  C12 UNL     1      16.064  10.811  -2.247  1.00  0.00     0.132 A 
HETATM   25  C13 UNL     1      16.594  10.983  -1.008  1.00  0.00     0.139 A 
HETATM   26  C14 UNL     1      15.734  10.908   0.097  1.00  0.00     0.052 A 
BRANCH  23  27
HETATM   27  O5  UNL     1      14.300  10.408  -3.736  1.00  0.00    -0.353 OA
HETATM   28  C11 UNL     1      13.319   9.466  -4.130  1.00  0.00     0.210 C 
ENDBRANCH  23  27
BRANCH  24  29
HETATM   29  O6  UNL     1      16.938  10.891  -3.332  1.00  0.00    -0.356 OA
ATOM     30  H6  UNL     1      17.708  11.445  -3.290  1.00  0.00     0.218 HD
ENDBRANCH  24  29
BRANCH  25  31
HETATM   31  N4  UNL     1      17.974  11.238  -0.762  1.00  0.00    -0.113 N 
HETATM   32  O7  UNL     1      18.432  12.371  -0.956  1.00  0.00    -0.532 OA
HETATM   33  O8  UNL     1      18.792  10.229  -0.311  1.00  0.00    -0.532 OA
ENDBRANCH  25  31
ENDBRANCH  19  21
ENDBRANCH   1  18
TORSDOF 9
ENDMDL
MODEL 5
REMARK VINA RESULT: -8.386980670      3.000      3.956
REMARK  9 active torsions:
REMARK  status: ('A' for Active; 'I' for Inactive)
REMARK    1  A    between atoms: O1_2  and  C2_3 
REMARK    2  A    between atoms: C2_3  and  C3_5 
REMARK    3  A    between atoms: C5_7  and  N1_8 
REMARK    4  A    between atoms: C6_11  and  N2_12 
REMARK    5  A    between atoms: N2_12  and  N3_14 
REMARK    6  A    between atoms: C7_16  and  C8_17 
REMARK    7  A    between atoms: C10_19  and  O5_20 
REMARK    8  A    between atoms: C12_22  and  O6_23 
REMARK    9  A    between atoms: C13_25  and  N4_26 
ROOT
HETATM    1  N2  UNL     1      16.018   9.301   3.654  1.00  0.00    -0.284 N 
ATOM      2  H2  UNL     1      15.412   9.215   2.838  1.00  0.00     0.188 HD
ENDROOT
BRANCH   1   3
HETATM    3  C6  UNL     1      15.510   9.562   4.836  1.00  0.00     0.153 A 
HETATM    4  C5  UNL     1      14.734  10.676   4.996  1.00  0.00     0.149 A 
HETATM    5  C4  UNL     1      14.194  10.949   6.248  1.00  0.00     0.059 A 
HETATM    6  C3  UNL     1      14.461  10.075   7.307  1.00  0.00     0.064 A 
HETATM    7  C15 UNL     1      15.243   8.970   7.102  1.00  0.00     0.023 A 
HETATM    8  N5  UNL     1      15.763   8.720   5.867  1.00  0.00    -0.342 N 
HETATM    9  C16 UNL     1      15.525   8.041   8.226  1.00  0.00     0.069 C 
ATOM     10  H5  UNL     1      16.346   7.896   5.718  1.00  0.00     0.167 HD
BRANCH   4  11
HETATM   11  N1  UNL     1      14.503  11.536   3.891  1.00  0.00    -0.112 N 
HETATM   12  O3  UNL     1      15.219  12.577   3.755  1.00  0.00    -0.532 OA
HETATM   13  O4  UNL     1      13.560  11.355   2.927  1.00  0.00    -0.532 OA
ENDBRANCH   4  11
BRANCH   6  14
HETATM   14  C2  UNL     1      13.870  10.408   8.602  1.00  0.00     0.294 C 
HETATM   15  O2  UNL     1      12.779   9.885   8.980  1.00  0.00    -0.259 OA
BRANCH  14  16
HETATM   16  O1  UNL     1      14.436  11.297   9.490  1.00  0.00    -0.322 OA
HETATM   17  C1  UNL     1      15.530  11.038  10.323  1.00  0.00     0.213 C 
ENDBRANCH  14  16
ENDBRANCH   6  14
ENDBRANCH   1   3
BRANCH   1  18
HETATM   18  N3  UNL     1      17.327   9.149   3.536  1.00  0.00    -0.309 N 
HETATM   19  C7  UNL     1      18.378   9.514   3.051  1.00  0.00     0.118 C 
ATOM     20  H3  UNL     1      17.563   8.354   4.130  1.00  0.00     0.186 HD
BRANCH  19  21
HETATM   21  C8  UNL     1      18.546  10.629   2.128  1.00  0.00    -0.014 A 
HETATM   22  C9  UNL     1      19.323  11.725   2.491  1.00  0.00     0.052 A 
HETATM   23  C10 UNL     1      19.476  12.757   1.627  1.00  0.00     0.104 A 
HETATM   24  C12 UNL     1      18.867  12.719   0.404  1.00  0.00     0.132 A 
HETATM   25  C13 UNL     1      18.100  11.671   0.008  1.00  0.00     0.139 A 
HETATM   26  C14 UNL     1      17.936  10.597   0.894  1.00  0.00     0.052 A 
BRANCH  23  27
HETATM   27  O5  UNL     1      20.230  13.863   1.931  1.00  0.00    -0.353 OA
HETATM   28  C11 UNL     1      19.782  14.924   2.753  1.00  0.00     0.210 C 
ENDBRANCH  23  27
BRANCH  24  29
HETATM   29  O6  UNL     1      19.017  13.777  -0.494  1.00  0.00    -0.356 OA
ATOM     30  H6  UNL     1      18.371  14.472  -0.531  1.00  0.00     0.218 HD
ENDBRANCH  24  29
BRANCH  25  31
HETATM   31  N4  UNL     1      17.449  11.596  -1.258  1.00  0.00    -0.113 N 
HETATM   32  O7  UNL     1      18.124  11.457  -2.286  1.00  0.00    -0.532 OA
HETATM   33  O8  UNL     1      16.079  11.677  -1.335  1.00  0.00    -0.532 OA
ENDBRANCH  25  31
ENDBRANCH  19  21
ENDBRANCH   1  18
TORSDOF 9
ENDMDL
