MODEL 1
REMARK VINA RESULT: -7.971872349      0.000      0.000
REMARK  10 active torsions:
REMARK  status: ('A' for Active; 'I' for Inactive)
REMARK    1  A    between atoms: O1_2  and  N1_3 
REMARK    2  A    between atoms: C2_5  and  C3_6 
REMARK    3  A    between atoms: C4_8  and  C5_9 
REMARK    4  A    between atoms: C6_10  and  C7_11 
REMARK    5  A    between atoms: C7_11  and  N2_12 
REMARK    6  A    between atoms: C12_18  and  O4_19 
REMARK    7  A    between atoms: C14_22  and  O5_23 
REMARK    8  A    between atoms: C15_26  and  C16_27 
REMARK    9  A    between atoms: C18_30  and  O8_31 
REMARK   10  A    between atoms: C21_34  and  O9_35 
ROOT
HETATM    1  C5  UNL     1      15.597  10.180   2.530  1.00  0.00     0.043 A 
HETATM    2  C6  UNL     1      16.919  10.213   2.196  1.00  0.00     0.009 A 
HETATM    3  C12 UNL     1      17.315  10.392   0.868  1.00  0.00     0.090 A 
HETATM    4  C13 UNL     1      16.385  10.543  -0.119  1.00  0.00     0.072 A 
HETATM    5  C14 UNL     1      16.456  10.762  -1.484  1.00  0.00     0.198 A 
HETATM    6  O6  UNL     1      15.254  10.862  -1.942  1.00  0.00    -0.283 OA
HETATM    7  C15 UNL     1      14.338  10.727  -0.974  1.00  0.00     0.130 A 
HETATM    8  C17 UNL     1      15.008  10.516   0.188  1.00  0.00     0.053 A 
HETATM    9  C18 UNL     1      14.668  10.331   1.482  1.00  0.00     0.096 A 
ENDROOT
BRANCH   1  10
HETATM   10  C4  UNL     1      15.088  10.008   3.889  1.00  0.00     0.092 A 
HETATM   11  O2  UNL     1      14.853   8.803   4.424  1.00  0.00    -0.305 OA
HETATM   12  C3  UNL     1      14.403   8.876   5.656  1.00  0.00     0.126 A 
HETATM   13  C21 UNL     1      14.322  10.172   5.994  1.00  0.00     0.103 A 
HETATM   14  C20 UNL     1      14.766  10.884   4.847  1.00  0.00     0.077 A 
BRANCH  12  15
HETATM   15  C2  UNL     1      14.062   7.725   6.484  1.00  0.00     0.154 C 
HETATM   16  N1  UNL     1      14.307   7.570   7.659  1.00  0.00    -0.276 N 
ATOM     17  H1  UNL     1      13.936   6.664   7.944  1.00  0.00     0.193 HD
BRANCH  16  18
HETATM   18  O1  UNL     1      14.871   8.126   8.710  1.00  0.00    -0.286 OA
HETATM   19  C1  UNL     1      14.197   8.994   9.624  1.00  0.00     0.237 C 
ENDBRANCH  16  18
ENDBRANCH  12  15
BRANCH  13  20
HETATM   20  O9  UNL     1      13.907  10.740   7.171  1.00  0.00    -0.358 OA
ATOM     21  H9  UNL     1      13.802  11.657   7.393  1.00  0.00     0.217 HD
ENDBRANCH  13  20
ENDBRANCH   1  10
BRANCH   2  22
HETATM   22  C7  UNL     1      17.960  10.009   3.191  1.00  0.00     0.159 C 
BRANCH  22  23
HETATM   23  N2  UNL     1      18.608   8.749   3.204  1.00  0.00    -0.404 N 
HETATM   24  C8  UNL     1      20.046   8.776   3.366  1.00  0.00     0.143 C 
HETATM   25  C9  UNL     1      20.315   8.642   4.872  1.00  0.00     0.187 C 
HETATM   26  O3  UNL     1      19.176   8.907   5.625  1.00  0.00    -0.388 OA
HETATM   27  C10 UNL     1      18.183   7.954   5.416  1.00  0.00     0.187 C 
HETATM   28  C11 UNL     1      17.944   7.725   3.930  1.00  0.00     0.143 C 
ENDBRANCH  22  23
ENDBRANCH   2  22
BRANCH   9  29
HETATM   29  O8  UNL     1      13.309  10.256   1.862  1.00  0.00    -0.354 OA
HETATM   30  C19 UNL     1      12.728   8.904   1.785  1.00  0.00     0.210 C 
ENDBRANCH   9  29
BRANCH   3  31
HETATM   31  O4  UNL     1      18.629  10.414   0.500  1.00  0.00    -0.359 OA
ATOM     32  H4  UNL     1      18.958  11.012  -0.162  1.00  0.00     0.217 HD
ENDBRANCH   3  31
BRANCH   7  33
HETATM   33  C16 UNL     1      12.918  10.818  -1.238  1.00  0.00     0.296 C 
HETATM   34  O7  UNL     1      12.228  10.156  -1.990  1.00  0.00    -0.299 OA
ENDBRANCH   7  33
BRANCH   5  35
HETATM   35  O5  UNL     1      17.654  10.852  -2.213  1.00  0.00    -0.340 OA
ATOM     36  H5  UNL     1      18.338  11.490  -2.045  1.00  0.00     0.220 HD
ENDBRANCH   5  35
TORSDOF 10
ENDMDL
MODEL 2
REMARK VINA RESULT: -7.402114222      1.153      1.402
REMARK  10 active torsions:
REMARK  status: ('A' for Active; 'I' for Inactive)
REMARK    1  A    between atoms: O1_2  and  N1_3 
REMARK    2  A    between atoms: C2_5  and  C3_6 
REMARK    3  A    between atoms: C4_8  and  C5_9 
REMARK    4  A    between atoms: C6_10  and  C7_11 
REMARK    5  A    between atoms: C7_11  and  N2_12 
REMARK    6  A    between atoms: C12_18  and  O4_19 
REMARK    7  A    between atoms: C14_22  and  O5_23 
REMARK    8  A    between atoms: C15_26  and  C16_27 
REMARK    9  A    between atoms: C18_30  and  O8_31 
REMARK   10  A    between atoms: C21_34  and  O9_35 
ROOT
HETATM    1  C5  UNL     1      16.104   9.873   2.806  1.00  0.00     0.043 A 
HETATM    2  C6  UNL     1      17.406   9.965   2.410  1.00  0.00     0.009 A 
HETATM    3  C12 UNL     1      17.728  10.295   1.091  1.00  0.00     0.090 A 
HETATM    4  C13 UNL     1      16.746  10.537   0.176  1.00  0.00     0.072 A 
HETATM    5  C14 UNL     1      16.742  10.905  -1.158  1.00  0.00     0.198 A 
HETATM    6  O6  UNL     1      15.517  11.035  -1.540  1.00  0.00    -0.283 OA
HETATM    7  C15 UNL     1      14.655  10.779  -0.547  1.00  0.00     0.130 A 
HETATM    8  C17 UNL     1      15.387  10.454   0.549  1.00  0.00     0.053 A 
HETATM    9  C18 UNL     1      15.119  10.123   1.830  1.00  0.00     0.096 A 
ENDROOT
BRANCH   1  10
HETATM   10  C4  UNL     1      15.669   9.545   4.162  1.00  0.00     0.092 A 
HETATM   11  O2  UNL     1      14.859  10.339   4.872  1.00  0.00    -0.305 OA
HETATM   12  C3  UNL     1      14.591   9.854   6.064  1.00  0.00     0.126 A 
HETATM   13  C21 UNL     1      15.234   8.682   6.190  1.00  0.00     0.103 A 
HETATM   14  C20 UNL     1      15.921   8.500   4.959  1.00  0.00     0.077 A 
BRANCH  12  15
HETATM   15  C2  UNL     1      13.738  10.504   7.052  1.00  0.00     0.154 C 
HETATM   16  N1  UNL     1      13.884  10.509   8.254  1.00  0.00    -0.276 N 
ATOM     17  H1  UNL     1      13.123  11.051   8.662  1.00  0.00     0.193 HD
BRANCH  16  18
HETATM   18  O1  UNL     1      14.651  10.081   9.234  1.00  0.00    -0.286 OA
HETATM   19  C1  UNL     1      14.958  10.836  10.407  1.00  0.00     0.237 C 
ENDBRANCH  16  18
ENDBRANCH  12  15
BRANCH  13  20
HETATM   20  O9  UNL     1      15.259   7.814   7.251  1.00  0.00    -0.358 OA
ATOM     21  H9  UNL     1      15.231   6.864   7.253  1.00  0.00     0.217 HD
ENDBRANCH  13  20
ENDBRANCH   1  10
BRANCH   2  22
HETATM   22  C7  UNL     1      18.500   9.671   3.321  1.00  0.00     0.159 C 
BRANCH  22  23
HETATM   23  N2  UNL     1      19.046   8.363   3.282  1.00  0.00    -0.404 N 
HETATM   24  C8  UNL     1      20.431   8.266   2.871  1.00  0.00     0.143 C 
HETATM   25  C9  UNL     1      21.266   8.297   4.160  1.00  0.00     0.187 C 
HETATM   26  O3  UNL     1      20.530   8.769   5.241  1.00  0.00    -0.388 OA
HETATM   27  C10 UNL     1      19.495   7.903   5.581  1.00  0.00     0.187 C 
HETATM   28  C11 UNL     1      18.678   7.512   4.357  1.00  0.00     0.143 C 
ENDBRANCH  22  23
ENDBRANCH   2  22
BRANCH   9  29
HETATM   29  O8  UNL     1      13.782   9.983   2.269  1.00  0.00    -0.354 OA
HETATM   30  C19 UNL     1      13.215   8.638   2.076  1.00  0.00     0.210 C 
ENDBRANCH   9  29
BRANCH   3  31
HETATM   31  O4  UNL     1      19.021  10.379   0.660  1.00  0.00    -0.359 OA
ATOM     32  H4  UNL     1      19.438  11.213   0.475  1.00  0.00     0.217 HD
ENDBRANCH   3  31
BRANCH   7  33
HETATM   33  C16 UNL     1      13.222  10.874  -0.726  1.00  0.00     0.296 C 
HETATM   34  O7  UNL     1      12.532  10.500  -1.656  1.00  0.00    -0.299 OA
ENDBRANCH   7  33
BRANCH   5  35
HETATM   35  O5  UNL     1      17.898  11.094  -1.934  1.00  0.00    -0.340 OA
ATOM     36  H5  UNL     1      18.598  11.699  -1.715  1.00  0.00     0.220 HD
ENDBRANCH   5  35
TORSDOF 10
ENDMDL
MODEL 3
REMARK VINA RESULT: -7.182320130      2.425      7.624
REMARK  10 active torsions:
REMARK  status: ('A' for Active; 'I' for Inactive)
REMARK    1  A    between atoms: O1_2  and  N1_3 
REMARK    2  A    between atoms: C2_5  and  C3_6 
REMARK    3  A    between atoms: C4_8  and  C5_9 
REMARK    4  A    between atoms: C6_10  and  C7_11 
REMARK    5  A    between atoms: C7_11  and  N2_12 
REMARK    6  A    between atoms: C12_18  and  O4_19 
REMARK    7  A    between atoms: C14_22  and  O5_23 
REMARK    8  A    between atoms: C15_26  and  C16_27 
REMARK    9  A    between atoms: C18_30  and  O8_31 
REMARK   10  A    between atoms: C21_34  and  O9_35 
ROOT
HETATM    1  C5  UNL     1      18.408   9.608   2.670  1.00  0.00     0.043 A 
HETATM    2  C6  UNL     1      17.461   9.348   3.618  1.00  0.00     0.009 A 
HETATM    3  C12 UNL     1      17.704   8.418   4.631  1.00  0.00     0.090 A 
HETATM    4  C13 UNL     1      18.896   7.756   4.697  1.00  0.00     0.072 A 
HETATM    5  C14 UNL     1      19.436   6.826   5.568  1.00  0.00     0.198 A 
HETATM    6  O6  UNL     1      20.633   6.550   5.177  1.00  0.00    -0.283 OA
HETATM    7  C15 UNL     1      20.969   7.235   4.075  1.00  0.00     0.130 A 
HETATM    8  C17 UNL     1      19.900   8.000   3.735  1.00  0.00     0.053 A 
HETATM    9  C18 UNL     1      19.622   8.899   2.767  1.00  0.00     0.096 A 
ENDROOT
BRANCH   1  10
HETATM   10  C4  UNL     1      18.250  10.569   1.580  1.00  0.00     0.092 A 
HETATM   11  O2  UNL     1      17.769  10.224   0.380  1.00  0.00    -0.305 OA
HETATM   12  C3  UNL     1      17.707  11.240  -0.451  1.00  0.00     0.126 A 
HETATM   13  C21 UNL     1      18.157  12.330   0.190  1.00  0.00     0.103 A 
HETATM   14  C20 UNL     1      18.501  11.879   1.493  1.00  0.00     0.077 A 
BRANCH  12  15
HETATM   15  C2  UNL     1      17.225  11.160  -1.825  1.00  0.00     0.154 C 
HETATM   16  N1  UNL     1      16.412  10.381  -2.270  1.00  0.00    -0.276 N 
ATOM     17  H1  UNL     1      16.290  10.585  -3.262  1.00  0.00     0.193 HD
BRANCH  16  18
HETATM   18  O1  UNL     1      15.625   9.373  -1.962  1.00  0.00    -0.286 OA
HETATM   19  C1  UNL     1      14.298   9.201  -2.464  1.00  0.00     0.237 C 
ENDBRANCH  16  18
ENDBRANCH  12  15
BRANCH  13  20
HETATM   20  O9  UNL     1      18.281  13.617  -0.265  1.00  0.00    -0.358 OA
ATOM     21  H9  UNL     1      18.039  14.432   0.159  1.00  0.00     0.217 HD
ENDBRANCH  13  20
ENDBRANCH   1  10
BRANCH   2  22
HETATM   22  C7  UNL     1      16.154   9.981   3.579  1.00  0.00     0.159 C 
BRANCH  22  23
HETATM   23  N2  UNL     1      15.047   9.165   3.235  1.00  0.00    -0.404 N 
HETATM   24  C8  UNL     1      13.793   9.492   3.881  1.00  0.00     0.143 C 
HETATM   25  C9  UNL     1      13.054  10.447   2.931  1.00  0.00     0.187 C 
HETATM   26  O3  UNL     1      13.909  10.990   1.978  1.00  0.00    -0.388 OA
HETATM   27  C10 UNL     1      14.394  10.021   1.104  1.00  0.00     0.187 C 
HETATM   28  C11 UNL     1      14.941   8.820   1.862  1.00  0.00     0.143 C 
ENDBRANCH  22  23
ENDBRANCH   2  22
BRANCH   9  29
HETATM   29  O8  UNL     1      20.563   9.169   1.747  1.00  0.00    -0.354 OA
HETATM   30  C19 UNL     1      20.803   8.045   0.826  1.00  0.00     0.210 C 
ENDBRANCH   9  29
BRANCH   3  31
HETATM   31  O4  UNL     1      16.772   8.124   5.585  1.00  0.00    -0.359 OA
ATOM     32  H4  UNL     1      16.140   8.766   5.886  1.00  0.00     0.217 HD
ENDBRANCH   3  31
BRANCH   7  33
HETATM   33  C16 UNL     1      22.270   7.107   3.455  1.00  0.00     0.296 C 
HETATM   34  O7  UNL     1      22.822   6.116   3.013  1.00  0.00    -0.299 OA
ENDBRANCH   7  33
BRANCH   5  35
HETATM   35  O5  UNL     1      18.761   6.296   6.681  1.00  0.00    -0.340 OA
ATOM     36  H5  UNL     1      18.176   5.547   6.648  1.00  0.00     0.220 HD
ENDBRANCH   5  35
TORSDOF 10
ENDMDL
MODEL 4
REMARK VINA RESULT: -7.036748793      1.936      5.398
REMARK  10 active torsions:
REMARK  status: ('A' for Active; 'I' for Inactive)
REMARK    1  A    between atoms: O1_2  and  N1_3 
REMARK    2  A    between atoms: C2_5  and  C3_6 
REMARK    3  A    between atoms: C4_8  and  C5_9 
REMARK    4  A    between atoms: C6_10  and  C7_11 
REMARK    5  A    between atoms: C7_11  and  N2_12 
REMARK    6  A    between atoms: C12_18  and  O4_19 
REMARK    7  A    between atoms: C14_22  and  O5_23 
REMARK    8  A    between atoms: C15_26  and  C16_27 
REMARK    9  A    between atoms: C18_30  and  O8_31 
REMARK   10  A    between atoms: C21_34  and  O9_35 
ROOT
HETATM    1  C5  UNL     1      16.473   9.037   3.549  1.00  0.00     0.043 A 
HETATM    2  C6  UNL     1      15.237   9.024   4.127  1.00  0.00     0.009 A 
HETATM    3  C12 UNL     1      14.126   9.527   3.446  1.00  0.00     0.090 A 
HETATM    4  C13 UNL     1      14.255  10.037   2.186  1.00  0.00     0.072 A 
HETATM    5  C14 UNL     1      13.368  10.566   1.266  1.00  0.00     0.198 A 
HETATM    6  O6  UNL     1      14.024  10.872   0.199  1.00  0.00    -0.283 OA
HETATM    7  C15 UNL     1      15.328  10.586   0.315  1.00  0.00     0.130 A 
HETATM    8  C17 UNL     1      15.517  10.066   1.555  1.00  0.00     0.053 A 
HETATM    9  C18 UNL     1      16.566   9.579   2.252  1.00  0.00     0.096 A 
ENDROOT
BRANCH   1  10
HETATM   10  C4  UNL     1      17.689   8.525   4.177  1.00  0.00     0.092 A 
HETATM   11  O2  UNL     1      18.200   7.323   3.885  1.00  0.00    -0.305 OA
HETATM   12  C3  UNL     1      19.297   7.063   4.560  1.00  0.00     0.126 A 
HETATM   13  C21 UNL     1      19.561   8.117   5.348  1.00  0.00     0.103 A 
HETATM   14  C20 UNL     1      18.518   9.046   5.088  1.00  0.00     0.077 A 
BRANCH  12  15
HETATM   15  C2  UNL     1      20.068   5.830   4.447  1.00  0.00     0.154 C 
HETATM   16  N1  UNL     1      21.273   5.716   4.476  1.00  0.00    -0.276 N 
ATOM     17  H1  UNL     1      21.499   4.727   4.373  1.00  0.00     0.193 HD
BRANCH  16  18
HETATM   18  O1  UNL     1      22.402   6.382   4.591  1.00  0.00    -0.286 OA
HETATM   19  C1  UNL     1      22.961   7.206   3.567  1.00  0.00     0.237 C 
ENDBRANCH  16  18
ENDBRANCH  12  15
BRANCH  13  20
HETATM   20  O9  UNL     1      20.595   8.307   6.229  1.00  0.00    -0.358 OA
ATOM     21  H9  UNL     1      21.137   9.075   6.365  1.00  0.00     0.217 HD
ENDBRANCH  13  20
ENDBRANCH   1  10
BRANCH   2  22
HETATM   22  C7  UNL     1      15.037   8.541   5.483  1.00  0.00     0.159 C 
BRANCH  22  23
HETATM   23  N2  UNL     1      15.250   9.462   6.539  1.00  0.00    -0.404 N 
HETATM   24  C8  UNL     1      14.200  10.435   6.754  1.00  0.00     0.143 C 
HETATM   25  C9  UNL     1      13.263   9.834   7.813  1.00  0.00     0.187 C 
HETATM   26  O3  UNL     1      13.463   8.466   7.961  1.00  0.00    -0.388 OA
HETATM   27  C10 UNL     1      14.721   8.180   8.482  1.00  0.00     0.187 C 
HETATM   28  C11 UNL     1      15.814   8.919   7.724  1.00  0.00     0.143 C 
ENDBRANCH  22  23
ENDBRANCH   2  22
BRANCH   9  29
HETATM   29  O8  UNL     1      17.868   9.608   1.701  1.00  0.00    -0.354 OA
HETATM   30  C19 UNL     1      18.570  10.892   1.865  1.00  0.00     0.210 C 
ENDBRANCH   9  29
BRANCH   3  31
HETATM   31  O4  UNL     1      12.879   9.542   4.003  1.00  0.00    -0.359 OA
ATOM     32  H4  UNL     1      12.115   9.836   3.521  1.00  0.00     0.217 HD
ENDBRANCH   3  31
BRANCH   7  33
HETATM   33  C16 UNL     1      16.269  10.823  -0.758  1.00  0.00     0.296 C 
HETATM   34  O7  UNL     1      16.605  10.089  -1.669  1.00  0.00    -0.299 OA
ENDBRANCH   7  33
BRANCH   5  35
HETATM   35  O5  UNL     1      11.991  10.729   1.492  1.00  0.00    -0.340 OA
ATOM     36  H5  UNL     1      11.598  11.503   1.881  1.00  0.00     0.220 HD
ENDBRANCH   5  35
TORSDOF 10
ENDMDL
MODEL 5
REMARK VINA RESULT: -7.033561305      2.101      5.467
REMARK  10 active torsions:
REMARK  status: ('A' for Active; 'I' for Inactive)
REMARK    1  A    between atoms: O1_2  and  N1_3 
REMARK    2  A    between atoms: C2_5  and  C3_6 
REMARK    3  A    between atoms: C4_8  and  C5_9 
REMARK    4  A    between atoms: C6_10  and  C7_11 
REMARK    5  A    between atoms: C7_11  and  N2_12 
REMARK    6  A    between atoms: C12_18  and  O4_19 
REMARK    7  A    between atoms: C14_22  and  O5_23 
REMARK    8  A    between atoms: C15_26  and  C16_27 
REMARK    9  A    between atoms: C18_30  and  O8_31 
REMARK   10  A    between atoms: C21_34  and  O9_35 
ROOT
HETATM    1  C5  UNL     1      16.494   8.930   3.908  1.00  0.00     0.043 A 
HETATM    2  C6  UNL     1      15.310   8.865   4.583  1.00  0.00     0.009 A 
HETATM    3  C12 UNL     1      14.128   9.320   3.994  1.00  0.00     0.090 A 
HETATM    4  C13 UNL     1      14.134   9.833   2.729  1.00  0.00     0.072 A 
HETATM    5  C14 UNL     1      13.155  10.324   1.883  1.00  0.00     0.198 A 
HETATM    6  O6  UNL     1      13.711  10.656   0.768  1.00  0.00    -0.283 OA
HETATM    7  C15 UNL     1      15.031  10.425   0.780  1.00  0.00     0.130 A 
HETATM    8  C17 UNL     1      15.340   9.915   1.999  1.00  0.00     0.053 A 
HETATM    9  C18 UNL     1      16.461   9.474   2.609  1.00  0.00     0.096 A 
ENDROOT
BRANCH   1  10
HETATM   10  C4  UNL     1      17.777   8.471   4.436  1.00  0.00     0.092 A 
HETATM   11  O2  UNL     1      18.406   7.388   3.963  1.00  0.00    -0.305 OA
HETATM   12  C3  UNL     1      19.545   7.156   4.576  1.00  0.00     0.126 A 
HETATM   13  C21 UNL     1      19.719   8.109   5.505  1.00  0.00     0.103 A 
HETATM   14  C20 UNL     1      18.574   8.944   5.400  1.00  0.00     0.077 A 
BRANCH  12  15
HETATM   15  C2  UNL     1      20.440   6.046   4.271  1.00  0.00     0.154 C 
HETATM   16  N1  UNL     1      20.128   4.927   3.931  1.00  0.00    -0.276 N 
ATOM     17  H1  UNL     1      20.982   4.388   3.792  1.00  0.00     0.193 HD
BRANCH  16  18
HETATM   18  O1  UNL     1      19.105   4.141   3.672  1.00  0.00    -0.286 OA
HETATM   19  C1  UNL     1      19.194   2.912   2.949  1.00  0.00     0.237 C 
ENDBRANCH  16  18
ENDBRANCH  12  15
BRANCH  13  20
HETATM   20  O9  UNL     1      20.753   8.283   6.389  1.00  0.00    -0.358 OA
ATOM     21  H9  UNL     1      21.634   8.600   6.230  1.00  0.00     0.217 HD
ENDBRANCH  13  20
ENDBRANCH   1  10
BRANCH   2  22
HETATM   22  C7  UNL     1      15.241   8.375   5.949  1.00  0.00     0.159 C 
BRANCH  22  23
HETATM   23  N2  UNL     1      15.460   9.314   6.988  1.00  0.00    -0.404 N 
HETATM   24  C8  UNL     1      14.740  10.565   6.875  1.00  0.00     0.143 C 
HETATM   25  C9  UNL     1      13.435  10.386   7.664  1.00  0.00     0.187 C 
HETATM   26  O3  UNL     1      13.162   9.045   7.912  1.00  0.00    -0.388 OA
HETATM   27  C10 UNL     1      14.103   8.474   8.764  1.00  0.00     0.187 C 
HETATM   28  C11 UNL     1      15.521   8.775   8.300  1.00  0.00     0.143 C 
ENDBRANCH  22  23
ENDBRANCH   2  22
BRANCH   9  29
HETATM   29  O8  UNL     1      17.712   9.558   1.955  1.00  0.00    -0.354 OA
HETATM   30  C19 UNL     1      18.412  10.840   2.143  1.00  0.00     0.210 C 
ENDBRANCH   9  29
BRANCH   3  31
HETATM   31  O4  UNL     1      12.931   9.282   4.648  1.00  0.00    -0.359 OA
ATOM     32  H4  UNL     1      12.162   8.871   4.270  1.00  0.00     0.217 HD
ENDBRANCH   3  31
BRANCH   7  33
HETATM   33  C16 UNL     1      15.872  10.702  -0.365  1.00  0.00     0.296 C 
HETATM   34  O7  UNL     1      16.489  11.713  -0.644  1.00  0.00    -0.299 OA
ENDBRANCH   7  33
BRANCH   5  35
HETATM   35  O5  UNL     1      11.795  10.428   2.220  1.00  0.00    -0.340 OA
ATOM     36  H5  UNL     1      11.364  11.237   2.472  1.00  0.00     0.220 HD
ENDBRANCH   5  35
TORSDOF 10
ENDMDL
