MODEL 1
REMARK VINA RESULT: -9.214535958      0.000      0.000
REMARK  12 active torsions:
REMARK  status: ('A' for Active; 'I' for Inactive)
REMARK    1  A    between atoms: C2_2  and  O1_3 
REMARK    2  A    between atoms: O1_3  and  C3_4 
REMARK    3  A    between atoms: C3_4  and  O3_6 
REMARK    4  A    between atoms: O3_6  and  N1_7 
REMARK    5  A    between atoms: C4_9  and  N2_10 
REMARK    6  A    between atoms: C4_9  and  C16_28 
REMARK    7  A    between atoms: N2_10  and  C5_12 
REMARK    8  A    between atoms: C6_14  and  C7_15 
REMARK    9  A    between atoms: C12_22  and  C13_23 
REMARK   10  A    between atoms: C13_23  and  O7_25 
REMARK   11  A    between atoms: O7_25  and  C14_26 
REMARK   12  A    between atoms: C17_34  and  N5_35 
ROOT
HETATM    1  N1  UNL     1      16.136   9.909   0.868  1.00  0.00    -0.237 N 
ATOM      2  H1  UNL     1      15.936   8.909   0.851  1.00  0.00     0.197 HD
HETATM    3  C4  UNL     1      17.026  10.287   1.680  1.00  0.00     0.159 C 
ENDROOT
BRANCH   3   4
HETATM    4  N2  UNL     1      17.674   9.297   2.497  1.00  0.00    -0.333 N 
ATOM      5  H2  UNL     1      18.437   8.739   2.115  1.00  0.00     0.168 HD
BRANCH   4   6
HETATM    6  C5  UNL     1      17.245   9.097   3.844  1.00  0.00     0.092 A 
HETATM    7  S1  UNL     1      15.646   9.452   4.409  1.00  0.00    -0.073 SA
HETATM    8  C6  UNL     1      15.825   8.996   6.027  1.00  0.00     0.017 A 
HETATM    9  C11 UNL     1      17.123   8.574   6.100  1.00  0.00     0.037 A 
HETATM   10  C12 UNL     1      17.859   8.628   4.964  1.00  0.00     0.074 A 
BRANCH   8  11
HETATM   11  C7  UNL     1      14.812   9.032   7.146  1.00  0.00     0.185 C 
HETATM   12  C8  UNL     1      13.994  10.271   7.005  1.00  0.00     0.205 C 
HETATM   13  O4  UNL     1      12.991  10.261   7.971  1.00  0.00    -0.386 OA
HETATM   14  C9  UNL     1      13.523  10.156   9.233  1.00  0.00     0.193 C 
HETATM   15  C10 UNL     1      15.010   9.937   9.260  1.00  0.00     0.195 C 
HETATM   16  O5  UNL     1      15.415   8.938   8.376  1.00  0.00    -0.376 OA
ENDBRANCH   8  11
BRANCH  10  17
HETATM   17  C13 UNL     1      19.290   8.196   4.914  1.00  0.00     0.296 C 
HETATM   18  O6  UNL     1      20.216   8.930   4.554  1.00  0.00    -0.259 OA
BRANCH  17  19
HETATM   19  O7  UNL     1      19.638   6.896   5.287  1.00  0.00    -0.318 OA
BRANCH  19  20
HETATM   20  C14 UNL     1      20.204   6.004   4.338  1.00  0.00     0.174 C 
HETATM   21  C15 UNL     1      19.418   4.714   4.269  1.00  0.00     0.034 C 
ENDBRANCH  19  20
ENDBRANCH  17  19
ENDBRANCH  10  17
ENDBRANCH   4   6
ENDBRANCH   3   4
BRANCH   3  22
HETATM   22  C16 UNL     1      17.398  11.670   1.833  1.00  0.00     0.147 A 
HETATM   23  N3  UNL     1      16.900  12.461   2.838  1.00  0.00    -0.234 N 
HETATM   24  O8  UNL     1      17.401  13.627   2.695  1.00  0.00    -0.155 OA
ATOM     25  H3  UNL     1      16.248  12.171   3.566  1.00  0.00     0.197 HD
HETATM   26  N4  UNL     1      18.192  13.707   1.694  1.00  0.00    -0.224 N 
HETATM   27  C17 UNL     1      18.224  12.495   1.114  1.00  0.00     0.154 A 
ATOM     28  H4  UNL     1      18.703  14.536   1.392  1.00  0.00     0.198 HD
BRANCH  27  29
HETATM   29  N5  UNL     1      18.888  12.225   0.074  1.00  0.00    -0.382 N 
ATOM     30  H52 UNL     1      19.079  11.277  -0.254  1.00  0.00     0.157 HD
ATOM     31  H51 UNL     1      19.346  12.871  -0.570  1.00  0.00     0.157 HD
ENDBRANCH  27  29
ENDBRANCH   3  22
BRANCH   1  32
HETATM   32  O3  UNL     1      15.414  10.683   0.012  1.00  0.00    -0.173 OA
BRANCH  32  33
HETATM   33  C3  UNL     1      15.660  10.740  -1.360  1.00  0.00     0.428 C 
HETATM   34  O2  UNL     1      16.844  10.731  -1.768  1.00  0.00    -0.227 OA
BRANCH  33  35
HETATM   35  O1  UNL     1      14.643  10.807  -2.299  1.00  0.00    -0.297 OA
BRANCH  35  36
HETATM   36  C2  UNL     1      14.365   9.755  -3.203  1.00  0.00     0.177 C 
HETATM   37  C1  UNL     1      14.881  10.023  -4.577  1.00  0.00     0.034 C 
ENDBRANCH  35  36
ENDBRANCH  33  35
ENDBRANCH  32  33
ENDBRANCH   1  32
TORSDOF 12
ENDMDL
MODEL 2
REMARK VINA RESULT: -9.028885338      0.949      1.217
REMARK  12 active torsions:
REMARK  status: ('A' for Active; 'I' for Inactive)
REMARK    1  A    between atoms: C2_2  and  O1_3 
REMARK    2  A    between atoms: O1_3  and  C3_4 
REMARK    3  A    between atoms: C3_4  and  O3_6 
REMARK    4  A    between atoms: O3_6  and  N1_7 
REMARK    5  A    between atoms: C4_9  and  N2_10 
REMARK    6  A    between atoms: C4_9  and  C16_28 
REMARK    7  A    between atoms: N2_10  and  C5_12 
REMARK    8  A    between atoms: C6_14  and  C7_15 
REMARK    9  A    between atoms: C12_22  and  C13_23 
REMARK   10  A    between atoms: C13_23  and  O7_25 
REMARK   11  A    between atoms: O7_25  and  C14_26 
REMARK   12  A    between atoms: C17_34  and  N5_35 
ROOT
HETATM    1  N1  UNL     1      16.077   9.932   0.705  1.00  0.00    -0.237 N 
ATOM      2  H1  UNL     1      15.845   8.939   0.664  1.00  0.00     0.197 HD
HETATM    3  C4  UNL     1      16.963  10.266   1.541  1.00  0.00     0.159 C 
ENDROOT
BRANCH   3   4
HETATM    4  N2  UNL     1      17.562   9.240   2.350  1.00  0.00    -0.333 N 
ATOM      5  H2  UNL     1      18.250   8.606   1.945  1.00  0.00     0.168 HD
BRANCH   4   6
HETATM    6  C5  UNL     1      17.191   9.110   3.723  1.00  0.00     0.092 A 
HETATM    7  S1  UNL     1      15.564   9.261   4.299  1.00  0.00    -0.073 SA
HETATM    8  C6  UNL     1      15.838   9.004   5.948  1.00  0.00     0.017 A 
HETATM    9  C11 UNL     1      17.188   8.805   6.022  1.00  0.00     0.037 A 
HETATM   10  C12 UNL     1      17.889   8.860   4.864  1.00  0.00     0.074 A 
BRANCH   8  11
HETATM   11  C7  UNL     1      14.849   8.991   7.089  1.00  0.00     0.185 C 
HETATM   12  C8  UNL     1      13.999  10.213   6.993  1.00  0.00     0.205 C 
HETATM   13  O4  UNL     1      13.018  10.157   7.980  1.00  0.00    -0.386 OA
HETATM   14  C9  UNL     1      13.580  10.036   9.227  1.00  0.00     0.193 C 
HETATM   15  C10 UNL     1      15.071   9.852   9.218  1.00  0.00     0.195 C 
HETATM   16  O5  UNL     1      15.480   8.883   8.303  1.00  0.00    -0.376 OA
ENDBRANCH   8  11
BRANCH  10  17
HETATM   17  C13 UNL     1      19.370   8.660   4.812  1.00  0.00     0.296 C 
HETATM   18  O6  UNL     1      20.062   8.907   3.819  1.00  0.00    -0.259 OA
BRANCH  17  19
HETATM   19  O7  UNL     1      20.045   8.167   5.931  1.00  0.00    -0.318 OA
BRANCH  19  20
HETATM   20  C14 UNL     1      21.465   8.171   5.972  1.00  0.00     0.174 C 
HETATM   21  C15 UNL     1      21.971   8.949   7.167  1.00  0.00     0.034 C 
ENDBRANCH  19  20
ENDBRANCH  17  19
ENDBRANCH  10  17
ENDBRANCH   4   6
ENDBRANCH   3   4
BRANCH   3  22
HETATM   22  C16 UNL     1      17.376  11.632   1.729  1.00  0.00     0.147 A 
HETATM   23  N3  UNL     1      16.890  12.417   2.745  1.00  0.00    -0.234 N 
HETATM   24  O8  UNL     1      17.429  13.569   2.633  1.00  0.00    -0.155 OA
ATOM     25  H3  UNL     1      16.220  12.132   3.459  1.00  0.00     0.197 HD
HETATM   26  N4  UNL     1      18.233  13.646   1.644  1.00  0.00    -0.224 N 
HETATM   27  C17 UNL     1      18.235  12.447   1.038  1.00  0.00     0.154 A 
ATOM     28  H4  UNL     1      18.774  14.465   1.366  1.00  0.00     0.198 HD
BRANCH  27  29
HETATM   29  N5  UNL     1      18.904  12.178  -0.000  1.00  0.00    -0.382 N 
ATOM     30  H52 UNL     1      19.008  11.240  -0.387  1.00  0.00     0.157 HD
ATOM     31  H51 UNL     1      19.447  12.814  -0.584  1.00  0.00     0.157 HD
ENDBRANCH  27  29
ENDBRANCH   3  22
BRANCH   1  32
HETATM   32  O3  UNL     1      15.397  10.746  -0.149  1.00  0.00    -0.173 OA
BRANCH  32  33
HETATM   33  C3  UNL     1      15.613  10.760  -1.527  1.00  0.00     0.428 C 
HETATM   34  O2  UNL     1      16.787  10.700  -1.960  1.00  0.00    -0.227 OA
BRANCH  33  35
HETATM   35  O1  UNL     1      14.578  10.838  -2.445  1.00  0.00    -0.297 OA
BRANCH  35  36
HETATM   36  C2  UNL     1      14.043   9.700  -3.095  1.00  0.00     0.177 C 
HETATM   37  C1  UNL     1      14.333   9.682  -4.558  1.00  0.00     0.034 C 
ENDBRANCH  35  36
ENDBRANCH  33  35
ENDBRANCH  32  33
ENDBRANCH   1  32
TORSDOF 12
ENDMDL
MODEL 3
REMARK VINA RESULT: -9.011545574      1.270      1.401
REMARK  12 active torsions:
REMARK  status: ('A' for Active; 'I' for Inactive)
REMARK    1  A    between atoms: C2_2  and  O1_3 
REMARK    2  A    between atoms: O1_3  and  C3_4 
REMARK    3  A    between atoms: C3_4  and  O3_6 
REMARK    4  A    between atoms: O3_6  and  N1_7 
REMARK    5  A    between atoms: C4_9  and  N2_10 
REMARK    6  A    between atoms: C4_9  and  C16_28 
REMARK    7  A    between atoms: N2_10  and  C5_12 
REMARK    8  A    between atoms: C6_14  and  C7_15 
REMARK    9  A    between atoms: C12_22  and  C13_23 
REMARK   10  A    between atoms: C13_23  and  O7_25 
REMARK   11  A    between atoms: O7_25  and  C14_26 
REMARK   12  A    between atoms: C17_34  and  N5_35 
ROOT
HETATM    1  N1  UNL     1      15.275   9.751   0.926  1.00  0.00    -0.237 N 
ATOM      2  H1  UNL     1      15.052   8.798   0.640  1.00  0.00     0.197 HD
HETATM    3  C4  UNL     1      15.690   9.898   2.110  1.00  0.00     0.159 C 
ENDROOT
BRANCH   3   4
HETATM    4  N2  UNL     1      15.814   8.732   2.941  1.00  0.00    -0.333 N 
ATOM      5  H2  UNL     1      15.922   7.811   2.517  1.00  0.00     0.168 HD
BRANCH   4   6
HETATM    6  C5  UNL     1      15.784   8.866   4.363  1.00  0.00     0.092 A 
HETATM    7  S1  UNL     1      14.339   9.156   5.273  1.00  0.00    -0.073 SA
HETATM    8  C6  UNL     1      15.005   9.203   6.826  1.00  0.00     0.017 A 
HETATM    9  C11 UNL     1      16.338   8.992   6.611  1.00  0.00     0.037 A 
HETATM   10  C12 UNL     1      16.741   8.817   5.330  1.00  0.00     0.074 A 
BRANCH   8  11
HETATM   11  C7  UNL     1      14.317   9.422   8.153  1.00  0.00     0.185 C 
HETATM   12  C8  UNL     1      13.468  10.643   8.051  1.00  0.00     0.205 C 
HETATM   13  O4  UNL     1      12.751  10.794   9.235  1.00  0.00    -0.386 OA
HETATM   14  C9  UNL     1      13.595  10.862  10.316  1.00  0.00     0.193 C 
HETATM   15  C10 UNL     1      15.041  10.620   9.988  1.00  0.00     0.195 C 
HETATM   16  O5  UNL     1      15.221   9.495   9.184  1.00  0.00    -0.376 OA
ENDBRANCH   8  11
BRANCH  10  17
HETATM   17  C13 UNL     1      18.171   8.579   4.963  1.00  0.00     0.296 C 
HETATM   18  O6  UNL     1      18.782   9.238   4.117  1.00  0.00    -0.259 OA
BRANCH  17  19
HETATM   19  O7  UNL     1      18.890   7.561   5.594  1.00  0.00    -0.318 OA
BRANCH  19  20
HETATM   20  C14 UNL     1      19.974   6.929   4.927  1.00  0.00     0.174 C 
HETATM   21  C15 UNL     1      19.574   5.564   4.413  1.00  0.00     0.034 C 
ENDBRANCH  19  20
ENDBRANCH  17  19
ENDBRANCH  10  17
ENDBRANCH   4   6
ENDBRANCH   3   4
BRANCH   3  22
HETATM   22  C16 UNL     1      16.020  11.187   2.662  1.00  0.00     0.147 A 
HETATM   23  N3  UNL     1      15.100  11.967   3.316  1.00  0.00    -0.234 N 
HETATM   24  O8  UNL     1      15.688  13.044   3.668  1.00  0.00    -0.155 OA
ATOM     25  H3  UNL     1      14.123  11.730   3.489  1.00  0.00     0.197 HD
HETATM   26  N4  UNL     1      16.917  13.074   3.319  1.00  0.00    -0.224 N 
HETATM   27  C17 UNL     1      17.177  11.922   2.678  1.00  0.00     0.154 A 
ATOM     28  H4  UNL     1      17.578  13.831   3.495  1.00  0.00     0.198 HD
BRANCH  27  29
HETATM   29  N5  UNL     1      18.297  11.629   2.171  1.00  0.00    -0.382 N 
ATOM     30  H52 UNL     1      18.645  12.011   1.291  1.00  0.00     0.157 HD
ATOM     31  H51 UNL     1      18.999  10.977   2.522  1.00  0.00     0.157 HD
ENDBRANCH  27  29
ENDBRANCH   3  22
BRANCH   1  32
HETATM   32  O3  UNL     1      15.093  10.721  -0.012  1.00  0.00    -0.173 OA
BRANCH  32  33
HETATM   33  C3  UNL     1      16.040  11.027  -0.989  1.00  0.00     0.428 C 
HETATM   34  O2  UNL     1      16.976  11.810  -0.707  1.00  0.00    -0.227 OA
BRANCH  33  35
HETATM   35  O1  UNL     1      15.990  10.499  -2.269  1.00  0.00    -0.297 OA
BRANCH  35  36
HETATM   36  C2  UNL     1      14.776  10.296  -2.968  1.00  0.00     0.177 C 
HETATM   37  C1  UNL     1      14.985   9.760  -4.344  1.00  0.00     0.034 C 
ENDBRANCH  35  36
ENDBRANCH  33  35
ENDBRANCH  32  33
ENDBRANCH   1  32
TORSDOF 12
ENDMDL
MODEL 4
REMARK VINA RESULT: -8.929421042      0.967      1.224
REMARK  12 active torsions:
REMARK  status: ('A' for Active; 'I' for Inactive)
REMARK    1  A    between atoms: C2_2  and  O1_3 
REMARK    2  A    between atoms: O1_3  and  C3_4 
REMARK    3  A    between atoms: C3_4  and  O3_6 
REMARK    4  A    between atoms: O3_6  and  N1_7 
REMARK    5  A    between atoms: C4_9  and  N2_10 
REMARK    6  A    between atoms: C4_9  and  C16_28 
REMARK    7  A    between atoms: N2_10  and  C5_12 
REMARK    8  A    between atoms: C6_14  and  C7_15 
REMARK    9  A    between atoms: C12_22  and  C13_23 
REMARK   10  A    between atoms: C13_23  and  O7_25 
REMARK   11  A    between atoms: O7_25  and  C14_26 
REMARK   12  A    between atoms: C17_34  and  N5_35 
ROOT
HETATM    1  N1  UNL     1      15.805   9.958   0.904  1.00  0.00    -0.237 N 
ATOM      2  H1  UNL     1      15.514   8.982   0.966  1.00  0.00     0.197 HD
HETATM    3  C4  UNL     1      16.875  10.261   1.502  1.00  0.00     0.159 C 
ENDROOT
BRANCH   3   4
HETATM    4  N2  UNL     1      17.584   9.227   2.206  1.00  0.00    -0.333 N 
ATOM      5  H2  UNL     1      18.240   8.627   1.707  1.00  0.00     0.168 HD
BRANCH   4   6
HETATM    6  C5  UNL     1      17.365   9.041   3.605  1.00  0.00     0.092 A 
HETATM    7  S1  UNL     1      16.038   9.739   4.473  1.00  0.00    -0.073 SA
HETATM    8  C6  UNL     1      16.380   9.136   6.015  1.00  0.00     0.017 A 
HETATM    9  C11 UNL     1      17.518   8.403   5.829  1.00  0.00     0.037 A 
HETATM   10  C12 UNL     1      18.028   8.355   4.575  1.00  0.00     0.074 A 
BRANCH   8  11
HETATM   11  C7  UNL     1      15.626   9.341   7.308  1.00  0.00     0.185 C 
HETATM   12  C8  UNL     1      15.323   8.005   7.897  1.00  0.00     0.205 C 
HETATM   13  O4  UNL     1      14.719   8.186   9.138  1.00  0.00    -0.386 OA
HETATM   14  C9  UNL     1      13.585   8.952   9.027  1.00  0.00     0.193 C 
HETATM   15  C10 UNL     1      13.352   9.516   7.654  1.00  0.00     0.195 C 
HETATM   16  O5  UNL     1      14.498  10.101   7.119  1.00  0.00    -0.376 OA
ENDBRANCH   8  11
BRANCH  10  17
HETATM   17  C13 UNL     1      19.268   7.588   4.241  1.00  0.00     0.296 C 
HETATM   18  O6  UNL     1      20.103   7.960   3.412  1.00  0.00    -0.259 OA
BRANCH  17  19
HETATM   19  O7  UNL     1      19.530   6.376   4.885  1.00  0.00    -0.318 OA
BRANCH  19  20
HETATM   20  C14 UNL     1      20.234   5.343   4.210  1.00  0.00     0.174 C 
HETATM   21  C15 UNL     1      19.365   4.116   4.040  1.00  0.00     0.034 C 
ENDBRANCH  19  20
ENDBRANCH  17  19
ENDBRANCH  10  17
ENDBRANCH   4   6
ENDBRANCH   3   4
BRANCH   3  22
HETATM   22  C16 UNL     1      17.398  11.603   1.524  1.00  0.00     0.147 A 
HETATM   23  N3  UNL     1      17.134  12.481   2.546  1.00  0.00    -0.234 N 
HETATM   24  O8  UNL     1      17.718  13.582   2.268  1.00  0.00    -0.155 OA
ATOM     25  H3  UNL     1      16.573  12.289   3.375  1.00  0.00     0.197 HD
HETATM   26  N4  UNL     1      18.354  13.540   1.160  1.00  0.00    -0.224 N 
HETATM   27  C17 UNL     1      18.182  12.309   0.649  1.00  0.00     0.154 A 
ATOM     28  H4  UNL     1      18.891  14.299   0.742  1.00  0.00     0.198 HD
BRANCH  27  29
HETATM   29  N5  UNL     1      18.654  11.930  -0.460  1.00  0.00    -0.382 N 
ATOM     30  H52 UNL     1      18.125  11.409  -1.160  1.00  0.00     0.157 HD
ATOM     31  H51 UNL     1      19.602  12.050  -0.818  1.00  0.00     0.157 HD
ENDBRANCH  27  29
ENDBRANCH   3  22
BRANCH   1  32
HETATM   32  O3  UNL     1      14.996  10.785   0.186  1.00  0.00    -0.173 OA
BRANCH  32  33
HETATM   33  C3  UNL     1      14.972  10.808  -1.208  1.00  0.00     0.428 C 
HETATM   34  O2  UNL     1      16.039  10.630  -1.839  1.00  0.00    -0.227 OA
BRANCH  33  35
HETATM   35  O1  UNL     1      13.810  11.023  -1.932  1.00  0.00    -0.297 OA
BRANCH  35  36
HETATM   36  C2  UNL     1      12.847  10.010  -2.152  1.00  0.00     0.177 C 
HETATM   37  C1  UNL     1      12.840   9.516  -3.560  1.00  0.00     0.034 C 
ENDBRANCH  35  36
ENDBRANCH  33  35
ENDBRANCH  32  33
ENDBRANCH   1  32
TORSDOF 12
ENDMDL
MODEL 5
REMARK VINA RESULT: -8.886197412      2.132      5.339
REMARK  12 active torsions:
REMARK  status: ('A' for Active; 'I' for Inactive)
REMARK    1  A    between atoms: C2_2  and  O1_3 
REMARK    2  A    between atoms: O1_3  and  C3_4 
REMARK    3  A    between atoms: C3_4  and  O3_6 
REMARK    4  A    between atoms: O3_6  and  N1_7 
REMARK    5  A    between atoms: C4_9  and  N2_10 
REMARK    6  A    between atoms: C4_9  and  C16_28 
REMARK    7  A    between atoms: N2_10  and  C5_12 
REMARK    8  A    between atoms: C6_14  and  C7_15 
REMARK    9  A    between atoms: C12_22  and  C13_23 
REMARK   10  A    between atoms: C13_23  and  O7_25 
REMARK   11  A    between atoms: O7_25  and  C14_26 
REMARK   12  A    between atoms: C17_34  and  N5_35 
ROOT
HETATM    1  N1  UNL     1      17.184   9.536   2.527  1.00  0.00    -0.237 N 
ATOM      2  H1  UNL     1      16.633   9.155   3.297  1.00  0.00     0.197 HD
HETATM    3  C4  UNL     1      16.613  10.399   1.803  1.00  0.00     0.159 C 
ENDROOT
BRANCH   3   4
HETATM    4  N2  UNL     1      15.260  10.770   2.118  1.00  0.00    -0.333 N 
ATOM      5  H2  UNL     1      14.798  11.511   1.592  1.00  0.00     0.168 HD
BRANCH   4   6
HETATM    6  C5  UNL     1      14.566  10.099   3.171  1.00  0.00     0.092 A 
HETATM    7  S1  UNL     1      14.699  10.535   4.842  1.00  0.00    -0.073 SA
HETATM    8  C6  UNL     1      13.657   9.379   5.504  1.00  0.00     0.017 A 
HETATM    9  C11 UNL     1      13.224   8.675   4.415  1.00  0.00     0.037 A 
HETATM   10  C12 UNL     1      13.698   9.052   3.203  1.00  0.00     0.074 A 
BRANCH   8  11
HETATM   11  C7  UNL     1      13.276   9.153   6.948  1.00  0.00     0.185 C 
HETATM   12  C8  UNL     1      13.565  10.399   7.715  1.00  0.00     0.205 C 
HETATM   13  O4  UNL     1      13.122  10.235   9.024  1.00  0.00    -0.386 OA
HETATM   14  C9  UNL     1      13.710   9.141   9.610  1.00  0.00     0.193 C 
HETATM   15  C10 UNL     1      14.556   8.321   8.678  1.00  0.00     0.195 C 
HETATM   16  O5  UNL     1      13.911   8.054   7.472  1.00  0.00    -0.376 OA
ENDBRANCH   8  11
BRANCH  10  17
HETATM   17  C13 UNL     1      13.301   8.363   1.937  1.00  0.00     0.296 C 
HETATM   18  O6  UNL     1      13.341   7.139   1.779  1.00  0.00    -0.259 OA
BRANCH  17  19
HETATM   19  O7  UNL     1      12.855   9.115   0.847  1.00  0.00    -0.318 OA
BRANCH  19  20
HETATM   20  C14 UNL     1      13.635   9.194  -0.338  1.00  0.00     0.174 C 
HETATM   21  C15 UNL     1      13.217  10.376  -1.184  1.00  0.00     0.034 C 
ENDBRANCH  19  20
ENDBRANCH  17  19
ENDBRANCH  10  17
ENDBRANCH   4   6
ENDBRANCH   3   4
BRANCH   3  22
HETATM   22  C16 UNL     1      17.256  11.005   0.666  1.00  0.00     0.147 A 
HETATM   23  N3  UNL     1      16.974  10.634  -0.625  1.00  0.00    -0.234 N 
HETATM   24  O8  UNL     1      17.711  11.335  -1.397  1.00  0.00    -0.155 OA
ATOM     25  H3  UNL     1      16.298   9.928  -0.916  1.00  0.00     0.197 HD
HETATM   26  N4  UNL     1      18.466  12.146  -0.760  1.00  0.00    -0.224 N 
HETATM   27  C17 UNL     1      18.217  11.976   0.550  1.00  0.00     0.154 A 
ATOM     28  H4  UNL     1      19.132  12.800  -1.169  1.00  0.00     0.198 HD
BRANCH  27  29
HETATM   29  N5  UNL     1      18.812  12.602   1.472  1.00  0.00    -0.382 N 
ATOM     30  H52 UNL     1      19.181  12.164   2.316  1.00  0.00     0.157 HD
ATOM     31  H51 UNL     1      18.994  13.603   1.540  1.00  0.00     0.157 HD
ENDBRANCH  27  29
ENDBRANCH   3  22
BRANCH   1  32
HETATM   32  O3  UNL     1      18.451   9.055   2.396  1.00  0.00    -0.173 OA
BRANCH  32  33
HETATM   33  C3  UNL     1      19.497   9.416   3.246  1.00  0.00     0.428 C 
HETATM   34  O2  UNL     1      19.603  10.610   3.608  1.00  0.00    -0.227 OA
BRANCH  33  35
HETATM   35  O1  UNL     1      20.431   8.504   3.710  1.00  0.00    -0.297 OA
BRANCH  35  36
HETATM   36  C2  UNL     1      20.504   8.105   5.066  1.00  0.00     0.177 C 
HETATM   37  C1  UNL     1      19.410   7.166   5.451  1.00  0.00     0.034 C 
ENDBRANCH  35  36
ENDBRANCH  33  35
ENDBRANCH  32  33
ENDBRANCH   1  32
TORSDOF 12
ENDMDL
