MODEL 1
REMARK VINA RESULT: -8.300132866      0.000      0.000
REMARK  11 active torsions:
REMARK  status: ('A' for Active; 'I' for Inactive)
REMARK    1  A    between atoms: O1_2  and  N1_3 
REMARK    2  A    between atoms: C2_5  and  O2_6 
REMARK    3  A    between atoms: C2_5  and  C9_21 
REMARK    4  A    between atoms: O2_6  and  C3_7 
REMARK    5  A    between atoms: C3_7  and  C4_8 
REMARK    6  A    between atoms: C6_12  and  N3_13 
REMARK    7  A    between atoms: C7_18  and  O3_19 
REMARK    8  A    between atoms: C10_22  and  O4_23 
REMARK    9  A    between atoms: C13_28  and  O6_29 
REMARK   10  A    between atoms: C15_31  and  C16_32 
REMARK   11  A    between atoms: C16_32  and  O8_34 
ROOT
HETATM    1  N1  UNL     1      15.935  11.247   3.737  1.00  0.00    -0.245 N 
ATOM      2  H1  UNL     1      15.115  11.332   3.136  1.00  0.00     0.196 HD
HETATM    3  C2  UNL     1      17.056  11.112   3.174  1.00  0.00     0.176 C 
ENDROOT
BRANCH   3   4
HETATM    4  O2  UNL     1      18.143  10.997   3.965  1.00  0.00    -0.329 OA
BRANCH   4   5
HETATM    5  C3  UNL     1      19.282  10.283   3.752  1.00  0.00     0.222 C 
BRANCH   5   6
HETATM    6  C4  UNL     1      19.314   8.850   4.041  1.00  0.00     0.033 A 
HETATM    7  C5  UNL     1      18.599   8.309   5.068  1.00  0.00     0.119 A 
HETATM    8  N2  UNL     1      18.653   6.960   5.274  1.00  0.00    -0.201 N 
HETATM    9  C6  UNL     1      19.386   6.187   4.492  1.00  0.00     0.677 A 
ATOM     10  H2  UNL     1      18.122   6.545   6.040  1.00  0.00     0.183 HD
HETATM   11  N4  UNL     1      20.087   6.718   3.484  1.00  0.00    -0.170 N 
HETATM   12  C7  UNL     1      20.085   8.024   3.220  1.00  0.00     0.166 A 
ATOM     13  H4  UNL     1      20.646   6.100   2.895  1.00  0.00     0.186 HD
BRANCH   9  14
HETATM   14  N3  UNL     1      19.401   4.919   4.731  1.00  0.00    -0.234 N 
ATOM     15  H32 UNL     1      18.552   4.413   4.985  1.00  0.00     0.174 HD
ATOM     16  H31 UNL     1      20.292   4.427   4.662  1.00  0.00     0.174 HD
ENDBRANCH   9  14
BRANCH  12  17
HETATM   17  O3  UNL     1      20.814   8.539   2.180  1.00  0.00    -0.340 OA
HETATM   18  C8  UNL     1      21.614   7.787   1.314  1.00  0.00     0.211 C 
ENDBRANCH  12  17
ENDBRANCH   5   6
ENDBRANCH   4   5
ENDBRANCH   3   4
BRANCH   3  19
HETATM   19  C9  UNL     1      17.082  11.091   1.676  1.00  0.00     0.057 A 
HETATM   20  C10 UNL     1      18.004  11.852   0.983  1.00  0.00     0.083 A 
HETATM   21  C11 UNL     1      18.011  11.834  -0.426  1.00  0.00     0.075 A 
HETATM   22  C12 UNL     1      17.103  11.062  -1.072  1.00  0.00     0.093 A 
HETATM   23  O5  UNL     1      16.962  10.925  -2.392  1.00  0.00    -0.286 OA
HETATM   24  C18 UNL     1      16.168  10.289  -0.405  1.00  0.00     0.026 A 
HETATM   25  C13 UNL     1      16.002  10.118  -2.651  1.00  0.00     0.203 A 
HETATM   26  C15 UNL     1      15.461   9.682  -1.416  1.00  0.00     0.111 A 
HETATM   27  C19 UNL     1      16.170  10.312   0.978  1.00  0.00    -0.030 A 
HETATM   28  C20 UNL     1      15.197   9.492   1.710  1.00  0.00     0.050 C 
BRANCH  20  29
HETATM   29  O4  UNL     1      18.944  12.649   1.547  1.00  0.00    -0.360 OA
ATOM     30  H4  UNL     1      19.880  12.582   1.401  1.00  0.00     0.217 HD
ENDBRANCH  20  29
BRANCH  25  31
HETATM   31  O6  UNL     1      15.503   9.683  -3.893  1.00  0.00    -0.335 OA
HETATM   32  C14 UNL     1      14.845  10.633  -4.714  1.00  0.00     0.212 C 
ENDBRANCH  25  31
BRANCH  26  33
HETATM   33  C16 UNL     1      14.355   8.775  -1.301  1.00  0.00     0.298 C 
HETATM   34  O7  UNL     1      14.490   7.523  -1.229  1.00  0.00    -0.259 OA
BRANCH  33  35
HETATM   35  O8  UNL     1      13.037   9.269  -1.256  1.00  0.00    -0.322 OA
HETATM   36  C17 UNL     1      12.769  10.654  -1.374  1.00  0.00     0.213 C 
ENDBRANCH  33  35
ENDBRANCH  26  33
ENDBRANCH   3  19
BRANCH   1  37
HETATM   37  O1  UNL     1      15.738  11.287   5.061  1.00  0.00    -0.283 OA
HETATM   38  C1  UNL     1      14.967  10.371   5.800  1.00  0.00     0.237 C 
ENDBRANCH   1  37
TORSDOF 11
ENDMDL
MODEL 2
REMARK VINA RESULT: -8.227740538      2.074      3.595
REMARK  11 active torsions:
REMARK  status: ('A' for Active; 'I' for Inactive)
REMARK    1  A    between atoms: O1_2  and  N1_3 
REMARK    2  A    between atoms: C2_5  and  O2_6 
REMARK    3  A    between atoms: C2_5  and  C9_21 
REMARK    4  A    between atoms: O2_6  and  C3_7 
REMARK    5  A    between atoms: C3_7  and  C4_8 
REMARK    6  A    between atoms: C6_12  and  N3_13 
REMARK    7  A    between atoms: C7_18  and  O3_19 
REMARK    8  A    between atoms: C10_22  and  O4_23 
REMARK    9  A    between atoms: C13_28  and  O6_29 
REMARK   10  A    between atoms: C15_31  and  C16_32 
REMARK   11  A    between atoms: C16_32  and  O8_34 
ROOT
HETATM    1  N1  UNL     1      15.706   9.539   5.495  1.00  0.00    -0.245 N 
ATOM      2  H1  UNL     1      14.919  10.186   5.452  1.00  0.00     0.196 HD
HETATM    3  C2  UNL     1      16.034   8.952   4.429  1.00  0.00     0.176 C 
ENDROOT
BRANCH   3   4
HETATM    4  O2  UNL     1      17.073   8.092   4.482  1.00  0.00    -0.329 OA
BRANCH   4   5
HETATM    5  C3  UNL     1      18.344   8.315   4.917  1.00  0.00     0.222 C 
BRANCH   5   6
HETATM    6  C4  UNL     1      19.390   7.326   4.662  1.00  0.00     0.033 A 
HETATM    7  C5  UNL     1      19.124   6.144   4.036  1.00  0.00     0.119 A 
HETATM    8  N2  UNL     1      20.148   5.271   3.807  1.00  0.00    -0.201 N 
HETATM    9  C6  UNL     1      21.380   5.562   4.184  1.00  0.00     0.677 A 
ATOM     10  H2  UNL     1      19.960   4.384   3.339  1.00  0.00     0.183 HD
HETATM   11  N4  UNL     1      21.642   6.722   4.798  1.00  0.00    -0.170 N 
HETATM   12  C7  UNL     1      20.696   7.624   5.056  1.00  0.00     0.166 A 
ATOM     13  H4  UNL     1      22.602   6.923   5.080  1.00  0.00     0.186 HD
BRANCH   9  14
HETATM   14  N3  UNL     1      22.311   4.700   3.943  1.00  0.00    -0.234 N 
ATOM     15  H32 UNL     1      22.559   4.436   2.989  1.00  0.00     0.174 HD
ATOM     16  H31 UNL     1      22.798   4.284   4.737  1.00  0.00     0.174 HD
ENDBRANCH   9  14
BRANCH  12  17
HETATM   17  O3  UNL     1      20.994   8.804   5.687  1.00  0.00    -0.340 OA
HETATM   18  C8  UNL     1      21.837   8.927   6.796  1.00  0.00     0.211 C 
ENDBRANCH  12  17
ENDBRANCH   5   6
ENDBRANCH   4   5
ENDBRANCH   3   4
BRANCH   3  19
HETATM   19  C9  UNL     1      15.243   9.259   3.195  1.00  0.00     0.057 A 
HETATM   20  C10 UNL     1      13.890   8.979   3.144  1.00  0.00     0.083 A 
HETATM   21  C11 UNL     1      13.159   9.261   1.973  1.00  0.00     0.075 A 
HETATM   22  C12 UNL     1      13.808   9.805   0.915  1.00  0.00     0.093 A 
HETATM   23  O5  UNL     1      13.281  10.134  -0.267  1.00  0.00    -0.286 OA
HETATM   24  C18 UNL     1      15.161  10.098   0.936  1.00  0.00     0.026 A 
HETATM   25  C13 UNL     1      14.185  10.622  -1.031  1.00  0.00     0.203 A 
HETATM   26  C15 UNL     1      15.405  10.622  -0.311  1.00  0.00     0.111 A 
HETATM   27  C19 UNL     1      15.870   9.819   2.091  1.00  0.00    -0.030 A 
HETATM   28  C20 UNL     1      17.304  10.130   2.144  1.00  0.00     0.050 C 
BRANCH  20  29
HETATM   29  O4  UNL     1      13.165   8.436   4.151  1.00  0.00    -0.360 OA
ATOM     30  H4  UNL     1      12.296   8.065   4.064  1.00  0.00     0.217 HD
ENDBRANCH  20  29
BRANCH  25  31
HETATM   31  O6  UNL     1      14.084  11.097  -2.353  1.00  0.00    -0.335 OA
HETATM   32  C14 UNL     1      14.060  10.144  -3.401  1.00  0.00     0.212 C 
ENDBRANCH  25  31
BRANCH  26  33
HETATM   33  C16 UNL     1      16.652  11.087  -0.847  1.00  0.00     0.298 C 
HETATM   34  O7  UNL     1      17.229  10.547  -1.830  1.00  0.00    -0.259 OA
BRANCH  33  35
HETATM   35  O8  UNL     1      17.294  12.203  -0.277  1.00  0.00    -0.322 OA
HETATM   36  C17 UNL     1      18.703  12.251  -0.147  1.00  0.00     0.213 C 
ENDBRANCH  33  35
ENDBRANCH  26  33
ENDBRANCH   3  19
BRANCH   1  37
HETATM   37  O1  UNL     1      16.309   9.377   6.680  1.00  0.00    -0.283 OA
HETATM   38  C1  UNL     1      15.681   8.948   7.865  1.00  0.00     0.237 C 
ENDBRANCH   1  37
TORSDOF 11
ENDMDL
MODEL 3
REMARK VINA RESULT: -8.054481226      1.919      3.772
REMARK  11 active torsions:
REMARK  status: ('A' for Active; 'I' for Inactive)
REMARK    1  A    between atoms: O1_2  and  N1_3 
REMARK    2  A    between atoms: C2_5  and  O2_6 
REMARK    3  A    between atoms: C2_5  and  C9_21 
REMARK    4  A    between atoms: O2_6  and  C3_7 
REMARK    5  A    between atoms: C3_7  and  C4_8 
REMARK    6  A    between atoms: C6_12  and  N3_13 
REMARK    7  A    between atoms: C7_18  and  O3_19 
REMARK    8  A    between atoms: C10_22  and  O4_23 
REMARK    9  A    between atoms: C13_28  and  O6_29 
REMARK   10  A    between atoms: C15_31  and  C16_32 
REMARK   11  A    between atoms: C16_32  and  O8_34 
ROOT
HETATM    1  N1  UNL     1      19.623   9.215   2.301  1.00  0.00    -0.245 N 
ATOM      2  H1  UNL     1      19.653   8.781   1.379  1.00  0.00     0.196 HD
HETATM    3  C2  UNL     1      18.746  10.100   2.498  1.00  0.00     0.176 C 
ENDROOT
BRANCH   3   4
HETATM    4  O2  UNL     1      18.703  10.678   3.717  1.00  0.00    -0.329 OA
BRANCH   4   5
HETATM    5  C3  UNL     1      17.622  11.128   4.411  1.00  0.00     0.222 C 
BRANCH   5   6
HETATM    6  C4  UNL     1      16.772  10.185   5.135  1.00  0.00     0.033 A 
HETATM    7  C5  UNL     1      17.286   9.090   5.764  1.00  0.00     0.119 A 
HETATM    8  N2  UNL     1      16.442   8.259   6.442  1.00  0.00    -0.201 N 
HETATM    9  C6  UNL     1      15.145   8.507   6.492  1.00  0.00     0.677 A 
ATOM     10  H2  UNL     1      16.817   7.437   6.916  1.00  0.00     0.183 HD
HETATM   11  N4  UNL     1      14.640   9.581   5.876  1.00  0.00    -0.170 N 
HETATM   12  C7  UNL     1      15.399  10.439   5.195  1.00  0.00     0.166 A 
ATOM     13  H4  UNL     1      13.635   9.751   5.928  1.00  0.00     0.186 HD
BRANCH   9  14
HETATM   14  N3  UNL     1      14.393   7.688   7.147  1.00  0.00    -0.234 N 
ATOM     15  H32 UNL     1      13.439   7.936   7.413  1.00  0.00     0.174 HD
ATOM     16  H31 UNL     1      14.777   6.777   7.398  1.00  0.00     0.174 HD
ENDBRANCH   9  14
BRANCH  12  17
HETATM   17  O3  UNL     1      14.853  11.532   4.572  1.00  0.00    -0.340 OA
HETATM   18  C8  UNL     1      14.103  11.488   3.393  1.00  0.00     0.211 C 
ENDBRANCH  12  17
ENDBRANCH   5   6
ENDBRANCH   4   5
ENDBRANCH   3   4
BRANCH   3  19
HETATM   19  C9  UNL     1      17.829  10.434   1.362  1.00  0.00     0.057 A 
HETATM   20  C10 UNL     1      18.197  11.377   0.421  1.00  0.00     0.083 A 
HETATM   21  C11 UNL     1      17.319  11.692  -0.637  1.00  0.00     0.075 A 
HETATM   22  C12 UNL     1      16.125  11.055  -0.703  1.00  0.00     0.093 A 
HETATM   23  O5  UNL     1      15.175  11.227  -1.626  1.00  0.00    -0.286 OA
HETATM   24  C18 UNL     1      15.730  10.106   0.223  1.00  0.00     0.026 A 
HETATM   25  C13 UNL     1      14.178  10.462  -1.379  1.00  0.00     0.203 A 
HETATM   26  C15 UNL     1      14.481   9.724  -0.208  1.00  0.00     0.111 A 
HETATM   27  C19 UNL     1      16.598   9.803   1.256  1.00  0.00    -0.030 A 
HETATM   28  C20 UNL     1      16.208   8.791   2.247  1.00  0.00     0.050 C 
BRANCH  20  29
HETATM   29  O4  UNL     1      19.367  12.059   0.412  1.00  0.00    -0.360 OA
ATOM     30  H4  UNL     1      19.686  12.612   1.115  1.00  0.00     0.217 HD
ENDBRANCH  20  29
BRANCH  25  31
HETATM   31  O6  UNL     1      12.967  10.311  -2.079  1.00  0.00    -0.335 OA
HETATM   32  C14 UNL     1      12.984   9.566  -3.284  1.00  0.00     0.212 C 
ENDBRANCH  25  31
BRANCH  26  33
HETATM   33  C16 UNL     1      13.594   8.767   0.389  1.00  0.00     0.298 C 
HETATM   34  O7  UNL     1      13.782   7.521   0.339  1.00  0.00    -0.259 OA
BRANCH  33  35
HETATM   35  O8  UNL     1      12.446   9.202   1.079  1.00  0.00    -0.322 OA
HETATM   36  C17 UNL     1      12.185   8.781   2.405  1.00  0.00     0.213 C 
ENDBRANCH  33  35
ENDBRANCH  26  33
ENDBRANCH   3  19
BRANCH   1  37
HETATM   37  O1  UNL     1      20.515   8.800   3.209  1.00  0.00    -0.283 OA
HETATM   38  C1  UNL     1      20.470   7.573   3.897  1.00  0.00     0.237 C 
ENDBRANCH   1  37
TORSDOF 11
ENDMDL
MODEL 4
REMARK VINA RESULT: -7.992268825      2.179      4.196
REMARK  11 active torsions:
REMARK  status: ('A' for Active; 'I' for Inactive)
REMARK    1  A    between atoms: O1_2  and  N1_3 
REMARK    2  A    between atoms: C2_5  and  O2_6 
REMARK    3  A    between atoms: C2_5  and  C9_21 
REMARK    4  A    between atoms: O2_6  and  C3_7 
REMARK    5  A    between atoms: C3_7  and  C4_8 
REMARK    6  A    between atoms: C6_12  and  N3_13 
REMARK    7  A    between atoms: C7_18  and  O3_19 
REMARK    8  A    between atoms: C10_22  and  O4_23 
REMARK    9  A    between atoms: C13_28  and  O6_29 
REMARK   10  A    between atoms: C15_31  and  C16_32 
REMARK   11  A    between atoms: C16_32  and  O8_34 
ROOT
HETATM    1  N1  UNL     1      19.428   9.552   3.478  1.00  0.00    -0.245 N 
ATOM      2  H1  UNL     1      19.926   9.542   2.588  1.00  0.00     0.196 HD
HETATM    3  C2  UNL     1      18.244   9.989   3.476  1.00  0.00     0.176 C 
ENDROOT
BRANCH   3   4
HETATM    4  O2  UNL     1      17.582  10.005   4.651  1.00  0.00    -0.329 OA
BRANCH   4   5
HETATM    5  C3  UNL     1      16.782   9.047   5.194  1.00  0.00     0.222 C 
BRANCH   5   6
HETATM    6  C4  UNL     1      15.768   9.412   6.183  1.00  0.00     0.033 A 
HETATM    7  C5  UNL     1      15.938   9.161   7.512  1.00  0.00     0.119 A 
HETATM    8  N2  UNL     1      14.965   9.545   8.388  1.00  0.00    -0.201 N 
HETATM    9  C6  UNL     1      13.871  10.151   7.959  1.00  0.00     0.677 A 
ATOM     10  H2  UNL     1      15.082   9.362   9.385  1.00  0.00     0.183 HD
HETATM   11  N4  UNL     1      13.704  10.398   6.655  1.00  0.00    -0.170 N 
HETATM   12  C7  UNL     1      14.610  10.054   5.740  1.00  0.00     0.166 A 
ATOM     13  H4  UNL     1      12.851  10.867   6.349  1.00  0.00     0.186 HD
BRANCH   9  14
HETATM   14  N3  UNL     1      12.982  10.493   8.830  1.00  0.00    -0.234 N 
ATOM     15  H32 UNL     1      12.746  11.472   8.996  1.00  0.00     0.174 HD
ATOM     16  H31 UNL     1      12.516   9.754   9.357  1.00  0.00     0.174 HD
ENDBRANCH   9  14
BRANCH  12  17
HETATM   17  O3  UNL     1      14.410  10.319   4.409  1.00  0.00    -0.340 OA
HETATM   18  C8  UNL     1      14.475  11.591   3.829  1.00  0.00     0.211 C 
ENDBRANCH  12  17
ENDBRANCH   5   6
ENDBRANCH   4   5
ENDBRANCH   3   4
BRANCH   3  19
HETATM   19  C9  UNL     1      17.677  10.450   2.169  1.00  0.00     0.057 A 
HETATM   20  C10 UNL     1      18.256  11.506   1.490  1.00  0.00     0.083 A 
HETATM   21  C11 UNL     1      17.704  11.940   0.267  1.00  0.00     0.075 A 
HETATM   22  C12 UNL     1      16.610  11.303  -0.216  1.00  0.00     0.093 A 
HETATM   23  O5  UNL     1      15.958  11.577  -1.348  1.00  0.00    -0.286 OA
HETATM   24  C18 UNL     1      16.009  10.243   0.441  1.00  0.00     0.026 A 
HETATM   25  C13 UNL     1      14.967  10.777  -1.491  1.00  0.00     0.203 A 
HETATM   26  C15 UNL     1      14.955   9.904  -0.375  1.00  0.00     0.111 A 
HETATM   27  C19 UNL     1      16.558   9.824   1.639  1.00  0.00    -0.030 A 
HETATM   28  C20 UNL     1      15.947   8.693   2.351  1.00  0.00     0.050 C 
BRANCH  20  29
HETATM   29  O4  UNL     1      19.347  12.196   1.899  1.00  0.00    -0.360 OA
ATOM     30  H4  UNL     1      20.109  12.386   1.365  1.00  0.00     0.217 HD
ENDBRANCH  20  29
BRANCH  25  31
HETATM   31  O6  UNL     1      14.015  10.701  -2.524  1.00  0.00    -0.335 OA
HETATM   32  C14 UNL     1      14.365   9.987  -3.698  1.00  0.00     0.212 C 
ENDBRANCH  25  31
BRANCH  26  33
HETATM   33  C16 UNL     1      13.979   8.872  -0.175  1.00  0.00     0.298 C 
HETATM   34  O7  UNL     1      14.147   7.677  -0.544  1.00  0.00    -0.259 OA
BRANCH  33  35
HETATM   35  O8  UNL     1      12.760   9.166   0.466  1.00  0.00    -0.322 OA
HETATM   36  C17 UNL     1      12.552   8.840   1.827  1.00  0.00     0.213 C 
ENDBRANCH  33  35
ENDBRANCH  26  33
ENDBRANCH   3  19
BRANCH   1  37
HETATM   37  O1  UNL     1      20.080   9.102   4.557  1.00  0.00    -0.283 OA
HETATM   38  C1  UNL     1      20.351   7.750   4.842  1.00  0.00     0.237 C 
ENDBRANCH   1  37
TORSDOF 11
ENDMDL
MODEL 5
REMARK VINA RESULT: -7.942997873      1.266      1.847
REMARK  11 active torsions:
REMARK  status: ('A' for Active; 'I' for Inactive)
REMARK    1  A    between atoms: O1_2  and  N1_3 
REMARK    2  A    between atoms: C2_5  and  O2_6 
REMARK    3  A    between atoms: C2_5  and  C9_21 
REMARK    4  A    between atoms: O2_6  and  C3_7 
REMARK    5  A    between atoms: C3_7  and  C4_8 
REMARK    6  A    between atoms: C6_12  and  N3_13 
REMARK    7  A    between atoms: C7_18  and  O3_19 
REMARK    8  A    between atoms: C10_22  and  O4_23 
REMARK    9  A    between atoms: C13_28  and  O6_29 
REMARK   10  A    between atoms: C15_31  and  C16_32 
REMARK   11  A    between atoms: C16_32  and  O8_34 
ROOT
HETATM    1  N1  UNL     1      15.827  11.321   3.746  1.00  0.00    -0.245 N 
ATOM      2  H1  UNL     1      15.054  11.553   3.122  1.00  0.00     0.196 HD
HETATM    3  C2  UNL     1      16.929  11.013   3.214  1.00  0.00     0.176 C 
ENDROOT
BRANCH   3   4
HETATM    4  O2  UNL     1      17.954  10.703   4.036  1.00  0.00    -0.329 OA
BRANCH   4   5
HETATM    5  C3  UNL     1      18.392   9.476   4.430  1.00  0.00     0.222 C 
BRANCH   5   6
HETATM    6  C4  UNL     1      19.470   8.813   3.699  1.00  0.00     0.033 A 
HETATM    7  C5  UNL     1      19.519   8.811   2.336  1.00  0.00     0.119 A 
HETATM    8  N2  UNL     1      20.564   8.193   1.712  1.00  0.00    -0.201 N 
HETATM    9  C6  UNL     1      21.516   7.604   2.413  1.00  0.00     0.677 A 
ATOM     10  H2  UNL     1      20.609   8.185   0.693  1.00  0.00     0.183 HD
HETATM   11  N4  UNL     1      21.469   7.606   3.750  1.00  0.00    -0.170 N 
HETATM   12  C7  UNL     1      20.483   8.188   4.431  1.00  0.00     0.166 A 
ATOM     13  H4  UNL     1      22.217   7.144   4.269  1.00  0.00     0.186 HD
BRANCH   9  14
HETATM   14  N3  UNL     1      22.481   7.034   1.772  1.00  0.00    -0.234 N 
ATOM     15  H32 UNL     1      23.273   7.569   1.413  1.00  0.00     0.174 HD
ATOM     16  H31 UNL     1      22.435   6.025   1.630  1.00  0.00     0.174 HD
ENDBRANCH   9  14
BRANCH  12  17
HETATM   17  O3  UNL     1      20.461   8.174   5.802  1.00  0.00    -0.340 OA
HETATM   18  C8  UNL     1      21.506   8.610   6.622  1.00  0.00     0.211 C 
ENDBRANCH  12  17
ENDBRANCH   5   6
ENDBRANCH   4   5
ENDBRANCH   3   4
BRANCH   3  19
HETATM   19  C9  UNL     1      17.004  11.017   1.719  1.00  0.00     0.057 A 
HETATM   20  C10 UNL     1      17.963  11.772   1.070  1.00  0.00     0.083 A 
HETATM   21  C11 UNL     1      18.015  11.778  -0.339  1.00  0.00     0.075 A 
HETATM   22  C12 UNL     1      17.114  11.036  -1.028  1.00  0.00     0.093 A 
HETATM   23  O5  UNL     1      17.014  10.924  -2.354  1.00  0.00    -0.286 OA
HETATM   24  C18 UNL     1      16.143  10.270  -0.405  1.00  0.00     0.026 A 
HETATM   25  C13 UNL     1      16.047  10.141  -2.658  1.00  0.00     0.203 A 
HETATM   26  C15 UNL     1      15.458   9.695  -1.449  1.00  0.00     0.111 A 
HETATM   27  C19 UNL     1      16.101  10.269   0.977  1.00  0.00    -0.030 A 
HETATM   28  C20 UNL     1      15.088   9.456   1.663  1.00  0.00     0.050 C 
BRANCH  20  29
HETATM   29  O4  UNL     1      18.899  12.540   1.677  1.00  0.00    -0.360 OA
ATOM     30  H4  UNL     1      19.805  12.621   1.404  1.00  0.00     0.217 HD
ENDBRANCH  20  29
BRANCH  25  31
HETATM   31  O6  UNL     1      15.581   9.738  -3.923  1.00  0.00    -0.335 OA
HETATM   32  C14 UNL     1      14.657  10.581  -4.590  1.00  0.00     0.212 C 
ENDBRANCH  25  31
BRANCH  26  33
HETATM   33  C16 UNL     1      14.332   8.808  -1.386  1.00  0.00     0.298 C 
HETATM   34  O7  UNL     1      14.439   7.558  -1.254  1.00  0.00    -0.259 OA
BRANCH  33  35
HETATM   35  O8  UNL     1      13.022   9.321  -1.467  1.00  0.00    -0.322 OA
HETATM   36  C17 UNL     1      12.771  10.709  -1.356  1.00  0.00     0.213 C 
ENDBRANCH  33  35
ENDBRANCH  26  33
ENDBRANCH   3  19
BRANCH   1  37
HETATM   37  O1  UNL     1      15.594  11.368   5.063  1.00  0.00    -0.283 OA
HETATM   38  C1  UNL     1      14.867  10.412   5.798  1.00  0.00     0.237 C 
ENDBRANCH   1  37
TORSDOF 11
ENDMDL
