MODEL 1
REMARK VINA RESULT: -9.263374970      0.000      0.000
REMARK  12 active torsions:
REMARK  status: ('A' for Active; 'I' for Inactive)
REMARK    1  A    between atoms: C3_3  and  N1_4 
REMARK    2  A    between atoms: N1_4  and  O1_5 
REMARK    3  A    between atoms: N1_4  and  O2_7 
REMARK    4  A    between atoms: C5_13  and  O4_14 
REMARK    5  A    between atoms: C6_18  and  O5_19 
REMARK    6  A    between atoms: O5_19  and  C7_20 
REMARK    7  A    between atoms: C7_20  and  C8_21 
REMARK    8  A    between atoms: C8_21  and  C9_22 
REMARK    9  A    between atoms: C9_22  and  O6_23 
REMARK   10  A    between atoms: O6_23  and  N4_24 
REMARK   11  A    between atoms: C10_26  and  C11_27 
REMARK   12  A    between atoms: C12_30  and  N6_31 
ROOT
HETATM    1  C1  UNL     1      17.139   9.947   2.153  1.00  0.00     0.054 C 
HETATM    2  C2  UNL     1      16.786  10.562   0.849  1.00  0.00     0.007 A 
HETATM    3  C3  UNL     1      17.476  11.432   0.012  1.00  0.00     0.185 A 
HETATM    4  O3  UNL     1      16.798  11.655  -1.068  1.00  0.00    -0.276 OA
HETATM    5  C4  UNL     1      15.645  10.961  -0.995  1.00  0.00     0.168 A 
HETATM    6  N2  UNL     1      14.595  10.811  -1.853  1.00  0.00    -0.301 N 
ATOM      7  H2  UNL     1      14.567  11.297  -2.749  1.00  0.00     0.171 HD
HETATM    8  C5  UNL     1      13.573   9.972  -1.456  1.00  0.00     0.225 A 
HETATM    9  N3  UNL     1      13.492   9.296  -0.350  1.00  0.00    -0.302 N 
ATOM     10  H3  UNL     1      12.698   8.690  -0.145  1.00  0.00     0.171 HD
HETATM   11  C6  UNL     1      14.560   9.449   0.545  1.00  0.00     0.160 A 
HETATM   12  C13 UNL     1      15.581  10.257   0.193  1.00  0.00     0.076 A 
ENDROOT
BRANCH  11  13
HETATM   13  O5  UNL     1      14.587   8.812   1.755  1.00  0.00    -0.335 OA
BRANCH  13  14
HETATM   14  C7  UNL     1      13.483   8.216   2.310  1.00  0.00     0.179 C 
BRANCH  14  15
HETATM   15  C8  UNL     1      13.095   9.114   3.548  1.00  0.00     0.055 C 
BRANCH  15  16
HETATM   16  C9  UNL     1      14.401   9.212   4.384  1.00  0.00     0.203 C 
BRANCH  16  17
HETATM   17  O6  UNL     1      14.097   8.338   5.565  1.00  0.00    -0.281 OA
BRANCH  17  18
HETATM   18  N4  UNL     1      15.100   8.316   6.444  1.00  0.00    -0.274 N 
HETATM   19  C10 UNL     1      15.416   8.827   7.486  1.00  0.00     0.172 C 
ATOM     20  H4  UNL     1      15.823   7.666   6.137  1.00  0.00     0.193 HD
BRANCH  19  21
HETATM   21  C11 UNL     1      14.725   9.813   8.295  1.00  0.00     0.202 A 
HETATM   22  N5  UNL     1      15.079  10.175   9.519  1.00  0.00    -0.166 N 
HETATM   23  C12 UNL     1      14.219  11.106  10.041  1.00  0.00     0.698 A 
ATOM     24  H5  UNL     1      15.891   9.807  10.013  1.00  0.00     0.186 HD
HETATM   25  N7  UNL     1      13.323  11.324   9.101  1.00  0.00    -0.089 N 
HETATM   26  O7  UNL     1      13.643  10.529   8.053  1.00  0.00    -0.203 OA
ATOM     27  H7  UNL     1      12.536  11.970   9.153  1.00  0.00     0.213 HD
BRANCH  23  28
HETATM   28  N6  UNL     1      14.395  11.471  11.262  1.00  0.00    -0.233 N 
ATOM     29  H62 UNL     1      14.434  11.011  12.171  1.00  0.00     0.174 HD
ATOM     30  H61 UNL     1      14.635  12.446  11.439  1.00  0.00     0.174 HD
ENDBRANCH  23  28
ENDBRANCH  19  21
ENDBRANCH  17  18
ENDBRANCH  16  17
ENDBRANCH  15  16
ENDBRANCH  14  15
ENDBRANCH  13  14
ENDBRANCH  11  13
BRANCH   8  31
HETATM   31  O4  UNL     1      12.593   9.900  -2.353  1.00  0.00    -0.332 OA
ATOM     32  H4  UNL     1      12.449  10.723  -2.805  1.00  0.00     0.221 HD
ENDBRANCH   8  31
BRANCH   3  33
HETATM   33  N1  UNL     1      18.750  11.985   0.304  1.00  0.00    -0.011 NA
BRANCH  33  34
HETATM   34  O1  UNL     1      18.721  13.276  -0.001  1.00  0.00    -0.283 OA
ATOM     35  H1  UNL     1      19.492  13.475  -0.520  1.00  0.00     0.240 HD
ENDBRANCH  33  34
BRANCH  33  36
HETATM   36  O2  UNL     1      19.750  11.390  -0.395  1.00  0.00    -0.283 OA
ATOM     37  H2  UNL     1      20.564  11.348   0.095  1.00  0.00     0.240 HD
ENDBRANCH  33  36
ENDBRANCH   3  33
TORSDOF 12
ENDMDL
MODEL 2
REMARK VINA RESULT: -9.224853061      0.954      1.221
REMARK  12 active torsions:
REMARK  status: ('A' for Active; 'I' for Inactive)
REMARK    1  A    between atoms: C3_3  and  N1_4 
REMARK    2  A    between atoms: N1_4  and  O1_5 
REMARK    3  A    between atoms: N1_4  and  O2_7 
REMARK    4  A    between atoms: C5_13  and  O4_14 
REMARK    5  A    between atoms: C6_18  and  O5_19 
REMARK    6  A    between atoms: O5_19  and  C7_20 
REMARK    7  A    between atoms: C7_20  and  C8_21 
REMARK    8  A    between atoms: C8_21  and  C9_22 
REMARK    9  A    between atoms: C9_22  and  O6_23 
REMARK   10  A    between atoms: O6_23  and  N4_24 
REMARK   11  A    between atoms: C10_26  and  C11_27 
REMARK   12  A    between atoms: C12_30  and  N6_31 
ROOT
HETATM    1  C1  UNL     1      17.170   9.980   2.208  1.00  0.00     0.054 C 
HETATM    2  C2  UNL     1      16.804  10.576   0.899  1.00  0.00     0.007 A 
HETATM    3  C3  UNL     1      17.489  11.429   0.040  1.00  0.00     0.185 A 
HETATM    4  O3  UNL     1      16.799  11.638  -1.036  1.00  0.00    -0.276 OA
HETATM    5  C4  UNL     1      15.644  10.950  -0.937  1.00  0.00     0.168 A 
HETATM    6  N2  UNL     1      14.583  10.792  -1.781  1.00  0.00    -0.301 N 
ATOM      7  H2  UNL     1      14.547  11.263  -2.684  1.00  0.00     0.171 HD
HETATM    8  C5  UNL     1      13.562   9.965  -1.358  1.00  0.00     0.225 A 
HETATM    9  N3  UNL     1      13.490   9.307  -0.240  1.00  0.00    -0.302 N 
ATOM     10  H3  UNL     1      12.696   8.708  -0.015  1.00  0.00     0.171 HD
HETATM   11  C6  UNL     1      14.570   9.469   0.640  1.00  0.00     0.160 A 
HETATM   12  C13 UNL     1      15.590  10.266   0.262  1.00  0.00     0.076 A 
ENDROOT
BRANCH  11  13
HETATM   13  O5  UNL     1      14.608   8.852   1.859  1.00  0.00    -0.335 OA
BRANCH  13  14
HETATM   14  C7  UNL     1      13.581   8.924   2.766  1.00  0.00     0.179 C 
BRANCH  14  15
HETATM   15  C8  UNL     1      14.103   9.860   3.924  1.00  0.00     0.055 C 
BRANCH  15  16
HETATM   16  C9  UNL     1      13.862   9.044   5.224  1.00  0.00     0.203 C 
BRANCH  16  17
HETATM   17  O6  UNL     1      14.243  10.022   6.297  1.00  0.00    -0.281 OA
BRANCH  17  18
HETATM   18  N4  UNL     1      14.901   9.437   7.298  1.00  0.00    -0.274 N 
HETATM   19  C10 UNL     1      15.045   9.546   8.487  1.00  0.00     0.172 C 
ATOM     20  H4  UNL     1      15.454   8.656   6.945  1.00  0.00     0.193 HD
BRANCH  19  21
HETATM   21  C11 UNL     1      14.479  10.503   9.416  1.00  0.00     0.202 A 
HETATM   22  N5  UNL     1      13.417  11.259   9.177  1.00  0.00    -0.166 N 
HETATM   23  C12 UNL     1      13.135  12.087  10.233  1.00  0.00     0.698 A 
ATOM     24  H5  UNL     1      12.875  11.229   8.314  1.00  0.00     0.186 HD
HETATM   25  N7  UNL     1      14.046  11.818  11.144  1.00  0.00    -0.089 N 
HETATM   26  O7  UNL     1      14.854  10.860  10.631  1.00  0.00    -0.203 OA
ATOM     27  H7  UNL     1      14.129  12.250  12.064  1.00  0.00     0.213 HD
BRANCH  23  28
HETATM   28  N6  UNL     1      12.185  12.942  10.091  1.00  0.00    -0.233 N 
ATOM     29  H62 UNL     1      12.052  13.823   9.593  1.00  0.00     0.174 HD
ATOM     30  H61 UNL     1      11.275  12.715  10.490  1.00  0.00     0.174 HD
ENDBRANCH  23  28
ENDBRANCH  19  21
ENDBRANCH  17  18
ENDBRANCH  16  17
ENDBRANCH  15  16
ENDBRANCH  14  15
ENDBRANCH  13  14
ENDBRANCH  11  13
BRANCH   8  31
HETATM   31  O4  UNL     1      12.571   9.883  -2.242  1.00  0.00    -0.332 OA
ATOM     32  H4  UNL     1      12.428   8.996  -2.549  1.00  0.00     0.221 HD
ENDBRANCH   8  31
BRANCH   3  33
HETATM   33  N1  UNL     1      18.769  11.979   0.308  1.00  0.00    -0.011 NA
BRANCH  33  34
HETATM   34  O1  UNL     1      18.742  13.266  -0.014  1.00  0.00    -0.283 OA
ATOM     35  H1  UNL     1      19.613  13.623   0.117  1.00  0.00     0.240 HD
ENDBRANCH  33  34
BRANCH  33  36
HETATM   36  O2  UNL     1      19.757  11.370  -0.396  1.00  0.00    -0.283 OA
ATOM     37  H2  UNL     1      20.524  11.185   0.135  1.00  0.00     0.240 HD
ENDBRANCH  33  36
ENDBRANCH   3  33
TORSDOF 12
ENDMDL
MODEL 3
REMARK VINA RESULT: -8.803464290      1.410      1.727
REMARK  12 active torsions:
REMARK  status: ('A' for Active; 'I' for Inactive)
REMARK    1  A    between atoms: C3_3  and  N1_4 
REMARK    2  A    between atoms: N1_4  and  O1_5 
REMARK    3  A    between atoms: N1_4  and  O2_7 
REMARK    4  A    between atoms: C5_13  and  O4_14 
REMARK    5  A    between atoms: C6_18  and  O5_19 
REMARK    6  A    between atoms: O5_19  and  C7_20 
REMARK    7  A    between atoms: C7_20  and  C8_21 
REMARK    8  A    between atoms: C8_21  and  C9_22 
REMARK    9  A    between atoms: C9_22  and  O6_23 
REMARK   10  A    between atoms: O6_23  and  N4_24 
REMARK   11  A    between atoms: C10_26  and  C11_27 
REMARK   12  A    between atoms: C12_30  and  N6_31 
ROOT
HETATM    1  C1  UNL     1      17.667  10.963   3.063  1.00  0.00     0.054 C 
HETATM    2  C2  UNL     1      17.216  11.091   1.655  1.00  0.00     0.007 A 
HETATM    3  C3  UNL     1      17.772  11.731   0.553  1.00  0.00     0.185 A 
HETATM    4  O3  UNL     1      17.054  11.520  -0.504  1.00  0.00    -0.276 OA
HETATM    5  C4  UNL     1      16.005  10.750  -0.155  1.00  0.00     0.168 A 
HETATM    6  N2  UNL     1      14.971  10.212  -0.865  1.00  0.00    -0.301 N 
ATOM      7  H2  UNL     1      14.865  10.385  -1.864  1.00  0.00     0.171 HD
HETATM    8  C5  UNL     1      14.074   9.424  -0.171  1.00  0.00     0.225 A 
HETATM    9  N3  UNL     1      14.100   9.124   1.093  1.00  0.00    -0.302 N 
ATOM     10  H3  UNL     1      13.397   8.521   1.520  1.00  0.00     0.171 HD
HETATM   11  C6  UNL     1      15.152   9.678   1.836  1.00  0.00     0.160 A 
HETATM   12  C13 UNL     1      16.052  10.451   1.194  1.00  0.00     0.076 A 
ENDROOT
BRANCH  11  13
HETATM   13  O5  UNL     1      15.282   9.461   3.179  1.00  0.00    -0.335 OA
BRANCH  13  14
HETATM   14  C7  UNL     1      14.284   9.734   4.080  1.00  0.00     0.179 C 
BRANCH  14  15
HETATM   15  C8  UNL     1      15.016  10.231   5.386  1.00  0.00     0.055 C 
BRANCH  15  16
HETATM   16  C9  UNL     1      16.023   9.097   5.725  1.00  0.00     0.203 C 
BRANCH  16  17
HETATM   17  O6  UNL     1      16.210   9.260   7.205  1.00  0.00    -0.281 OA
BRANCH  17  18
HETATM   18  N4  UNL     1      15.262   8.632   7.903  1.00  0.00    -0.274 N 
HETATM   19  C10 UNL     1      14.468   8.856   8.778  1.00  0.00     0.172 C 
ATOM     20  H4  UNL     1      15.189   7.661   7.600  1.00  0.00     0.193 HD
BRANCH  19  21
HETATM   21  C11 UNL     1      14.211  10.074   9.521  1.00  0.00     0.202 A 
HETATM   22  N5  UNL     1      13.140  10.842   9.377  1.00  0.00    -0.166 N 
HETATM   23  C12 UNL     1      13.188  11.939  10.196  1.00  0.00     0.698 A 
ATOM     24  H5  UNL     1      12.373  10.640   8.735  1.00  0.00     0.186 HD
HETATM   25  N7  UNL     1      14.317  11.830  10.865  1.00  0.00    -0.089 N 
HETATM   26  O7  UNL     1      14.925  10.697  10.440  1.00  0.00    -0.203 OA
ATOM     27  H7  UNL     1      14.668  12.477  11.570  1.00  0.00     0.213 HD
BRANCH  23  28
HETATM   28  N6  UNL     1      12.254  12.816  10.084  1.00  0.00    -0.233 N 
ATOM     29  H62 UNL     1      12.154  13.815  10.264  1.00  0.00     0.174 HD
ATOM     30  H61 UNL     1      11.381  12.531   9.640  1.00  0.00     0.174 HD
ENDBRANCH  23  28
ENDBRANCH  19  21
ENDBRANCH  17  18
ENDBRANCH  16  17
ENDBRANCH  15  16
ENDBRANCH  14  15
ENDBRANCH  13  14
ENDBRANCH  11  13
BRANCH   8  31
HETATM   31  O4  UNL     1      13.099   8.955  -0.945  1.00  0.00    -0.332 OA
ATOM     32  H4  UNL     1      13.417   8.638  -1.782  1.00  0.00     0.221 HD
ENDBRANCH   8  31
BRANCH   3  33
HETATM   33  N1  UNL     1      18.966  12.497   0.588  1.00  0.00    -0.011 NA
BRANCH  33  34
HETATM   34  O1  UNL     1      18.729  13.660  -0.004  1.00  0.00    -0.283 OA
ATOM     35  H1  UNL     1      18.334  13.487  -0.851  1.00  0.00     0.240 HD
ENDBRANCH  33  34
BRANCH  33  36
HETATM   36  O2  UNL     1      19.999  11.883  -0.045  1.00  0.00    -0.283 OA
ATOM     37  H2  UNL     1      20.462  11.273   0.517  1.00  0.00     0.240 HD
ENDBRANCH  33  36
ENDBRANCH   3  33
TORSDOF 12
ENDMDL
MODEL 4
REMARK VINA RESULT: -8.767747633      1.131      1.327
REMARK  12 active torsions:
REMARK  status: ('A' for Active; 'I' for Inactive)
REMARK    1  A    between atoms: C3_3  and  N1_4 
REMARK    2  A    between atoms: N1_4  and  O1_5 
REMARK    3  A    between atoms: N1_4  and  O2_7 
REMARK    4  A    between atoms: C5_13  and  O4_14 
REMARK    5  A    between atoms: C6_18  and  O5_19 
REMARK    6  A    between atoms: O5_19  and  C7_20 
REMARK    7  A    between atoms: C7_20  and  C8_21 
REMARK    8  A    between atoms: C8_21  and  C9_22 
REMARK    9  A    between atoms: C9_22  and  O6_23 
REMARK   10  A    between atoms: O6_23  and  N4_24 
REMARK   11  A    between atoms: C10_26  and  C11_27 
REMARK   12  A    between atoms: C12_30  and  N6_31 
ROOT
HETATM    1  C1  UNL     1      16.744  10.515   2.191  1.00  0.00     0.054 C 
HETATM    2  C2  UNL     1      16.861  10.779   0.735  1.00  0.00     0.007 A 
HETATM    3  C3  UNL     1      17.813  11.462  -0.014  1.00  0.00     0.185 A 
HETATM    4  O3  UNL     1      17.539  11.379  -1.277  1.00  0.00    -0.276 OA
HETATM    5  C4  UNL     1      16.411  10.657  -1.419  1.00  0.00     0.168 A 
HETATM    6  N2  UNL     1      15.703  10.245  -2.511  1.00  0.00    -0.301 N 
ATOM      7  H2  UNL     1      15.988  10.499  -3.456  1.00  0.00     0.171 HD
HETATM    8  C5  UNL     1      14.586   9.468  -2.279  1.00  0.00     0.225 A 
HETATM    9  N3  UNL     1      14.123   9.073  -1.131  1.00  0.00    -0.302 N 
ATOM     10  H3  UNL     1      13.291   8.488  -1.057  1.00  0.00     0.171 HD
HETATM   11  C6  UNL     1      14.836   9.498  -0.001  1.00  0.00     0.160 A 
HETATM   12  C13 UNL     1      15.936  10.255  -0.184  1.00  0.00     0.076 A 
ENDROOT
BRANCH  11  13
HETATM   13  O5  UNL     1      14.442   9.172   1.267  1.00  0.00    -0.335 OA
BRANCH  13  14
HETATM   14  C7  UNL     1      13.597   8.126   1.541  1.00  0.00     0.179 C 
BRANCH  14  15
HETATM   15  C8  UNL     1      12.570   8.679   2.604  1.00  0.00     0.055 C 
BRANCH  15  16
HETATM   16  C9  UNL     1      13.430   9.545   3.565  1.00  0.00     0.203 C 
BRANCH  16  17
HETATM   17  O6  UNL     1      13.875   8.546   4.593  1.00  0.00    -0.281 OA
BRANCH  17  18
HETATM   18  N4  UNL     1      15.134   8.753   4.981  1.00  0.00    -0.274 N 
HETATM   19  C10 UNL     1      15.746   9.110   5.953  1.00  0.00     0.172 C 
ATOM     20  H4  UNL     1      15.777   8.543   4.218  1.00  0.00     0.193 HD
BRANCH  19  21
HETATM   21  C11 UNL     1      15.272   9.521   7.260  1.00  0.00     0.202 A 
HETATM   22  N5  UNL     1      14.224  10.303   7.479  1.00  0.00    -0.166 N 
HETATM   23  C12 UNL     1      14.037  10.539   8.816  1.00  0.00     0.698 A 
ATOM     24  H5  UNL     1      13.629  10.682   6.742  1.00  0.00     0.186 HD
HETATM   25  N7  UNL     1      14.993   9.873   9.428  1.00  0.00    -0.089 N 
HETATM   26  O7  UNL     1      15.734   9.266   8.471  1.00  0.00    -0.203 OA
ATOM     27  H7  UNL     1      15.147   9.823  10.434  1.00  0.00     0.213 HD
BRANCH  23  28
HETATM   28  N6  UNL     1      13.110  11.363   9.158  1.00  0.00    -0.233 N 
ATOM     29  H62 UNL     1      12.135  11.524   8.905  1.00  0.00     0.174 HD
ATOM     30  H61 UNL     1      13.301  12.004   9.927  1.00  0.00     0.174 HD
ENDBRANCH  23  28
ENDBRANCH  19  21
ENDBRANCH  17  18
ENDBRANCH  16  17
ENDBRANCH  15  16
ENDBRANCH  14  15
ENDBRANCH  13  14
ENDBRANCH  11  13
BRANCH   8  31
HETATM   31  O4  UNL     1      13.959   9.126  -3.402  1.00  0.00    -0.332 OA
ATOM     32  H4  UNL     1      14.027   9.792  -4.076  1.00  0.00     0.221 HD
ENDBRANCH   8  31
BRANCH   3  33
HETATM   33  N1  UNL     1      18.931  12.141   0.536  1.00  0.00    -0.011 NA
BRANCH  33  34
HETATM   34  O1  UNL     1      18.735  13.445   0.390  1.00  0.00    -0.283 OA
ATOM     35  H1  UNL     1      19.342  13.901   0.962  1.00  0.00     0.240 HD
ENDBRANCH  33  34
BRANCH  33  36
HETATM   36  O2  UNL     1      20.098  11.801  -0.069  1.00  0.00    -0.283 OA
ATOM     37  H2  UNL     1      20.483  12.523  -0.552  1.00  0.00     0.240 HD
ENDBRANCH  33  36
ENDBRANCH   3  33
TORSDOF 12
ENDMDL
MODEL 5
REMARK VINA RESULT: -8.758999900      3.522      7.769
REMARK  12 active torsions:
REMARK  status: ('A' for Active; 'I' for Inactive)
REMARK    1  A    between atoms: C3_3  and  N1_4 
REMARK    2  A    between atoms: N1_4  and  O1_5 
REMARK    3  A    between atoms: N1_4  and  O2_7 
REMARK    4  A    between atoms: C5_13  and  O4_14 
REMARK    5  A    between atoms: C6_18  and  O5_19 
REMARK    6  A    between atoms: O5_19  and  C7_20 
REMARK    7  A    between atoms: C7_20  and  C8_21 
REMARK    8  A    between atoms: C8_21  and  C9_22 
REMARK    9  A    between atoms: C9_22  and  O6_23 
REMARK   10  A    between atoms: O6_23  and  N4_24 
REMARK   11  A    between atoms: C10_26  and  C11_27 
REMARK   12  A    between atoms: C12_30  and  N6_31 
ROOT
HETATM    1  C1  UNL     1      17.313  11.784   2.107  1.00  0.00     0.054 C 
HETATM    2  C2  UNL     1      18.392  10.767   2.051  1.00  0.00     0.007 A 
HETATM    3  C3  UNL     1      19.612  10.738   1.385  1.00  0.00     0.185 A 
HETATM    4  O3  UNL     1      20.267   9.662   1.684  1.00  0.00    -0.276 OA
HETATM    5  C4  UNL     1      19.522   8.939   2.543  1.00  0.00     0.168 A 
HETATM    6  N2  UNL     1      19.736   7.757   3.190  1.00  0.00    -0.301 N 
ATOM      7  H2  UNL     1      20.591   7.220   3.048  1.00  0.00     0.171 HD
HETATM    8  C5  UNL     1      18.744   7.319   4.045  1.00  0.00     0.225 A 
HETATM    9  N3  UNL     1      17.618   7.908   4.314  1.00  0.00    -0.302 N 
ATOM     10  H3  UNL     1      16.945   7.513   4.972  1.00  0.00     0.171 HD
HETATM   11  C6  UNL     1      17.382   9.119   3.648  1.00  0.00     0.160 A 
HETATM   12  C13 UNL     1      18.328   9.584   2.807  1.00  0.00     0.076 A 
ENDROOT
BRANCH  11  13
HETATM   13  O5  UNL     1      16.226   9.828   3.824  1.00  0.00    -0.335 OA
BRANCH  13  14
HETATM   14  C7  UNL     1      14.989   9.238   3.880  1.00  0.00     0.179 C 
BRANCH  14  15
HETATM   15  C8  UNL     1      14.248   9.679   2.559  1.00  0.00     0.055 C 
BRANCH  15  16
HETATM   16  C9  UNL     1      14.243   8.405   1.670  1.00  0.00     0.203 C 
BRANCH  16  17
HETATM   17  O6  UNL     1      13.359   8.810   0.527  1.00  0.00    -0.281 OA
BRANCH  17  18
HETATM   18  N4  UNL     1      13.744   9.964  -0.021  1.00  0.00    -0.274 N 
HETATM   19  C10 UNL     1      13.803  10.491  -1.100  1.00  0.00     0.172 C 
ATOM     20  H4  UNL     1      14.099  10.594   0.699  1.00  0.00     0.193 HD
BRANCH  19  21
HETATM   21  C11 UNL     1      13.430   9.991  -2.409  1.00  0.00     0.202 A 
HETATM   22  N5  UNL     1      12.213   9.594  -2.754  1.00  0.00    -0.166 N 
HETATM   23  C12 UNL     1      12.173   9.148  -4.049  1.00  0.00     0.698 A 
ATOM     24  H5  UNL     1      11.406   9.617  -2.131  1.00  0.00     0.186 HD
HETATM   25  N7  UNL     1      13.399   9.288  -4.508  1.00  0.00    -0.089 N 
HETATM   26  O7  UNL     1      14.147   9.797  -3.501  1.00  0.00    -0.203 OA
ATOM     27  H7  UNL     1      13.724   9.058  -5.446  1.00  0.00     0.213 HD
BRANCH  23  28
HETATM   28  N6  UNL     1      11.071   8.643  -4.478  1.00  0.00    -0.233 N 
ATOM     29  H62 UNL     1      10.112   8.567  -4.138  1.00  0.00     0.174 HD
ATOM     30  H61 UNL     1      11.055   8.267  -5.426  1.00  0.00     0.174 HD
ENDBRANCH  23  28
ENDBRANCH  19  21
ENDBRANCH  17  18
ENDBRANCH  16  17
ENDBRANCH  15  16
ENDBRANCH  14  15
ENDBRANCH  13  14
ENDBRANCH  11  13
BRANCH   8  31
HETATM   31  O4  UNL     1      19.040   6.156   4.619  1.00  0.00    -0.332 OA
ATOM     32  H4  UNL     1      18.396   5.482   4.433  1.00  0.00     0.221 HD
ENDBRANCH   8  31
BRANCH   3  33
HETATM   33  N1  UNL     1      20.072  11.756   0.509  1.00  0.00    -0.011 NA
BRANCH  33  34
HETATM   34  O1  UNL     1      19.463  11.604  -0.659  1.00  0.00    -0.283 OA
ATOM     35  H1  UNL     1      18.609  11.218  -0.501  1.00  0.00     0.240 HD
ENDBRANCH  33  34
BRANCH  33  36
HETATM   36  O2  UNL     1      21.415  11.710   0.315  1.00  0.00    -0.283 OA
ATOM     37  H2  UNL     1      21.661  11.897  -0.584  1.00  0.00     0.240 HD
ENDBRANCH  33  36
ENDBRANCH   3  33
TORSDOF 12
ENDMDL
