MODEL 1
REMARK VINA RESULT: -7.945149840      0.000      0.000
REMARK  11 active torsions:
REMARK  status: ('A' for Active; 'I' for Inactive)
REMARK    1  A    between atoms: O1_2  and  C2_3 
REMARK    2  A    between atoms: C2_3  and  C3_5 
REMARK    3  A    between atoms: C4_6  and  C5_7 
REMARK    4  A    between atoms: C5_7  and  O3_9 
REMARK    5  A    between atoms: C7_11  and  N1_12 
REMARK       I    between atoms: N1_12  and  C8_14 
REMARK    6  A    between atoms: C8_14  and  C9_16 
REMARK    7  A    between atoms: C9_16  and  N2_17 
REMARK    8  A    between atoms: C9_16  and  C10_23 
REMARK    9  A    between atoms: N2_17  and  N3_19 
REMARK   10  A    between atoms: N3_19  and  O5_21 
REMARK   11  A    between atoms: C11_26  and  O8_27 
ROOT
HETATM    1  C3  UNL     1      15.572  10.578  -0.019  1.00  0.00     0.122 A 
HETATM    2  C4  UNL     1      15.173  10.455   1.305  1.00  0.00     0.045 A 
HETATM    3  C7  UNL     1      16.085  10.757   2.285  1.00  0.00     0.100 A 
HETATM    4  C11 UNL     1      17.375  11.185   1.952  1.00  0.00     0.173 A 
HETATM    5  N4  UNL     1      17.735  11.301   0.689  1.00  0.00    -0.297 N 
HETATM    6  C12 UNL     1      19.083  11.752   0.351  1.00  0.00     0.161 C 
HETATM    7  C13 UNL     1      16.870  11.011  -0.279  1.00  0.00     0.266 A 
HETATM    8  O9  UNL     1      17.270  11.143  -1.491  1.00  0.00    -0.267 OA
ENDROOT
BRANCH   3   9
HETATM    9  N1  UNL     1      15.714  10.478   3.614  1.00  0.00    -0.320 N 
HETATM   10  C8  UNL     1      15.932   9.324   4.389  1.00  0.00     0.257 C 
HETATM   11  O4  UNL     1      16.522   8.343   3.904  1.00  0.00    -0.270 OA
ATOM     12  H1  UNL     1      15.210  11.227   4.088  1.00  0.00     0.169 HD
BRANCH  10  13
HETATM   13  C9  UNL     1      15.459   9.285   5.794  1.00  0.00     0.293 C 
BRANCH  13  14
HETATM   14  N2  UNL     1      16.080   8.288   6.603  1.00  0.00    -0.293 N 
ATOM     15  H2  UNL     1      17.058   8.073   6.405  1.00  0.00     0.183 HD
BRANCH  14  16
HETATM   16  N3  UNL     1      15.471   7.576   7.644  1.00  0.00    -0.213 N 
ATOM     17  H3  UNL     1      15.030   6.677   7.452  1.00  0.00     0.215 HD
BRANCH  16  18
HETATM   18  O5  UNL     1      15.462   8.041   8.824  1.00  0.00    -0.275 OA
ATOM     19  H5  UNL     1      14.681   7.980   9.362  1.00  0.00     0.246 HD
ENDBRANCH  16  18
ENDBRANCH  14  16
ENDBRANCH  13  14
BRANCH  13  20
HETATM   20  C10 UNL     1      13.967   9.040   5.800  1.00  0.00     0.207 C 
HETATM   21  O6  UNL     1      13.403   8.663   4.746  1.00  0.00    -0.646 OA
HETATM   22  O7  UNL     1      13.228   9.231   6.945  1.00  0.00    -0.646 OA
ENDBRANCH  13  20
ENDBRANCH  10  13
ENDBRANCH   3   9
BRANCH   2  23
HETATM   23  C5  UNL     1      13.831   9.891   1.548  1.00  0.00     0.053 C 
HETATM   24  C6  UNL     1      13.704   8.389   1.505  1.00  0.00     0.077 C 
BRANCH  23  25
HETATM   25  O3  UNL     1      13.028  10.526   2.453  1.00  0.00    -0.364 OA
ATOM     26  H3  UNL     1      12.473   9.989   3.007  1.00  0.00     0.217 HD
ENDBRANCH  23  25
ENDBRANCH   2  23
BRANCH   4  27
HETATM   27  O8  UNL     1      18.245  11.468   3.024  1.00  0.00    -0.344 OA
ATOM     28  H8  UNL     1      18.864  12.178   2.896  1.00  0.00     0.219 HD
ENDBRANCH   4  27
BRANCH   1  29
HETATM   29  C2  UNL     1      14.683  10.274  -1.138  1.00  0.00     0.299 C 
HETATM   30  O2  UNL     1      13.981  11.301  -1.500  1.00  0.00    -0.259 OA
BRANCH  29  31
HETATM   31  O1  UNL     1      14.501   9.127  -1.798  1.00  0.00    -0.322 OA
HETATM   32  C1  UNL     1      13.839   9.105  -3.043  1.00  0.00     0.213 C 
ENDBRANCH  29  31
ENDBRANCH   1  29
TORSDOF 11
ENDMDL
MODEL 2
REMARK VINA RESULT: -7.858278158      2.606      6.937
REMARK  11 active torsions:
REMARK  status: ('A' for Active; 'I' for Inactive)
REMARK    1  A    between atoms: O1_2  and  C2_3 
REMARK    2  A    between atoms: C2_3  and  C3_5 
REMARK    3  A    between atoms: C4_6  and  C5_7 
REMARK    4  A    between atoms: C5_7  and  O3_9 
REMARK    5  A    between atoms: C7_11  and  N1_12 
REMARK       I    between atoms: N1_12  and  C8_14 
REMARK    6  A    between atoms: C8_14  and  C9_16 
REMARK    7  A    between atoms: C9_16  and  N2_17 
REMARK    8  A    between atoms: C9_16  and  C10_23 
REMARK    9  A    between atoms: N2_17  and  N3_19 
REMARK   10  A    between atoms: N3_19  and  O5_21 
REMARK   11  A    between atoms: C11_26  and  O8_27 
ROOT
HETATM    1  C3  UNL     1      16.026  10.038   2.296  1.00  0.00     0.122 A 
HETATM    2  C4  UNL     1      15.472   9.601   1.101  1.00  0.00     0.045 A 
HETATM    3  C7  UNL     1      15.995  10.087  -0.071  1.00  0.00     0.100 A 
HETATM    4  C11 UNL     1      17.063  10.991  -0.054  1.00  0.00     0.173 A 
HETATM    5  N4  UNL     1      17.581  11.392   1.091  1.00  0.00    -0.297 N 
HETATM    6  C12 UNL     1      18.698  12.334   1.099  1.00  0.00     0.161 C 
HETATM    7  C13 UNL     1      17.088  10.937   2.240  1.00  0.00     0.266 A 
HETATM    8  O9  UNL     1      17.630  11.356   3.324  1.00  0.00    -0.267 OA
ENDROOT
BRANCH   3   9
HETATM    9  N1  UNL     1      15.321   9.755  -1.261  1.00  0.00    -0.320 N 
HETATM   10  C8  UNL     1      14.331  10.462  -1.966  1.00  0.00     0.257 C 
HETATM   11  O4  UNL     1      13.913  11.552  -1.539  1.00  0.00    -0.270 OA
ATOM     12  H1  UNL     1      15.594   8.863  -1.677  1.00  0.00     0.169 HD
BRANCH  10  13
HETATM   13  C9  UNL     1      13.790   9.903  -3.228  1.00  0.00     0.293 C 
BRANCH  13  14
HETATM   14  N2  UNL     1      13.240   8.592  -3.110  1.00  0.00    -0.293 N 
ATOM     15  H2  UNL     1      13.291   8.149  -2.193  1.00  0.00     0.183 HD
BRANCH  14  16
HETATM   16  N3  UNL     1      12.636   7.857  -4.138  1.00  0.00    -0.213 N 
ATOM     17  H3  UNL     1      11.762   8.187  -4.550  1.00  0.00     0.215 HD
BRANCH  16  18
HETATM   18  O5  UNL     1      13.165   6.786  -4.562  1.00  0.00    -0.275 OA
ATOM     19  H5  UNL     1      13.782   6.804  -5.285  1.00  0.00     0.246 HD
ENDBRANCH  16  18
ENDBRANCH  14  16
ENDBRANCH  13  14
BRANCH  13  20
HETATM   20  C10 UNL     1      14.896   9.863  -4.259  1.00  0.00     0.207 C 
HETATM   21  O6  UNL     1      16.054  10.210  -3.929  1.00  0.00    -0.646 OA
HETATM   22  O7  UNL     1      14.641   9.454  -5.547  1.00  0.00    -0.646 OA
ENDBRANCH  13  20
ENDBRANCH  10  13
ENDBRANCH   3   9
BRANCH   2  23
HETATM   23  C5  UNL     1      14.280   8.735   1.195  1.00  0.00     0.053 C 
HETATM   24  C6  UNL     1      12.947   9.424   1.345  1.00  0.00     0.077 C 
BRANCH  23  25
HETATM   25  O3  UNL     1      14.270   7.582   0.461  1.00  0.00    -0.364 OA
ATOM     26  H3  UNL     1      15.096   7.130   0.336  1.00  0.00     0.217 HD
ENDBRANCH  23  25
ENDBRANCH   2  23
BRANCH   4  27
HETATM   27  O8  UNL     1      17.532  11.441  -1.304  1.00  0.00    -0.344 OA
ATOM     28  H8  UNL     1      18.359  11.909  -1.307  1.00  0.00     0.219 HD
ENDBRANCH   4  27
BRANCH   1  29
HETATM   29  C2  UNL     1      15.539   9.589   3.598  1.00  0.00     0.299 C 
HETATM   30  O2  UNL     1      16.131   8.508   3.997  1.00  0.00    -0.259 OA
BRANCH  29  31
HETATM   31  O1  UNL     1      14.599  10.117   4.388  1.00  0.00    -0.322 OA
HETATM   32  C1  UNL     1      14.845  10.334   5.759  1.00  0.00     0.213 C 
ENDBRANCH  29  31
ENDBRANCH   1  29
TORSDOF 11
ENDMDL
MODEL 3
REMARK VINA RESULT: -7.850371122      1.475      1.898
REMARK  11 active torsions:
REMARK  status: ('A' for Active; 'I' for Inactive)
REMARK    1  A    between atoms: O1_2  and  C2_3 
REMARK    2  A    between atoms: C2_3  and  C3_5 
REMARK    3  A    between atoms: C4_6  and  C5_7 
REMARK    4  A    between atoms: C5_7  and  O3_9 
REMARK    5  A    between atoms: C7_11  and  N1_12 
REMARK       I    between atoms: N1_12  and  C8_14 
REMARK    6  A    between atoms: C8_14  and  C9_16 
REMARK    7  A    between atoms: C9_16  and  N2_17 
REMARK    8  A    between atoms: C9_16  and  C10_23 
REMARK    9  A    between atoms: N2_17  and  N3_19 
REMARK   10  A    between atoms: N3_19  and  O5_21 
REMARK   11  A    between atoms: C11_26  and  O8_27 
ROOT
HETATM    1  C3  UNL     1      15.941  10.600   0.027  1.00  0.00     0.122 A 
HETATM    2  C4  UNL     1      15.421  10.160   1.236  1.00  0.00     0.045 A 
HETATM    3  C7  UNL     1      16.231  10.206   2.343  1.00  0.00     0.100 A 
HETATM    4  C11 UNL     1      17.540  10.692   2.250  1.00  0.00     0.173 A 
HETATM    5  N4  UNL     1      18.016  11.110   1.093  1.00  0.00    -0.297 N 
HETATM    6  C12 UNL     1      19.383  11.619   1.006  1.00  0.00     0.161 C 
HETATM    7  C13 UNL     1      17.251  11.073   0.006  1.00  0.00     0.266 A 
HETATM    8  O9  UNL     1      17.762  11.494  -1.093  1.00  0.00    -0.267 OA
ENDROOT
BRANCH   3   9
HETATM    9  N1  UNL     1      15.740   9.612   3.522  1.00  0.00    -0.320 N 
HETATM   10  C8  UNL     1      15.200  10.209   4.675  1.00  0.00     0.257 C 
HETATM   11  O4  UNL     1      15.117  11.446   4.763  1.00  0.00    -0.270 OA
ATOM     12  H1  UNL     1      15.783   8.593   3.542  1.00  0.00     0.169 HD
BRANCH  10  13
HETATM   13  C9  UNL     1      14.722   9.352   5.787  1.00  0.00     0.293 C 
BRANCH  13  14
HETATM   14  N2  UNL     1      13.794   9.984   6.669  1.00  0.00    -0.293 N 
ATOM     15  H2  UNL     1      12.803   9.855   6.467  1.00  0.00     0.183 HD
BRANCH  14  16
HETATM   16  N3  UNL     1      14.120  10.764   7.785  1.00  0.00    -0.213 N 
ATOM     17  H3  UNL     1      15.095  11.009   7.963  1.00  0.00     0.215 HD
BRANCH  16  18
HETATM   18  O5  UNL     1      13.216  11.170   8.575  1.00  0.00    -0.275 OA
ATOM     19  H5  UNL     1      13.441  11.519   9.430  1.00  0.00     0.246 HD
ENDBRANCH  16  18
ENDBRANCH  14  16
ENDBRANCH  13  14
BRANCH  13  20
HETATM   20  C10 UNL     1      15.913   8.897   6.599  1.00  0.00     0.207 C 
HETATM   21  O6  UNL     1      15.724   8.281   7.674  1.00  0.00    -0.646 OA
HETATM   22  O7  UNL     1      17.195   9.155   6.171  1.00  0.00    -0.646 OA
ENDBRANCH  13  20
ENDBRANCH  10  13
ENDBRANCH   3   9
BRANCH   2  23
HETATM   23  C5  UNL     1      14.070   9.565   1.205  1.00  0.00     0.053 C 
HETATM   24  C6  UNL     1      13.989   8.063   1.099  1.00  0.00     0.077 C 
BRANCH  23  25
HETATM   25  O3  UNL     1      13.095  10.157   1.956  1.00  0.00    -0.364 OA
ATOM     26  H3  UNL     1      12.669  10.928   1.601  1.00  0.00     0.217 HD
ENDBRANCH  23  25
ENDBRANCH   2  23
BRANCH   4  27
HETATM   27  O8  UNL     1      18.299  10.697   3.437  1.00  0.00    -0.344 OA
ATOM     28  H8  UNL     1      18.551  11.547   3.779  1.00  0.00     0.219 HD
ENDBRANCH   4  27
BRANCH   1  29
HETATM   29  C2  UNL     1      15.167  10.586  -1.213  1.00  0.00     0.299 C 
HETATM   30  O2  UNL     1      14.436  11.648  -1.346  1.00  0.00    -0.259 OA
BRANCH  29  31
HETATM   31  O1  UNL     1      15.110   9.661  -2.175  1.00  0.00    -0.322 OA
HETATM   32  C1  UNL     1      15.185  10.025  -3.534  1.00  0.00     0.213 C 
ENDBRANCH  29  31
ENDBRANCH   1  29
TORSDOF 11
ENDMDL
MODEL 4
REMARK VINA RESULT: -7.610217343      1.027      1.425
REMARK  11 active torsions:
REMARK  status: ('A' for Active; 'I' for Inactive)
REMARK    1  A    between atoms: O1_2  and  C2_3 
REMARK    2  A    between atoms: C2_3  and  C3_5 
REMARK    3  A    between atoms: C4_6  and  C5_7 
REMARK    4  A    between atoms: C5_7  and  O3_9 
REMARK    5  A    between atoms: C7_11  and  N1_12 
REMARK       I    between atoms: N1_12  and  C8_14 
REMARK    6  A    between atoms: C8_14  and  C9_16 
REMARK    7  A    between atoms: C9_16  and  N2_17 
REMARK    8  A    between atoms: C9_16  and  C10_23 
REMARK    9  A    between atoms: N2_17  and  N3_19 
REMARK   10  A    between atoms: N3_19  and  O5_21 
REMARK   11  A    between atoms: C11_26  and  O8_27 
ROOT
HETATM    1  C3  UNL     1      15.256  10.413  -0.273  1.00  0.00     0.122 A 
HETATM    2  C4  UNL     1      15.051  10.192   1.082  1.00  0.00     0.045 A 
HETATM    3  C7  UNL     1      16.065  10.510   1.949  1.00  0.00     0.100 A 
HETATM    4  C11 UNL     1      17.266  11.051   1.477  1.00  0.00     0.173 A 
HETATM    5  N4  UNL     1      17.441  11.259   0.186  1.00  0.00    -0.297 N 
HETATM    6  C12 UNL     1      18.698  11.826  -0.298  1.00  0.00     0.161 C 
HETATM    7  C13 UNL     1      16.474  10.955  -0.675  1.00  0.00     0.266 A 
HETATM    8  O9  UNL     1      16.696  11.180  -1.918  1.00  0.00    -0.267 OA
ENDROOT
BRANCH   3   9
HETATM    9  N1  UNL     1      15.898  10.135   3.296  1.00  0.00    -0.320 N 
HETATM   10  C8  UNL     1      15.375  10.865   4.379  1.00  0.00     0.257 C 
HETATM   11  O4  UNL     1      14.989  12.036   4.219  1.00  0.00    -0.270 OA
ATOM     12  H1  UNL     1      16.202   9.187   3.521  1.00  0.00     0.169 HD
BRANCH  10  13
HETATM   13  C9  UNL     1      15.279  10.227   5.714  1.00  0.00     0.293 C 
BRANCH  13  14
HETATM   14  N2  UNL     1      16.465   9.557   6.139  1.00  0.00    -0.293 N 
ATOM     15  H2  UNL     1      17.112  10.087   6.723  1.00  0.00     0.183 HD
BRANCH  14  16
HETATM   16  N3  UNL     1      16.821   8.239   5.829  1.00  0.00    -0.213 N 
ATOM     17  H3  UNL     1      16.802   7.525   6.559  1.00  0.00     0.215 HD
BRANCH  16  18
HETATM   18  O5  UNL     1      17.166   7.924   4.651  1.00  0.00    -0.275 OA
ATOM     19  H5  UNL     1      17.890   8.368   4.224  1.00  0.00     0.246 HD
ENDBRANCH  16  18
ENDBRANCH  14  16
ENDBRANCH  13  14
BRANCH  13  20
HETATM   20  C10 UNL     1      14.147   9.225   5.697  1.00  0.00     0.207 C 
HETATM   21  O6  UNL     1      14.051   8.424   4.738  1.00  0.00    -0.646 OA
HETATM   22  O7  UNL     1      13.226   9.188   6.719  1.00  0.00    -0.646 OA
ENDBRANCH  13  20
ENDBRANCH  10  13
ENDBRANCH   3   9
BRANCH   2  23
HETATM   23  C5  UNL     1      13.795   9.517   1.465  1.00  0.00     0.053 C 
HETATM   24  C6  UNL     1      13.810   8.009   1.489  1.00  0.00     0.077 C 
BRANCH  23  25
HETATM   25  O3  UNL     1      13.014  10.115   2.413  1.00  0.00    -0.364 OA
ATOM     26  H3  UNL     1      12.082  10.179   2.243  1.00  0.00     0.217 HD
ENDBRANCH  23  25
ENDBRANCH   2  23
BRANCH   4  27
HETATM   27  O8  UNL     1      18.252  11.342   2.440  1.00  0.00    -0.344 OA
ATOM     28  H8  UNL     1      19.078  10.879   2.359  1.00  0.00     0.219 HD
ENDBRANCH   4  27
BRANCH   1  29
HETATM   29  C2  UNL     1      14.246  10.102  -1.282  1.00  0.00     0.299 C 
HETATM   30  O2  UNL     1      13.393  11.065  -1.435  1.00  0.00    -0.259 OA
BRANCH  29  31
HETATM   31  O1  UNL     1      14.088   9.002  -2.024  1.00  0.00    -0.322 OA
HETATM   32  C1  UNL     1      13.881   9.091  -3.415  1.00  0.00     0.213 C 
ENDBRANCH  29  31
ENDBRANCH   1  29
TORSDOF 11
ENDMDL
MODEL 5
REMARK VINA RESULT: -7.586198098      2.591      6.838
REMARK  11 active torsions:
REMARK  status: ('A' for Active; 'I' for Inactive)
REMARK    1  A    between atoms: O1_2  and  C2_3 
REMARK    2  A    between atoms: C2_3  and  C3_5 
REMARK    3  A    between atoms: C4_6  and  C5_7 
REMARK    4  A    between atoms: C5_7  and  O3_9 
REMARK    5  A    between atoms: C7_11  and  N1_12 
REMARK       I    between atoms: N1_12  and  C8_14 
REMARK    6  A    between atoms: C8_14  and  C9_16 
REMARK    7  A    between atoms: C9_16  and  N2_17 
REMARK    8  A    between atoms: C9_16  and  C10_23 
REMARK    9  A    between atoms: N2_17  and  N3_19 
REMARK   10  A    between atoms: N3_19  and  O5_21 
REMARK   11  A    between atoms: C11_26  and  O8_27 
ROOT
HETATM    1  C3  UNL     1      15.996  10.318   2.680  1.00  0.00     0.122 A 
HETATM    2  C4  UNL     1      15.231  10.280   1.522  1.00  0.00     0.045 A 
HETATM    3  C7  UNL     1      15.833  10.623   0.338  1.00  0.00     0.100 A 
HETATM    4  C11 UNL     1      17.182  10.990   0.303  1.00  0.00     0.173 A 
HETATM    5  N4  UNL     1      17.895  11.017   1.412  1.00  0.00    -0.297 N 
HETATM    6  C12 UNL     1      19.305  11.400   1.367  1.00  0.00     0.161 C 
HETATM    7  C13 UNL     1      17.333  10.692   2.573  1.00  0.00     0.266 A 
HETATM    8  O9  UNL     1      18.072  10.731   3.621  1.00  0.00    -0.267 OA
ENDROOT
BRANCH   3   9
HETATM    9  N1  UNL     1      15.004  10.728  -0.796  1.00  0.00    -0.320 N 
HETATM   10  C8  UNL     1      14.594   9.740  -1.709  1.00  0.00     0.257 C 
HETATM   11  O4  UNL     1      14.986   8.567  -1.584  1.00  0.00    -0.270 OA
ATOM     12  H1  UNL     1      14.646  11.665  -0.983  1.00  0.00     0.169 HD
BRANCH  10  13
HETATM   13  C9  UNL     1      13.684  10.104  -2.822  1.00  0.00     0.293 C 
BRANCH  13  14
HETATM   14  N2  UNL     1      12.388   9.511  -2.750  1.00  0.00    -0.293 N 
ATOM     15  H2  UNL     1      12.138   9.052  -1.873  1.00  0.00     0.183 HD
BRANCH  14  16
HETATM   16  N3  UNL     1      11.430   9.500  -3.770  1.00  0.00    -0.213 N 
ATOM     17  H3  UNL     1      11.066  10.383  -4.131  1.00  0.00     0.215 HD
BRANCH  16  18
HETATM   18  O5  UNL     1      11.010   8.404  -4.250  1.00  0.00    -0.275 OA
ATOM     19  H5  UNL     1      10.726   8.350  -5.155  1.00  0.00     0.246 HD
ENDBRANCH  16  18
ENDBRANCH  14  16
ENDBRANCH  13  14
BRANCH  13  20
HETATM   20  C10 UNL     1      14.323   9.692  -4.129  1.00  0.00     0.207 C 
HETATM   21  O6  UNL     1      13.940   8.641  -4.695  1.00  0.00    -0.646 OA
HETATM   22  O7  UNL     1      15.316  10.456  -4.697  1.00  0.00    -0.646 OA
ENDBRANCH  13  20
ENDBRANCH  10  13
ENDBRANCH   3   9
BRANCH   2  23
HETATM   23  C5  UNL     1      13.793   9.986   1.682  1.00  0.00     0.053 C 
HETATM   24  C6  UNL     1      13.389   8.533   1.681  1.00  0.00     0.077 C 
BRANCH  23  25
HETATM   25  O3  UNL     1      13.063  10.801   2.501  1.00  0.00    -0.364 OA
ATOM     26  H3  UNL     1      13.182  10.708   3.439  1.00  0.00     0.217 HD
ENDBRANCH  23  25
ENDBRANCH   2  23
BRANCH   4  27
HETATM   27  O8  UNL     1      17.714  11.331  -0.956  1.00  0.00    -0.344 OA
ATOM     28  H8  UNL     1      17.427  12.155  -1.333  1.00  0.00     0.219 HD
ENDBRANCH   4  27
BRANCH   1  29
HETATM   29  C2  UNL     1      15.451   9.981   3.993  1.00  0.00     0.299 C 
HETATM   30  O2  UNL     1      15.635   8.734   4.294  1.00  0.00    -0.259 OA
BRANCH  29  31
HETATM   31  O1  UNL     1      14.810  10.751   4.876  1.00  0.00    -0.322 OA
HETATM   32  C1  UNL     1      14.545  10.289   6.182  1.00  0.00     0.213 C 
ENDBRANCH  29  31
ENDBRANCH   1  29
TORSDOF 11
ENDMDL
