MODEL 1
REMARK VINA RESULT: -8.217260077      0.000      0.000
REMARK  11 active torsions:
REMARK  status: ('A' for Active; 'I' for Inactive)
REMARK    1  A    between atoms: C1_2  and  C2_4 
REMARK    2  A    between atoms: C2_4  and  C3_6 
REMARK    3  A    between atoms: C3_6  and  C4_8 
REMARK    4  A    between atoms: C4_8  and  O5_9 
REMARK    5  A    between atoms: O5_9  and  C5_10 
REMARK    6  A    between atoms: C5_10  and  C6_12 
REMARK    7  A    between atoms: C8_14  and  O7_15 
REMARK    8  A    between atoms: C9_17  and  O8_18 
REMARK    9  A    between atoms: C10_20  and  O9_21 
REMARK   10  A    between atoms: C11_23  and  O10_24 
REMARK   11  A    between atoms: O10_24  and  S1_25 
ROOT
HETATM    1  C6  UNL     1      16.266  10.419   1.356  1.00  0.00     0.080 A 
HETATM    2  C7  UNL     1      15.068  10.466   2.079  1.00  0.00     0.060 A 
HETATM    3  C8  UNL     1      15.132  10.331   3.441  1.00  0.00     0.102 A 
HETATM    4  C9  UNL     1      16.356  10.150   4.091  1.00  0.00     0.135 A 
HETATM    5  C10 UNL     1      17.506  10.110   3.337  1.00  0.00     0.138 A 
HETATM    6  C11 UNL     1      17.492  10.245   1.942  1.00  0.00     0.144 A 
ENDROOT
BRANCH   1   7
HETATM    7  C5  UNL     1      16.204  10.533  -0.120  1.00  0.00     0.296 C 
HETATM    8  O6  UNL     1      16.341  11.646  -0.670  1.00  0.00    -0.259 OA
BRANCH   7   9
HETATM    9  O5  UNL     1      15.998   9.434  -0.923  1.00  0.00    -0.309 OA
BRANCH   9  10
HETATM   10  C4  UNL     1      14.764   8.829  -1.208  1.00  0.00     0.266 C 
BRANCH  10  11
HETATM   11  C3  UNL     1      13.907   9.559  -2.139  1.00  0.00     0.230 C 
HETATM   12  O4  UNL     1      12.979  10.285  -1.727  1.00  0.00    -0.286 OA
BRANCH  11  13
HETATM   13  C2  UNL     1      14.120   9.452  -3.572  1.00  0.00     0.295 C 
HETATM   14  O3  UNL     1      15.132  10.005  -4.121  1.00  0.00    -0.277 OA
BRANCH  13  15
HETATM   15  C1  UNL     1      13.195   8.718  -4.428  1.00  0.00     0.255 C 
HETATM   16  O1  UNL     1      12.423   9.323  -5.215  1.00  0.00    -0.641 OA
HETATM   17  O2  UNL     1      13.144   7.334  -4.396  1.00  0.00    -0.641 OA
ENDBRANCH  13  15
ENDBRANCH  11  13
ENDBRANCH  10  11
ENDBRANCH   9  10
ENDBRANCH   7   9
ENDBRANCH   1   7
BRANCH   6  18
HETATM   18  O10 UNL     1      18.677  10.203   1.224  1.00  0.00    -0.210 OA
BRANCH  18  19
HETATM   19  S1  UNL     1      19.573  11.672   1.148  1.00  0.00     0.257 S 
HETATM   20  O11 UNL     1      20.389  11.729  -0.098  1.00  0.00    -0.572 OA
HETATM   21  O12 UNL     1      20.585  11.644   2.293  1.00  0.00    -0.572 OA
HETATM   22  O13 UNL     1      18.593  12.992   1.355  1.00  0.00    -0.572 OA
ENDBRANCH  18  19
ENDBRANCH   6  18
BRANCH   3  23
HETATM   23  O7  UNL     1      13.961  10.370   4.227  1.00  0.00    -0.358 OA
ATOM     24  H7  UNL     1      13.967  10.769   5.089  1.00  0.00     0.217 HD
ENDBRANCH   3  23
BRANCH   5  25
HETATM   25  O9  UNL     1      18.751   9.931   3.937  1.00  0.00    -0.356 OA
ATOM     26  H9  UNL     1      19.397   9.347   3.558  1.00  0.00     0.218 HD
ENDBRANCH   5  25
BRANCH   4  27
HETATM   27  O8  UNL     1      16.406  10.013   5.475  1.00  0.00    -0.356 OA
ATOM     28  H8  UNL     1      16.917  10.617   6.001  1.00  0.00     0.218 HD
ENDBRANCH   4  27
TORSDOF 11
ENDMDL
MODEL 2
REMARK VINA RESULT: -8.165451914      1.448      2.002
REMARK  11 active torsions:
REMARK  status: ('A' for Active; 'I' for Inactive)
REMARK    1  A    between atoms: C1_2  and  C2_4 
REMARK    2  A    between atoms: C2_4  and  C3_6 
REMARK    3  A    between atoms: C3_6  and  C4_8 
REMARK    4  A    between atoms: C4_8  and  O5_9 
REMARK    5  A    between atoms: O5_9  and  C5_10 
REMARK    6  A    between atoms: C5_10  and  C6_12 
REMARK    7  A    between atoms: C8_14  and  O7_15 
REMARK    8  A    between atoms: C9_17  and  O8_18 
REMARK    9  A    between atoms: C10_20  and  O9_21 
REMARK   10  A    between atoms: C11_23  and  O10_24 
REMARK   11  A    between atoms: O10_24  and  S1_25 
ROOT
HETATM    1  C6  UNL     1      15.559   9.997   0.372  1.00  0.00     0.080 A 
HETATM    2  C7  UNL     1      14.460   9.409   1.010  1.00  0.00     0.060 A 
HETATM    3  C8  UNL     1      14.635   8.925   2.280  1.00  0.00     0.102 A 
HETATM    4  C9  UNL     1      15.874   9.014   2.921  1.00  0.00     0.135 A 
HETATM    5  C10 UNL     1      16.924   9.600   2.253  1.00  0.00     0.138 A 
HETATM    6  C11 UNL     1      16.793  10.111   0.954  1.00  0.00     0.144 A 
ENDROOT
BRANCH   1   7
HETATM    7  C5  UNL     1      15.387  10.495  -1.012  1.00  0.00     0.296 C 
HETATM    8  O6  UNL     1      15.250  11.718  -1.228  1.00  0.00    -0.259 OA
BRANCH   7   9
HETATM    9  O5  UNL     1      15.375   9.641  -2.092  1.00  0.00    -0.309 OA
BRANCH   9  10
HETATM   10  C4  UNL     1      15.603   9.990  -3.433  1.00  0.00     0.266 C 
BRANCH  10  11
HETATM   11  C3  UNL     1      14.583   9.543  -4.379  1.00  0.00     0.230 C 
HETATM   12  O4  UNL     1      14.604   9.913  -5.572  1.00  0.00    -0.286 OA
BRANCH  11  13
HETATM   13  C2  UNL     1      13.517   8.655  -3.948  1.00  0.00     0.295 C 
HETATM   14  O3  UNL     1      13.651   7.388  -4.040  1.00  0.00    -0.277 OA
BRANCH  13  15
HETATM   15  C1  UNL     1      12.269   9.173  -3.399  1.00  0.00     0.255 C 
HETATM   16  O1  UNL     1      12.252   9.799  -2.310  1.00  0.00    -0.641 OA
HETATM   17  O2  UNL     1      11.069   8.986  -4.065  1.00  0.00    -0.641 OA
ENDBRANCH  13  15
ENDBRANCH  11  13
ENDBRANCH  10  11
ENDBRANCH   9  10
ENDBRANCH   7   9
ENDBRANCH   1   7
BRANCH   6  18
HETATM   18  O10 UNL     1      17.879  10.697   0.323  1.00  0.00    -0.210 OA
BRANCH  18  19
HETATM   19  S1  UNL     1      18.433  12.187   0.988  1.00  0.00     0.257 S 
HETATM   20  O11 UNL     1      18.640  13.199  -0.086  1.00  0.00    -0.572 OA
HETATM   21  O12 UNL     1      19.821  11.930   1.575  1.00  0.00    -0.572 OA
HETATM   22  O13 UNL     1      17.443  12.712   2.208  1.00  0.00    -0.572 OA
ENDBRANCH  18  19
ENDBRANCH   6  18
BRANCH   3  23
HETATM   23  O7  UNL     1      13.567   8.321   2.977  1.00  0.00    -0.358 OA
ATOM     24  H7  UNL     1      13.726   7.805   3.758  1.00  0.00     0.217 HD
ENDBRANCH   3  23
BRANCH   5  25
HETATM   25  O9  UNL     1      18.179   9.713   2.848  1.00  0.00    -0.356 OA
ATOM     26  H9  UNL     1      18.654  10.535   2.835  1.00  0.00     0.218 HD
ENDBRANCH   5  25
BRANCH   4  27
HETATM   27  O8  UNL     1      16.037   8.517   4.211  1.00  0.00    -0.356 OA
ATOM     28  H8  UNL     1      16.377   9.074   4.902  1.00  0.00     0.218 HD
ENDBRANCH   4  27
TORSDOF 11
ENDMDL
MODEL 3
REMARK VINA RESULT: -8.042330941      0.810      1.308
REMARK  11 active torsions:
REMARK  status: ('A' for Active; 'I' for Inactive)
REMARK    1  A    between atoms: C1_2  and  C2_4 
REMARK    2  A    between atoms: C2_4  and  C3_6 
REMARK    3  A    between atoms: C3_6  and  C4_8 
REMARK    4  A    between atoms: C4_8  and  O5_9 
REMARK    5  A    between atoms: O5_9  and  C5_10 
REMARK    6  A    between atoms: C5_10  and  C6_12 
REMARK    7  A    between atoms: C8_14  and  O7_15 
REMARK    8  A    between atoms: C9_17  and  O8_18 
REMARK    9  A    between atoms: C10_20  and  O9_21 
REMARK   10  A    between atoms: C11_23  and  O10_24 
REMARK   11  A    between atoms: O10_24  and  S1_25 
ROOT
HETATM    1  C6  UNL     1      16.081  10.297   1.134  1.00  0.00     0.080 A 
HETATM    2  C7  UNL     1      14.828  10.271   1.758  1.00  0.00     0.060 A 
HETATM    3  C8  UNL     1      14.776   9.922   3.082  1.00  0.00     0.102 A 
HETATM    4  C9  UNL     1      15.937   9.600   3.789  1.00  0.00     0.135 A 
HETATM    5  C10 UNL     1      17.145   9.640   3.132  1.00  0.00     0.138 A 
HETATM    6  C11 UNL     1      17.250   9.992   1.779  1.00  0.00     0.144 A 
ENDROOT
BRANCH   1   7
HETATM    7  C5  UNL     1      16.144  10.642  -0.306  1.00  0.00     0.296 C 
HETATM    8  O6  UNL     1      16.435  11.804  -0.661  1.00  0.00    -0.259 OA
BRANCH   7   9
HETATM    9  O5  UNL     1      15.890   9.710  -1.286  1.00  0.00    -0.309 OA
BRANCH   9  10
HETATM   10  C4  UNL     1      15.594   9.975  -2.633  1.00  0.00     0.266 C 
BRANCH  10  11
HETATM   11  C3  UNL     1      14.179   9.908  -2.989  1.00  0.00     0.230 C 
HETATM   12  O4  UNL     1      13.298  10.332  -2.212  1.00  0.00    -0.286 OA
BRANCH  11  13
HETATM   13  C2  UNL     1      13.767   9.344  -4.262  1.00  0.00     0.295 C 
HETATM   14  O3  UNL     1      14.247   9.794  -5.358  1.00  0.00    -0.277 OA
BRANCH  13  15
HETATM   15  C1  UNL     1      12.800   8.254  -4.337  1.00  0.00     0.255 C 
HETATM   16  O1  UNL     1      13.178   7.064  -4.480  1.00  0.00    -0.641 OA
HETATM   17  O2  UNL     1      11.440   8.504  -4.252  1.00  0.00    -0.641 OA
ENDBRANCH  13  15
ENDBRANCH  11  13
ENDBRANCH  10  11
ENDBRANCH   9  10
ENDBRANCH   7   9
ENDBRANCH   1   7
BRANCH   6  18
HETATM   18  O10 UNL     1      18.489  10.023   1.160  1.00  0.00    -0.210 OA
BRANCH  18  19
HETATM   19  S1  UNL     1      19.421  11.453   1.392  1.00  0.00     0.257 S 
HETATM   20  O11 UNL     1      20.282  11.330   2.603  1.00  0.00    -0.572 OA
HETATM   21  O12 UNL     1      18.442  12.584   1.705  1.00  0.00    -0.572 OA
HETATM   22  O13 UNL     1      20.262  11.858   0.024  1.00  0.00    -0.572 OA
ENDBRANCH  18  19
ENDBRANCH   6  18
BRANCH   3  23
HETATM   23  O7  UNL     1      13.545   9.877   3.769  1.00  0.00    -0.358 OA
ATOM     24  H7  UNL     1      13.415   9.280   4.497  1.00  0.00     0.217 HD
ENDBRANCH   3  23
BRANCH   5  25
HETATM   25  O9  UNL     1      18.332   9.328   3.793  1.00  0.00    -0.356 OA
ATOM     26  H9  UNL     1      18.805   9.988   4.286  1.00  0.00     0.218 HD
ENDBRANCH   5  25
BRANCH   4  27
HETATM   27  O8  UNL     1      15.869   9.247   5.134  1.00  0.00    -0.356 OA
ATOM     28  H8  UNL     1      16.345   9.745   5.788  1.00  0.00     0.218 HD
ENDBRANCH   4  27
TORSDOF 11
ENDMDL
MODEL 4
REMARK VINA RESULT: -8.033348776      3.008      4.287
REMARK  11 active torsions:
REMARK  status: ('A' for Active; 'I' for Inactive)
REMARK    1  A    between atoms: C1_2  and  C2_4 
REMARK    2  A    between atoms: C2_4  and  C3_6 
REMARK    3  A    between atoms: C3_6  and  C4_8 
REMARK    4  A    between atoms: C4_8  and  O5_9 
REMARK    5  A    between atoms: O5_9  and  C5_10 
REMARK    6  A    between atoms: C5_10  and  C6_12 
REMARK    7  A    between atoms: C8_14  and  O7_15 
REMARK    8  A    between atoms: C9_17  and  O8_18 
REMARK    9  A    between atoms: C10_20  and  O9_21 
REMARK   10  A    between atoms: C11_23  and  O10_24 
REMARK   11  A    between atoms: O10_24  and  S1_25 
ROOT
HETATM    1  C6  UNL     1      17.446  10.283   3.272  1.00  0.00     0.080 A 
HETATM    2  C7  UNL     1      17.492   9.672   4.531  1.00  0.00     0.060 A 
HETATM    3  C8  UNL     1      18.397   8.662   4.724  1.00  0.00     0.102 A 
HETATM    4  C9  UNL     1      19.248   8.250   3.694  1.00  0.00     0.135 A 
HETATM    5  C10 UNL     1      19.164   8.881   2.475  1.00  0.00     0.138 A 
HETATM    6  C11 UNL     1      18.256   9.920   2.230  1.00  0.00     0.144 A 
ENDROOT
BRANCH   1   7
HETATM    7  C5  UNL     1      16.449  11.355   3.045  1.00  0.00     0.296 C 
HETATM    8  O6  UNL     1      16.752  12.549   3.253  1.00  0.00    -0.259 OA
BRANCH   7   9
HETATM    9  O5  UNL     1      15.175  11.079   2.603  1.00  0.00    -0.309 OA
BRANCH   9  10
HETATM   10  C4  UNL     1      14.079  10.706   3.397  1.00  0.00     0.266 C 
BRANCH  10  11
HETATM   11  C3  UNL     1      13.803   9.272   3.453  1.00  0.00     0.230 C 
HETATM   12  O4  UNL     1      14.112   8.595   4.456  1.00  0.00    -0.286 OA
BRANCH  11  13
HETATM   13  C2  UNL     1      13.160   8.603   2.336  1.00  0.00     0.295 C 
HETATM   14  O3  UNL     1      11.886   8.548   2.258  1.00  0.00    -0.277 OA
BRANCH  13  15
HETATM   15  C1  UNL     1      13.936   7.975   1.273  1.00  0.00     0.255 C 
HETATM   16  O1  UNL     1      14.094   6.729   1.237  1.00  0.00    -0.641 OA
HETATM   17  O2  UNL     1      14.520   8.738   0.275  1.00  0.00    -0.641 OA
ENDBRANCH  13  15
ENDBRANCH  11  13
ENDBRANCH  10  11
ENDBRANCH   9  10
ENDBRANCH   7   9
ENDBRANCH   1   7
BRANCH   6  18
HETATM   18  O10 UNL     1      18.211  10.529   0.985  1.00  0.00    -0.210 OA
BRANCH  18  19
HETATM   19  S1  UNL     1      19.394  11.746   0.690  1.00  0.00     0.257 S 
HETATM   20  O11 UNL     1      20.503  11.210  -0.149  1.00  0.00    -0.572 OA
HETATM   21  O12 UNL     1      20.034  12.089   2.035  1.00  0.00    -0.572 OA
HETATM   22  O13 UNL     1      18.707  13.123   0.075  1.00  0.00    -0.572 OA
ENDBRANCH  18  19
ENDBRANCH   6  18
BRANCH   3  23
HETATM   23  O7  UNL     1      18.494   8.006   5.969  1.00  0.00    -0.358 OA
ATOM     24  H7  UNL     1      19.070   7.259   6.082  1.00  0.00     0.217 HD
ENDBRANCH   3  23
BRANCH   5  25
HETATM   25  O9  UNL     1      19.990   8.507   1.416  1.00  0.00    -0.356 OA
ATOM     26  H9  UNL     1      19.649   8.008   0.682  1.00  0.00     0.218 HD
ENDBRANCH   5  25
BRANCH   4  27
HETATM   27  O8  UNL     1      20.162   7.221   3.904  1.00  0.00    -0.356 OA
ATOM     28  H8  UNL     1      20.437   6.667   3.182  1.00  0.00     0.218 HD
ENDBRANCH   4  27
TORSDOF 11
ENDMDL
MODEL 5
REMARK VINA RESULT: -8.029532123      0.674      1.233
REMARK  11 active torsions:
REMARK  status: ('A' for Active; 'I' for Inactive)
REMARK    1  A    between atoms: C1_2  and  C2_4 
REMARK    2  A    between atoms: C2_4  and  C3_6 
REMARK    3  A    between atoms: C3_6  and  C4_8 
REMARK    4  A    between atoms: C4_8  and  O5_9 
REMARK    5  A    between atoms: O5_9  and  C5_10 
REMARK    6  A    between atoms: C5_10  and  C6_12 
REMARK    7  A    between atoms: C8_14  and  O7_15 
REMARK    8  A    between atoms: C9_17  and  O8_18 
REMARK    9  A    between atoms: C10_20  and  O9_21 
REMARK   10  A    between atoms: C11_23  and  O10_24 
REMARK   11  A    between atoms: O10_24  and  S1_25 
ROOT
HETATM    1  C6  UNL     1      16.072  10.347   1.507  1.00  0.00     0.080 A 
HETATM    2  C7  UNL     1      14.909  10.354   2.287  1.00  0.00     0.060 A 
HETATM    3  C8  UNL     1      15.044  10.249   3.646  1.00  0.00     0.102 A 
HETATM    4  C9  UNL     1      16.305  10.136   4.239  1.00  0.00     0.135 A 
HETATM    5  C10 UNL     1      17.418  10.134   3.431  1.00  0.00     0.138 A 
HETATM    6  C11 UNL     1      17.331  10.240   2.036  1.00  0.00     0.144 A 
ENDROOT
BRANCH   1   7
HETATM    7  C5  UNL     1      15.934  10.428   0.034  1.00  0.00     0.296 C 
HETATM    8  O6  UNL     1      16.190  11.495  -0.563  1.00  0.00    -0.259 OA
BRANCH   7   9
HETATM    9  O5  UNL     1      15.528   9.348  -0.716  1.00  0.00    -0.309 OA
BRANCH   9  10
HETATM   10  C4  UNL     1      14.205   9.004  -1.034  1.00  0.00     0.266 C 
BRANCH  10  11
HETATM   11  C3  UNL     1      13.520   9.919  -1.945  1.00  0.00     0.230 C 
HETATM   12  O4  UNL     1      12.966  10.955  -1.522  1.00  0.00    -0.286 OA
BRANCH  11  13
HETATM   13  C2  UNL     1      13.470   9.638  -3.369  1.00  0.00     0.295 C 
HETATM   14  O3  UNL     1      12.409   9.163  -3.900  1.00  0.00    -0.277 OA
BRANCH  13  15
HETATM   15  C1  UNL     1      14.616   9.886  -4.236  1.00  0.00     0.255 C 
HETATM   16  O1  UNL     1      15.750  10.135  -3.754  1.00  0.00    -0.641 OA
HETATM   17  O2  UNL     1      14.484   9.854  -5.615  1.00  0.00    -0.641 OA
ENDBRANCH  13  15
ENDBRANCH  11  13
ENDBRANCH  10  11
ENDBRANCH   9  10
ENDBRANCH   7   9
ENDBRANCH   1   7
BRANCH   6  18
HETATM   18  O10 UNL     1      18.481  10.238   1.263  1.00  0.00    -0.210 OA
BRANCH  18  19
HETATM   19  S1  UNL     1      19.315  11.740   1.134  1.00  0.00     0.257 S 
HETATM   20  O11 UNL     1      20.045  11.828  -0.163  1.00  0.00    -0.572 OA
HETATM   21  O12 UNL     1      20.399  11.748   2.211  1.00  0.00    -0.572 OA
HETATM   22  O13 UNL     1      18.301  13.022   1.408  1.00  0.00    -0.572 OA
ENDBRANCH  18  19
ENDBRANCH   6  18
BRANCH   3  23
HETATM   23  O7  UNL     1      13.911  10.250   4.487  1.00  0.00    -0.358 OA
ATOM     24  H7  UNL     1      13.882   9.705   5.265  1.00  0.00     0.217 HD
ENDBRANCH   3  23
BRANCH   5  25
HETATM   25  O9  UNL     1      18.697  10.024   3.973  1.00  0.00    -0.356 OA
ATOM     26  H9  UNL     1      19.328   9.409   3.617  1.00  0.00     0.218 HD
ENDBRANCH   5  25
BRANCH   4  27
HETATM   27  O8  UNL     1      16.427  10.030   5.621  1.00  0.00    -0.356 OA
ATOM     28  H8  UNL     1      16.741  10.764   6.135  1.00  0.00     0.218 HD
ENDBRANCH   4  27
TORSDOF 11
ENDMDL
