MODEL 1
REMARK VINA RESULT: -6.720373841      0.000      0.000
REMARK  7 active torsions:
REMARK  status: ('A' for Active; 'I' for Inactive)
REMARK    1  A    between atoms: C3_5  and  S1_6 
REMARK    2  A    between atoms: S1_6  and  C4_7 
REMARK    3  A    between atoms: C4_7  and  C5_8 
REMARK    4  A    between atoms: C5_8  and  C6_9 
REMARK    5  A    between atoms: C6_9  and  C7_10 
REMARK    6  A    between atoms: C7_10  and  N2_11 
REMARK    7  A    between atoms: C10_17  and  C11_18 
ROOT
HETATM    1  C1  UNL     1       1.671  45.266  47.188  1.00  0.00     0.089 C 
HETATM    2  C2  UNL     1       2.541  46.073  48.107  1.00  0.00     0.078 A 
HETATM    3  N1  UNL     1       1.992  46.628  49.188  1.00  0.00    -0.340 N 
ATOM      4  H1  UNL     1       1.001  46.468  49.369  1.00  0.00     0.167 HD
HETATM    5  C3  UNL     1       2.711  47.413  50.078  1.00  0.00     0.079 A 
HETATM    6  C8  UNL     1       4.035  47.603  49.812  1.00  0.00    -0.005 A 
HETATM    7  C9  UNL     1       4.897  48.395  50.758  1.00  0.00     0.053 C 
HETATM    8  C10 UNL     1       4.611  47.028  48.687  1.00  0.00     0.023 A 
HETATM    9  N3  UNL     1       3.829  46.288  47.888  1.00  0.00    -0.349 N 
ATOM     10  H3  UNL     1       4.252  45.865  47.061  1.00  0.00     0.167 HD
ENDROOT
BRANCH   5  11
HETATM   11  S1  UNL     1       1.850  48.115  51.445  1.00  0.00    -0.112 SA
BRANCH  11  12
HETATM   12  C4  UNL     1       0.176  47.508  51.541  1.00  0.00     0.081 C 
BRANCH  12  13
HETATM   13  C5  UNL     1       0.013  46.229  52.347  1.00  0.00     0.012 C 
BRANCH  13  14
HETATM   14  C6  UNL     1      -0.459  45.148  51.381  1.00  0.00     0.028 C 
BRANCH  14  15
HETATM   15  C7  UNL     1      -1.979  44.955  51.481  1.00  0.00     0.229 C 
BRANCH  15  16
HETATM   16  N2  UNL     1      -2.336  43.865  50.580  1.00  0.00    -0.079 N 
ATOM     17  H23 UNL     1      -3.174  44.058  50.032  1.00  0.00     0.274 HD
ATOM     18  H22 UNL     1      -1.688  43.763  49.799  1.00  0.00     0.274 HD
ATOM     19  H21 UNL     1      -2.415  43.019  51.146  1.00  0.00     0.274 HD
ENDBRANCH  15  16
ENDBRANCH  14  15
ENDBRANCH  13  14
ENDBRANCH  12  13
ENDBRANCH  11  12
ENDBRANCH   5  11
BRANCH   8  20
HETATM   20  C11 UNL     1       6.024  47.242  48.291  1.00  0.00     0.036 C 
HETATM   21  C12 UNL     1       6.254  46.615  46.928  1.00  0.00     0.011 C 
HETATM   22  C13 UNL     1       7.258  47.370  46.089  1.00  0.00     0.001 C 
HETATM   23  C14 UNL     1       6.780  48.771  45.758  1.00  0.00     0.000 C 
HETATM   24  C15 UNL     1       5.866  49.294  46.852  1.00  0.00     0.001 C 
HETATM   25  C16 UNL     1       6.314  48.744  48.200  1.00  0.00     0.011 C 
ENDBRANCH   8  20
TORSDOF 7
ENDMDL
MODEL 2
REMARK VINA RESULT: -6.708925524      2.526      6.427
REMARK  7 active torsions:
REMARK  status: ('A' for Active; 'I' for Inactive)
REMARK    1  A    between atoms: C3_5  and  S1_6 
REMARK    2  A    between atoms: S1_6  and  C4_7 
REMARK    3  A    between atoms: C4_7  and  C5_8 
REMARK    4  A    between atoms: C5_8  and  C6_9 
REMARK    5  A    between atoms: C6_9  and  C7_10 
REMARK    6  A    between atoms: C7_10  and  N2_11 
REMARK    7  A    between atoms: C10_17  and  C11_18 
ROOT
HETATM    1  C1  UNL     1       0.865  51.199  48.428  1.00  0.00     0.089 C 
HETATM    2  C2  UNL     1       1.960  50.388  49.057  1.00  0.00     0.078 A 
HETATM    3  N1  UNL     1       3.178  50.922  49.157  1.00  0.00    -0.340 N 
ATOM      4  H1  UNL     1       3.322  51.874  48.822  1.00  0.00     0.167 HD
HETATM    5  C3  UNL     1       4.257  50.239  49.697  1.00  0.00     0.079 A 
HETATM    6  C8  UNL     1       4.032  48.969  50.142  1.00  0.00    -0.005 A 
HETATM    7  C9  UNL     1       5.136  48.181  50.792  1.00  0.00     0.053 C 
HETATM    8  C10 UNL     1       2.766  48.408  50.039  1.00  0.00     0.023 A 
HETATM    9  N3  UNL     1       1.789  49.151  49.499  1.00  0.00    -0.349 N 
ATOM     10  H3  UNL     1       0.859  48.739  49.424  1.00  0.00     0.167 HD
ENDROOT
BRANCH   5  11
HETATM   11  S1  UNL     1       5.819  51.052  49.733  1.00  0.00    -0.112 SA
BRANCH  11  12
HETATM   12  C4  UNL     1       6.797  50.648  48.298  1.00  0.00     0.081 C 
BRANCH  12  13
HETATM   13  C5  UNL     1       7.302  49.214  48.261  1.00  0.00     0.012 C 
BRANCH  13  14
HETATM   14  C6  UNL     1       6.686  48.553  47.032  1.00  0.00     0.028 C 
BRANCH  14  15
HETATM   15  C7  UNL     1       6.708  47.024  47.169  1.00  0.00     0.229 C 
BRANCH  15  16
HETATM   16  N2  UNL     1       7.849  46.539  46.402  1.00  0.00    -0.079 N 
ATOM     17  H23 UNL     1       7.712  45.598  46.033  1.00  0.00     0.274 HD
ATOM     18  H22 UNL     1       7.961  47.016  45.507  1.00  0.00     0.274 HD
ATOM     19  H21 UNL     1       8.672  46.617  47.001  1.00  0.00     0.274 HD
ENDBRANCH  15  16
ENDBRANCH  14  15
ENDBRANCH  13  14
ENDBRANCH  12  13
ENDBRANCH  11  12
ENDBRANCH   5  11
BRANCH   8  20
HETATM   20  C11 UNL     1       2.454  47.013  50.435  1.00  0.00     0.036 C 
HETATM   21  C12 UNL     1       0.955  46.880  50.634  1.00  0.00     0.011 C 
HETATM   22  C13 UNL     1       0.425  45.519  50.250  1.00  0.00     0.001 C 
HETATM   23  C14 UNL     1       0.613  45.233  48.772  1.00  0.00     0.000 C 
HETATM   24  C15 UNL     1       1.831  45.965  48.240  1.00  0.00     0.001 C 
HETATM   25  C16 UNL     1       2.894  46.050  49.328  1.00  0.00     0.011 C 
ENDBRANCH   8  20
TORSDOF 7
ENDMDL
MODEL 3
REMARK VINA RESULT: -6.679108389      1.685      2.209
REMARK  7 active torsions:
REMARK  status: ('A' for Active; 'I' for Inactive)
REMARK    1  A    between atoms: C3_5  and  S1_6 
REMARK    2  A    between atoms: S1_6  and  C4_7 
REMARK    3  A    between atoms: C4_7  and  C5_8 
REMARK    4  A    between atoms: C5_8  and  C6_9 
REMARK    5  A    between atoms: C6_9  and  C7_10 
REMARK    6  A    between atoms: C7_10  and  N2_11 
REMARK    7  A    between atoms: C10_17  and  C11_18 
ROOT
HETATM    1  C1  UNL     1       2.852  51.617  48.127  1.00  0.00     0.089 C 
HETATM    2  C2  UNL     1       3.175  50.260  48.682  1.00  0.00     0.078 A 
HETATM    3  N1  UNL     1       2.350  49.721  49.579  1.00  0.00    -0.340 N 
ATOM      4  H1  UNL     1       1.513  50.238  49.845  1.00  0.00     0.167 HD
HETATM    5  C3  UNL     1       2.581  48.486  50.167  1.00  0.00     0.079 A 
HETATM    6  C8  UNL     1       3.707  47.815  49.787  1.00  0.00    -0.005 A 
HETATM    7  C9  UNL     1       4.001  46.445  50.335  1.00  0.00     0.053 C 
HETATM    8  C10 UNL     1       4.569  48.373  48.853  1.00  0.00     0.023 A 
HETATM    9  N3  UNL     1       4.257  49.574  48.345  1.00  0.00    -0.349 N 
ATOM     10  H3  UNL     1       4.890  49.984  47.659  1.00  0.00     0.167 HD
ENDROOT
BRANCH   5  11
HETATM   11  S1  UNL     1       1.427  47.909  51.366  1.00  0.00    -0.112 SA
BRANCH  11  12
HETATM   12  C4  UNL     1       0.220  46.819  50.636  1.00  0.00     0.081 C 
BRANCH  12  13
HETATM   13  C5  UNL     1       0.433  45.345  50.942  1.00  0.00     0.012 C 
BRANCH  13  14
HETATM   14  C6  UNL     1      -0.552  44.968  52.043  1.00  0.00     0.028 C 
BRANCH  14  15
HETATM   15  C7  UNL     1      -1.999  45.099  51.547  1.00  0.00     0.229 C 
BRANCH  15  16
HETATM   16  N2  UNL     1      -2.243  43.991  50.632  1.00  0.00    -0.079 N 
ATOM     17  H23 UNL     1      -1.447  43.788  50.028  1.00  0.00     0.274 HD
ATOM     18  H22 UNL     1      -2.287  43.087  51.102  1.00  0.00     0.274 HD
ATOM     19  H21 UNL     1      -3.093  44.211  50.111  1.00  0.00     0.274 HD
ENDBRANCH  15  16
ENDBRANCH  14  15
ENDBRANCH  13  14
ENDBRANCH  12  13
ENDBRANCH  11  12
ENDBRANCH   5  11
BRANCH   8  20
HETATM   20  C11 UNL     1       5.845  47.742  48.438  1.00  0.00     0.036 C 
HETATM   21  C12 UNL     1       5.625  46.994  47.135  1.00  0.00     0.011 C 
HETATM   22  C13 UNL     1       6.836  47.007  46.232  1.00  0.00     0.001 C 
HETATM   23  C14 UNL     1       7.191  48.410  45.779  1.00  0.00     0.000 C 
HETATM   24  C15 UNL     1       6.772  49.428  46.824  1.00  0.00     0.001 C 
HETATM   25  C16 UNL     1       6.909  48.822  48.214  1.00  0.00     0.011 C 
ENDBRANCH   8  20
TORSDOF 7
ENDMDL
MODEL 4
REMARK VINA RESULT: -6.543179212      1.794      2.779
REMARK  7 active torsions:
REMARK  status: ('A' for Active; 'I' for Inactive)
REMARK    1  A    between atoms: C3_5  and  S1_6 
REMARK    2  A    between atoms: S1_6  and  C4_7 
REMARK    3  A    between atoms: C4_7  and  C5_8 
REMARK    4  A    between atoms: C5_8  and  C6_9 
REMARK    5  A    between atoms: C6_9  and  C7_10 
REMARK    6  A    between atoms: C7_10  and  N2_11 
REMARK    7  A    between atoms: C10_17  and  C11_18 
ROOT
HETATM    1  C1  UNL     1       5.405  46.434  46.534  1.00  0.00     0.089 C 
HETATM    2  C2  UNL     1       4.703  46.942  47.760  1.00  0.00     0.078 A 
HETATM    3  N1  UNL     1       3.485  46.480  48.041  1.00  0.00    -0.340 N 
ATOM      4  H1  UNL     1       3.076  45.777  47.426  1.00  0.00     0.167 HD
HETATM    5  C3  UNL     1       2.750  46.912  49.135  1.00  0.00     0.079 A 
HETATM    6  C8  UNL     1       3.326  47.848  49.943  1.00  0.00    -0.005 A 
HETATM    7  C9  UNL     1       2.617  48.328  51.180  1.00  0.00     0.053 C 
HETATM    8  C10 UNL     1       4.594  48.334  49.653  1.00  0.00     0.023 A 
HETATM    9  N3  UNL     1       5.221  47.853  48.571  1.00  0.00    -0.349 N 
ATOM     10  H3  UNL     1       6.153  48.210  48.358  1.00  0.00     0.167 HD
ENDROOT
BRANCH   5  11
HETATM   11  S1  UNL     1       1.137  46.243  49.366  1.00  0.00    -0.112 SA
BRANCH  11  12
HETATM   12  C4  UNL     1       1.041  45.278  50.863  1.00  0.00     0.081 C 
BRANCH  12  13
HETATM   13  C5  UNL     1       0.138  45.865  51.936  1.00  0.00     0.012 C 
BRANCH  13  14
HETATM   14  C6  UNL     1      -0.890  44.796  52.291  1.00  0.00     0.028 C 
BRANCH  14  15
HETATM   15  C7  UNL     1      -2.200  45.028  51.527  1.00  0.00     0.229 C 
BRANCH  15  16
HETATM   16  N2  UNL     1      -2.323  43.957  50.545  1.00  0.00    -0.079 N 
ATOM     17  H23 UNL     1      -2.701  44.274  49.652  1.00  0.00     0.274 HD
ATOM     18  H22 UNL     1      -1.422  43.629  50.196  1.00  0.00     0.274 HD
ATOM     19  H21 UNL     1      -2.878  43.216  50.973  1.00  0.00     0.274 HD
ENDBRANCH  15  16
ENDBRANCH  14  15
ENDBRANCH  13  14
ENDBRANCH  12  13
ENDBRANCH  11  12
ENDBRANCH   5  11
BRANCH   8  20
HETATM   20  C11 UNL     1       5.261  49.400  50.440  1.00  0.00     0.036 C 
HETATM   21  C12 UNL     1       6.684  49.566  49.938  1.00  0.00     0.011 C 
HETATM   22  C13 UNL     1       7.179  50.990  50.019  1.00  0.00     0.001 C 
HETATM   23  C14 UNL     1       6.378  51.920  49.128  1.00  0.00     0.000 C 
HETATM   24  C15 UNL     1       4.956  51.413  48.971  1.00  0.00     0.001 C 
HETATM   25  C16 UNL     1       4.513  50.725  50.256  1.00  0.00     0.011 C 
ENDBRANCH   8  20
TORSDOF 7
ENDMDL
MODEL 5
REMARK VINA RESULT: -6.527475294      2.197      3.142
REMARK  7 active torsions:
REMARK  status: ('A' for Active; 'I' for Inactive)
REMARK    1  A    between atoms: C3_5  and  S1_6 
REMARK    2  A    between atoms: S1_6  and  C4_7 
REMARK    3  A    between atoms: C4_7  and  C5_8 
REMARK    4  A    between atoms: C5_8  and  C6_9 
REMARK    5  A    between atoms: C6_9  and  C7_10 
REMARK    6  A    between atoms: C7_10  and  N2_11 
REMARK    7  A    between atoms: C10_17  and  C11_18 
ROOT
HETATM    1  C1  UNL     1       0.939  50.923  49.032  1.00  0.00     0.089 C 
HETATM    2  C2  UNL     1       1.829  49.719  49.147  1.00  0.00     0.078 A 
HETATM    3  N1  UNL     1       1.270  48.518  49.293  1.00  0.00    -0.340 N 
ATOM      4  H1  UNL     1       0.252  48.452  49.300  1.00  0.00     0.167 HD
HETATM    5  C3  UNL     1       2.011  47.355  49.436  1.00  0.00     0.079 A 
HETATM    6  C8  UNL     1       3.370  47.475  49.417  1.00  0.00    -0.005 A 
HETATM    7  C9  UNL     1       4.246  46.255  49.509  1.00  0.00     0.053 C 
HETATM    8  C10 UNL     1       3.958  48.724  49.266  1.00  0.00     0.023 A 
HETATM    9  N3  UNL     1       3.152  49.788  49.138  1.00  0.00    -0.349 N 
ATOM     10  H3  UNL     1       3.584  50.706  49.027  1.00  0.00     0.167 HD
ENDROOT
BRANCH   5  11
HETATM   11  S1  UNL     1       1.141  45.839  49.658  1.00  0.00    -0.112 SA
BRANCH  11  12
HETATM   12  C4  UNL     1       1.070  45.377  51.379  1.00  0.00     0.081 C 
BRANCH  12  13
HETATM   13  C5  UNL     1      -0.026  46.068  52.174  1.00  0.00     0.012 C 
BRANCH  13  14
HETATM   14  C6  UNL     1      -1.093  45.021  52.473  1.00  0.00     0.028 C 
BRANCH  14  15
HETATM   15  C7  UNL     1      -2.256  45.130  51.477  1.00  0.00     0.229 C 
BRANCH  15  16
HETATM   16  N2  UNL     1      -2.217  43.941  50.634  1.00  0.00    -0.079 N 
ATOM     17  H23 UNL     1      -3.094  43.769  50.144  1.00  0.00     0.274 HD
ATOM     18  H22 UNL     1      -1.626  44.055  49.810  1.00  0.00     0.274 HD
ATOM     19  H21 UNL     1      -1.930  43.160  51.226  1.00  0.00     0.274 HD
ENDBRANCH  15  16
ENDBRANCH  14  15
ENDBRANCH  13  14
ENDBRANCH  12  13
ENDBRANCH  11  12
ENDBRANCH   5  11
BRANCH   8  20
HETATM   20  C11 UNL     1       5.423  48.949  49.303  1.00  0.00     0.036 C 
HETATM   21  C12 UNL     1       5.745  50.227  48.550  1.00  0.00     0.011 C 
HETATM   22  C13 UNL     1       6.920  50.978  49.131  1.00  0.00     0.001 C 
HETATM   23  C14 UNL     1       6.643  51.459  50.543  1.00  0.00     0.000 C 
HETATM   24  C15 UNL     1       5.668  50.528  51.241  1.00  0.00     0.001 C 
HETATM   25  C16 UNL     1       5.887  49.101  50.756  1.00  0.00     0.011 C 
ENDBRANCH   8  20
TORSDOF 7
ENDMDL
