MODEL 1
REMARK VINA RESULT: -6.552954779      0.000      0.000
REMARK  9 active torsions:
REMARK  status: ('A' for Active; 'I' for Inactive)
REMARK    1  A    between atoms: C2_2  and  C3_3 
REMARK    2  A    between atoms: C3_3  and  C4_4 
REMARK    3  A    between atoms: C4_4  and  C5_5 
REMARK    4  A    between atoms: C5_5  and  C6_6 
REMARK    5  A    between atoms: C6_6  and  C7_7 
REMARK    6  A    between atoms: C7_7  and  N1_8 
REMARK       I    between atoms: N1_8  and  C8_10 
REMARK    7  A    between atoms: C8_10  and  S1_12 
REMARK    8  A    between atoms: S1_12  and  S2_13 
REMARK    9  A    between atoms: S2_13  and  C9_14 
REMARK       I    between atoms: C9_14  and  N2_16 
ROOT
HETATM    1  N1  UNL     1       5.797  46.480  47.020  1.00  0.00    -0.351 N 
ATOM      2  H1  UNL     1       5.782  45.965  47.900  1.00  0.00     0.163 HD
HETATM    3  C8  UNL     1       4.650  46.442  46.192  1.00  0.00     0.290 C 
HETATM    4  O1  UNL     1       4.649  47.064  45.115  1.00  0.00    -0.260 OA
ENDROOT
BRANCH   3   5
HETATM    5  S1  UNL     1       3.236  45.507  46.713  1.00  0.00     0.013 SA
BRANCH   5   6
HETATM    6  S2  UNL     1       2.479  46.165  48.574  1.00  0.00     0.013 SA
BRANCH   6   7
HETATM    7  C9  UNL     1       0.851  45.488  48.905  1.00  0.00     0.293 C 
HETATM    8  O2  UNL     1       0.176  45.184  47.874  1.00  0.00    -0.259 OA
HETATM    9  N2  UNL     1       0.357  45.305  50.216  1.00  0.00    -0.342 N 
HETATM   10  C10 UNL     1       0.861  45.543  51.545  1.00  0.00     0.128 C 
HETATM   11  C12 UNL     1      -0.867  44.802  50.791  1.00  0.00     0.128 C 
HETATM   12  C11 UNL     1      -0.533  45.358  52.148  1.00  0.00     0.040 C 
ENDBRANCH   6   7
ENDBRANCH   5   6
ENDBRANCH   3   5
BRANCH   1  13
HETATM   13  C7  UNL     1       6.982  47.214  46.672  1.00  0.00     0.123 C 
BRANCH  13  14
HETATM   14  C6  UNL     1       7.373  48.266  47.689  1.00  0.00     0.020 C 
BRANCH  14  15
HETATM   15  C5  UNL     1       6.628  49.539  47.273  1.00  0.00     0.002 C 
BRANCH  15  16
HETATM   16  C4  UNL     1       6.541  50.509  48.430  1.00  0.00     0.000 C 
BRANCH  16  17
HETATM   17  C3  UNL     1       7.156  49.852  49.630  1.00  0.00    -0.000 C 
BRANCH  17  18
HETATM   18  C2  UNL     1       6.203  49.769  50.795  1.00  0.00    -0.005 C 
HETATM   19  C1  UNL     1       5.300  48.579  50.738  1.00  0.00     0.005 C 
ENDBRANCH  17  18
ENDBRANCH  16  17
ENDBRANCH  15  16
ENDBRANCH  14  15
ENDBRANCH  13  14
ENDBRANCH   1  13
TORSDOF 9
ENDMDL
MODEL 2
REMARK VINA RESULT: -6.365937466      2.320      3.223
REMARK  9 active torsions:
REMARK  status: ('A' for Active; 'I' for Inactive)
REMARK    1  A    between atoms: C2_2  and  C3_3 
REMARK    2  A    between atoms: C3_3  and  C4_4 
REMARK    3  A    between atoms: C4_4  and  C5_5 
REMARK    4  A    between atoms: C5_5  and  C6_6 
REMARK    5  A    between atoms: C6_6  and  C7_7 
REMARK    6  A    between atoms: C7_7  and  N1_8 
REMARK       I    between atoms: N1_8  and  C8_10 
REMARK    7  A    between atoms: C8_10  and  S1_12 
REMARK    8  A    between atoms: S1_12  and  S2_13 
REMARK    9  A    between atoms: S2_13  and  C9_14 
REMARK       I    between atoms: C9_14  and  N2_16 
ROOT
HETATM    1  N1  UNL     1       5.693  46.351  47.078  1.00  0.00    -0.351 N 
ATOM      2  H1  UNL     1       5.649  45.977  48.026  1.00  0.00     0.163 HD
HETATM    3  C8  UNL     1       4.504  46.393  46.311  1.00  0.00     0.290 C 
HETATM    4  O1  UNL     1       4.537  46.845  45.152  1.00  0.00    -0.260 OA
ENDROOT
BRANCH   3   5
HETATM    5  S1  UNL     1       2.992  45.800  47.023  1.00  0.00     0.013 SA
BRANCH   5   6
HETATM    6  S2  UNL     1       2.810  46.314  49.065  1.00  0.00     0.013 SA
BRANCH   6   7
HETATM    7  C9  UNL     1       1.813  47.788  49.291  1.00  0.00     0.293 C 
HETATM    8  O2  UNL     1       0.625  47.578  49.689  1.00  0.00    -0.259 OA
HETATM    9  N2  UNL     1       2.311  49.087  49.046  1.00  0.00    -0.342 N 
HETATM   10  C10 UNL     1       3.567  49.637  48.603  1.00  0.00     0.128 C 
HETATM   11  C12 UNL     1       1.777  50.425  49.131  1.00  0.00     0.128 C 
HETATM   12  C11 UNL     1       2.923  51.001  48.345  1.00  0.00     0.040 C 
ENDBRANCH   6   7
ENDBRANCH   5   6
ENDBRANCH   3   5
BRANCH   1  13
HETATM   13  C7  UNL     1       6.957  46.812  46.577  1.00  0.00     0.123 C 
BRANCH  13  14
HETATM   14  C6  UNL     1       7.530  47.986  47.342  1.00  0.00     0.020 C 
BRANCH  14  15
HETATM   15  C5  UNL     1       6.928  49.236  46.692  1.00  0.00     0.002 C 
BRANCH  15  16
HETATM   16  C4  UNL     1       6.926  50.396  47.662  1.00  0.00     0.000 C 
BRANCH  16  17
HETATM   17  C3  UNL     1       7.198  49.850  49.033  1.00  0.00    -0.000 C 
BRANCH  17  18
HETATM   18  C2  UNL     1       6.885  50.844  50.122  1.00  0.00    -0.005 C 
HETATM   19  C1  UNL     1       6.284  52.114  49.610  1.00  0.00     0.005 C 
ENDBRANCH  17  18
ENDBRANCH  16  17
ENDBRANCH  15  16
ENDBRANCH  14  15
ENDBRANCH  13  14
ENDBRANCH   1  13
TORSDOF 9
ENDMDL
MODEL 3
REMARK VINA RESULT: -6.313630072      1.172      1.450
REMARK  9 active torsions:
REMARK  status: ('A' for Active; 'I' for Inactive)
REMARK    1  A    between atoms: C2_2  and  C3_3 
REMARK    2  A    between atoms: C3_3  and  C4_4 
REMARK    3  A    between atoms: C4_4  and  C5_5 
REMARK    4  A    between atoms: C5_5  and  C6_6 
REMARK    5  A    between atoms: C6_6  and  C7_7 
REMARK    6  A    between atoms: C7_7  and  N1_8 
REMARK       I    between atoms: N1_8  and  C8_10 
REMARK    7  A    between atoms: C8_10  and  S1_12 
REMARK    8  A    between atoms: S1_12  and  S2_13 
REMARK    9  A    between atoms: S2_13  and  C9_14 
REMARK       I    between atoms: C9_14  and  N2_16 
ROOT
HETATM    1  N1  UNL     1       5.691  46.526  47.530  1.00  0.00    -0.351 N 
ATOM      2  H1  UNL     1       6.245  46.811  48.338  1.00  0.00     0.163 HD
HETATM    3  C8  UNL     1       4.342  46.150  47.732  1.00  0.00     0.290 C 
HETATM    4  O1  UNL     1       3.649  45.799  46.760  1.00  0.00    -0.260 OA
ENDROOT
BRANCH   3   5
HETATM    5  S1  UNL     1       3.668  46.187  49.373  1.00  0.00     0.013 SA
BRANCH   5   6
HETATM    6  S2  UNL     1       1.686  46.923  49.411  1.00  0.00     0.013 SA
BRANCH   6   7
HETATM    7  C9  UNL     1       0.487  45.609  49.185  1.00  0.00     0.293 C 
HETATM    8  O2  UNL     1       0.476  45.084  48.029  1.00  0.00    -0.259 OA
HETATM    9  N2  UNL     1      -0.382  45.188  50.216  1.00  0.00    -0.342 N 
HETATM   10  C10 UNL     1      -0.608  45.571  51.587  1.00  0.00     0.128 C 
HETATM   11  C12 UNL     1      -1.420  44.195  50.343  1.00  0.00     0.128 C 
HETATM   12  C11 UNL     1      -1.924  44.792  51.628  1.00  0.00     0.040 C 
ENDBRANCH   6   7
ENDBRANCH   5   6
ENDBRANCH   3   5
BRANCH   1  13
HETATM   13  C7  UNL     1       6.312  46.524  46.235  1.00  0.00     0.123 C 
BRANCH  13  14
HETATM   14  C6  UNL     1       7.288  47.662  46.021  1.00  0.00     0.020 C 
BRANCH  14  15
HETATM   15  C5  UNL     1       7.354  48.407  47.358  1.00  0.00     0.002 C 
BRANCH  15  16
HETATM   16  C4  UNL     1       6.985  49.862  47.178  1.00  0.00     0.000 C 
BRANCH  16  17
HETATM   17  C3  UNL     1       6.597  50.409  48.520  1.00  0.00    -0.000 C 
BRANCH  17  18
HETATM   18  C2  UNL     1       7.131  49.578  49.658  1.00  0.00    -0.005 C 
HETATM   19  C1  UNL     1       6.129  49.346  50.744  1.00  0.00     0.005 C 
ENDBRANCH  17  18
ENDBRANCH  16  17
ENDBRANCH  15  16
ENDBRANCH  14  15
ENDBRANCH  13  14
ENDBRANCH   1  13
TORSDOF 9
ENDMDL
MODEL 4
REMARK VINA RESULT: -6.278332154      2.253      3.179
REMARK  9 active torsions:
REMARK  status: ('A' for Active; 'I' for Inactive)
REMARK    1  A    between atoms: C2_2  and  C3_3 
REMARK    2  A    between atoms: C3_3  and  C4_4 
REMARK    3  A    between atoms: C4_4  and  C5_5 
REMARK    4  A    between atoms: C5_5  and  C6_6 
REMARK    5  A    between atoms: C6_6  and  C7_7 
REMARK    6  A    between atoms: C7_7  and  N1_8 
REMARK       I    between atoms: N1_8  and  C8_10 
REMARK    7  A    between atoms: C8_10  and  S1_12 
REMARK    8  A    between atoms: S1_12  and  S2_13 
REMARK    9  A    between atoms: S2_13  and  C9_14 
REMARK       I    between atoms: C9_14  and  N2_16 
ROOT
HETATM    1  N1  UNL     1       6.307  48.895  47.709  1.00  0.00    -0.351 N 
ATOM      2  H1  UNL     1       5.425  48.533  48.071  1.00  0.00     0.163 HD
HETATM    3  C8  UNL     1       6.991  48.149  46.719  1.00  0.00     0.290 C 
HETATM    4  O1  UNL     1       8.068  48.574  46.266  1.00  0.00    -0.260 OA
ENDROOT
BRANCH   3   5
HETATM    5  S1  UNL     1       6.292  46.623  46.147  1.00  0.00     0.013 SA
BRANCH   5   6
HETATM    6  S2  UNL     1       4.248  46.436  46.655  1.00  0.00     0.013 SA
BRANCH   6   7
HETATM    7  C9  UNL     1       4.019  46.239  48.423  1.00  0.00     0.293 C 
HETATM    8  O2  UNL     1       5.086  46.265  49.109  1.00  0.00    -0.259 OA
HETATM    9  N2  UNL     1       2.745  46.069  49.010  1.00  0.00    -0.342 N 
HETATM   10  C10 UNL     1       1.391  45.997  48.520  1.00  0.00     0.128 C 
HETATM   11  C12 UNL     1       2.248  45.891  50.352  1.00  0.00     0.128 C 
HETATM   12  C11 UNL     1       0.893  45.458  49.862  1.00  0.00     0.040 C 
ENDBRANCH   6   7
ENDBRANCH   5   6
ENDBRANCH   3   5
BRANCH   1  13
HETATM   13  C7  UNL     1       6.803  50.140  48.225  1.00  0.00     0.123 C 
BRANCH  13  14
HETATM   14  C6  UNL     1       7.249  50.071  49.671  1.00  0.00     0.020 C 
BRANCH  14  15
HETATM   15  C5  UNL     1       6.540  51.233  50.376  1.00  0.00     0.002 C 
BRANCH  15  16
HETATM   16  C4  UNL     1       5.674  50.723  51.507  1.00  0.00     0.000 C 
BRANCH  16  17
HETATM   17  C3  UNL     1       5.232  49.332  51.158  1.00  0.00    -0.000 C 
BRANCH  17  18
HETATM   18  C2  UNL     1       3.739  49.230  50.979  1.00  0.00    -0.005 C 
HETATM   19  C1  UNL     1       3.275  49.647  49.620  1.00  0.00     0.005 C 
ENDBRANCH  17  18
ENDBRANCH  16  17
ENDBRANCH  15  16
ENDBRANCH  14  15
ENDBRANCH  13  14
ENDBRANCH   1  13
TORSDOF 9
ENDMDL
MODEL 5
REMARK VINA RESULT: -6.228083359      0.705      1.073
REMARK  9 active torsions:
REMARK  status: ('A' for Active; 'I' for Inactive)
REMARK    1  A    between atoms: C2_2  and  C3_3 
REMARK    2  A    between atoms: C3_3  and  C4_4 
REMARK    3  A    between atoms: C4_4  and  C5_5 
REMARK    4  A    between atoms: C5_5  and  C6_6 
REMARK    5  A    between atoms: C6_6  and  C7_7 
REMARK    6  A    between atoms: C7_7  and  N1_8 
REMARK       I    between atoms: N1_8  and  C8_10 
REMARK    7  A    between atoms: C8_10  and  S1_12 
REMARK    8  A    between atoms: S1_12  and  S2_13 
REMARK    9  A    between atoms: S2_13  and  C9_14 
REMARK       I    between atoms: C9_14  and  N2_16 
ROOT
HETATM    1  N1  UNL     1       5.752  46.448  47.260  1.00  0.00    -0.351 N 
ATOM      2  H1  UNL     1       5.556  46.043  48.176  1.00  0.00     0.163 HD
HETATM    3  C8  UNL     1       4.747  46.395  46.266  1.00  0.00     0.290 C 
HETATM    4  O1  UNL     1       4.967  46.883  45.143  1.00  0.00    -0.260 OA
ENDROOT
BRANCH   3   5
HETATM    5  S1  UNL     1       3.191  45.631  46.646  1.00  0.00     0.013 SA
BRANCH   5   6
HETATM    6  S2  UNL     1       2.504  46.130  48.582  1.00  0.00     0.013 SA
BRANCH   6   7
HETATM    7  C9  UNL     1       0.869  45.463  48.898  1.00  0.00     0.293 C 
HETATM    8  O2  UNL     1       0.196  45.175  47.861  1.00  0.00    -0.259 OA
HETATM    9  N2  UNL     1       0.366  45.270  50.204  1.00  0.00    -0.342 N 
HETATM   10  C10 UNL     1       0.865  45.491  51.538  1.00  0.00     0.128 C 
HETATM   11  C12 UNL     1      -0.864  44.772  50.768  1.00  0.00     0.128 C 
HETATM   12  C11 UNL     1      -0.533  45.311  52.132  1.00  0.00     0.040 C 
ENDBRANCH   6   7
ENDBRANCH   5   6
ENDBRANCH   3   5
BRANCH   1  13
HETATM   13  C7  UNL     1       7.037  47.049  47.035  1.00  0.00     0.123 C 
BRANCH  13  14
HETATM   14  C6  UNL     1       7.096  48.521  47.382  1.00  0.00     0.020 C 
BRANCH  14  15
HETATM   15  C5  UNL     1       6.130  48.707  48.557  1.00  0.00     0.002 C 
BRANCH  15  16
HETATM   16  C4  UNL     1       6.798  49.461  49.685  1.00  0.00     0.000 C 
BRANCH  16  17
HETATM   17  C3  UNL     1       6.088  49.108  50.959  1.00  0.00    -0.000 C 
BRANCH  17  18
HETATM   18  C2  UNL     1       5.494  50.314  51.641  1.00  0.00    -0.005 C 
HETATM   19  C1  UNL     1       5.980  51.611  51.079  1.00  0.00     0.005 C 
ENDBRANCH  17  18
ENDBRANCH  16  17
ENDBRANCH  15  16
ENDBRANCH  14  15
ENDBRANCH  13  14
ENDBRANCH   1  13
TORSDOF 9
ENDMDL
