MODEL 1
REMARK VINA RESULT: -7.324223220      0.000      0.000
REMARK  6 active torsions:
REMARK  status: ('A' for Active; 'I' for Inactive)
REMARK    1  A    between atoms: C2_2  and  C3_3 
REMARK    2  A    between atoms: C3_3  and  C4_5 
REMARK    3  A    between atoms: C4_5  and  C8_17 
REMARK    4  A    between atoms: C5_6  and  N1_7 
REMARK       I    between atoms: N2_9  and  C6_11 
REMARK       I    between atoms: C6_11  and  N3_13 
REMARK    5  A    between atoms: N3_13  and  O3_15 
REMARK    6  A    between atoms: C8_17  and  C9_18 
ROOT
HETATM    1  C4  UNL     1       4.680  47.100  47.937  1.00  0.00     0.005 C 
HETATM    2  C5  UNL     1       3.565  46.523  48.301  1.00  0.00     0.118 C 
ENDROOT
BRANCH   1   3
HETATM    3  C3  UNL     1       5.177  46.917  46.602  1.00  0.00     0.156 C 
HETATM    4  O1  UNL     1       4.365  47.125  45.622  1.00  0.00    -0.293 OA
BRANCH   3   5
HETATM    5  C2  UNL     1       6.523  46.508  46.178  1.00  0.00     0.079 C 
HETATM    6  C1  UNL     1       7.241  47.828  45.798  1.00  0.00     0.013 C 
ENDBRANCH   3   5
ENDBRANCH   1   3
BRANCH   1   7
HETATM    7  C8  UNL     1       5.398  47.890  48.936  1.00  0.00     0.048 C 
BRANCH   7   8
HETATM    8  C9  UNL     1       5.610  49.331  48.643  1.00  0.00    -0.010 C 
HETATM    9  C10 UNL     1       7.015  49.746  49.058  1.00  0.00     0.005 C 
HETATM   10  C11 UNL     1       7.048  50.896  50.007  1.00  0.00     0.000 C 
HETATM   11  C12 UNL     1       6.239  52.076  49.507  1.00  0.00     0.000 C 
HETATM   12  C13 UNL     1       4.910  51.648  48.950  1.00  0.00     0.000 C 
HETATM   13  C14 UNL     1       4.644  50.225  49.408  1.00  0.00     0.005 C 
ENDBRANCH   7   8
ENDBRANCH   1   7
BRANCH   2  14
HETATM   14  N1  UNL     1       2.819  45.717  47.427  1.00  0.00    -0.307 N 
HETATM   15  N2  UNL     1       1.633  45.325  47.562  1.00  0.00    -0.250 N 
HETATM   16  C6  UNL     1       0.899  45.704  48.709  1.00  0.00     0.358 C 
ATOM     17  H2  UNL     1       1.203  44.736  46.849  1.00  0.00     0.192 HD
HETATM   18  O2  UNL     1       0.975  46.866  49.204  1.00  0.00    -0.243 OA
HETATM   19  N3  UNL     1       0.035  44.756  49.346  1.00  0.00    -0.216 N 
ATOM     20  H3  UNL     1      -0.032  43.818  48.952  1.00  0.00     0.199 HD
ATOM     21  H1  UNL     1       3.298  45.413  46.579  1.00  0.00     0.186 HD
BRANCH  19  22
HETATM   22  O3  UNL     1      -0.690  45.045  50.438  1.00  0.00    -0.281 OA
HETATM   23  C7  UNL     1      -1.739  44.142  50.552  1.00  0.00     0.237 C 
ENDBRANCH  19  22
ENDBRANCH   2  14
TORSDOF 6
ENDMDL
MODEL 2
REMARK VINA RESULT: -7.105500044      1.879      2.276
REMARK  6 active torsions:
REMARK  status: ('A' for Active; 'I' for Inactive)
REMARK    1  A    between atoms: C2_2  and  C3_3 
REMARK    2  A    between atoms: C3_3  and  C4_5 
REMARK    3  A    between atoms: C4_5  and  C8_17 
REMARK    4  A    between atoms: C5_6  and  N1_7 
REMARK       I    between atoms: N2_9  and  C6_11 
REMARK       I    between atoms: C6_11  and  N3_13 
REMARK    5  A    between atoms: N3_13  and  O3_15 
REMARK    6  A    between atoms: C8_17  and  C9_18 
ROOT
HETATM    1  C4  UNL     1       3.771  46.384  48.827  1.00  0.00     0.005 C 
HETATM    2  C5  UNL     1       2.711  46.212  49.573  1.00  0.00     0.118 C 
ENDROOT
BRANCH   1   3
HETATM    3  C3  UNL     1       3.716  46.072  47.426  1.00  0.00     0.156 C 
HETATM    4  O1  UNL     1       3.119  44.985  47.074  1.00  0.00    -0.293 OA
BRANCH   3   5
HETATM    5  C2  UNL     1       4.264  46.839  46.299  1.00  0.00     0.079 C 
HETATM    6  C1  UNL     1       5.580  46.112  45.922  1.00  0.00     0.013 C 
ENDBRANCH   3   5
ENDBRANCH   1   3
BRANCH   1   7
HETATM    7  C8  UNL     1       4.992  46.862  49.474  1.00  0.00     0.048 C 
BRANCH   7   8
HETATM    8  C9  UNL     1       5.145  48.330  49.644  1.00  0.00    -0.010 C 
HETATM    9  C10 UNL     1       6.090  48.881  48.584  1.00  0.00     0.005 C 
HETATM   10  C11 UNL     1       7.245  49.641  49.144  1.00  0.00     0.000 C 
HETATM   11  C12 UNL     1       6.807  50.715  50.120  1.00  0.00     0.000 C 
HETATM   12  C13 UNL     1       5.754  50.213  51.069  1.00  0.00     0.000 C 
HETATM   13  C14 UNL     1       5.739  48.697  50.996  1.00  0.00     0.005 C 
ENDBRANCH   7   8
ENDBRANCH   1   7
BRANCH   2  14
HETATM   14  N1  UNL     1       1.501  45.726  49.056  1.00  0.00    -0.307 N 
HETATM   15  N2  UNL     1       0.430  45.507  49.673  1.00  0.00    -0.250 N 
HETATM   16  C6  UNL     1       0.362  45.759  51.063  1.00  0.00     0.358 C 
ATOM     17  H2  UNL     1      -0.386  45.149  49.176  1.00  0.00     0.192 HD
HETATM   18  O2  UNL     1       0.907  46.771  51.592  1.00  0.00    -0.243 OA
HETATM   19  N3  UNL     1      -0.343  44.851  51.917  1.00  0.00    -0.216 N 
ATOM     20  H3  UNL     1      -0.786  44.034  51.498  1.00  0.00     0.199 HD
ATOM     21  H1  UNL     1       1.490  45.527  48.055  1.00  0.00     0.186 HD
BRANCH  19  22
HETATM   22  O3  UNL     1      -0.448  45.025  53.244  1.00  0.00    -0.281 OA
HETATM   23  C7  UNL     1       0.444  44.184  53.895  1.00  0.00     0.237 C 
ENDBRANCH  19  22
ENDBRANCH   2  14
TORSDOF 6
ENDMDL
MODEL 3
REMARK VINA RESULT: -7.040849647      3.328      5.275
REMARK  6 active torsions:
REMARK  status: ('A' for Active; 'I' for Inactive)
REMARK    1  A    between atoms: C2_2  and  C3_3 
REMARK    2  A    between atoms: C3_3  and  C4_5 
REMARK    3  A    between atoms: C4_5  and  C8_17 
REMARK    4  A    between atoms: C5_6  and  N1_7 
REMARK       I    between atoms: N2_9  and  C6_11 
REMARK       I    between atoms: C6_11  and  N3_13 
REMARK    5  A    between atoms: N3_13  and  O3_15 
REMARK    6  A    between atoms: C8_17  and  C9_18 
ROOT
HETATM    1  C4  UNL     1       5.865  50.227  48.819  1.00  0.00     0.005 C 
HETATM    2  C5  UNL     1       6.408  49.964  47.658  1.00  0.00     0.118 C 
ENDROOT
BRANCH   1   3
HETATM    3  C3  UNL     1       6.327  49.544  49.995  1.00  0.00     0.156 C 
HETATM    4  O1  UNL     1       7.573  49.657  50.306  1.00  0.00    -0.293 OA
BRANCH   3   5
HETATM    5  C2  UNL     1       5.558  48.705  50.923  1.00  0.00     0.079 C 
HETATM    6  C1  UNL     1       4.998  47.552  50.051  1.00  0.00     0.013 C 
ENDBRANCH   3   5
ENDBRANCH   1   3
BRANCH   1   7
HETATM    7  C8  UNL     1       4.770  51.196  48.857  1.00  0.00     0.048 C 
BRANCH   7   8
HETATM    8  C9  UNL     1       3.406  50.696  48.546  1.00  0.00    -0.010 C 
HETATM    9  C10 UNL     1       2.583  51.801  47.896  1.00  0.00     0.005 C 
HETATM   10  C11 UNL     1       1.300  52.089  48.600  1.00  0.00     0.000 C 
HETATM   11  C12 UNL     1       0.478  50.837  48.830  1.00  0.00     0.000 C 
HETATM   12  C13 UNL     1       1.322  49.695  49.324  1.00  0.00     0.000 C 
HETATM   13  C14 UNL     1       2.651  50.261  49.793  1.00  0.00     0.005 C 
ENDBRANCH   7   8
ENDBRANCH   1   7
BRANCH   2  14
HETATM   14  N1  UNL     1       7.441  49.027  47.510  1.00  0.00    -0.307 N 
HETATM   15  N2  UNL     1       7.389  47.904  46.948  1.00  0.00    -0.250 N 
HETATM   16  C6  UNL     1       6.175  47.468  46.371  1.00  0.00     0.358 C 
ATOM     17  H2  UNL     1       8.218  47.312  46.908  1.00  0.00     0.192 HD
HETATM   18  O2  UNL     1       5.413  48.250  45.732  1.00  0.00    -0.243 OA
HETATM   19  N3  UNL     1       5.775  46.099  46.504  1.00  0.00    -0.216 N 
ATOM     20  H3  UNL     1       6.385  45.463  47.017  1.00  0.00     0.199 HD
ATOM     21  H1  UNL     1       8.343  49.288  47.907  1.00  0.00     0.186 HD
BRANCH  19  22
HETATM   22  O3  UNL     1       4.636  45.615  45.985  1.00  0.00    -0.281 OA
HETATM   23  C7  UNL     1       3.594  45.815  46.881  1.00  0.00     0.237 C 
ENDBRANCH  19  22
ENDBRANCH   2  14
TORSDOF 6
ENDMDL
MODEL 4
REMARK VINA RESULT: -7.008353759      1.154      1.544
REMARK  6 active torsions:
REMARK  status: ('A' for Active; 'I' for Inactive)
REMARK    1  A    between atoms: C2_2  and  C3_3 
REMARK    2  A    between atoms: C3_3  and  C4_5 
REMARK    3  A    between atoms: C4_5  and  C8_17 
REMARK    4  A    between atoms: C5_6  and  N1_7 
REMARK       I    between atoms: N2_9  and  C6_11 
REMARK       I    between atoms: C6_11  and  N3_13 
REMARK    5  A    between atoms: N3_13  and  O3_15 
REMARK    6  A    between atoms: C8_17  and  C9_18 
ROOT
HETATM    1  C4  UNL     1       4.618  47.965  47.363  1.00  0.00     0.005 C 
HETATM    2  C5  UNL     1       3.619  47.426  48.013  1.00  0.00     0.118 C 
ENDROOT
BRANCH   1   3
HETATM    3  C3  UNL     1       5.282  47.221  46.330  1.00  0.00     0.156 C 
HETATM    4  O1  UNL     1       4.630  46.987  45.242  1.00  0.00    -0.293 OA
BRANCH   3   5
HETATM    5  C2  UNL     1       6.643  46.669  46.335  1.00  0.00     0.079 C 
HETATM    6  C1  UNL     1       7.546  47.823  45.828  1.00  0.00     0.013 C 
ENDBRANCH   3   5
ENDBRANCH   1   3
BRANCH   1   7
HETATM    7  C8  UNL     1       5.039  49.310  47.753  1.00  0.00     0.048 C 
BRANCH   7   8
HETATM    8  C9  UNL     1       4.909  49.678  49.186  1.00  0.00    -0.010 C 
HETATM    9  C10 UNL     1       4.650  51.173  49.318  1.00  0.00     0.005 C 
HETATM   10  C11 UNL     1       5.630  51.879  50.194  1.00  0.00     0.000 C 
HETATM   11  C12 UNL     1       5.775  51.212  51.547  1.00  0.00     0.000 C 
HETATM   12  C13 UNL     1       5.873  49.716  51.426  1.00  0.00     0.000 C 
HETATM   13  C14 UNL     1       6.175  49.380  49.977  1.00  0.00     0.005 C 
ENDBRANCH   7   8
ENDBRANCH   1   7
BRANCH   2  14
HETATM   14  N1  UNL     1       3.161  46.129  47.739  1.00  0.00    -0.307 N 
HETATM   15  N2  UNL     1       2.164  45.542  48.229  1.00  0.00    -0.250 N 
HETATM   16  C6  UNL     1       1.359  46.212  49.179  1.00  0.00     0.358 C 
ATOM     17  H2  UNL     1       1.937  44.590  47.944  1.00  0.00     0.192 HD
HETATM   18  O2  UNL     1       1.065  47.438  49.069  1.00  0.00    -0.243 OA
HETATM   19  N3  UNL     1       0.849  45.497  50.310  1.00  0.00    -0.216 N 
ATOM     20  H3  UNL     1       1.081  44.507  50.404  1.00  0.00     0.199 HD
ATOM     21  H1  UNL     1       3.703  45.597  47.058  1.00  0.00     0.186 HD
BRANCH  19  22
HETATM   22  O3  UNL     1       0.081  46.066  51.251  1.00  0.00    -0.281 OA
HETATM   23  C7  UNL     1      -0.629  45.084  51.929  1.00  0.00     0.237 C 
ENDBRANCH  19  22
ENDBRANCH   2  14
TORSDOF 6
ENDMDL
MODEL 5
REMARK VINA RESULT: -6.999441441      3.268      5.057
REMARK  6 active torsions:
REMARK  status: ('A' for Active; 'I' for Inactive)
REMARK    1  A    between atoms: C2_2  and  C3_3 
REMARK    2  A    between atoms: C3_3  and  C4_5 
REMARK    3  A    between atoms: C4_5  and  C8_17 
REMARK    4  A    between atoms: C5_6  and  N1_7 
REMARK       I    between atoms: N2_9  and  C6_11 
REMARK       I    between atoms: C6_11  and  N3_13 
REMARK    5  A    between atoms: N3_13  and  O3_15 
REMARK    6  A    between atoms: C8_17  and  C9_18 
ROOT
HETATM    1  C4  UNL     1       6.319  49.932  48.347  1.00  0.00     0.005 C 
HETATM    2  C5  UNL     1       7.148  49.592  47.395  1.00  0.00     0.118 C 
ENDROOT
BRANCH   1   3
HETATM    3  C3  UNL     1       6.152  49.075  49.488  1.00  0.00     0.156 C 
HETATM    4  O1  UNL     1       6.899  49.290  50.517  1.00  0.00    -0.293 OA
BRANCH   3   5
HETATM    5  C2  UNL     1       5.224  47.949  49.654  1.00  0.00     0.079 C 
HETATM    6  C1  UNL     1       4.309  48.355  50.838  1.00  0.00     0.013 C 
ENDBRANCH   3   5
ENDBRANCH   1   3
BRANCH   1   7
HETATM    7  C8  UNL     1       5.563  51.173  48.185  1.00  0.00     0.048 C 
BRANCH   7   8
HETATM    8  C9  UNL     1       4.352  51.349  49.028  1.00  0.00    -0.010 C 
HETATM    9  C10 UNL     1       3.122  50.846  48.283  1.00  0.00     0.005 C 
HETATM   10  C11 UNL     1       2.037  51.862  48.158  1.00  0.00     0.000 C 
HETATM   11  C12 UNL     1       1.673  52.480  49.493  1.00  0.00     0.000 C 
HETATM   12  C13 UNL     1       2.892  52.834  50.298  1.00  0.00     0.000 C 
HETATM   13  C14 UNL     1       4.093  52.809  49.369  1.00  0.00     0.005 C 
ENDBRANCH   7   8
ENDBRANCH   1   7
BRANCH   2  14
HETATM   14  N1  UNL     1       7.895  48.405  47.440  1.00  0.00    -0.307 N 
HETATM   15  N2  UNL     1       7.587  47.282  46.970  1.00  0.00    -0.250 N 
HETATM   16  C6  UNL     1       6.353  47.120  46.300  1.00  0.00     0.358 C 
ATOM     17  H2  UNL     1       8.223  46.491  47.071  1.00  0.00     0.192 HD
HETATM   18  O2  UNL     1       5.890  48.000  45.517  1.00  0.00    -0.243 OA
HETATM   19  N3  UNL     1       5.585  45.927  46.500  1.00  0.00    -0.216 N 
ATOM     20  H3  UNL     1       5.953  45.213  47.128  1.00  0.00     0.199 HD
ATOM     21  H1  UNL     1       8.798  48.462  47.911  1.00  0.00     0.186 HD
BRANCH  19  22
HETATM   22  O3  UNL     1       4.406  45.706  45.899  1.00  0.00    -0.281 OA
HETATM   23  C7  UNL     1       3.380  45.834  46.826  1.00  0.00     0.237 C 
ENDBRANCH  19  22
ENDBRANCH   2  14
TORSDOF 6
ENDMDL
