MODEL 1
REMARK VINA RESULT: -6.991724148      0.000      0.000
REMARK  2 active torsions:
REMARK  status: ('A' for Active; 'I' for Inactive)
REMARK    1  A    between atoms: C2_2  and  C3_4 
REMARK       I    between atoms: C3_4  and  N1_6 
REMARK    2  A    between atoms: N1_6  and  C4_8 
ROOT
HETATM    1  C4  UNL     1       5.050   3.015  70.652  1.00  0.00     0.181 A 
HETATM    2  O2  UNL     1       6.023   3.375  71.426  1.00  0.00    -0.274 OA
HETATM    3  C5  UNL     1       7.145   2.840  71.064  1.00  0.00     0.188 A 
HETATM    4  N2  UNL     1       8.393   3.020  71.684  1.00  0.00    -0.072 NA
HETATM    5  C6  UNL     1       6.914   2.065  69.969  1.00  0.00     0.108 A 
HETATM    6  C7  UNL     1       5.550   2.170  69.687  1.00  0.00     0.111 A 
HETATM    7  N3  UNL     1       4.783   1.569  68.657  1.00  0.00    -0.384 N 
ATOM      8  H3  UNL     1       3.836   1.923  68.521  1.00  0.00     0.159 HD
HETATM    9  C8  UNL     1       5.212   0.503  67.779  1.00  0.00     0.121 C 
HETATM   10  C9  UNL     1       6.570   0.872  67.211  1.00  0.00     0.039 C 
HETATM   11  C10 UNL     1       7.629   0.348  68.175  1.00  0.00     0.121 C 
HETATM   12  N4  UNL     1       7.861   1.302  69.250  1.00  0.00    -0.385 N 
ATOM     13  H4  UNL     1       8.835   1.438  69.519  1.00  0.00     0.159 HD
ENDROOT
BRANCH   1  14
HETATM   14  N1  UNL     1       3.694   3.405  70.749  1.00  0.00    -0.304 N 
HETATM   15  C3  UNL     1       3.158   4.312  69.800  1.00  0.00     0.241 C 
HETATM   16  O1  UNL     1       3.861   4.768  68.884  1.00  0.00    -0.271 OA
ATOM     17  H1  UNL     1       3.106   3.036  71.497  1.00  0.00     0.171 HD
BRANCH  15  18
HETATM   18  C2  UNL     1       1.742   4.726  69.891  1.00  0.00     0.170 C 
HETATM   19  C1  UNL     1       0.989   3.783  70.784  1.00  0.00     0.037 C 
HETATM   20 CL1  UNL     1       0.982   4.732  68.293  1.00  0.00    -0.115 Cl
ENDBRANCH  15  18
ENDBRANCH   1  14
TORSDOF 2
ENDMDL
MODEL 2
REMARK VINA RESULT: -6.969613238      2.223      2.769
REMARK  2 active torsions:
REMARK  status: ('A' for Active; 'I' for Inactive)
REMARK    1  A    between atoms: C2_2  and  C3_4 
REMARK       I    between atoms: C3_4  and  N1_6 
REMARK    2  A    between atoms: N1_6  and  C4_8 
ROOT
HETATM    1  C4  UNL     1       3.512   4.047  68.687  1.00  0.00     0.181 A 
HETATM    2  O2  UNL     1       3.739   4.710  69.776  1.00  0.00    -0.274 OA
HETATM    3  C5  UNL     1       4.694   4.176  70.469  1.00  0.00     0.188 A 
HETATM    4  N2  UNL     1       5.191   4.641  71.698  1.00  0.00    -0.072 NA
HETATM    5  C6  UNL     1       5.142   3.077  69.803  1.00  0.00     0.108 A 
HETATM    6  C7  UNL     1       4.380   2.980  68.636  1.00  0.00     0.111 A 
HETATM    7  N3  UNL     1       4.432   2.023  67.590  1.00  0.00    -0.384 N 
ATOM      8  H3  UNL     1       3.910   2.241  66.741  1.00  0.00     0.159 HD
HETATM    9  C8  UNL     1       5.153   0.770  67.610  1.00  0.00     0.121 C 
HETATM   10  C9  UNL     1       6.570   1.044  68.078  1.00  0.00     0.039 C 
HETATM   11  C10 UNL     1       6.579   0.938  69.600  1.00  0.00     0.121 C 
HETATM   12  N4  UNL     1       6.175   2.200  70.203  1.00  0.00    -0.385 N 
ATOM     13  H4  UNL     1       6.709   2.491  71.022  1.00  0.00     0.159 HD
ENDROOT
BRANCH   1  14
HETATM   14  N1  UNL     1       2.546   4.340  67.697  1.00  0.00    -0.304 N 
HETATM   15  C3  UNL     1       1.201   3.935  67.892  1.00  0.00     0.241 C 
HETATM   16  O1  UNL     1       0.859   3.328  68.919  1.00  0.00    -0.271 OA
ATOM     17  H1  UNL     1       2.815   4.840  66.848  1.00  0.00     0.171 HD
BRANCH  15  18
HETATM   18  C2  UNL     1       0.182   4.237  66.864  1.00  0.00     0.170 C 
HETATM   19  C1  UNL     1       0.840   4.808  65.642  1.00  0.00     0.037 C 
HETATM   20 CL1  UNL     1      -1.004   5.400  67.473  1.00  0.00    -0.115 Cl
ENDBRANCH  15  18
ENDBRANCH   1  14
TORSDOF 2
ENDMDL
MODEL 3
REMARK VINA RESULT: -6.919379366      2.196      2.899
REMARK  2 active torsions:
REMARK  status: ('A' for Active; 'I' for Inactive)
REMARK    1  A    between atoms: C2_2  and  C3_4 
REMARK       I    between atoms: C3_4  and  N1_6 
REMARK    2  A    between atoms: N1_6  and  C4_8 
ROOT
HETATM    1  C4  UNL     1       3.377   3.340  70.034  1.00  0.00     0.181 A 
HETATM    2  O2  UNL     1       2.963   3.270  71.258  1.00  0.00    -0.274 OA
HETATM    3  C5  UNL     1       3.800   2.628  72.009  1.00  0.00     0.188 A 
HETATM    4  N2  UNL     1       3.660   2.372  73.383  1.00  0.00    -0.072 NA
HETATM    5  C6  UNL     1       4.852   2.238  71.239  1.00  0.00     0.108 A 
HETATM    6  C7  UNL     1       4.590   2.696  69.945  1.00  0.00     0.111 A 
HETATM    7  N3  UNL     1       5.356   2.564  68.758  1.00  0.00    -0.384 N 
ATOM      8  H3  UNL     1       5.070   3.131  67.960  1.00  0.00     0.159 HD
HETATM    9  C8  UNL     1       6.503   1.704  68.570  1.00  0.00     0.121 C 
HETATM   10  C9  UNL     1       7.455   1.919  69.731  1.00  0.00     0.039 C 
HETATM   11  C10 UNL     1       7.056   0.948  70.838  1.00  0.00     0.121 C 
HETATM   12  N4  UNL     1       5.991   1.513  71.655  1.00  0.00    -0.385 N 
ATOM     13  H4  UNL     1       6.078   1.365  72.660  1.00  0.00     0.159 HD
ENDROOT
BRANCH   1  14
HETATM   14  N1  UNL     1       2.722   3.964  68.947  1.00  0.00    -0.304 N 
HETATM   15  C3  UNL     1       1.533   3.392  68.426  1.00  0.00     0.241 C 
HETATM   16  O1  UNL     1       1.059   2.352  68.911  1.00  0.00    -0.271 OA
ATOM     17  H1  UNL     1       3.101   4.820  68.540  1.00  0.00     0.171 HD
BRANCH  15  18
HETATM   18  C2  UNL     1       0.838   4.035  67.291  1.00  0.00     0.170 C 
HETATM   19  C1  UNL     1       1.843   4.621  66.342  1.00  0.00     0.037 C 
HETATM   20 CL1  UNL     1      -0.235   5.323  67.856  1.00  0.00    -0.115 Cl
ENDBRANCH  15  18
ENDBRANCH   1  14
TORSDOF 2
ENDMDL
MODEL 4
REMARK VINA RESULT: -6.909806911      2.201      2.634
REMARK  2 active torsions:
REMARK  status: ('A' for Active; 'I' for Inactive)
REMARK    1  A    between atoms: C2_2  and  C3_4 
REMARK       I    between atoms: C3_4  and  N1_6 
REMARK    2  A    between atoms: N1_6  and  C4_8 
ROOT
HETATM    1  C4  UNL     1       4.199   3.913  68.469  1.00  0.00     0.181 A 
HETATM    2  O2  UNL     1       4.237   4.553  69.593  1.00  0.00    -0.274 OA
HETATM    3  C5  UNL     1       5.054   3.999  70.431  1.00  0.00     0.188 A 
HETATM    4  N2  UNL     1       5.332   4.437  71.737  1.00  0.00    -0.072 NA
HETATM    5  C6  UNL     1       5.606   2.908  69.831  1.00  0.00     0.108 A 
HETATM    6  C7  UNL     1       5.057   2.839  68.548  1.00  0.00     0.111 A 
HETATM    7  N3  UNL     1       5.286   1.903  67.508  1.00  0.00    -0.384 N 
ATOM      8  H3  UNL     1       4.920   2.140  66.586  1.00  0.00     0.159 HD
HETATM    9  C8  UNL     1       5.986   0.643  67.627  1.00  0.00     0.121 C 
HETATM   10  C9  UNL     1       7.302   0.896  68.340  1.00  0.00     0.039 C 
HETATM   11  C10 UNL     1       7.045   0.762  69.838  1.00  0.00     0.121 C 
HETATM   12  N4  UNL     1       6.549   2.016  70.387  1.00  0.00    -0.385 N 
ATOM     13  H4  UNL     1       6.934   2.287  71.292  1.00  0.00     0.159 HD
ENDROOT
BRANCH   1  14
HETATM   14  N1  UNL     1       3.421   4.232  67.331  1.00  0.00    -0.304 N 
HETATM   15  C3  UNL     1       2.007   4.265  67.439  1.00  0.00     0.241 C 
HETATM   16  O1  UNL     1       1.443   4.018  68.517  1.00  0.00    -0.271 OA
ATOM     17  H1  UNL     1       3.874   4.438  66.440  1.00  0.00     0.171 HD
BRANCH  15  18
HETATM   18  C2  UNL     1       1.184   4.598  66.258  1.00  0.00     0.170 C 
HETATM   19  C1  UNL     1      -0.112   5.218  66.694  1.00  0.00     0.037 C 
HETATM   20 CL1  UNL     1       0.833   3.150  65.304  1.00  0.00    -0.115 Cl
ENDBRANCH  15  18
ENDBRANCH   1  14
TORSDOF 2
ENDMDL
MODEL 5
REMARK VINA RESULT: -6.795547869      2.960      5.041
REMARK  2 active torsions:
REMARK  status: ('A' for Active; 'I' for Inactive)
REMARK    1  A    between atoms: C2_2  and  C3_4 
REMARK       I    between atoms: C3_4  and  N1_6 
REMARK    2  A    between atoms: N1_6  and  C4_8 
ROOT
HETATM    1  C4  UNL     1       6.905   1.181  69.800  1.00  0.00     0.181 A 
HETATM    2  O2  UNL     1       7.967   1.813  70.187  1.00  0.00    -0.274 OA
HETATM    3  C5  UNL     1       7.676   2.966  70.701  1.00  0.00     0.188 A 
HETATM    4  N2  UNL     1       8.588   3.901  71.218  1.00  0.00    -0.072 NA
HETATM    5  C6  UNL     1       6.324   3.124  70.658  1.00  0.00     0.108 A 
HETATM    6  C7  UNL     1       5.806   1.965  70.072  1.00  0.00     0.111 A 
HETATM    7  N3  UNL     1       4.463   1.609  69.790  1.00  0.00    -0.384 N 
ATOM      8  H3  UNL     1       4.289   0.639  69.526  1.00  0.00     0.159 HD
HETATM    9  C8  UNL     1       3.315   2.487  69.838  1.00  0.00     0.121 C 
HETATM   10  C9  UNL     1       3.344   3.235  71.159  1.00  0.00     0.039 C 
HETATM   11  C10 UNL     1       4.161   4.506  70.949  1.00  0.00     0.121 C 
HETATM   12  N4  UNL     1       5.581   4.235  71.114  1.00  0.00    -0.385 N 
ATOM     13  H4  UNL     1       6.110   4.940  71.627  1.00  0.00     0.159 HD
ENDROOT
BRANCH   1  14
HETATM   14  N1  UNL     1       6.845  -0.097  69.198  1.00  0.00    -0.304 N 
HETATM   15  C3  UNL     1       6.716  -0.199  67.789  1.00  0.00     0.241 C 
HETATM   16  O1  UNL     1       6.656   0.816  67.077  1.00  0.00    -0.271 OA
ATOM     17  H1  UNL     1       6.895  -0.939  69.772  1.00  0.00     0.171 HD
BRANCH  15  18
HETATM   18  C2  UNL     1       6.654  -1.530  67.147  1.00  0.00     0.170 C 
HETATM   19  C1  UNL     1       5.843  -1.453  65.887  1.00  0.00     0.037 C 
HETATM   20 CL1  UNL     1       5.917  -2.719  68.231  1.00  0.00    -0.115 Cl
ENDBRANCH  15  18
ENDBRANCH   1  14
TORSDOF 2
ENDMDL
