MODEL 1
REMARK VINA RESULT: -7.911399252      0.000      0.000
REMARK  4 active torsions:
REMARK  status: ('A' for Active; 'I' for Inactive)
REMARK    1  A    between atoms: C2_2  and  C3_3 
REMARK    2  A    between atoms: C3_3  and  N1_4 
REMARK    3  A    between atoms: C4_5  and  N2_6 
REMARK    4  A    between atoms: C5_11  and  N4_12 
ROOT
HETATM    1  N1  UNL     1       6.436   1.965  68.820  1.00  0.00    -0.158 N 
HETATM    2  C4  UNL     1       7.181   2.337  69.903  1.00  0.00     0.684 A 
HETATM    3  N3  UNL     1       6.842   3.228  70.816  1.00  0.00    -0.176 N 
ATOM      4  H3  UNL     1       7.480   3.427  71.587  1.00  0.00     0.186 HD
HETATM    5  C5  UNL     1       5.677   3.871  70.745  1.00  0.00     0.129 A 
HETATM    6  C6  UNL     1       4.850   3.567  69.684  1.00  0.00     0.066 A 
HETATM    7  C7  UNL     1       3.627   4.203  69.551  1.00  0.00     0.102 A 
HETATM    8  N5  UNL     1       3.260   5.164  70.537  1.00  0.00    -0.098 NA
HETATM    9  C8  UNL     1       2.805   3.897  68.487  1.00  0.00     0.150 A 
HETATM   10  F1  UNL     1       1.608   4.516  68.352  1.00  0.00    -0.203 F 
HETATM   11  C9  UNL     1       3.180   2.981  67.567  1.00  0.00     0.019 A 
HETATM   12  C10 UNL     1       2.341   2.598  66.387  1.00  0.00     0.055 C 
HETATM   13  C11 UNL     1       4.417   2.330  67.692  1.00  0.00     0.154 A 
HETATM   14  F2  UNL     1       4.774   1.430  66.768  1.00  0.00    -0.203 F 
HETATM   15  C12 UNL     1       5.233   2.620  68.732  1.00  0.00     0.111 A 
ENDROOT
BRANCH   1  16
HETATM   16  C3  UNL     1       6.933   1.001  67.928  1.00  0.00     0.088 C 
BRANCH  16  17
HETATM   17  C2  UNL     1       6.758  -0.451  68.367  1.00  0.00     0.041 C 
HETATM   18  C1  UNL     1       6.842  -1.380  67.196  1.00  0.00     0.010 C 
ENDBRANCH  16  17
ENDBRANCH   1  16
BRANCH   2  19
HETATM   19  N2  UNL     1       8.350   1.734  70.039  1.00  0.00    -0.234 N 
ATOM     20  H22 UNL     1       9.090   1.982  69.381  1.00  0.00     0.174 HD
ATOM     21  H21 UNL     1       8.421   1.061  70.802  1.00  0.00     0.174 HD
ENDBRANCH   2  19
BRANCH   5  22
HETATM   22  N4  UNL     1       5.317   4.746  71.619  1.00  0.00    -0.384 N 
ATOM     23  H42 UNL     1       5.855   4.868  72.477  1.00  0.00     0.157 HD
ATOM     24  H41 UNL     1       4.497   5.340  71.494  1.00  0.00     0.157 HD
ENDBRANCH   5  22
TORSDOF 4
ENDMDL
MODEL 2
REMARK VINA RESULT: -7.540868930      1.496      4.537
REMARK  4 active torsions:
REMARK  status: ('A' for Active; 'I' for Inactive)
REMARK    1  A    between atoms: C2_2  and  C3_3 
REMARK    2  A    between atoms: C3_3  and  N1_4 
REMARK    3  A    between atoms: C4_5  and  N2_6 
REMARK    4  A    between atoms: C5_11  and  N4_12 
ROOT
HETATM    1  N1  UNL     1       3.774   3.251  68.821  1.00  0.00    -0.158 N 
HETATM    2  C4  UNL     1       3.960   4.090  69.882  1.00  0.00     0.684 A 
HETATM    3  N3  UNL     1       5.051   4.189  70.619  1.00  0.00    -0.176 N 
ATOM      4  H3  UNL     1       5.078   4.855  71.391  1.00  0.00     0.186 HD
HETATM    5  C5  UNL     1       6.117   3.430  70.367  1.00  0.00     0.129 A 
HETATM    6  C6  UNL     1       6.030   2.545  69.313  1.00  0.00     0.066 A 
HETATM    7  C7  UNL     1       7.102   1.726  69.001  1.00  0.00     0.102 A 
HETATM    8  N5  UNL     1       8.280   1.833  69.795  1.00  0.00    -0.098 NA
HETATM    9  C8  UNL     1       7.009   0.842  67.948  1.00  0.00     0.150 A 
HETATM   10  F1  UNL     1       8.054   0.038  67.638  1.00  0.00    -0.203 F 
HETATM   11  C9  UNL     1       5.878   0.763  67.212  1.00  0.00     0.019 A 
HETATM   12  C10 UNL     1       5.704  -0.172  66.056  1.00  0.00     0.055 C 
HETATM   13  C11 UNL     1       4.785   1.588  67.519  1.00  0.00     0.154 A 
HETATM   14  F2  UNL     1       3.671   1.491  66.783  1.00  0.00    -0.203 F 
HETATM   15  C12 UNL     1       4.863   2.462  68.549  1.00  0.00     0.111 A 
ENDROOT
BRANCH   1  16
HETATM   16  C3  UNL     1       2.550   3.255  68.133  1.00  0.00     0.088 C 
BRANCH  16  17
HETATM   17  C2  UNL     1       2.415   4.315  67.041  1.00  0.00     0.041 C 
HETATM   18  C1  UNL     1       0.979   4.669  66.811  1.00  0.00     0.010 C 
ENDBRANCH  16  17
ENDBRANCH   1  16
BRANCH   2  19
HETATM   19  N2  UNL     1       2.941   4.877  70.186  1.00  0.00    -0.234 N 
ATOM     20  H22 UNL     1       2.787   5.699  69.602  1.00  0.00     0.174 HD
ATOM     21  H21 UNL     1       2.380   4.593  70.990  1.00  0.00     0.174 HD
ENDBRANCH   2  19
BRANCH   5  22
HETATM   22  N4  UNL     1       7.197   3.502  71.067  1.00  0.00    -0.384 N 
ATOM     23  H42 UNL     1       7.163   3.375  72.079  1.00  0.00     0.157 HD
ATOM     24  H41 UNL     1       8.108   3.685  70.649  1.00  0.00     0.157 HD
ENDBRANCH   5  22
TORSDOF 4
ENDMDL
MODEL 3
REMARK VINA RESULT: -7.419847041      1.202      1.241
REMARK  4 active torsions:
REMARK  status: ('A' for Active; 'I' for Inactive)
REMARK    1  A    between atoms: C2_2  and  C3_3 
REMARK    2  A    between atoms: C3_3  and  N1_4 
REMARK    3  A    between atoms: C4_5  and  N2_6 
REMARK    4  A    between atoms: C5_11  and  N4_12 
ROOT
HETATM    1  N1  UNL     1       6.084   1.294  69.845  1.00  0.00    -0.158 N 
HETATM    2  C4  UNL     1       6.985   2.010  70.581  1.00  0.00     0.684 A 
HETATM    3  N3  UNL     1       6.778   3.188  71.139  1.00  0.00    -0.176 N 
ATOM      4  H3  UNL     1       7.527   3.632  71.670  1.00  0.00     0.186 HD
HETATM    5  C5  UNL     1       5.603   3.805  71.018  1.00  0.00     0.129 A 
HETATM    6  C6  UNL     1       4.622   3.163  70.291  1.00  0.00     0.066 A 
HETATM    7  C7  UNL     1       3.380   3.753  70.126  1.00  0.00     0.102 A 
HETATM    8  N5  UNL     1       3.156   5.024  70.729  1.00  0.00    -0.098 NA
HETATM    9  C8  UNL     1       2.405   3.108  69.396  1.00  0.00     0.150 A 
HETATM   10  F1  UNL     1       1.188   3.680  69.231  1.00  0.00    -0.203 F 
HETATM   11  C9  UNL     1       2.647   1.902  68.835  1.00  0.00     0.019 A 
HETATM   12  C10 UNL     1       1.637   1.144  68.030  1.00  0.00     0.055 C 
HETATM   13  C11 UNL     1       3.902   1.296  68.996  1.00  0.00     0.154 A 
HETATM   14  F2  UNL     1       4.125   0.104  68.429  1.00  0.00    -0.203 F 
HETATM   15  C12 UNL     1       4.868   1.916  69.712  1.00  0.00     0.111 A 
ENDROOT
BRANCH   1  16
HETATM   16  C3  UNL     1       6.451   0.049  69.309  1.00  0.00     0.088 C 
BRANCH  16  17
HETATM   17  C2  UNL     1       7.174   0.101  67.965  1.00  0.00     0.041 C 
HETATM   18  C1  UNL     1       6.956  -1.160  67.189  1.00  0.00     0.010 C 
ENDBRANCH  16  17
ENDBRANCH   1  16
BRANCH   2  19
HETATM   19  N2  UNL     1       8.174   1.454  70.745  1.00  0.00    -0.234 N 
ATOM     20  H22 UNL     1       8.881   1.630  70.031  1.00  0.00     0.174 HD
ATOM     21  H21 UNL     1       8.291   0.887  71.586  1.00  0.00     0.174 HD
ENDBRANCH   2  19
BRANCH   5  22
HETATM   22  N4  UNL     1       5.369   4.956  71.551  1.00  0.00    -0.384 N 
ATOM     23  H42 UNL     1       4.702   5.041  72.317  1.00  0.00     0.157 HD
ATOM     24  H41 UNL     1       5.831   5.808  71.235  1.00  0.00     0.157 HD
ENDBRANCH   5  22
TORSDOF 4
ENDMDL
MODEL 4
REMARK VINA RESULT: -7.080784549      1.083      1.123
REMARK  4 active torsions:
REMARK  status: ('A' for Active; 'I' for Inactive)
REMARK    1  A    between atoms: C2_2  and  C3_3 
REMARK    2  A    between atoms: C3_3  and  N1_4 
REMARK    3  A    between atoms: C4_5  and  N2_6 
REMARK    4  A    between atoms: C5_11  and  N4_12 
ROOT
HETATM    1  N1  UNL     1       5.556   2.207  68.122  1.00  0.00    -0.158 N 
HETATM    2  C4  UNL     1       6.406   2.306  69.187  1.00  0.00     0.684 A 
HETATM    3  N3  UNL     1       6.215   3.029  70.275  1.00  0.00    -0.176 N 
ATOM      4  H3  UNL     1       6.921   3.028  71.010  1.00  0.00     0.186 HD
HETATM    5  C5  UNL     1       5.111   3.762  70.425  1.00  0.00     0.129 A 
HETATM    6  C6  UNL     1       4.187   3.730  69.402  1.00  0.00     0.066 A 
HETATM    7  C7  UNL     1       3.020   4.471  69.496  1.00  0.00     0.102 A 
HETATM    8  N5  UNL     1       2.814   5.250  70.670  1.00  0.00    -0.098 NA
HETATM    9  C8  UNL     1       2.101   4.437  68.469  1.00  0.00     0.150 A 
HETATM   10  F1  UNL     1       0.958   5.160  68.555  1.00  0.00    -0.203 F 
HETATM   11  C9  UNL     1       2.324   3.688  67.367  1.00  0.00     0.019 A 
HETATM   12  C10 UNL     1       1.373   3.604  66.214  1.00  0.00     0.055 C 
HETATM   13  C11 UNL     1       3.503   2.934  67.261  1.00  0.00     0.154 A 
HETATM   14  F2  UNL     1       3.710   2.203  66.159  1.00  0.00    -0.203 F 
HETATM   15  C12 UNL     1       4.414   2.956  68.262  1.00  0.00     0.111 A 
ENDROOT
BRANCH   1  16
HETATM   16  C3  UNL     1       5.897   1.397  67.028  1.00  0.00     0.088 C 
BRANCH  16  17
HETATM   17  C2  UNL     1       5.657  -0.100  67.218  1.00  0.00     0.041 C 
HETATM   18  C1  UNL     1       5.729  -0.825  65.911  1.00  0.00     0.010 C 
ENDBRANCH  16  17
ENDBRANCH   1  16
BRANCH   2  19
HETATM   19  N2  UNL     1       7.522   1.601  69.106  1.00  0.00    -0.234 N 
ATOM     20  H22 UNL     1       8.361   2.080  68.778  1.00  0.00     0.174 HD
ATOM     21  H21 UNL     1       7.454   0.622  69.386  1.00  0.00     0.174 HD
ENDBRANCH   2  19
BRANCH   5  22
HETATM   22  N4  UNL     1       4.895   4.478  71.474  1.00  0.00    -0.384 N 
ATOM     23  H42 UNL     1       5.539   4.440  72.264  1.00  0.00     0.157 HD
ATOM     24  H41 UNL     1       4.091   5.098  71.556  1.00  0.00     0.157 HD
ENDBRANCH   5  22
TORSDOF 4
ENDMDL
MODEL 5
REMARK VINA RESULT: -7.011543777      1.565      2.322
REMARK  4 active torsions:
REMARK  status: ('A' for Active; 'I' for Inactive)
REMARK    1  A    between atoms: C2_2  and  C3_3 
REMARK    2  A    between atoms: C3_3  and  N1_4 
REMARK    3  A    between atoms: C4_5  and  N2_6 
REMARK    4  A    between atoms: C5_11  and  N4_12 
ROOT
HETATM    1  N1  UNL     1       6.182   1.128  67.542  1.00  0.00    -0.158 N 
HETATM    2  C4  UNL     1       7.310   0.627  68.126  1.00  0.00     0.684 A 
HETATM    3  N3  UNL     1       7.814   0.990  69.292  1.00  0.00    -0.176 N 
ATOM      4  H3  UNL     1       8.666   0.545  69.632  1.00  0.00     0.186 HD
HETATM    5  C5  UNL     1       7.223   1.929  70.029  1.00  0.00     0.129 A 
HETATM    6  C6  UNL     1       6.074   2.500  69.525  1.00  0.00     0.066 A 
HETATM    7  C7  UNL     1       5.414   3.485  70.242  1.00  0.00     0.102 A 
HETATM    8  N5  UNL     1       5.957   3.875  71.500  1.00  0.00    -0.098 NA
HETATM    9  C8  UNL     1       4.267   4.054  69.733  1.00  0.00     0.150 A 
HETATM   10  F1  UNL     1       3.617   5.017  70.429  1.00  0.00    -0.203 F 
HETATM   11  C9  UNL     1       3.776   3.663  68.536  1.00  0.00     0.019 A 
HETATM   12  C10 UNL     1       2.537   4.236  67.920  1.00  0.00     0.055 C 
HETATM   13  C11 UNL     1       4.436   2.666  67.801  1.00  0.00     0.154 A 
HETATM   14  F2  UNL     1       3.938   2.296  66.615  1.00  0.00    -0.203 F 
HETATM   15  C12 UNL     1       5.562   2.098  68.290  1.00  0.00     0.111 A 
ENDROOT
BRANCH   1  16
HETATM   16  C3  UNL     1       5.769   0.644  66.290  1.00  0.00     0.088 C 
BRANCH  16  17
HETATM   17  C2  UNL     1       5.016  -0.684  66.315  1.00  0.00     0.041 C 
HETATM   18  C1  UNL     1       5.336  -1.506  65.106  1.00  0.00     0.010 C 
ENDBRANCH  16  17
ENDBRANCH   1  16
BRANCH   2  19
HETATM   19  N2  UNL     1       7.946  -0.314  67.449  1.00  0.00    -0.234 N 
ATOM     20  H22 UNL     1       8.937  -0.170  67.255  1.00  0.00     0.174 HD
ATOM     21  H21 UNL     1       7.388  -1.123  67.174  1.00  0.00     0.174 HD
ENDBRANCH   2  19
BRANCH   5  22
HETATM   22  N4  UNL     1       7.690   2.306  71.171  1.00  0.00    -0.384 N 
ATOM     23  H42 UNL     1       7.282   1.949  72.035  1.00  0.00     0.157 HD
ATOM     24  H41 UNL     1       8.467   2.960  71.254  1.00  0.00     0.157 HD
ENDBRANCH   5  22
TORSDOF 4
ENDMDL
