MODEL 1
REMARK VINA RESULT: -6.910998831      0.000      0.000
REMARK  4 active torsions:
REMARK  status: ('A' for Active; 'I' for Inactive)
REMARK    1  A    between atoms: N1_2  and  N2_4 
REMARK    2  A    between atoms: C4_7  and  O1_8 
REMARK    3  A    between atoms: C5_10  and  C6_11 
REMARK    4  A    between atoms: C7_13  and  N3_14 
ROOT
HETATM    1  N2  UNL     1       4.189   2.968  70.178  1.00  0.00    -0.227 N 
HETATM    2  C2  UNL     1       4.239   1.849  69.441  1.00  0.00     0.138 A 
HETATM    3  C3  UNL     1       5.443   1.223  69.130  1.00  0.00     0.052 A 
HETATM    4  C4  UNL     1       6.629   1.725  69.575  1.00  0.00     0.092 A 
HETATM    5  C5  UNL     1       6.601   2.891  70.342  1.00  0.00     0.050 A 
HETATM    6  C7  UNL     1       5.365   3.489  70.626  1.00  0.00     0.134 A 
HETATM    7  C8  UNL     1       5.367   0.062  68.242  1.00  0.00    -0.006 C 
HETATM    8  C9  UNL     1       6.117   0.006  67.199  1.00  0.00     0.097 C 
HETATM    9  C10 UNL     1       6.124  -1.160  66.242  1.00  0.00     0.082 C 
HETATM   10  F2  UNL     1       6.875   1.057  66.757  1.00  0.00    -0.211 F 
HETATM   11  C11 UNL     1       4.314  -0.969  68.496  1.00  0.00     0.062 C 
HETATM   12  C12 UNL     1       3.018  -0.285  68.915  1.00  0.00     0.126 C 
HETATM   13  N4  UNL     1       3.092   1.155  68.953  1.00  0.00    -0.374 N 
ATOM     14  H4  UNL     1       2.295   1.697  68.619  1.00  0.00     0.161 HD
ENDROOT
BRANCH   1  15
HETATM   15  N1  UNL     1       2.950   3.523  70.442  1.00  0.00    -0.331 N 
HETATM   16  C1  UNL     1       2.274   4.527  69.666  1.00  0.00     0.168 C 
ATOM     17  H1  UNL     1       2.466   3.185  71.274  1.00  0.00     0.180 HD
ENDBRANCH   1  15
BRANCH   6  18
HETATM   18  N3  UNL     1       5.381   4.503  71.299  1.00  0.00    -0.383 N 
ATOM     19  H32 UNL     1       4.540   5.081  71.289  1.00  0.00     0.157 HD
ATOM     20  H31 UNL     1       6.207   4.755  71.843  1.00  0.00     0.157 HD
ENDBRANCH   6  18
BRANCH   5  21
HETATM   21  C6  UNL     1       7.875   3.438  70.818  1.00  0.00     0.267 C 
HETATM   22  F1  UNL     1       8.291   2.781  71.951  1.00  0.00    -0.250 F 
ENDBRANCH   5  21
BRANCH   4  23
HETATM   23  O1  UNL     1       7.783   1.096  69.290  1.00  0.00    -0.359 OA
ATOM     24  H1  UNL     1       8.471   1.547  68.814  1.00  0.00     0.217 HD
ENDBRANCH   4  23
TORSDOF 4
ENDMDL
MODEL 2
REMARK VINA RESULT: -6.777196098      2.678      4.264
REMARK  4 active torsions:
REMARK  status: ('A' for Active; 'I' for Inactive)
REMARK    1  A    between atoms: N1_2  and  N2_4 
REMARK    2  A    between atoms: C4_7  and  O1_8 
REMARK    3  A    between atoms: C5_10  and  C6_11 
REMARK    4  A    between atoms: C7_13  and  N3_14 
ROOT
HETATM    1  N2  UNL     1       6.290   1.137  68.266  1.00  0.00    -0.227 N 
HETATM    2  C2  UNL     1       5.077   1.674  68.066  1.00  0.00     0.138 A 
HETATM    3  C3  UNL     1       4.645   2.800  68.761  1.00  0.00     0.052 A 
HETATM    4  C4  UNL     1       5.450   3.411  69.675  1.00  0.00     0.092 A 
HETATM    5  C5  UNL     1       6.716   2.867  69.902  1.00  0.00     0.050 A 
HETATM    6  C7  UNL     1       7.106   1.729  69.182  1.00  0.00     0.134 A 
HETATM    7  C8  UNL     1       3.268   3.231  68.517  1.00  0.00    -0.006 C 
HETATM    8  C9  UNL     1       2.478   3.435  69.510  1.00  0.00     0.097 C 
HETATM    9  C10 UNL     1       1.052   3.903  69.355  1.00  0.00     0.082 C 
HETATM   10  F2  UNL     1       2.788   3.106  70.802  1.00  0.00    -0.211 F 
HETATM   11  C11 UNL     1       2.772   3.287  67.107  1.00  0.00     0.062 C 
HETATM   12  C12 UNL     1       3.313   2.095  66.325  1.00  0.00     0.126 C 
HETATM   13  N4  UNL     1       4.139   1.202  67.101  1.00  0.00    -0.374 N 
ATOM     14  H4  UNL     1       4.048   0.197  66.954  1.00  0.00     0.161 HD
ENDROOT
BRANCH   1  15
HETATM   15  N1  UNL     1       6.641   0.019  67.531  1.00  0.00    -0.331 N 
HETATM   16  C1  UNL     1       6.564  -1.352  67.961  1.00  0.00     0.168 C 
ATOM     17  H1  UNL     1       6.989   0.184  66.587  1.00  0.00     0.180 HD
ENDBRANCH   1  15
BRANCH   6  18
HETATM   18  N3  UNL     1       8.218   1.286  69.406  1.00  0.00    -0.383 N 
ATOM     19  H32 UNL     1       8.293   0.562  70.121  1.00  0.00     0.157 HD
ATOM     20  H31 UNL     1       9.030   1.633  68.896  1.00  0.00     0.157 HD
ENDBRANCH   6  18
BRANCH   5  21
HETATM   21  C6  UNL     1       7.583   3.517  70.888  1.00  0.00     0.267 C 
HETATM   22  F1  UNL     1       7.731   2.724  72.001  1.00  0.00    -0.250 F 
ENDBRANCH   5  21
BRANCH   4  23
HETATM   23  O1  UNL     1       5.031   4.514  70.320  1.00  0.00    -0.359 OA
ATOM     24  H1  UNL     1       4.178   4.531  70.738  1.00  0.00     0.217 HD
ENDBRANCH   4  23
TORSDOF 4
ENDMDL
MODEL 3
REMARK VINA RESULT: -6.284711597      2.588      4.762
REMARK  4 active torsions:
REMARK  status: ('A' for Active; 'I' for Inactive)
REMARK    1  A    between atoms: N1_2  and  N2_4 
REMARK    2  A    between atoms: C4_7  and  O1_8 
REMARK    3  A    between atoms: C5_10  and  C6_11 
REMARK    4  A    between atoms: C7_13  and  N3_14 
ROOT
HETATM    1  N2  UNL     1       6.663   2.466  69.382  1.00  0.00    -0.227 N 
HETATM    2  C2  UNL     1       5.464   3.068  69.400  1.00  0.00     0.138 A 
HETATM    3  C3  UNL     1       4.398   2.609  68.631  1.00  0.00     0.052 A 
HETATM    4  C4  UNL     1       4.531   1.516  67.829  1.00  0.00     0.092 A 
HETATM    5  C5  UNL     1       5.772   0.876  67.793  1.00  0.00     0.050 A 
HETATM    6  C7  UNL     1       6.818   1.376  68.580  1.00  0.00     0.134 A 
HETATM    7  C8  UNL     1       3.172   3.408  68.671  1.00  0.00    -0.006 C 
HETATM    8  C9  UNL     1       2.619   3.783  67.573  1.00  0.00     0.097 C 
HETATM    9  C10 UNL     1       1.343   4.586  67.516  1.00  0.00     0.082 C 
HETATM   10  F2  UNL     1       3.202   3.631  66.342  1.00  0.00    -0.211 F 
HETATM   11  C11 UNL     1       2.670   3.887  69.995  1.00  0.00     0.062 C 
HETATM   12  C12 UNL     1       3.846   4.313  70.866  1.00  0.00     0.126 C 
HETATM   13  N4  UNL     1       5.134   4.179  70.230  1.00  0.00    -0.374 N 
ATOM     14  H4  UNL     1       5.834   4.905  70.381  1.00  0.00     0.161 HD
ENDROOT
BRANCH   1  15
HETATM   15  N1  UNL     1       7.667   2.986  70.178  1.00  0.00    -0.331 N 
HETATM   16  C1  UNL     1       7.949   2.636  71.545  1.00  0.00     0.168 C 
ATOM     17  H1  UNL     1       8.271   3.689  69.753  1.00  0.00     0.180 HD
ENDBRANCH   1  15
BRANCH   6  18
HETATM   18  N3  UNL     1       7.883   0.790  68.523  1.00  0.00    -0.383 N 
ATOM     19  H32 UNL     1       8.502   0.872  69.331  1.00  0.00     0.157 HD
ATOM     20  H31 UNL     1       8.137   0.247  67.698  1.00  0.00     0.157 HD
ENDBRANCH   6  18
BRANCH   5  21
HETATM   21  C6  UNL     1       5.921  -0.297  66.927  1.00  0.00     0.267 C 
HETATM   22  F1  UNL     1       6.024   0.082  65.610  1.00  0.00    -0.250 F 
ENDBRANCH   5  21
BRANCH   4  23
HETATM   23  O1  UNL     1       3.485   1.067  67.112  1.00  0.00    -0.359 OA
ATOM     24  H1  UNL     1       3.518   0.213  66.698  1.00  0.00     0.217 HD
ENDBRANCH   4  23
TORSDOF 4
ENDMDL
MODEL 4
REMARK VINA RESULT: -6.193890943      2.784      4.499
REMARK  4 active torsions:
REMARK  status: ('A' for Active; 'I' for Inactive)
REMARK    1  A    between atoms: N1_2  and  N2_4 
REMARK    2  A    between atoms: C4_7  and  O1_8 
REMARK    3  A    between atoms: C5_10  and  C6_11 
REMARK    4  A    between atoms: C7_13  and  N3_14 
ROOT
HETATM    1  N2  UNL     1       4.433   0.683  68.810  1.00  0.00    -0.227 N 
HETATM    2  C2  UNL     1       3.460   1.434  68.272  1.00  0.00     0.138 A 
HETATM    3  C3  UNL     1       3.381   2.807  68.492  1.00  0.00     0.052 A 
HETATM    4  C4  UNL     1       4.304   3.447  69.264  1.00  0.00     0.092 A 
HETATM    5  C5  UNL     1       5.324   2.684  69.836  1.00  0.00     0.050 A 
HETATM    6  C7  UNL     1       5.360   1.304  69.590  1.00  0.00     0.134 A 
HETATM    7  C8  UNL     1       2.221   3.495  67.924  1.00  0.00    -0.006 C 
HETATM    8  C9  UNL     1       1.501   4.253  68.671  1.00  0.00     0.097 C 
HETATM    9  C10 UNL     1       0.303   5.020  68.168  1.00  0.00     0.082 C 
HETATM   10  F2  UNL     1       1.643   4.330  70.031  1.00  0.00    -0.211 F 
HETATM   11  C11 UNL     1       1.821   3.186  66.517  1.00  0.00     0.062 C 
HETATM   12  C12 UNL     1       1.985   1.693  66.253  1.00  0.00     0.126 C 
HETATM   13  N4  UNL     1       2.456   0.939  67.388  1.00  0.00    -0.374 N 
ATOM     14  H4  UNL     1       2.058   0.016  67.565  1.00  0.00     0.161 HD
ENDROOT
BRANCH   1  15
HETATM   15  N1  UNL     1       4.438  -0.673  68.538  1.00  0.00    -0.331 N 
HETATM   16  C1  UNL     1       5.139  -1.334  67.469  1.00  0.00     0.168 C 
ATOM     17  H1  UNL     1       3.888  -1.266  69.159  1.00  0.00     0.180 HD
ENDBRANCH   1  15
BRANCH   6  18
HETATM   18  N3  UNL     1       6.265   0.673  70.105  1.00  0.00    -0.383 N 
ATOM     19  H32 UNL     1       6.023  -0.220  70.534  1.00  0.00     0.157 HD
ATOM     20  H31 UNL     1       7.219   1.033  70.102  1.00  0.00     0.157 HD
ENDBRANCH   6  18
BRANCH   5  21
HETATM   21  C6  UNL     1       6.315   3.367  70.671  1.00  0.00     0.267 C 
HETATM   22  F1  UNL     1       7.473   3.590  69.965  1.00  0.00    -0.250 F 
ENDBRANCH   5  21
BRANCH   4  23
HETATM   23  O1  UNL     1       4.232   4.777  69.446  1.00  0.00    -0.359 OA
ATOM     24  H1  UNL     1       4.313   5.368  68.707  1.00  0.00     0.217 HD
ENDBRANCH   4  23
TORSDOF 4
ENDMDL
MODEL 5
REMARK VINA RESULT: -6.154693429      2.548      3.614
REMARK  4 active torsions:
REMARK  status: ('A' for Active; 'I' for Inactive)
REMARK    1  A    between atoms: N1_2  and  N2_4 
REMARK    2  A    between atoms: C4_7  and  O1_8 
REMARK    3  A    between atoms: C5_10  and  C6_11 
REMARK    4  A    between atoms: C7_13  and  N3_14 
ROOT
HETATM    1  N2  UNL     1       4.375   3.025  70.420  1.00  0.00    -0.227 N 
HETATM    2  C2  UNL     1       5.203   2.120  69.877  1.00  0.00     0.138 A 
HETATM    3  C3  UNL     1       5.245   1.889  68.505  1.00  0.00     0.052 A 
HETATM    4  C4  UNL     1       4.444   2.587  67.652  1.00  0.00     0.092 A 
HETATM    5  C5  UNL     1       3.573   3.532  68.195  1.00  0.00     0.050 A 
HETATM    6  C7  UNL     1       3.562   3.727  69.584  1.00  0.00     0.134 A 
HETATM    7  C8  UNL     1       6.125   0.811  68.050  1.00  0.00    -0.006 C 
HETATM    8  C9  UNL     1       5.665  -0.101  67.270  1.00  0.00     0.097 C 
HETATM    9  C10 UNL     1       6.503  -1.235  66.732  1.00  0.00     0.082 C 
HETATM   10  F2  UNL     1       4.337  -0.236  66.965  1.00  0.00    -0.211 F 
HETATM   11  C11 UNL     1       7.505   0.722  68.619  1.00  0.00     0.062 C 
HETATM   12  C12 UNL     1       7.469   1.055  70.106  1.00  0.00     0.126 C 
HETATM   13  N4  UNL     1       6.152   1.353  70.615  1.00  0.00    -0.374 N 
ATOM     14  H4  UNL     1       5.891   1.004  71.537  1.00  0.00     0.161 HD
ENDROOT
BRANCH   1  15
HETATM   15  N1  UNL     1       4.400   3.194  71.792  1.00  0.00    -0.331 N 
HETATM   16  C1  UNL     1       3.701   2.401  72.769  1.00  0.00     0.168 C 
ATOM     17  H1  UNL     1       4.972   3.959  72.149  1.00  0.00     0.180 HD
ENDBRANCH   1  15
BRANCH   6  18
HETATM   18  N3  UNL     1       2.789   4.562  70.020  1.00  0.00    -0.383 N 
ATOM     19  H32 UNL     1       2.665   4.595  71.032  1.00  0.00     0.157 HD
ATOM     20  H31 UNL     1       2.293   5.192  69.391  1.00  0.00     0.157 HD
ENDBRANCH   6  18
BRANCH   5  21
HETATM   21  C6  UNL     1       2.705   4.281  67.282  1.00  0.00     0.267 C 
HETATM   22  F1  UNL     1       1.601   3.536  66.943  1.00  0.00    -0.250 F 
ENDBRANCH   5  21
BRANCH   4  23
HETATM   23  O1  UNL     1       4.514   2.373  66.326  1.00  0.00    -0.359 OA
ATOM     24  H1  UNL     1       3.977   2.880  65.729  1.00  0.00     0.217 HD
ENDBRANCH   4  23
TORSDOF 4
ENDMDL
