MODEL 1
REMARK VINA RESULT: -5.011009924      0.000      0.000
REMARK  1 active torsions:
REMARK  status: ('A' for Active; 'I' for Inactive)
REMARK       I    between atoms: C1_2  and  N1_4 
REMARK    1  A    between atoms: N1_4  and  C2_6 
ROOT
HETATM    1  C2  UNL     1       4.792  19.475  16.038  1.00  0.00     0.125 C 
HETATM    2  C3  UNL     1       4.232  20.717  15.412  1.00  0.00     0.033 C 
HETATM    3  C4  UNL     1       4.701  21.988  16.044  1.00  0.00     0.039 C 
HETATM    4  C5  UNL     1       6.161  22.035  16.339  1.00  0.00     0.154 C 
HETATM    5  S1  UNL     1       6.402  22.918  17.916  1.00  0.00    -0.070 SA
HETATM    6  N2  UNL     1       6.842  20.812  16.420  1.00  0.00    -0.386 N 
ATOM      7  H2  UNL     1       7.856  20.787  16.310  1.00  0.00     0.159 HD
HETATM    8  C6  UNL     1       6.132  19.618  16.650  1.00  0.00     0.082 C 
ENDROOT
BRANCH   1   9
HETATM    9  N1  UNL     1       3.848  18.924  16.997  1.00  0.00    -0.326 N 
HETATM   10  C1  UNL     1       2.938  17.901  16.618  1.00  0.00     0.284 C 
HETATM   11  O1  UNL     1       2.921  17.439  15.434  1.00  0.00    -0.630 OA
HETATM   12  O2  UNL     1       2.047  17.388  17.548  1.00  0.00    -0.630 OA
ATOM     13  H1  UNL     1       3.839  19.277  17.954  1.00  0.00     0.166 HD
ENDBRANCH   1   9
TORSDOF 1
ENDMDL
MODEL 2
REMARK VINA RESULT: -4.689544488      5.292      6.246
REMARK  1 active torsions:
REMARK  status: ('A' for Active; 'I' for Inactive)
REMARK       I    between atoms: C1_2  and  N1_4 
REMARK    1  A    between atoms: N1_4  and  C2_6 
ROOT
HETATM    1  C2  UNL     1       0.780  15.309  17.441  1.00  0.00     0.125 C 
HETATM    2  C3  UNL     1       0.126  15.650  18.746  1.00  0.00     0.033 C 
HETATM    3  C4  UNL     1       0.978  16.468  19.664  1.00  0.00     0.039 C 
HETATM    4  C5  UNL     1       1.698  17.595  19.006  1.00  0.00     0.154 C 
HETATM    5  S1  UNL     1       3.345  17.751  19.771  1.00  0.00    -0.070 SA
HETATM    6  N2  UNL     1       1.870  17.526  17.617  1.00  0.00    -0.386 N 
ATOM      7  H2  UNL     1       2.066  18.376  17.087  1.00  0.00     0.159 HD
HETATM    8  C6  UNL     1       1.774  16.290  16.950  1.00  0.00     0.082 C 
ENDROOT
BRANCH   1   9
HETATM    9  N1  UNL     1       1.362  13.979  17.501  1.00  0.00    -0.326 N 
HETATM   10  C1  UNL     1       0.652  12.849  17.012  1.00  0.00     0.284 C 
HETATM   11  O1  UNL     1      -0.511  12.968  16.510  1.00  0.00    -0.630 OA
HETATM   12  O2  UNL     1       1.225  11.589  17.078  1.00  0.00    -0.630 OA
ATOM     13  H1  UNL     1       2.293  13.854  17.899  1.00  0.00     0.166 HD
ENDBRANCH   1   9
TORSDOF 1
ENDMDL
MODEL 3
REMARK VINA RESULT: -4.658466387      5.399      7.488
REMARK  1 active torsions:
REMARK  status: ('A' for Active; 'I' for Inactive)
REMARK       I    between atoms: C1_2  and  N1_4 
REMARK    1  A    between atoms: N1_4  and  C2_6 
ROOT
HETATM    1  C2  UNL     1       1.589  15.466  18.345  1.00  0.00     0.125 C 
HETATM    2  C3  UNL     1       0.551  16.059  19.249  1.00  0.00     0.033 C 
HETATM    3  C4  UNL     1      -0.851  15.656  18.922  1.00  0.00     0.039 C 
HETATM    4  C5  UNL     1      -1.030  14.207  18.624  1.00  0.00     0.154 C 
HETATM    5  S1  UNL     1      -2.262  14.039  17.291  1.00  0.00    -0.070 SA
HETATM    6  N2  UNL     1       0.111  13.481  18.252  1.00  0.00    -0.386 N 
ATOM      7  H2  UNL     1       0.115  12.464  18.338  1.00  0.00     0.159 HD
HETATM    8  C6  UNL     1       1.249  14.148  17.762  1.00  0.00     0.082 C 
ENDROOT
BRANCH   1   9
HETATM    9  N1  UNL     1       1.945  16.410  17.298  1.00  0.00    -0.326 N 
HETATM   10  C1  UNL     1       2.503  17.677  17.619  1.00  0.00     0.284 C 
HETATM   11  O1  UNL     1       2.705  18.022  18.826  1.00  0.00    -0.630 OA
HETATM   12  O2  UNL     1       2.836  18.563  16.607  1.00  0.00    -0.630 OA
ATOM     13  H1  UNL     1       1.791  16.160  16.321  1.00  0.00     0.166 HD
ENDBRANCH   1   9
TORSDOF 1
ENDMDL
MODEL 4
REMARK VINA RESULT: -4.562746633      1.739      2.456
REMARK  1 active torsions:
REMARK  status: ('A' for Active; 'I' for Inactive)
REMARK       I    between atoms: C1_2  and  N1_4 
REMARK    1  A    between atoms: N1_4  and  C2_6 
ROOT
HETATM    1  C2  UNL     1       5.709  19.383  17.022  1.00  0.00     0.125 C 
HETATM    2  C3  UNL     1       7.167  19.034  16.993  1.00  0.00     0.033 C 
HETATM    3  C4  UNL     1       8.074  20.204  16.787  1.00  0.00     0.039 C 
HETATM    4  C5  UNL     1       7.732  21.409  17.596  1.00  0.00     0.154 C 
HETATM    5  S1  UNL     1       8.049  22.892  16.584  1.00  0.00    -0.070 SA
HETATM    6  N2  UNL     1       6.425  21.498  18.096  1.00  0.00    -0.386 N 
ATOM      7  H2  UNL     1       6.224  22.112  18.885  1.00  0.00     0.159 HD
HETATM    8  C6  UNL     1       5.389  20.742  17.515  1.00  0.00     0.082 C 
ENDROOT
BRANCH   1   9
HETATM    9  N1  UNL     1       5.111  19.159  15.716  1.00  0.00    -0.326 N 
HETATM   10  C1  UNL     1       3.807  18.607  15.597  1.00  0.00     0.284 C 
HETATM   11  O1  UNL     1       3.128  18.292  16.625  1.00  0.00    -0.630 OA
HETATM   12  O2  UNL     1       3.254  18.402  14.343  1.00  0.00    -0.630 OA
ATOM     13  H1  UNL     1       5.634  19.401  14.874  1.00  0.00     0.166 HD
ENDBRANCH   1   9
TORSDOF 1
ENDMDL
MODEL 5
REMARK VINA RESULT: -4.453453426      6.222      7.281
REMARK  1 active torsions:
REMARK  status: ('A' for Active; 'I' for Inactive)
REMARK       I    between atoms: C1_2  and  N1_4 
REMARK    1  A    between atoms: N1_4  and  C2_6 
ROOT
HETATM    1  C2  UNL     1      -0.386  14.481  18.917  1.00  0.00     0.125 C 
HETATM    2  C3  UNL     1       0.965  14.028  18.452  1.00  0.00     0.033 C 
HETATM    3  C4  UNL     1       1.899  15.142  18.103  1.00  0.00     0.039 C 
HETATM    4  C5  UNL     1       1.913  16.272  19.075  1.00  0.00     0.154 C 
HETATM    5  S1  UNL     1       2.097  17.830  18.147  1.00  0.00    -0.070 SA
HETATM    6  N2  UNL     1       0.806  16.403  19.926  1.00  0.00    -0.386 N 
ATOM      7  H2  UNL     1       0.891  16.940  20.789  1.00  0.00     0.159 HD
HETATM    8  C6  UNL     1      -0.420  15.797  19.594  1.00  0.00     0.082 C 
ENDROOT
BRANCH   1   9
HETATM    9  N1  UNL     1      -1.335  14.449  17.816  1.00  0.00    -0.326 N 
HETATM   10  C1  UNL     1      -1.312  13.393  16.865  1.00  0.00     0.284 C 
HETATM   11  O1  UNL     1      -0.464  12.449  16.948  1.00  0.00    -0.630 OA
HETATM   12  O2  UNL     1      -2.225  13.381  15.823  1.00  0.00    -0.630 OA
ATOM     13  H1  UNL     1      -2.026  15.194  17.725  1.00  0.00     0.166 HD
ENDBRANCH   1   9
TORSDOF 1
ENDMDL
