MODEL 1
REMARK VINA RESULT: -4.446951624      0.000      0.000
REMARK  2 active torsions:
REMARK  status: ('A' for Active; 'I' for Inactive)
REMARK    1  A    between atoms: C1_4  and  N2_5 
REMARK    2  A    between atoms: N2_5  and  C2_7 
ROOT
HETATM    1  N2  UNL     1      22.325  19.317  18.414  1.00  0.00    -0.358 N 
ATOM      2  H2  UNL     1      21.384  19.322  18.810  1.00  0.00     0.162 HD
ENDROOT
BRANCH   1   3
HETATM    3  C1  UNL     1      22.869  20.487  17.815  1.00  0.00     0.170 C 
HETATM    4  N1  UNL     1      23.130  20.515  16.535  1.00  0.00    -0.395 N 
ATOM      5  H12 UNL     1      22.935  19.685  15.976  1.00  0.00     0.156 HD
ATOM      6  H11 UNL     1      23.520  21.354  16.106  1.00  0.00     0.156 HD
ENDBRANCH   1   3
BRANCH   1   7
HETATM    7  C2  UNL     1      23.136  18.121  18.450  1.00  0.00     0.245 A 
HETATM    8  C3  UNL     1      23.348  17.500  19.815  1.00  0.00     0.224 A 
HETATM    9  O1  UNL     1      22.518  16.914  18.843  1.00  0.00    -0.360 OA
ENDBRANCH   1   7
TORSDOF 2
ENDMDL
MODEL 2
REMARK VINA RESULT: -3.950703805      1.283      1.294
REMARK  2 active torsions:
REMARK  status: ('A' for Active; 'I' for Inactive)
REMARK    1  A    between atoms: C1_4  and  N2_5 
REMARK    2  A    between atoms: N2_5  and  C2_7 
ROOT
HETATM    1  N2  UNL     1      23.881  19.909  18.494  1.00  0.00    -0.358 N 
ATOM      2  H2  UNL     1      24.899  19.872  18.552  1.00  0.00     0.162 HD
ENDROOT
BRANCH   1   3
HETATM    3  C1  UNL     1      23.234  20.807  17.600  1.00  0.00     0.170 C 
HETATM    4  N1  UNL     1      22.881  20.413  16.405  1.00  0.00    -0.395 N 
ATOM      5  H12 UNL     1      23.078  19.451  16.128  1.00  0.00     0.156 HD
ATOM      6  H11 UNL     1      22.418  21.057  15.764  1.00  0.00     0.156 HD
ENDBRANCH   1   3
BRANCH   1   7
HETATM    7  C2  UNL     1      23.061  19.049  19.318  1.00  0.00     0.245 A 
HETATM    8  C3  UNL     1      23.104  17.572  18.988  1.00  0.00     0.224 A 
HETATM    9  O1  UNL     1      23.712  18.103  20.139  1.00  0.00    -0.360 OA
ENDBRANCH   1   7
TORSDOF 2
ENDMDL
MODEL 3
REMARK VINA RESULT: -3.924047979      2.015      3.277
REMARK  2 active torsions:
REMARK  status: ('A' for Active; 'I' for Inactive)
REMARK    1  A    between atoms: C1_4  and  N2_5 
REMARK    2  A    between atoms: N2_5  and  C2_7 
ROOT
HETATM    1  N2  UNL     1      22.521  18.439  18.114  1.00  0.00    -0.358 N 
ATOM      2  H2  UNL     1      21.521  18.494  17.923  1.00  0.00     0.162 HD
ENDROOT
BRANCH   1   3
HETATM    3  C1  UNL     1      23.035  17.487  19.039  1.00  0.00     0.170 C 
HETATM    4  N1  UNL     1      23.543  17.877  20.177  1.00  0.00    -0.395 N 
ATOM      5  H12 UNL     1      23.564  18.875  20.389  1.00  0.00     0.156 HD
ATOM      6  H11 UNL     1      23.911  17.195  20.840  1.00  0.00     0.156 HD
ENDBRANCH   1   3
BRANCH   1   7
HETATM    7  C2  UNL     1      23.451  19.326  17.453  1.00  0.00     0.245 A 
HETATM    8  C3  UNL     1      23.152  20.806  17.560  1.00  0.00     0.224 A 
HETATM    9  O1  UNL     1      24.215  20.202  18.255  1.00  0.00    -0.360 OA
ENDBRANCH   1   7
TORSDOF 2
ENDMDL
MODEL 4
REMARK VINA RESULT: -3.784440093      1.363      1.363
REMARK  2 active torsions:
REMARK  status: ('A' for Active; 'I' for Inactive)
REMARK    1  A    between atoms: C1_4  and  N2_5 
REMARK    2  A    between atoms: N2_5  and  C2_7 
ROOT
HETATM    1  N2  UNL     1      23.365  18.673  17.446  1.00  0.00    -0.358 N 
ATOM      2  H2  UNL     1      23.681  17.935  16.817  1.00  0.00     0.162 HD
ENDROOT
BRANCH   1   3
HETATM    3  C1  UNL     1      23.617  20.041  17.146  1.00  0.00     0.170 C 
HETATM    4  N1  UNL     1      22.659  20.925  17.230  1.00  0.00    -0.395 N 
ATOM      5  H12 UNL     1      21.729  20.615  17.514  1.00  0.00     0.156 HD
ATOM      6  H11 UNL     1      22.839  21.906  17.016  1.00  0.00     0.156 HD
ENDBRANCH   1   3
BRANCH   1   7
HETATM    7  C2  UNL     1      22.650  18.356  18.661  1.00  0.00     0.245 A 
HETATM    8  C3  UNL     1      23.496  17.906  19.834  1.00  0.00     0.224 A 
HETATM    9  O1  UNL     1      22.878  19.168  19.794  1.00  0.00    -0.360 OA
ENDBRANCH   1   7
TORSDOF 2
ENDMDL
MODEL 5
REMARK VINA RESULT: -3.682661481      2.087      3.158
REMARK  2 active torsions:
REMARK  status: ('A' for Active; 'I' for Inactive)
REMARK    1  A    between atoms: C1_4  and  N2_5 
REMARK    2  A    between atoms: N2_5  and  C2_7 
ROOT
HETATM    1  N2  UNL     1      23.197  19.138  19.515  1.00  0.00    -0.358 N 
ATOM      2  H2  UNL     1      23.488  19.717  20.303  1.00  0.00     0.162 HD
ENDROOT
BRANCH   1   3
HETATM    3  C1  UNL     1      23.246  17.719  19.597  1.00  0.00     0.170 C 
HETATM    4  N1  UNL     1      22.700  16.983  18.666  1.00  0.00    -0.395 N 
ATOM      5  H12 UNL     1      22.239  17.445  17.882  1.00  0.00     0.156 HD
ATOM      6  H11 UNL     1      22.735  15.965  18.724  1.00  0.00     0.156 HD
ENDBRANCH   1   3
BRANCH   1   7
HETATM    7  C2  UNL     1      22.724  19.741  18.290  1.00  0.00     0.245 A 
HETATM    8  C3  UNL     1      23.570  20.865  17.729  1.00  0.00     0.224 A 
HETATM    9  O1  UNL     1      23.517  19.593  17.131  1.00  0.00    -0.360 OA
ENDBRANCH   1   7
TORSDOF 2
ENDMDL
