MODEL 1
REMARK VINA RESULT: -3.701812420      0.000      0.000
REMARK  3 active torsions:
REMARK  status: ('A' for Active; 'I' for Inactive)
REMARK    1  A    between atoms: N1_2  and  N2_5 
REMARK    2  A    between atoms: N2_5  and  N3_7 
REMARK    3  A    between atoms: N3_7  and  C4_9 
ROOT
HETATM    1  N2  UNL     1      23.962  16.285  22.574  1.00  0.00    -0.158 N 
ATOM      2  H2  UNL     1      23.100  15.792  22.337  1.00  0.00     0.215 HD
ENDROOT
BRANCH   1   3
HETATM    3  N1  UNL     1      24.817  15.833  23.546  1.00  0.00     0.013 N 
HETATM    4  C1  UNL     1      24.336  16.022  24.898  1.00  0.00     0.302 C 
HETATM    5  C2  UNL     1      25.034  14.415  23.346  1.00  0.00     0.302 C 
HETATM    6  C3  UNL     1      26.111  16.528  23.477  1.00  0.00     0.302 C 
ENDBRANCH   1   3
BRANCH   1   7
HETATM    7  N3  UNL     1      24.341  17.447  21.940  1.00  0.00    -0.277 N 
ATOM      8  H3  UNL     1      25.075  18.038  22.330  1.00  0.00     0.189 HD
BRANCH   7   9
HETATM    9  C4  UNL     1      23.692  17.803  20.738  1.00  0.00     0.191 C 
HETATM   10  N4  UNL     1      22.801  18.714  20.751  1.00  0.00    -0.394 N 
ATOM     11  H42 UNL     1      22.571  19.174  21.632  1.00  0.00     0.156 HD
ATOM     12  H41 UNL     1      22.332  18.971  19.882  1.00  0.00     0.156 HD
ENDBRANCH   7   9
ENDBRANCH   1   7
TORSDOF 3
ENDMDL
MODEL 2
REMARK VINA RESULT: -3.669551308      2.390      3.010
REMARK  3 active torsions:
REMARK  status: ('A' for Active; 'I' for Inactive)
REMARK    1  A    between atoms: N1_2  and  N2_5 
REMARK    2  A    between atoms: N2_5  and  N3_7 
REMARK    3  A    between atoms: N3_7  and  C4_9 
ROOT
HETATM    1  N2  UNL     1      24.169  14.984  24.076  1.00  0.00    -0.158 N 
ATOM      2  H2  UNL     1      23.961  14.409  23.259  1.00  0.00     0.215 HD
ENDROOT
BRANCH   1   3
HETATM    3  N1  UNL     1      24.109  14.488  25.353  1.00  0.00     0.013 N 
HETATM    4  C1  UNL     1      22.772  14.425  25.905  1.00  0.00     0.302 C 
HETATM    5  C2  UNL     1      24.652  13.146  25.351  1.00  0.00     0.302 C 
HETATM    6  C3  UNL     1      24.891  15.318  26.281  1.00  0.00     0.302 C 
ENDBRANCH   1   3
BRANCH   1   7
HETATM    7  N3  UNL     1      24.529  16.309  23.968  1.00  0.00    -0.277 N 
ATOM      8  H3  UNL     1      24.113  17.013  24.577  1.00  0.00     0.189 HD
BRANCH   7   9
HETATM    9  C4  UNL     1      25.488  16.671  22.997  1.00  0.00     0.191 C 
HETATM   10  N4  UNL     1      26.692  16.888  23.353  1.00  0.00    -0.394 N 
ATOM     11  H42 UNL     1      26.946  16.795  24.337  1.00  0.00     0.156 HD
ATOM     12  H41 UNL     1      27.385  17.149  22.651  1.00  0.00     0.156 HD
ENDBRANCH   7   9
ENDBRANCH   1   7
TORSDOF 3
ENDMDL
MODEL 3
REMARK VINA RESULT: -3.657766214      2.418      3.360
REMARK  3 active torsions:
REMARK  status: ('A' for Active; 'I' for Inactive)
REMARK    1  A    between atoms: N1_2  and  N2_5 
REMARK    2  A    between atoms: N2_5  and  N3_7 
REMARK    3  A    between atoms: N3_7  and  C4_9 
ROOT
HETATM    1  N2  UNL     1      24.155  14.976  24.139  1.00  0.00    -0.158 N 
ATOM      2  H2  UNL     1      23.939  14.412  23.316  1.00  0.00     0.215 HD
ENDROOT
BRANCH   1   3
HETATM    3  N1  UNL     1      24.092  14.467  25.411  1.00  0.00     0.013 N 
HETATM    4  C1  UNL     1      24.575  13.108  25.533  1.00  0.00     0.302 C 
HETATM    5  C2  UNL     1      24.893  15.303  26.281  1.00  0.00     0.302 C 
HETATM    6  C3  UNL     1      22.708  14.451  25.906  1.00  0.00     0.302 C 
ENDBRANCH   1   3
BRANCH   1   7
HETATM    7  N3  UNL     1      24.530  16.298  24.044  1.00  0.00    -0.277 N 
ATOM      8  H3  UNL     1      24.168  16.991  24.699  1.00  0.00     0.189 HD
BRANCH   7   9
HETATM    9  C4  UNL     1      25.427  16.674  23.021  1.00  0.00     0.191 C 
HETATM   10  N4  UNL     1      26.656  16.861  23.300  1.00  0.00    -0.394 N 
ATOM     11  H42 UNL     1      26.974  16.736  24.261  1.00  0.00     0.156 HD
ATOM     12  H41 UNL     1      27.304  17.132  22.560  1.00  0.00     0.156 HD
ENDBRANCH   7   9
ENDBRANCH   1   7
TORSDOF 3
ENDMDL
MODEL 4
REMARK VINA RESULT: -3.316219510      1.605      1.798
REMARK  3 active torsions:
REMARK  status: ('A' for Active; 'I' for Inactive)
REMARK    1  A    between atoms: N1_2  and  N2_5 
REMARK    2  A    between atoms: N2_5  and  N3_7 
REMARK    3  A    between atoms: N3_7  and  C4_9 
ROOT
HETATM    1  N2  UNL     1      24.284  16.049  24.127  1.00  0.00    -0.158 N 
ATOM      2  H2  UNL     1      23.520  15.390  23.979  1.00  0.00     0.215 HD
ENDROOT
BRANCH   1   3
HETATM    3  N1  UNL     1      24.868  16.227  25.356  1.00  0.00     0.013 N 
HETATM    4  C1  UNL     1      24.091  17.036  26.272  1.00  0.00     0.302 C 
HETATM    5  C2  UNL     1      25.061  14.928  25.966  1.00  0.00     0.302 C 
HETATM    6  C3  UNL     1      26.171  16.895  25.231  1.00  0.00     0.302 C 
ENDBRANCH   1   3
BRANCH   1   7
HETATM    7  N3  UNL     1      24.798  16.819  23.107  1.00  0.00    -0.277 N 
ATOM      8  H3  UNL     1      25.610  17.416  23.263  1.00  0.00     0.189 HD
BRANCH   7   9
HETATM    9  C4  UNL     1      24.177  16.763  21.841  1.00  0.00     0.191 C 
HETATM   10  N4  UNL     1      23.800  17.842  21.277  1.00  0.00    -0.394 N 
ATOM     11  H42 UNL     1      23.954  18.732  21.751  1.00  0.00     0.156 HD
ATOM     12  H41 UNL     1      23.351  17.801  20.362  1.00  0.00     0.156 HD
ENDBRANCH   7   9
ENDBRANCH   1   7
TORSDOF 3
ENDMDL
MODEL 5
REMARK VINA RESULT: -3.213280231      3.112      3.830
REMARK  3 active torsions:
REMARK  status: ('A' for Active; 'I' for Inactive)
REMARK    1  A    between atoms: N1_2  and  N2_5 
REMARK    2  A    between atoms: N2_5  and  N3_7 
REMARK    3  A    between atoms: N3_7  and  C4_9 
ROOT
HETATM    1  N2  UNL     1      24.520  15.837  26.059  1.00  0.00    -0.158 N 
ATOM      2  H2  UNL     1      24.585  16.069  27.050  1.00  0.00     0.215 HD
ENDROOT
BRANCH   1   3
HETATM    3  N1  UNL     1      24.048  14.625  25.621  1.00  0.00     0.013 N 
HETATM    4  C1  UNL     1      24.165  14.422  24.192  1.00  0.00     0.302 C 
HETATM    5  C2  UNL     1      24.795  13.575  26.281  1.00  0.00     0.302 C 
HETATM    6  C3  UNL     1      22.621  14.468  25.937  1.00  0.00     0.302 C 
ENDBRANCH   1   3
BRANCH   1   7
HETATM    7  N3  UNL     1      24.901  16.719  25.072  1.00  0.00    -0.277 N 
ATOM      8  H3  UNL     1      24.206  17.159  24.469  1.00  0.00     0.189 HD
BRANCH   7   9
HETATM    9  C4  UNL     1      26.275  17.000  24.913  1.00  0.00     0.191 C 
HETATM   10  N4  UNL     1      26.794  16.964  23.749  1.00  0.00    -0.394 N 
ATOM     11  H42 UNL     1      26.206  16.732  22.948  1.00  0.00     0.156 HD
ATOM     12  H41 UNL     1      27.787  17.168  23.634  1.00  0.00     0.156 HD
ENDBRANCH   7   9
ENDBRANCH   1   7
TORSDOF 3
ENDMDL
