MODEL 1
REMARK VINA RESULT: -4.602087881      0.000      0.000
REMARK  2 active torsions:
REMARK  status: ('A' for Active; 'I' for Inactive)
REMARK    1  A    between atoms: C1_4  and  N2_5 
REMARK    2  A    between atoms: N2_5  and  C2_7 
ROOT
HETATM    1  N2  UNL     1      23.810  19.876  18.563  1.00  0.00    -0.382 N 
ATOM      2  H2  UNL     1      24.823  19.795  18.647  1.00  0.00     0.160 HD
ENDROOT
BRANCH   1   3
HETATM    3  C1  UNL     1      23.304  20.793  17.609  1.00  0.00     0.169 C 
HETATM    4  N1  UNL     1      22.902  20.435  16.430  1.00  0.00    -0.396 N 
ATOM      5  H12 UNL     1      22.959  19.444  16.194  1.00  0.00     0.156 HD
ATOM      6  H11 UNL     1      22.538  21.095  15.744  1.00  0.00     0.156 HD
ENDBRANCH   1   3
BRANCH   1   7
HETATM    7  C2  UNL     1      23.006  19.056  19.416  1.00  0.00     0.082 A 
HETATM    8  C3  UNL     1      23.536  18.156  20.437  1.00  0.00     0.027 A 
HETATM    9  C4  UNL     1      23.104  17.565  19.103  1.00  0.00     0.027 A 
ENDBRANCH   1   7
TORSDOF 2
ENDMDL
MODEL 2
REMARK VINA RESULT: -4.569472731      0.728      1.117
REMARK  2 active torsions:
REMARK  status: ('A' for Active; 'I' for Inactive)
REMARK    1  A    between atoms: C1_4  and  N2_5 
REMARK    2  A    between atoms: N2_5  and  C2_7 
ROOT
HETATM    1  N2  UNL     1      22.435  19.591  18.537  1.00  0.00    -0.382 N 
ATOM      2  H2  UNL     1      21.480  19.470  18.873  1.00  0.00     0.160 HD
ENDROOT
BRANCH   1   3
HETATM    3  C1  UNL     1      22.687  20.665  17.650  1.00  0.00     0.169 C 
HETATM    4  N1  UNL     1      23.140  20.496  16.446  1.00  0.00    -0.396 N 
ATOM      5  H12 UNL     1      23.318  19.539  16.141  1.00  0.00     0.156 HD
ATOM      6  H11 UNL     1      23.321  21.269  15.808  1.00  0.00     0.156 HD
ENDBRANCH   1   3
BRANCH   1   7
HETATM    7  C2  UNL     1      23.421  18.661  18.998  1.00  0.00     0.082 A 
HETATM    8  C3  UNL     1      23.141  17.281  19.381  1.00  0.00     0.027 A 
HETATM    9  C4  UNL     1      23.298  18.322  20.481  1.00  0.00     0.027 A 
ENDBRANCH   1   7
TORSDOF 2
ENDMDL
MODEL 3
REMARK VINA RESULT: -3.929132172      1.712      3.495
REMARK  2 active torsions:
REMARK  status: ('A' for Active; 'I' for Inactive)
REMARK    1  A    between atoms: C1_4  and  N2_5 
REMARK    2  A    between atoms: N2_5  and  C2_7 
ROOT
HETATM    1  N2  UNL     1      22.867  19.027  19.414  1.00  0.00    -0.382 N 
ATOM      2  H2  UNL     1      21.870  19.220  19.520  1.00  0.00     0.160 HD
ENDROOT
BRANCH   1   3
HETATM    3  C1  UNL     1      23.390  17.899  20.093  1.00  0.00     0.169 C 
HETATM    4  N1  UNL     1      23.794  17.942  21.324  1.00  0.00    -0.396 N 
ATOM      5  H12 UNL     1      23.725  18.835  21.812  1.00  0.00     0.156 HD
ATOM      6  H11 UNL     1      24.172  17.130  21.813  1.00  0.00     0.156 HD
ENDBRANCH   1   3
BRANCH   1   7
HETATM    7  C2  UNL     1      23.630  19.916  18.593  1.00  0.00     0.082 A 
HETATM    8  C3  UNL     1      23.053  20.895  17.678  1.00  0.00     0.027 A 
HETATM    9  C4  UNL     1      23.566  19.582  17.105  1.00  0.00     0.027 A 
ENDBRANCH   1   7
TORSDOF 2
ENDMDL
MODEL 4
REMARK VINA RESULT: -3.874481207      2.011      3.588
REMARK  2 active torsions:
REMARK  status: ('A' for Active; 'I' for Inactive)
REMARK    1  A    between atoms: C1_4  and  N2_5 
REMARK    2  A    between atoms: N2_5  and  C2_7 
ROOT
HETATM    1  N2  UNL     1      22.873  18.952  20.168  1.00  0.00    -0.382 N 
ATOM      2  H2  UNL     1      22.564  19.565  20.923  1.00  0.00     0.160 HD
ENDROOT
BRANCH   1   3
HETATM    3  C1  UNL     1      23.520  17.745  20.528  1.00  0.00     0.169 C 
HETATM    4  N1  UNL     1      24.087  17.565  21.681  1.00  0.00    -0.396 N 
ATOM      5  H12 UNL     1      24.056  18.338  22.346  1.00  0.00     0.156 HD
ATOM      6  H11 UNL     1      24.553  16.696  21.940  1.00  0.00     0.156 HD
ENDBRANCH   1   3
BRANCH   1   7
HETATM    7  C2  UNL     1      22.620  19.377  18.825  1.00  0.00     0.082 A 
HETATM    8  C3  UNL     1      23.442  19.014  17.675  1.00  0.00     0.027 A 
HETATM    9  C4  UNL     1      23.636  20.388  18.301  1.00  0.00     0.027 A 
ENDBRANCH   1   7
TORSDOF 2
ENDMDL
MODEL 5
REMARK VINA RESULT: -3.840881678      3.042      4.599
REMARK  2 active torsions:
REMARK  status: ('A' for Active; 'I' for Inactive)
REMARK    1  A    between atoms: C1_4  and  N2_5 
REMARK    2  A    between atoms: N2_5  and  C2_7 
ROOT
HETATM    1  N2  UNL     1      24.131  17.801  21.500  1.00  0.00    -0.382 N 
ATOM      2  H2  UNL     1      24.778  18.557  21.722  1.00  0.00     0.160 HD
ENDROOT
BRANCH   1   3
HETATM    3  C1  UNL     1      24.298  16.574  22.187  1.00  0.00     0.169 C 
HETATM    4  N1  UNL     1      24.669  16.505  23.428  1.00  0.00    -0.396 N 
ATOM      5  H12 UNL     1      24.843  17.383  23.916  1.00  0.00     0.156 HD
ATOM      6  H11 UNL     1      24.789  15.621  23.923  1.00  0.00     0.156 HD
ENDBRANCH   1   3
BRANCH   1   7
HETATM    7  C2  UNL     1      23.123  18.058  20.518  1.00  0.00     0.082 A 
HETATM    8  C3  UNL     1      23.117  17.495  19.171  1.00  0.00     0.027 A 
HETATM    9  C4  UNL     1      23.605  18.925  19.357  1.00  0.00     0.027 A 
ENDBRANCH   1   7
TORSDOF 2
ENDMDL
