MODEL 1
REMARK VINA RESULT: -8.383184102      0.000      0.000
REMARK  6 active torsions:
REMARK  status: ('A' for Active; 'I' for Inactive)
REMARK    1  A    between atoms: C3_3  and  C4_4 
REMARK    2  A    between atoms: C4_4  and  C5_5 
REMARK       I    between atoms: N2_15  and  C13_17 
REMARK    3  A    between atoms: C13_17  and  C14_19 
REMARK    4  A    between atoms: C14_19  and  C15_20 
REMARK    5  A    between atoms: C14_19  and  N3_24 
REMARK    6  A    between atoms: C15_20  and  C16_21 
REMARK       I    between atoms: N3_24  and  C19_26 
ROOT
HETATM    1  C1  UNL     1      45.261  28.328  32.860  1.00  0.00     0.012 C 
HETATM    2  C2  UNL     1      44.112  28.265  32.494  1.00  0.00    -0.117 C 
HETATM    3  C3  UNL     1      42.714  28.160  32.035  1.00  0.00     0.096 C 
ENDROOT
BRANCH   3   4
HETATM    4  C4  UNL     1      42.394  29.253  31.032  1.00  0.00     0.048 C 
BRANCH   4   5
HETATM    5  C5  UNL     1      41.372  30.179  31.663  1.00  0.00     0.062 C 
HETATM    6  C6  UNL     1      40.650  30.889  30.551  1.00  0.00     0.044 C 
HETATM    7  N1  UNL     1      40.528  29.385  32.485  1.00  0.00    -0.400 N 
HETATM    8  C7  UNL     1      39.774  30.060  33.483  1.00  0.00     0.019 C 
ATOM      9  H1  UNL     1      40.466  28.374  32.365  1.00  0.00     0.155 HD
HETATM   10  C8  UNL     1      38.502  30.615  32.831  1.00  0.00     0.037 C 
HETATM   11  C9  UNL     1      39.296  28.983  34.466  1.00  0.00     0.037 C 
HETATM   12  C10 UNL     1      40.492  31.101  34.270  1.00  0.00     0.035 C 
HETATM   13  C11 UNL     1      41.961  31.116  33.931  1.00  0.00     0.057 C 
HETATM   14  C12 UNL     1      42.085  31.248  32.459  1.00  0.00     0.017 C 
HETATM   15  N2  UNL     1      42.728  32.137  31.833  1.00  0.00    -0.330 N 
HETATM   16  C13 UNL     1      43.465  33.225  32.296  1.00  0.00     0.244 C 
ATOM     17  H2  UNL     1      42.703  32.044  30.818  1.00  0.00     0.168 HD
HETATM   18  O1  UNL     1      43.030  33.900  33.296  1.00  0.00    -0.271 OA
BRANCH  16  19
HETATM   19  C14 UNL     1      44.733  33.668  31.704  1.00  0.00     0.177 C 
BRANCH  19  20
HETATM   20  C15 UNL     1      44.897  33.118  30.308  1.00  0.00     0.038 C 
BRANCH  20  21
HETATM   21  C16 UNL     1      45.954  32.063  30.160  1.00  0.00    -0.020 C 
HETATM   22  C17 UNL     1      47.027  32.593  29.193  1.00  0.00     0.009 C 
HETATM   23  C18 UNL     1      45.410  30.819  29.513  1.00  0.00     0.009 C 
ENDBRANCH  20  21
ENDBRANCH  19  20
BRANCH  19  24
HETATM   24  N3  UNL     1      45.831  33.017  32.471  1.00  0.00    -0.348 N 
HETATM   25  C19 UNL     1      46.756  33.782  33.199  1.00  0.00     0.214 C 
HETATM   26  C20 UNL     1      47.841  33.118  33.958  1.00  0.00     0.117 C 
HETATM   27  O2  UNL     1      46.631  35.058  33.185  1.00  0.00    -0.274 OA
ATOM     28  H3  UNL     1      45.912  32.001  32.467  1.00  0.00     0.163 HD
ENDBRANCH  19  24
ENDBRANCH  16  19
ENDBRANCH   4   5
ENDBRANCH   3   4
TORSDOF 6
ENDMDL
MODEL 2
REMARK VINA RESULT: -7.544105194      2.537      4.346
REMARK  6 active torsions:
REMARK  status: ('A' for Active; 'I' for Inactive)
REMARK    1  A    between atoms: C3_3  and  C4_4 
REMARK    2  A    between atoms: C4_4  and  C5_5 
REMARK       I    between atoms: N2_15  and  C13_17 
REMARK    3  A    between atoms: C13_17  and  C14_19 
REMARK    4  A    between atoms: C14_19  and  C15_20 
REMARK    5  A    between atoms: C14_19  and  N3_24 
REMARK    6  A    between atoms: C15_20  and  C16_21 
REMARK       I    between atoms: N3_24  and  C19_26 
ROOT
HETATM    1  C1  UNL     1      45.453  34.633  33.207  1.00  0.00     0.012 C 
HETATM    2  C2  UNL     1      44.385  34.165  32.891  1.00  0.00    -0.117 C 
HETATM    3  C3  UNL     1      43.070  33.621  32.500  1.00  0.00     0.096 C 
ENDROOT
BRANCH   3   4
HETATM    4  C4  UNL     1      42.445  32.850  33.648  1.00  0.00     0.048 C 
BRANCH   4   5
HETATM    5  C5  UNL     1      41.717  31.654  33.062  1.00  0.00     0.062 C 
HETATM    6  C6  UNL     1      41.482  30.672  34.177  1.00  0.00     0.044 C 
HETATM    7  N1  UNL     1      40.526  32.136  32.456  1.00  0.00    -0.400 N 
HETATM    8  C7  UNL     1      39.897  31.292  31.501  1.00  0.00     0.019 C 
ATOM      9  H1  UNL     1      40.139  33.049  32.696  1.00  0.00     0.155 HD
HETATM   10  C8  UNL     1      39.024  30.281  32.255  1.00  0.00     0.037 C 
HETATM   11  C9  UNL     1      38.918  32.178  30.719  1.00  0.00     0.037 C 
HETATM   12  C10 UNL     1      40.789  30.624  30.514  1.00  0.00     0.035 C 
HETATM   13  C11 UNL     1      42.207  31.120  30.645  1.00  0.00     0.057 C 
HETATM   14  C12 UNL     1      42.613  30.960  32.063  1.00  0.00     0.017 C 
HETATM   15  N2  UNL     1      43.619  30.328  32.492  1.00  0.00    -0.330 N 
HETATM   16  C13 UNL     1      44.599  29.605  31.815  1.00  0.00     0.244 C 
ATOM     17  H2  UNL     1      43.733  30.350  33.506  1.00  0.00     0.168 HD
HETATM   18  O1  UNL     1      44.264  28.876  30.815  1.00  0.00    -0.271 OA
BRANCH  16  19
HETATM   19  C14 UNL     1      46.022  29.616  32.176  1.00  0.00     0.177 C 
BRANCH  19  20
HETATM   20  C15 UNL     1      46.833  30.367  31.148  1.00  0.00     0.038 C 
BRANCH  20  21
HETATM   21  C16 UNL     1      46.564  31.842  31.079  1.00  0.00    -0.020 C 
HETATM   22  C17 UNL     1      45.891  32.142  29.728  1.00  0.00     0.009 C 
HETATM   23  C18 UNL     1      47.839  32.640  31.078  1.00  0.00     0.009 C 
ENDBRANCH  20  21
ENDBRANCH  19  20
BRANCH  19  24
HETATM   24  N3  UNL     1      46.518  28.217  32.064  1.00  0.00    -0.348 N 
HETATM   25  C19 UNL     1      46.683  27.415  33.205  1.00  0.00     0.214 C 
HETATM   26  C20 UNL     1      47.176  26.025  33.075  1.00  0.00     0.117 C 
HETATM   27  O2  UNL     1      46.396  27.921  34.347  1.00  0.00    -0.274 OA
ATOM     28  H3  UNL     1      46.740  27.835  31.145  1.00  0.00     0.163 HD
ENDBRANCH  19  24
ENDBRANCH  16  19
ENDBRANCH   4   5
ENDBRANCH   3   4
TORSDOF 6
ENDMDL
MODEL 3
REMARK VINA RESULT: -7.386805721      1.117      1.233
REMARK  6 active torsions:
REMARK  status: ('A' for Active; 'I' for Inactive)
REMARK    1  A    between atoms: C3_3  and  C4_4 
REMARK    2  A    between atoms: C4_4  and  C5_5 
REMARK       I    between atoms: N2_15  and  C13_17 
REMARK    3  A    between atoms: C13_17  and  C14_19 
REMARK    4  A    between atoms: C14_19  and  C15_20 
REMARK    5  A    between atoms: C14_19  and  N3_24 
REMARK    6  A    between atoms: C15_20  and  C16_21 
REMARK       I    between atoms: N3_24  and  C19_26 
ROOT
HETATM    1  C1  UNL     1      45.522  28.214  33.230  1.00  0.00     0.012 C 
HETATM    2  C2  UNL     1      44.420  28.352  32.754  1.00  0.00    -0.117 C 
HETATM    3  C3  UNL     1      43.076  28.492  32.162  1.00  0.00     0.096 C 
ENDROOT
BRANCH   3   4
HETATM    4  C4  UNL     1      43.055  29.605  31.131  1.00  0.00     0.048 C 
BRANCH   4   5
HETATM    5  C5  UNL     1      41.972  30.590  31.532  1.00  0.00     0.062 C 
HETATM    6  C6  UNL     1      41.647  31.426  30.325  1.00  0.00     0.044 C 
HETATM    7  N1  UNL     1      40.874  29.836  32.026  1.00  0.00    -0.400 N 
HETATM    8  C7  UNL     1      39.926  30.524  32.831  1.00  0.00     0.019 C 
ATOM      9  H1  UNL     1      40.771  28.844  31.813  1.00  0.00     0.155 HD
HETATM   10  C8  UNL     1      38.934  31.235  31.903  1.00  0.00     0.037 C 
HETATM   11  C9  UNL     1      39.111  29.445  33.557  1.00  0.00     0.037 C 
HETATM   12  C10 UNL     1      40.474  31.445  33.864  1.00  0.00     0.035 C 
HETATM   13  C11 UNL     1      41.976  31.338  33.942  1.00  0.00     0.057 C 
HETATM   14  C12 UNL     1      42.516  31.539  32.575  1.00  0.00     0.017 C 
HETATM   15  N2  UNL     1      43.375  32.395  32.222  1.00  0.00    -0.330 N 
HETATM   16  C13 UNL     1      44.035  33.379  32.954  1.00  0.00     0.244 C 
ATOM     17  H2  UNL     1      43.627  32.361  31.234  1.00  0.00     0.168 HD
HETATM   18  O1  UNL     1      43.392  34.037  33.848  1.00  0.00    -0.271 OA
BRANCH  16  19
HETATM   19  C14 UNL     1      45.449  33.730  32.768  1.00  0.00     0.177 C 
BRANCH  19  20
HETATM   20  C15 UNL     1      45.674  34.358  31.415  1.00  0.00     0.038 C 
BRANCH  20  21
HETATM   21  C16 UNL     1      46.225  33.435  30.368  1.00  0.00    -0.020 C 
HETATM   22  C17 UNL     1      47.437  34.121  29.714  1.00  0.00     0.009 C 
HETATM   23  C18 UNL     1      45.241  33.209  29.253  1.00  0.00     0.009 C 
ENDBRANCH  20  21
ENDBRANCH  19  20
BRANCH  19  24
HETATM   24  N3  UNL     1      46.215  32.455  32.698  1.00  0.00    -0.348 N 
HETATM   25  C19 UNL     1      47.502  32.354  33.250  1.00  0.00     0.214 C 
HETATM   26  C20 UNL     1      48.250  31.078  33.172  1.00  0.00     0.117 C 
HETATM   27  O2  UNL     1      48.001  33.390  33.816  1.00  0.00    -0.274 OA
ATOM     28  H3  UNL     1      45.799  31.644  32.242  1.00  0.00     0.163 HD
ENDBRANCH  19  24
ENDBRANCH  16  19
ENDBRANCH   4   5
ENDBRANCH   3   4
TORSDOF 6
ENDMDL
MODEL 4
REMARK VINA RESULT: -7.187163920      1.256      2.270
REMARK  6 active torsions:
REMARK  status: ('A' for Active; 'I' for Inactive)
REMARK    1  A    between atoms: C3_3  and  C4_4 
REMARK    2  A    between atoms: C4_4  and  C5_5 
REMARK       I    between atoms: N2_15  and  C13_17 
REMARK    3  A    between atoms: C13_17  and  C14_19 
REMARK    4  A    between atoms: C14_19  and  C15_20 
REMARK    5  A    between atoms: C14_19  and  N3_24 
REMARK    6  A    between atoms: C15_20  and  C16_21 
REMARK       I    between atoms: N3_24  and  C19_26 
ROOT
HETATM    1  C1  UNL     1      45.182  28.226  32.734  1.00  0.00     0.012 C 
HETATM    2  C2  UNL     1      43.999  28.208  32.484  1.00  0.00    -0.117 C 
HETATM    3  C3  UNL     1      42.558  28.155  32.173  1.00  0.00     0.096 C 
ENDROOT
BRANCH   3   4
HETATM    4  C4  UNL     1      42.218  29.109  31.042  1.00  0.00     0.048 C 
BRANCH   4   5
HETATM    5  C5  UNL     1      41.303  30.183  31.600  1.00  0.00     0.062 C 
HETATM    6  C6  UNL     1      40.815  31.012  30.444  1.00  0.00     0.044 C 
HETATM    7  N1  UNL     1      40.267  29.528  32.319  1.00  0.00    -0.400 N 
HETATM    8  C7  UNL     1      39.539  30.306  33.260  1.00  0.00     0.019 C 
ATOM      9  H1  UNL     1      40.055  28.542  32.167  1.00  0.00     0.155 HD
HETATM   10  C8  UNL     1      38.442  31.068  32.507  1.00  0.00     0.037 C 
HETATM   11  C9  UNL     1      38.802  29.311  34.166  1.00  0.00     0.037 C 
HETATM   12  C10 UNL     1      40.337  31.208  34.137  1.00  0.00     0.035 C 
HETATM   13  C11 UNL     1      41.815  30.987  33.937  1.00  0.00     0.057 C 
HETATM   14  C12 UNL     1      42.100  31.113  32.486  1.00  0.00     0.017 C 
HETATM   15  N2  UNL     1      42.935  31.892  31.946  1.00  0.00    -0.330 N 
HETATM   16  C13 UNL     1      43.789  32.840  32.504  1.00  0.00     0.244 C 
ATOM     17  H2  UNL     1      42.992  31.814  30.931  1.00  0.00     0.168 HD
HETATM   18  O1  UNL     1      43.374  33.566  33.476  1.00  0.00    -0.271 OA
BRANCH  16  19
HETATM   19  C14 UNL     1      45.163  33.076  32.044  1.00  0.00     0.177 C 
BRANCH  19  20
HETATM   20  C15 UNL     1      45.444  34.554  31.920  1.00  0.00     0.038 C 
BRANCH  20  21
HETATM   21  C16 UNL     1      46.856  34.960  32.223  1.00  0.00    -0.020 C 
HETATM   22  C17 UNL     1      47.694  34.765  30.948  1.00  0.00     0.009 C 
HETATM   23  C18 UNL     1      47.483  34.064  33.256  1.00  0.00     0.009 C 
ENDBRANCH  20  21
ENDBRANCH  19  20
BRANCH  19  24
HETATM   24  N3  UNL     1      45.252  32.581  30.643  1.00  0.00    -0.348 N 
HETATM   25  C19 UNL     1      46.116  31.528  30.301  1.00  0.00     0.214 C 
HETATM   26  C20 UNL     1      46.190  31.047  28.902  1.00  0.00     0.117 C 
HETATM   27  O2  UNL     1      46.828  31.003  31.229  1.00  0.00    -0.274 OA
ATOM     28  H3  UNL     1      44.677  33.013  29.920  1.00  0.00     0.163 HD
ENDBRANCH  19  24
ENDBRANCH  16  19
ENDBRANCH   4   5
ENDBRANCH   3   4
TORSDOF 6
ENDMDL
MODEL 5
REMARK VINA RESULT: -7.060020005      2.260      3.829
REMARK  6 active torsions:
REMARK  status: ('A' for Active; 'I' for Inactive)
REMARK    1  A    between atoms: C3_3  and  C4_4 
REMARK    2  A    between atoms: C4_4  and  C5_5 
REMARK       I    between atoms: N2_15  and  C13_17 
REMARK    3  A    between atoms: C13_17  and  C14_19 
REMARK    4  A    between atoms: C14_19  and  C15_20 
REMARK    5  A    between atoms: C14_19  and  N3_24 
REMARK    6  A    between atoms: C15_20  and  C16_21 
REMARK       I    between atoms: N3_24  and  C19_26 
ROOT
HETATM    1  C1  UNL     1      46.074  26.567  31.952  1.00  0.00     0.012 C 
HETATM    2  C2  UNL     1      45.411  27.555  32.169  1.00  0.00    -0.117 C 
HETATM    3  C3  UNL     1      44.583  28.751  32.412  1.00  0.00     0.096 C 
ENDROOT
BRANCH   3   4
HETATM    4  C4  UNL     1      45.363  30.016  32.108  1.00  0.00     0.048 C 
BRANCH   4   5
HETATM    5  C5  UNL     1      44.366  31.107  31.765  1.00  0.00     0.062 C 
HETATM    6  C6  UNL     1      44.178  31.101  30.273  1.00  0.00     0.044 C 
HETATM    7  N1  UNL     1      43.178  30.842  32.498  1.00  0.00    -0.400 N 
HETATM    8  C7  UNL     1      42.267  31.920  32.667  1.00  0.00     0.019 C 
ATOM      9  H1  UNL     1      42.987  29.919  32.886  1.00  0.00     0.155 HD
HETATM   10  C8  UNL     1      41.392  32.011  31.411  1.00  0.00     0.037 C 
HETATM   11  C9  UNL     1      41.318  31.511  33.801  1.00  0.00     0.037 C 
HETATM   12  C10 UNL     1      42.857  33.240  33.026  1.00  0.00     0.035 C 
HETATM   13  C11 UNL     1      44.336  33.116  33.292  1.00  0.00     0.057 C 
HETATM   14  C12 UNL     1      44.953  32.454  32.117  1.00  0.00     0.017 C 
HETATM   15  N2  UNL     1      45.907  32.897  31.416  1.00  0.00    -0.330 N 
HETATM   16  C13 UNL     1      46.627  34.086  31.506  1.00  0.00     0.244 C 
ATOM     17  H2  UNL     1      46.198  32.281  30.658  1.00  0.00     0.168 HD
HETATM   18  O1  UNL     1      46.013  35.174  31.793  1.00  0.00    -0.271 OA
BRANCH  16  19
HETATM   19  C14 UNL     1      48.076  34.185  31.285  1.00  0.00     0.177 C 
BRANCH  19  20
HETATM   20  C15 UNL     1      48.805  34.415  32.586  1.00  0.00     0.038 C 
BRANCH  20  21
HETATM   21  C16 UNL     1      49.348  33.177  33.238  1.00  0.00    -0.020 C 
HETATM   22  C17 UNL     1      49.650  32.149  32.133  1.00  0.00     0.009 C 
HETATM   23  C18 UNL     1      48.326  32.523  34.126  1.00  0.00     0.009 C 
ENDBRANCH  20  21
ENDBRANCH  19  20
BRANCH  19  24
HETATM   24  N3  UNL     1      48.321  35.436  30.517  1.00  0.00    -0.348 N 
HETATM   25  C19 UNL     1      48.628  35.396  29.147  1.00  0.00     0.214 C 
HETATM   26  C20 UNL     1      48.867  36.651  28.398  1.00  0.00     0.117 C 
HETATM   27  O2  UNL     1      48.691  34.250  28.574  1.00  0.00    -0.274 OA
ATOM     28  H3  UNL     1      48.266  36.337  30.992  1.00  0.00     0.163 HD
ENDBRANCH  19  24
ENDBRANCH  16  19
ENDBRANCH   4   5
ENDBRANCH   3   4
TORSDOF 6
ENDMDL
