MODEL 1
REMARK VINA RESULT: -7.389367520      0.000      0.000
REMARK  8 active torsions:
REMARK  status: ('A' for Active; 'I' for Inactive)
REMARK    1  A    between atoms: C2_2  and  C3_3 
REMARK    2  A    between atoms: C3_3  and  C4_4 
REMARK    3  A    between atoms: C4_4  and  N1_5 
REMARK    4  A    between atoms: N1_5  and  C5_6 
REMARK    5  A    between atoms: C6_9  and  C7_10 
REMARK    6  A    between atoms: C17_21  and  N4_22 
REMARK    7  A    between atoms: N4_22  and  C18_24 
REMARK    8  A    between atoms: C18_24  and  C19_25 
ROOT
HETATM    1  C5  UNL     1      41.973  30.405  31.453  1.00  0.00     0.255 A 
HETATM    2  N2  UNL     1      42.880  31.403  31.172  1.00  0.00    -0.318 N 
ATOM      3  H2  UNL     1      42.522  32.257  30.746  1.00  0.00     0.170 HD
HETATM    4  C6  UNL     1      44.186  31.340  31.410  1.00  0.00     0.055 A 
HETATM    5  C16 UNL     1      44.652  30.171  31.980  1.00  0.00     0.076 A 
HETATM    6  C17 UNL     1      43.756  29.134  32.278  1.00  0.00     0.106 A 
HETATM    7  N5  UNL     1      42.467  29.295  32.004  1.00  0.00    -0.303 N 
ATOM      8  H5  UNL     1      41.824  28.535  32.225  1.00  0.00     0.171 HD
ENDROOT
BRANCH   4   9
HETATM    9  C7  UNL     1      45.114  32.483  31.178  1.00  0.00     0.201 C 
HETATM   10  C8  UNL     1      44.702  33.782  31.778  1.00  0.00     0.048 C 
HETATM   11  C9  UNL     1      45.054  34.010  33.207  1.00  0.00     0.003 C 
HETATM   12  C10 UNL     1      46.396  34.758  33.294  1.00  0.00     0.002 C 
HETATM   13  C11 UNL     1      47.427  33.636  33.088  1.00  0.00     0.030 C 
HETATM   14  C12 UNL     1      47.357  33.262  31.658  1.00  0.00     0.274 C 
HETATM   15  N3  UNL     1      46.484  32.150  31.331  1.00  0.00     0.104 N 
HETATM   16  C13 UNL     1      47.001  31.617  30.067  1.00  0.00     0.274 C 
HETATM   17  C14 UNL     1      45.853  31.618  29.114  1.00  0.00     0.033 C 
HETATM   18  C15 UNL     1      44.976  32.727  29.639  1.00  0.00     0.050 C 
ENDBRANCH   4   9
BRANCH   1  19
HETATM   19  N1  UNL     1      40.806  30.626  31.237  1.00  0.00    -0.416 NA
BRANCH  19  20
HETATM   20  C4  UNL     1      39.557  31.086  31.388  1.00  0.00     0.222 C 
BRANCH  20  21
HETATM   21  C3  UNL     1      38.712  30.242  32.384  1.00  0.00     0.033 C 
BRANCH  21  22
HETATM   22  C2  UNL     1      39.033  30.598  33.803  1.00  0.00    -0.002 C 
HETATM   23  C1  UNL     1      39.338  29.342  34.617  1.00  0.00     0.005 C 
ENDBRANCH  21  22
ENDBRANCH  20  21
ENDBRANCH  19  20
ENDBRANCH   1  19
BRANCH   6  24
HETATM   24  N4  UNL     1      44.237  28.075  32.815  1.00  0.00    -0.376 N 
ATOM     25  H4  UNL     1      43.637  27.623  33.506  1.00  0.00     0.161 HD
BRANCH  24  26
HETATM   26  C18 UNL     1      45.482  27.445  32.585  1.00  0.00     0.121 C 
BRANCH  26  27
HETATM   27  C19 UNL     1      46.390  27.654  33.809  1.00  0.00     0.015 C 
HETATM   28  C20 UNL     1      47.317  26.458  33.948  1.00  0.00     0.006 C 
ENDBRANCH  26  27
ENDBRANCH  24  26
ENDBRANCH   6  24
TORSDOF 8
ENDMDL
MODEL 2
REMARK VINA RESULT: -7.226617298      2.060      4.122
REMARK  8 active torsions:
REMARK  status: ('A' for Active; 'I' for Inactive)
REMARK    1  A    between atoms: C2_2  and  C3_3 
REMARK    2  A    between atoms: C3_3  and  C4_4 
REMARK    3  A    between atoms: C4_4  and  N1_5 
REMARK    4  A    between atoms: N1_5  and  C5_6 
REMARK    5  A    between atoms: C6_9  and  C7_10 
REMARK    6  A    between atoms: C17_21  and  N4_22 
REMARK    7  A    between atoms: N4_22  and  C18_24 
REMARK    8  A    between atoms: C18_24  and  C19_25 
ROOT
HETATM    1  C5  UNL     1      41.760  31.006  33.287  1.00  0.00     0.255 A 
HETATM    2  N2  UNL     1      43.031  31.433  32.971  1.00  0.00    -0.318 N 
ATOM      3  H2  UNL     1      43.778  31.208  33.627  1.00  0.00     0.170 HD
HETATM    4  C6  UNL     1      43.360  32.114  31.879  1.00  0.00     0.055 A 
HETATM    5  C16 UNL     1      42.332  32.414  31.007  1.00  0.00     0.076 A 
HETATM    6  C17 UNL     1      41.025  31.997  31.299  1.00  0.00     0.106 A 
HETATM    7  N5  UNL     1      40.798  31.316  32.416  1.00  0.00    -0.303 N 
ATOM      8  H5  UNL     1      39.845  31.018  32.619  1.00  0.00     0.171 HD
ENDROOT
BRANCH   4   9
HETATM    9  C7  UNL     1      44.766  32.469  31.531  1.00  0.00     0.201 C 
HETATM   10  C8  UNL     1      45.072  33.926  31.490  1.00  0.00     0.048 C 
HETATM   11  C9  UNL     1      45.408  34.584  32.783  1.00  0.00     0.003 C 
HETATM   12  C10 UNL     1      46.935  34.591  32.976  1.00  0.00     0.002 C 
HETATM   13  C11 UNL     1      47.222  33.168  33.481  1.00  0.00     0.030 C 
HETATM   14  C12 UNL     1      47.048  32.269  32.319  1.00  0.00     0.274 C 
HETATM   15  N3  UNL     1      45.738  31.662  32.173  1.00  0.00     0.104 N 
HETATM   16  C13 UNL     1      45.965  30.449  31.380  1.00  0.00     0.274 C 
HETATM   17  C14 UNL     1      45.051  30.542  30.205  1.00  0.00     0.033 C 
HETATM   18  C15 UNL     1      44.868  32.029  30.033  1.00  0.00     0.050 C 
ENDBRANCH   4   9
BRANCH   1  19
HETATM   19  N1  UNL     1      41.620  30.343  34.286  1.00  0.00    -0.416 NA
BRANCH  19  20
HETATM   20  C4  UNL     1      41.053  29.567  35.219  1.00  0.00     0.222 C 
BRANCH  20  21
HETATM   21  C3  UNL     1      39.519  29.396  35.023  1.00  0.00     0.033 C 
BRANCH  21  22
HETATM   22  C2  UNL     1      39.063  28.046  35.484  1.00  0.00    -0.002 C 
HETATM   23  C1  UNL     1      38.645  28.093  36.953  1.00  0.00     0.005 C 
ENDBRANCH  21  22
ENDBRANCH  20  21
ENDBRANCH  19  20
ENDBRANCH   1  19
BRANCH   6  24
HETATM   24  N4  UNL     1      40.109  32.292  30.453  1.00  0.00    -0.376 N 
ATOM     25  H4  UNL     1      40.438  32.583  29.533  1.00  0.00     0.161 HD
BRANCH  24  26
HETATM   26  C18 UNL     1      38.704  32.271  30.618  1.00  0.00     0.121 C 
BRANCH  26  27
HETATM   27  C19 UNL     1      38.221  30.811  30.662  1.00  0.00     0.015 C 
HETATM   28  C20 UNL     1      37.633  30.526  32.035  1.00  0.00     0.006 C 
ENDBRANCH  26  27
ENDBRANCH  24  26
ENDBRANCH   6  24
TORSDOF 8
ENDMDL
MODEL 3
REMARK VINA RESULT: -7.211531741      1.125      4.887
REMARK  8 active torsions:
REMARK  status: ('A' for Active; 'I' for Inactive)
REMARK    1  A    between atoms: C2_2  and  C3_3 
REMARK    2  A    between atoms: C3_3  and  C4_4 
REMARK    3  A    between atoms: C4_4  and  N1_5 
REMARK    4  A    between atoms: N1_5  and  C5_6 
REMARK    5  A    between atoms: C6_9  and  C7_10 
REMARK    6  A    between atoms: C17_21  and  N4_22 
REMARK    7  A    between atoms: N4_22  and  C18_24 
REMARK    8  A    between atoms: C18_24  and  C19_25 
ROOT
HETATM    1  C5  UNL     1      43.967  29.163  31.847  1.00  0.00     0.255 A 
HETATM    2  N2  UNL     1      44.794  30.260  31.732  1.00  0.00    -0.318 N 
ATOM      3  H2  UNL     1      45.775  30.136  31.980  1.00  0.00     0.170 HD
HETATM    4  C6  UNL     1      44.413  31.466  31.324  1.00  0.00     0.055 A 
HETATM    5  C16 UNL     1      43.079  31.613  31.001  1.00  0.00     0.076 A 
HETATM    6  C17 UNL     1      42.209  30.519  31.109  1.00  0.00     0.106 A 
HETATM    7  N5  UNL     1      42.687  29.351  31.523  1.00  0.00    -0.303 N 
ATOM      8  H5  UNL     1      42.047  28.562  31.598  1.00  0.00     0.171 HD
ENDROOT
BRANCH   4   9
HETATM    9  C7  UNL     1      45.363  32.597  31.122  1.00  0.00     0.201 C 
HETATM   10  C8  UNL     1      44.982  33.883  31.768  1.00  0.00     0.048 C 
HETATM   11  C9  UNL     1      45.350  34.057  33.200  1.00  0.00     0.003 C 
HETATM   12  C10 UNL     1      46.708  34.774  33.300  1.00  0.00     0.002 C 
HETATM   13  C11 UNL     1      47.714  33.639  33.048  1.00  0.00     0.030 C 
HETATM   14  C12 UNL     1      47.625  33.314  31.608  1.00  0.00     0.274 C 
HETATM   15  N3  UNL     1      46.727  32.232  31.252  1.00  0.00     0.104 N 
HETATM   16  C13 UNL     1      47.222  31.731  29.966  1.00  0.00     0.274 C 
HETATM   17  C14 UNL     1      46.067  31.786  29.024  1.00  0.00     0.033 C 
HETATM   18  C15 UNL     1      45.217  32.895  29.593  1.00  0.00     0.050 C 
ENDBRANCH   4   9
BRANCH   1  19
HETATM   19  N1  UNL     1      44.466  28.113  32.174  1.00  0.00    -0.416 NA
BRANCH  19  20
HETATM   20  C4  UNL     1      45.374  27.143  32.342  1.00  0.00     0.222 C 
BRANCH  20  21
HETATM   21  C3  UNL     1      46.489  27.519  33.359  1.00  0.00     0.033 C 
BRANCH  21  22
HETATM   22  C2  UNL     1      47.634  26.557  33.286  1.00  0.00    -0.002 C 
HETATM   23  C1  UNL     1      47.660  25.657  34.520  1.00  0.00     0.005 C 
ENDBRANCH  21  22
ENDBRANCH  20  21
ENDBRANCH  19  20
ENDBRANCH   1  19
BRANCH   6  24
HETATM   24  N4  UNL     1      40.982  30.705  30.788  1.00  0.00    -0.376 N 
ATOM     25  H4  UNL     1      40.335  29.978  31.091  1.00  0.00     0.161 HD
BRANCH  24  26
HETATM   26  C18 UNL     1      40.401  31.777  30.071  1.00  0.00     0.121 C 
BRANCH  26  27
HETATM   27  C19 UNL     1      39.014  32.087  30.660  1.00  0.00     0.015 C 
HETATM   28  C20 UNL     1      38.483  30.843  31.356  1.00  0.00     0.006 C 
ENDBRANCH  26  27
ENDBRANCH  24  26
ENDBRANCH   6  24
TORSDOF 8
ENDMDL
MODEL 4
REMARK VINA RESULT: -7.138882523      1.796      3.124
REMARK  8 active torsions:
REMARK  status: ('A' for Active; 'I' for Inactive)
REMARK    1  A    between atoms: C2_2  and  C3_3 
REMARK    2  A    between atoms: C3_3  and  C4_4 
REMARK    3  A    between atoms: C4_4  and  N1_5 
REMARK    4  A    between atoms: N1_5  and  C5_6 
REMARK    5  A    between atoms: C6_9  and  C7_10 
REMARK    6  A    between atoms: C17_21  and  N4_22 
REMARK    7  A    between atoms: N4_22  and  C18_24 
REMARK    8  A    between atoms: C18_24  and  C19_25 
ROOT
HETATM    1  C5  UNL     1      41.601  31.192  31.085  1.00  0.00     0.255 A 
HETATM    2  N2  UNL     1      42.941  31.362  30.811  1.00  0.00    -0.318 N 
ATOM      3  H2  UNL     1      43.186  31.843  29.945  1.00  0.00     0.170 HD
HETATM    4  C6  UNL     1      43.939  30.949  31.584  1.00  0.00     0.055 A 
HETATM    5  C16 UNL     1      43.586  30.293  32.747  1.00  0.00     0.076 A 
HETATM    6  C17 UNL     1      42.232  30.101  33.057  1.00  0.00     0.106 A 
HETATM    7  N5  UNL     1      41.306  30.556  32.219  1.00  0.00    -0.303 N 
ATOM      8  H5  UNL     1      40.325  30.411  32.454  1.00  0.00     0.171 HD
ENDROOT
BRANCH   4   9
HETATM    9  C7  UNL     1      45.372  31.241  31.294  1.00  0.00     0.201 C 
HETATM   10  C8  UNL     1      45.778  32.668  31.421  1.00  0.00     0.048 C 
HETATM   11  C9  UNL     1      46.133  33.153  32.783  1.00  0.00     0.003 C 
HETATM   12  C10 UNL     1      47.653  33.031  32.993  1.00  0.00     0.002 C 
HETATM   13  C11 UNL     1      47.833  31.544  33.338  1.00  0.00     0.030 C 
HETATM   14  C12 UNL     1      47.619  30.795  32.080  1.00  0.00     0.274 C 
HETATM   15  N3  UNL     1      46.274  30.301  31.852  1.00  0.00     0.104 N 
HETATM   16  C13 UNL     1      46.433  29.172  30.931  1.00  0.00     0.274 C 
HETATM   17  C14 UNL     1      45.549  29.458  29.764  1.00  0.00     0.033 C 
HETATM   18  C15 UNL     1      45.472  30.965  29.757  1.00  0.00     0.050 C 
ENDBRANCH   4   9
BRANCH   1  19
HETATM   19  N1  UNL     1      40.803  31.674  30.318  1.00  0.00    -0.416 NA
BRANCH  19  20
HETATM   20  C4  UNL     1      39.678  32.226  29.847  1.00  0.00     0.222 C 
BRANCH  20  21
HETATM   21  C3  UNL     1      38.500  32.175  30.862  1.00  0.00     0.033 C 
BRANCH  21  22
HETATM   22  C2  UNL     1      37.939  30.790  30.969  1.00  0.00    -0.002 C 
HETATM   23  C1  UNL     1      37.855  30.356  32.431  1.00  0.00     0.005 C 
ENDBRANCH  21  22
ENDBRANCH  20  21
ENDBRANCH  19  20
ENDBRANCH   1  19
BRANCH   6  24
HETATM   24  N4  UNL     1      41.956  29.497  34.152  1.00  0.00    -0.376 N 
ATOM     25  H4  UNL     1      42.622  28.777  34.435  1.00  0.00     0.161 HD
BRANCH  24  26
HETATM   26  C18 UNL     1      40.858  29.686  35.024  1.00  0.00     0.121 C 
BRANCH  26  27
HETATM   27  C19 UNL     1      39.816  28.582  34.772  1.00  0.00     0.015 C 
HETATM   28  C20 UNL     1      38.979  28.396  36.028  1.00  0.00     0.006 C 
ENDBRANCH  26  27
ENDBRANCH  24  26
ENDBRANCH   6  24
TORSDOF 8
ENDMDL
MODEL 5
REMARK VINA RESULT: -7.135912954      1.558      1.862
REMARK  8 active torsions:
REMARK  status: ('A' for Active; 'I' for Inactive)
REMARK    1  A    between atoms: C2_2  and  C3_3 
REMARK    2  A    between atoms: C3_3  and  C4_4 
REMARK    3  A    between atoms: C4_4  and  N1_5 
REMARK    4  A    between atoms: N1_5  and  C5_6 
REMARK    5  A    between atoms: C6_9  and  C7_10 
REMARK    6  A    between atoms: C17_21  and  N4_22 
REMARK    7  A    between atoms: N4_22  and  C18_24 
REMARK    8  A    between atoms: C18_24  and  C19_25 
ROOT
HETATM    1  C5  UNL     1      43.299  30.064  31.372  1.00  0.00     0.255 A 
HETATM    2  N2  UNL     1      44.242  31.023  31.072  1.00  0.00    -0.318 N 
ATOM      3  H2  UNL     1      43.922  31.857  30.578  1.00  0.00     0.170 HD
HETATM    4  C6  UNL     1      45.533  30.948  31.374  1.00  0.00     0.055 A 
HETATM    5  C16 UNL     1      45.945  29.808  32.035  1.00  0.00     0.076 A 
HETATM    6  C17 UNL     1      45.013  28.810  32.354  1.00  0.00     0.106 A 
HETATM    7  N5  UNL     1      43.741  28.981  32.011  1.00  0.00    -0.303 N 
ATOM      8  H5  UNL     1      43.072  28.249  32.248  1.00  0.00     0.171 HD
ENDROOT
BRANCH   4   9
HETATM    9  C7  UNL     1      46.498  32.055  31.116  1.00  0.00     0.201 C 
HETATM   10  C8  UNL     1      46.307  33.282  31.937  1.00  0.00     0.048 C 
HETATM   11  C9  UNL     1      46.922  33.294  33.292  1.00  0.00     0.003 C 
HETATM   12  C10 UNL     1      48.316  33.942  33.220  1.00  0.00     0.002 C 
HETATM   13  C11 UNL     1      49.198  32.799  32.690  1.00  0.00     0.030 C 
HETATM   14  C12 UNL     1      48.847  32.628  31.264  1.00  0.00     0.274 C 
HETATM   15  N3  UNL     1      47.841  31.625  30.970  1.00  0.00     0.104 N 
HETATM   16  C13 UNL     1      48.081  31.238  29.576  1.00  0.00     0.274 C 
HETATM   17  C14 UNL     1      46.787  31.436  28.860  1.00  0.00     0.033 C 
HETATM   18  C15 UNL     1      46.111  32.514  29.671  1.00  0.00     0.050 C 
ENDBRANCH   4   9
BRANCH   1  19
HETATM   19  N1  UNL     1      42.149  30.295  31.088  1.00  0.00    -0.416 NA
BRANCH  19  20
HETATM   20  C4  UNL     1      40.850  30.592  31.220  1.00  0.00     0.222 C 
BRANCH  20  21
HETATM   21  C3  UNL     1      40.385  31.740  30.278  1.00  0.00     0.033 C 
BRANCH  21  22
HETATM   22  C2  UNL     1      38.971  32.137  30.567  1.00  0.00    -0.002 C 
HETATM   23  C1  UNL     1      38.237  31.018  31.304  1.00  0.00     0.005 C 
ENDBRANCH  21  22
ENDBRANCH  20  21
ENDBRANCH  19  20
ENDBRANCH   1  19
BRANCH   6  24
HETATM   24  N4  UNL     1      45.444  27.776  32.976  1.00  0.00    -0.376 N 
ATOM     25  H4  UNL     1      44.980  26.898  32.742  1.00  0.00     0.161 HD
BRANCH  24  26
HETATM   26  C18 UNL     1      46.474  27.681  33.941  1.00  0.00     0.121 C 
BRANCH  26  27
HETATM   27  C19 UNL     1      47.466  26.584  33.517  1.00  0.00     0.015 C 
HETATM   28  C20 UNL     1      47.625  25.593  34.660  1.00  0.00     0.006 C 
ENDBRANCH  26  27
ENDBRANCH  24  26
ENDBRANCH   6  24
TORSDOF 8
ENDMDL
