MODEL 1
REMARK VINA RESULT: -7.447046812      0.000      0.000
REMARK  7 active torsions:
REMARK  status: ('A' for Active; 'I' for Inactive)
REMARK    1  A    between atoms: C2_2  and  C3_3 
REMARK    2  A    between atoms: C3_3  and  C4_4 
REMARK    3  A    between atoms: C4_4  and  N1_5 
REMARK    4  A    between atoms: C12_13  and  C13_14 
REMARK    5  A    between atoms: C13_14  and  C14_15 
REMARK    6  A    between atoms: C14_15  and  N2_16 
REMARK    7  A    between atoms: N2_16  and  C15_19 
ROOT
HETATM    1  N1  UNL     1      43.284  32.101  32.013  1.00  0.00    -0.373 N 
HETATM    2  C5  UNL     1      44.353  31.298  32.452  1.00  0.00     0.068 C 
HETATM    3  C6  UNL     1      44.324  29.843  32.172  1.00  0.00     0.029 C 
HETATM    4  C7  UNL     1      43.988  29.449  30.773  1.00  0.00     0.021 C 
HETATM    5  C8  UNL     1      42.606  28.790  30.997  1.00  0.00     0.033 C 
HETATM    6  C9  UNL     1      42.961  27.941  32.195  1.00  0.00     0.016 C 
HETATM    7  C10 UNL     1      43.541  28.998  33.130  1.00  0.00    -0.004 C 
HETATM    8  C11 UNL     1      42.386  29.695  33.802  1.00  0.00     0.022 C 
HETATM    9  C12 UNL     1      41.348  30.161  32.839  1.00  0.00     0.017 C 
HETATM   10  C18 UNL     1      41.754  29.934  31.428  1.00  0.00     0.004 C 
HETATM   11  N3  UNL     1      41.250  30.865  30.707  1.00  0.00    -0.333 N 
ATOM     12  H3  UNL     1      41.377  30.932  29.698  1.00  0.00     0.168 HD
HETATM   13  C19 UNL     1      40.493  31.794  31.475  1.00  0.00     0.232 C 
HETATM   14  O1  UNL     1      39.576  32.536  31.077  1.00  0.00    -0.272 OA
HETATM   15  C20 UNL     1      41.080  31.645  32.860  1.00  0.00     0.131 C 
HETATM   16  C21 UNL     1      42.297  32.516  32.921  1.00  0.00     0.078 C 
ENDROOT
BRANCH   9  17
HETATM   17  C13 UNL     1      40.002  29.488  33.031  1.00  0.00     0.044 C 
BRANCH  17  18
HETATM   18  C14 UNL     1      39.568  29.387  34.454  1.00  0.00     0.233 C 
BRANCH  18  19
HETATM   19  N2  UNL     1      39.382  27.952  34.722  1.00  0.00    -0.072 N 
ATOM     20  H22 UNL     1      39.071  27.437  33.898  1.00  0.00     0.277 HD
ATOM     21  H21 UNL     1      40.265  27.463  34.867  1.00  0.00     0.277 HD
BRANCH  19  22
HETATM   22  C15 UNL     1      38.471  27.806  35.848  1.00  0.00     0.177 C 
HETATM   23  C16 UNL     1      39.002  28.469  37.077  1.00  0.00     0.039 C 
HETATM   24  C17 UNL     1      38.344  26.321  36.145  1.00  0.00     0.039 C 
ENDBRANCH  19  22
ENDBRANCH  18  19
ENDBRANCH  17  18
ENDBRANCH   9  17
BRANCH   1  25
HETATM   25  C4  UNL     1      43.574  33.081  31.012  1.00  0.00     0.127 C 
BRANCH  25  26
HETATM   26  C3  UNL     1      45.006  33.385  30.755  1.00  0.00     0.020 C 
BRANCH  26  27
HETATM   27  C2  UNL     1      45.483  33.203  29.344  1.00  0.00    -0.003 C 
HETATM   28  C1  UNL     1      46.292  31.894  29.273  1.00  0.00     0.005 C 
ENDBRANCH  26  27
ENDBRANCH  25  26
ENDBRANCH   1  25
TORSDOF 7
ENDMDL
MODEL 2
REMARK VINA RESULT: -7.270313087      1.997      6.555
REMARK  7 active torsions:
REMARK  status: ('A' for Active; 'I' for Inactive)
REMARK    1  A    between atoms: C2_2  and  C3_3 
REMARK    2  A    between atoms: C3_3  and  C4_4 
REMARK    3  A    between atoms: C4_4  and  N1_5 
REMARK    4  A    between atoms: C12_13  and  C13_14 
REMARK    5  A    between atoms: C13_14  and  C14_15 
REMARK    6  A    between atoms: C14_15  and  N2_16 
REMARK    7  A    between atoms: N2_16  and  C15_19 
ROOT
HETATM    1  N1  UNL     1      40.705  29.788  33.655  1.00  0.00    -0.373 N 
HETATM    2  C5  UNL     1      39.866  30.915  33.586  1.00  0.00     0.068 C 
HETATM    3  C6  UNL     1      39.622  31.553  32.270  1.00  0.00     0.029 C 
HETATM    4  C7  UNL     1      39.264  30.634  31.150  1.00  0.00     0.021 C 
HETATM    5  C8  UNL     1      40.529  30.768  30.269  1.00  0.00     0.033 C 
HETATM    6  C9  UNL     1      40.656  32.273  30.298  1.00  0.00     0.016 C 
HETATM    7  C10 UNL     1      40.659  32.528  31.803  1.00  0.00    -0.004 C 
HETATM    8  C11 UNL     1      42.055  32.270  32.306  1.00  0.00     0.022 C 
HETATM    9  C12 UNL     1      42.602  30.957  31.857  1.00  0.00     0.017 C 
HETATM   10  C18 UNL     1      41.594  30.158  31.115  1.00  0.00     0.004 C 
HETATM   11  N3  UNL     1      41.818  28.917  31.337  1.00  0.00    -0.333 N 
ATOM     12  H3  UNL     1      41.266  28.160  30.935  1.00  0.00     0.168 HD
HETATM   13  C19 UNL     1      42.925  28.714  32.208  1.00  0.00     0.232 C 
HETATM   14  O1  UNL     1      43.642  27.701  32.300  1.00  0.00    -0.272 OA
HETATM   15  C20 UNL     1      42.999  30.018  32.969  1.00  0.00     0.131 C 
HETATM   16  C21 UNL     1      42.028  29.923  34.106  1.00  0.00     0.078 C 
ENDROOT
BRANCH   9  17
HETATM   17  C13 UNL     1      43.819  31.087  30.962  1.00  0.00     0.044 C 
BRANCH  17  18
HETATM   18  C14 UNL     1      44.307  32.486  30.793  1.00  0.00     0.233 C 
BRANCH  18  19
HETATM   19  N2  UNL     1      45.612  32.546  31.471  1.00  0.00    -0.072 N 
ATOM     20  H22 UNL     1      45.994  31.621  31.667  1.00  0.00     0.277 HD
ATOM     21  H21 UNL     1      46.357  32.878  30.857  1.00  0.00     0.277 HD
BRANCH  19  22
HETATM   22  C15 UNL     1      45.473  33.359  32.670  1.00  0.00     0.177 C 
HETATM   23  C16 UNL     1      44.918  34.711  32.360  1.00  0.00     0.039 C 
HETATM   24  C17 UNL     1      46.863  33.556  33.253  1.00  0.00     0.039 C 
ENDBRANCH  19  22
ENDBRANCH  18  19
ENDBRANCH  17  18
ENDBRANCH   9  17
BRANCH   1  25
HETATM   25  C4  UNL     1      40.103  28.550  34.044  1.00  0.00     0.127 C 
BRANCH  25  26
HETATM   26  C3  UNL     1      39.091  28.601  35.131  1.00  0.00     0.020 C 
BRANCH  26  27
HETATM   27  C2  UNL     1      38.832  27.314  35.860  1.00  0.00    -0.003 C 
HETATM   28  C1  UNL     1      38.418  27.652  37.304  1.00  0.00     0.005 C 
ENDBRANCH  26  27
ENDBRANCH  25  26
ENDBRANCH   1  25
TORSDOF 7
ENDMDL
MODEL 3
REMARK VINA RESULT: -7.230987023      3.487      5.722
REMARK  7 active torsions:
REMARK  status: ('A' for Active; 'I' for Inactive)
REMARK    1  A    between atoms: C2_2  and  C3_3 
REMARK    2  A    between atoms: C3_3  and  C4_4 
REMARK    3  A    between atoms: C4_4  and  N1_5 
REMARK    4  A    between atoms: C12_13  and  C13_14 
REMARK    5  A    between atoms: C13_14  and  C14_15 
REMARK    6  A    between atoms: C14_15  and  N2_16 
REMARK    7  A    between atoms: N2_16  and  C15_19 
ROOT
HETATM    1  N1  UNL     1      48.262  32.604  32.345  1.00  0.00    -0.373 N 
HETATM    2  C5  UNL     1      48.644  31.431  31.668  1.00  0.00     0.068 C 
HETATM    3  C6  UNL     1      48.113  31.178  30.307  1.00  0.00     0.029 C 
HETATM    4  C7  UNL     1      48.193  32.318  29.348  1.00  0.00     0.021 C 
HETATM    5  C8  UNL     1      46.690  32.646  29.185  1.00  0.00     0.033 C 
HETATM    6  C9  UNL     1      46.179  31.237  28.992  1.00  0.00     0.016 C 
HETATM    7  C10 UNL     1      46.752  30.555  30.231  1.00  0.00    -0.004 C 
HETATM    8  C11 UNL     1      45.839  30.868  31.388  1.00  0.00     0.022 C 
HETATM    9  C12 UNL     1      45.536  32.323  31.513  1.00  0.00     0.017 C 
HETATM   10  C18 UNL     1      46.305  33.138  30.538  1.00  0.00     0.004 C 
HETATM   11  N3  UNL     1      46.549  34.278  31.066  1.00  0.00    -0.333 N 
ATOM     12  H3  UNL     1      47.059  35.025  30.596  1.00  0.00     0.168 HD
HETATM   13  C19 UNL     1      46.026  34.386  32.386  1.00  0.00     0.232 C 
HETATM   14  O1  UNL     1      45.728  35.426  33.001  1.00  0.00    -0.272 OA
HETATM   15  C20 UNL     1      45.931  32.944  32.830  1.00  0.00     0.131 C 
HETATM   16  C21 UNL     1      47.280  32.550  33.347  1.00  0.00     0.078 C 
ENDROOT
BRANCH   9  17
HETATM   17  C13 UNL     1      44.070  32.652  31.315  1.00  0.00     0.044 C 
BRANCH  17  18
HETATM   18  C14 UNL     1      43.159  31.997  32.298  1.00  0.00     0.233 C 
BRANCH  18  19
HETATM   19  N2  UNL     1      41.799  32.439  31.950  1.00  0.00    -0.072 N 
ATOM     20  H22 UNL     1      41.137  32.310  32.715  1.00  0.00     0.277 HD
ATOM     21  H21 UNL     1      41.725  33.454  31.870  1.00  0.00     0.277 HD
BRANCH  19  22
HETATM   22  C15 UNL     1      41.387  31.752  30.735  1.00  0.00     0.177 C 
HETATM   23  C16 UNL     1      40.011  32.153  30.311  1.00  0.00     0.039 C 
HETATM   24  C17 UNL     1      41.358  30.263  31.039  1.00  0.00     0.039 C 
ENDBRANCH  19  22
ENDBRANCH  18  19
ENDBRANCH  17  18
ENDBRANCH   9  17
BRANCH   1  25
HETATM   25  C4  UNL     1      49.287  33.564  32.614  1.00  0.00     0.127 C 
BRANCH  25  26
HETATM   26  C3  UNL     1      50.653  33.256  32.115  1.00  0.00     0.020 C 
BRANCH  26  27
HETATM   27  C2  UNL     1      51.345  34.347  31.351  1.00  0.00    -0.003 C 
HETATM   28  C1  UNL     1      50.271  35.209  30.661  1.00  0.00     0.005 C 
ENDBRANCH  26  27
ENDBRANCH  25  26
ENDBRANCH   1  25
TORSDOF 7
ENDMDL
MODEL 4
REMARK VINA RESULT: -7.190839229      3.451      5.632
REMARK  7 active torsions:
REMARK  status: ('A' for Active; 'I' for Inactive)
REMARK    1  A    between atoms: C2_2  and  C3_3 
REMARK    2  A    between atoms: C3_3  and  C4_4 
REMARK    3  A    between atoms: C4_4  and  N1_5 
REMARK    4  A    between atoms: C12_13  and  C13_14 
REMARK    5  A    between atoms: C13_14  and  C14_15 
REMARK    6  A    between atoms: C14_15  and  N2_16 
REMARK    7  A    between atoms: N2_16  and  C15_19 
ROOT
HETATM    1  N1  UNL     1      47.032  32.729  29.761  1.00  0.00    -0.373 N 
HETATM    2  C5  UNL     1      47.309  34.077  30.054  1.00  0.00     0.068 C 
HETATM    3  C6  UNL     1      47.282  34.529  31.466  1.00  0.00     0.029 C 
HETATM    4  C7  UNL     1      48.023  33.677  32.442  1.00  0.00     0.021 C 
HETATM    5  C8  UNL     1      46.841  33.111  33.265  1.00  0.00     0.033 C 
HETATM    6  C9  UNL     1      46.080  34.400  33.469  1.00  0.00     0.016 C 
HETATM    7  C10 UNL     1      45.937  34.876  32.027  1.00  0.00    -0.004 C 
HETATM    8  C11 UNL     1      44.776  34.136  31.415  1.00  0.00     0.022 C 
HETATM    9  C12 UNL     1      44.855  32.661  31.620  1.00  0.00     0.017 C 
HETATM   10  C18 UNL     1      46.124  32.256  32.278  1.00  0.00     0.004 C 
HETATM   11  N3  UNL     1      46.449  31.094  31.849  1.00  0.00    -0.333 N 
ATOM     12  H3  UNL     1      47.281  30.589  32.154  1.00  0.00     0.168 HD
HETATM   13  C19 UNL     1      45.518  30.587  30.900  1.00  0.00     0.232 C 
HETATM   14  O1  UNL     1      45.303  29.396  30.610  1.00  0.00    -0.272 OA
HETATM   15  C20 UNL     1      44.876  31.842  30.353  1.00  0.00     0.131 C 
HETATM   16  C21 UNL     1      45.771  32.360  29.269  1.00  0.00     0.078 C 
ENDROOT
BRANCH   9  17
HETATM   17  C13 UNL     1      43.719  32.108  32.458  1.00  0.00     0.044 C 
BRANCH  17  18
HETATM   18  C14 UNL     1      42.533  33.008  32.549  1.00  0.00     0.233 C 
BRANCH  18  19
HETATM   19  N2  UNL     1      41.354  32.150  32.350  1.00  0.00    -0.072 N 
ATOM     20  H22 UNL     1      41.354  31.337  32.966  1.00  0.00     0.277 HD
ATOM     21  H21 UNL     1      40.494  32.582  32.688  1.00  0.00     0.277 HD
BRANCH  19  22
HETATM   22  C15 UNL     1      41.281  31.785  30.943  1.00  0.00     0.177 C 
HETATM   23  C16 UNL     1      39.975  32.183  30.336  1.00  0.00     0.039 C 
HETATM   24  C17 UNL     1      41.384  30.271  30.857  1.00  0.00     0.039 C 
ENDBRANCH  19  22
ENDBRANCH  18  19
ENDBRANCH  17  18
ENDBRANCH   9  17
BRANCH   1  25
HETATM   25  C4  UNL     1      48.099  31.950  29.213  1.00  0.00     0.127 C 
BRANCH  25  26
HETATM   26  C3  UNL     1      49.431  32.601  29.109  1.00  0.00     0.020 C 
BRANCH  26  27
HETATM   27  C2  UNL     1      50.499  32.082  30.027  1.00  0.00    -0.003 C 
HETATM   28  C1  UNL     1      49.928  30.882  30.804  1.00  0.00     0.005 C 
ENDBRANCH  26  27
ENDBRANCH  25  26
ENDBRANCH   1  25
TORSDOF 7
ENDMDL
MODEL 5
REMARK VINA RESULT: -7.121655718      3.306      5.610
REMARK  7 active torsions:
REMARK  status: ('A' for Active; 'I' for Inactive)
REMARK    1  A    between atoms: C2_2  and  C3_3 
REMARK    2  A    between atoms: C3_3  and  C4_4 
REMARK    3  A    between atoms: C4_4  and  N1_5 
REMARK    4  A    between atoms: C12_13  and  C13_14 
REMARK    5  A    between atoms: C13_14  and  C14_15 
REMARK    6  A    between atoms: C14_15  and  N2_16 
REMARK    7  A    between atoms: N2_16  and  C15_19 
ROOT
HETATM    1  N1  UNL     1      48.309  32.550  32.350  1.00  0.00    -0.373 N 
HETATM    2  C5  UNL     1      48.713  31.357  31.722  1.00  0.00     0.068 C 
HETATM    3  C6  UNL     1      48.270  31.088  30.333  1.00  0.00     0.029 C 
HETATM    4  C7  UNL     1      48.440  32.208  29.361  1.00  0.00     0.021 C 
HETATM    5  C8  UNL     1      46.958  32.563  29.089  1.00  0.00     0.033 C 
HETATM    6  C9  UNL     1      46.432  31.161  28.887  1.00  0.00     0.016 C 
HETATM    7  C10 UNL     1      46.905  30.492  30.174  1.00  0.00    -0.004 C 
HETATM    8  C11 UNL     1      45.921  30.844  31.260  1.00  0.00     0.022 C 
HETATM    9  C12 UNL     1      45.642  32.307  31.339  1.00  0.00     0.017 C 
HETATM   10  C18 UNL     1      46.492  33.088  30.404  1.00  0.00     0.004 C 
HETATM   11  N3  UNL     1      46.723  34.233  30.928  1.00  0.00    -0.333 N 
ATOM     12  H3  UNL     1      47.280  34.960  30.481  1.00  0.00     0.168 HD
HETATM   13  C19 UNL     1      46.114  34.376  32.207  1.00  0.00     0.232 C 
HETATM   14  O1  UNL     1      45.796  35.434  32.781  1.00  0.00    -0.272 OA
HETATM   15  C20 UNL     1      45.958  32.945  32.669  1.00  0.00     0.131 C 
HETATM   16  C21 UNL     1      47.261  32.534  33.283  1.00  0.00     0.078 C 
ENDROOT
BRANCH   9  17
HETATM   17  C13 UNL     1      44.199  32.661  31.035  1.00  0.00     0.044 C 
BRANCH  17  18
HETATM   18  C14 UNL     1      43.302  31.481  30.871  1.00  0.00     0.233 C 
BRANCH  18  19
HETATM   19  N2  UNL     1      42.115  31.754  31.697  1.00  0.00    -0.072 N 
ATOM     20  H22 UNL     1      41.828  32.731  31.659  1.00  0.00     0.277 HD
ATOM     21  H21 UNL     1      41.266  31.343  31.310  1.00  0.00     0.277 HD
BRANCH  19  22
HETATM   22  C15 UNL     1      42.385  31.304  33.055  1.00  0.00     0.177 C 
HETATM   23  C16 UNL     1      42.681  29.840  33.104  1.00  0.00     0.039 C 
HETATM   24  C17 UNL     1      41.128  31.545  33.875  1.00  0.00     0.039 C 
ENDBRANCH  19  22
ENDBRANCH  18  19
ENDBRANCH  17  18
ENDBRANCH   9  17
BRANCH   1  25
HETATM   25  C4  UNL     1      49.334  33.495  32.672  1.00  0.00     0.127 C 
BRANCH  25  26
HETATM   26  C3  UNL     1      50.694  33.228  32.137  1.00  0.00     0.020 C 
BRANCH  26  27
HETATM   27  C2  UNL     1      51.368  34.370  31.432  1.00  0.00    -0.003 C 
HETATM   28  C1  UNL     1      50.299  35.151  30.647  1.00  0.00     0.005 C 
ENDBRANCH  26  27
ENDBRANCH  25  26
ENDBRANCH   1  25
TORSDOF 7
ENDMDL
