MODEL 1
REMARK VINA RESULT: -8.252314014      0.000      0.000
REMARK  14 active torsions:
REMARK  status: ('A' for Active; 'I' for Inactive)
REMARK    1  A    between atoms: C2_2  and  N1_3 
REMARK    2  A    between atoms: C6_8  and  N2_9 
REMARK       I    between atoms: N2_9  and  C7_11 
REMARK    3  A    between atoms: C7_11  and  C8_13 
REMARK    4  A    between atoms: C8_13  and  C9_14 
REMARK    5  A    between atoms: C9_14  and  C10_15 
REMARK    6  A    between atoms: C10_15  and  C11_16 
REMARK    7  A    between atoms: C11_16  and  C12_17 
REMARK    8  A    between atoms: C12_17  and  C13_18 
REMARK    9  A    between atoms: C13_18  and  C14_19 
REMARK       I    between atoms: C14_19  and  N3_21 
REMARK   10  A    between atoms: N3_21  and  C15_23 
REMARK   11  A    between atoms: C15_23  and  C16_24 
REMARK   12  A    between atoms: C19_28  and  N4_29 
REMARK   13  A    between atoms: N4_29  and  C22_32 
REMARK   14  A    between atoms: C22_32  and  C23_33 
ROOT
HETATM    1  C13 UNL     1      43.945  16.700  -4.613  1.00  0.00     0.103 C 
ENDROOT
BRANCH   1   2
HETATM    2  C12 UNL     1      44.918  15.909  -3.796  1.00  0.00     0.009 C 
BRANCH   2   3
HETATM    3  C11 UNL     1      46.303  16.415  -3.928  1.00  0.00     0.000 C 
BRANCH   3   4
HETATM    4  C10 UNL     1      47.363  15.402  -4.049  1.00  0.00     0.000 C 
BRANCH   4   5
HETATM    5  C9  UNL     1      48.726  15.826  -4.333  1.00  0.00     0.009 C 
BRANCH   5   6
HETATM    6  C8  UNL     1      49.597  16.252  -3.228  1.00  0.00     0.103 C 
BRANCH   6   7
HETATM    7  C7  UNL     1      51.043  16.354  -3.744  1.00  0.00     0.222 C 
HETATM    8  N2  UNL     1      52.036  16.249  -2.756  1.00  0.00    -0.326 N 
ATOM      9  H2  UNL     1      51.731  16.123  -1.791  1.00  0.00     0.169 HD
HETATM   10  O1  UNL     1      51.196  16.513  -4.954  1.00  0.00    -0.273 OA
BRANCH   8  11
HETATM   11  C6  UNL     1      53.415  16.307  -2.999  1.00  0.00     0.052 A 
HETATM   12  C5  UNL     1      54.122  15.272  -3.528  1.00  0.00     0.056 A 
HETATM   13  C4  UNL     1      55.492  15.392  -3.767  1.00  0.00     0.051 A 
HETATM   14  C3  UNL     1      56.127  16.566  -3.464  1.00  0.00     0.114 A 
HETATM   15 CL1  UNL     1      56.378  14.035  -4.452  1.00  0.00    -0.083 Cl
HETATM   16  N1  UNL     1      55.423  17.582  -2.943  1.00  0.00    -0.363 N 
HETATM   17  C26 UNL     1      54.112  17.485  -2.708  1.00  0.00     0.119 A 
BRANCH  16  18
HETATM   18  C2  UNL     1      56.069  18.857  -2.601  1.00  0.00     0.123 C 
HETATM   19  C1  UNL     1      55.199  19.987  -3.057  1.00  0.00     0.027 C 
ENDBRANCH  16  18
ENDBRANCH   8  11
ENDBRANCH   6   7
ENDBRANCH   5   6
ENDBRANCH   4   5
ENDBRANCH   3   4
ENDBRANCH   2   3
ENDBRANCH   1   2
BRANCH   1  20
HETATM   20  C14 UNL     1      42.864  15.780  -5.131  1.00  0.00     0.218 C 
HETATM   21  O2  UNL     1      43.258  14.800  -5.783  1.00  0.00    -0.274 OA
HETATM   22  N3  UNL     1      41.521  16.064  -4.862  1.00  0.00    -0.349 N 
ATOM     23  H3  UNL     1      41.372  16.900  -4.298  1.00  0.00     0.163 HD
BRANCH  22  24
HETATM   24  C15 UNL     1      40.319  15.386  -5.241  1.00  0.00     0.062 C 
HETATM   25  C17 UNL     1      40.416  14.000  -4.605  1.00  0.00     0.036 C 
HETATM   26  C18 UNL     1      39.130  13.256  -4.563  1.00  0.00     0.036 C 
HETATM   27  C19 UNL     1      37.949  14.083  -4.198  1.00  0.00     0.191 C 
HETATM   28  C24 UNL     1      37.874  15.400  -4.897  1.00  0.00     0.056 C 
HETATM   29  C25 UNL     1      39.145  16.155  -4.668  1.00  0.00     0.113 C 
HETATM   30 CL4  UNL     1      39.335  16.392  -2.916  1.00  0.00    -0.122 Cl
BRANCH  24  31
HETATM   31  C16 UNL     1      40.147  15.259  -6.697  1.00  0.00     0.147 C 
HETATM   32 CL2  UNL     1      40.387  16.757  -7.577  1.00  0.00    -0.128 Cl
ENDBRANCH  24  31
BRANCH  27  33
HETATM   33  N4  UNL     1      36.717  13.346  -4.424  1.00  0.00    -0.069 N 
HETATM   34  C20 UNL     1      35.725  14.253  -4.985  1.00  0.00     0.272 C 
HETATM   35  C21 UNL     1      36.883  12.283  -5.396  1.00  0.00     0.272 C 
BRANCH  33  36
HETATM   36  C22 UNL     1      36.255  12.908  -3.145  1.00  0.00     0.252 C 
BRANCH  36  37
HETATM   37  C23 UNL     1      36.253  13.942  -2.067  1.00  0.00     0.142 C 
HETATM   38 CL3  UNL     1      34.617  14.418  -1.574  1.00  0.00    -0.129 Cl
ENDBRANCH  36  37
ENDBRANCH  33  36
ENDBRANCH  27  33
ENDBRANCH  22  24
ENDBRANCH   1  20
TORSDOF 14
ENDMDL
MODEL 2
REMARK VINA RESULT: -8.221017558      1.122      1.831
REMARK  14 active torsions:
REMARK  status: ('A' for Active; 'I' for Inactive)
REMARK    1  A    between atoms: C2_2  and  N1_3 
REMARK    2  A    between atoms: C6_8  and  N2_9 
REMARK       I    between atoms: N2_9  and  C7_11 
REMARK    3  A    between atoms: C7_11  and  C8_13 
REMARK    4  A    between atoms: C8_13  and  C9_14 
REMARK    5  A    between atoms: C9_14  and  C10_15 
REMARK    6  A    between atoms: C10_15  and  C11_16 
REMARK    7  A    between atoms: C11_16  and  C12_17 
REMARK    8  A    between atoms: C12_17  and  C13_18 
REMARK    9  A    between atoms: C13_18  and  C14_19 
REMARK       I    between atoms: C14_19  and  N3_21 
REMARK   10  A    between atoms: N3_21  and  C15_23 
REMARK   11  A    between atoms: C15_23  and  C16_24 
REMARK   12  A    between atoms: C19_28  and  N4_29 
REMARK   13  A    between atoms: N4_29  and  C22_32 
REMARK   14  A    between atoms: C22_32  and  C23_33 
ROOT
HETATM    1  C13 UNL     1      43.982  16.693  -4.589  1.00  0.00     0.103 C 
ENDROOT
BRANCH   1   2
HETATM    2  C12 UNL     1      44.944  15.911  -3.751  1.00  0.00     0.009 C 
BRANCH   2   3
HETATM    3  C11 UNL     1      46.340  16.374  -3.918  1.00  0.00     0.000 C 
BRANCH   3   4
HETATM    4  C10 UNL     1      47.367  15.329  -4.058  1.00  0.00     0.000 C 
BRANCH   4   5
HETATM    5  C9  UNL     1      48.750  15.715  -4.292  1.00  0.00     0.009 C 
BRANCH   5   6
HETATM    6  C8  UNL     1      49.656  15.891  -3.148  1.00  0.00     0.103 C 
BRANCH   6   7
HETATM    7  C7  UNL     1      51.056  16.254  -3.672  1.00  0.00     0.222 C 
HETATM    8  N2  UNL     1      52.083  16.201  -2.714  1.00  0.00    -0.326 N 
ATOM      9  H2  UNL     1      51.828  15.937  -1.762  1.00  0.00     0.169 HD
HETATM   10  O1  UNL     1      51.150  16.551  -4.862  1.00  0.00    -0.273 OA
BRANCH   8  11
HETATM   11  C6  UNL     1      53.432  16.483  -2.972  1.00  0.00     0.052 A 
HETATM   12  C5  UNL     1      53.950  17.740  -2.935  1.00  0.00     0.056 A 
HETATM   13  C4  UNL     1      55.306  17.960  -3.182  1.00  0.00     0.051 A 
HETATM   14  C3  UNL     1      56.119  16.897  -3.464  1.00  0.00     0.114 A 
HETATM   15 CL1  UNL     1      55.946  19.598  -3.126  1.00  0.00    -0.083 Cl
HETATM   16  N1  UNL     1      55.601  15.660  -3.498  1.00  0.00    -0.363 N 
HETATM   17  C26 UNL     1      54.306  15.431  -3.264  1.00  0.00     0.119 A 
BRANCH  16  18
HETATM   18  C2  UNL     1      56.441  14.493  -3.800  1.00  0.00     0.123 C 
HETATM   19  C1  UNL     1      55.626  13.479  -4.543  1.00  0.00     0.027 C 
ENDBRANCH  16  18
ENDBRANCH   8  11
ENDBRANCH   6   7
ENDBRANCH   5   6
ENDBRANCH   4   5
ENDBRANCH   3   4
ENDBRANCH   2   3
ENDBRANCH   1   2
BRANCH   1  20
HETATM   20  C14 UNL     1      42.898  15.771  -5.097  1.00  0.00     0.218 C 
HETATM   21  O2  UNL     1      43.291  14.765  -5.711  1.00  0.00    -0.274 OA
HETATM   22  N3  UNL     1      41.554  16.080  -4.862  1.00  0.00    -0.349 N 
ATOM     23  H3  UNL     1      41.407  16.936  -4.327  1.00  0.00     0.163 HD
BRANCH  22  24
HETATM   24  C15 UNL     1      40.350  15.406  -5.241  1.00  0.00     0.062 C 
HETATM   25  C17 UNL     1      40.443  14.019  -4.604  1.00  0.00     0.036 C 
HETATM   26  C18 UNL     1      39.154  13.280  -4.563  1.00  0.00     0.036 C 
HETATM   27  C19 UNL     1      37.976  14.110  -4.198  1.00  0.00     0.191 C 
HETATM   28  C24 UNL     1      37.905  15.427  -4.897  1.00  0.00     0.056 C 
HETATM   29  C25 UNL     1      39.179  16.179  -4.668  1.00  0.00     0.113 C 
HETATM   30 CL4  UNL     1      39.369  16.415  -2.916  1.00  0.00    -0.122 Cl
BRANCH  24  31
HETATM   31  C16 UNL     1      40.178  15.280  -6.697  1.00  0.00     0.147 C 
HETATM   32 CL2  UNL     1      40.438  16.773  -7.578  1.00  0.00    -0.128 Cl
ENDBRANCH  24  31
BRANCH  27  33
HETATM   33  N4  UNL     1      36.742  13.377  -4.424  1.00  0.00    -0.069 N 
HETATM   34  C20 UNL     1      35.749  14.290  -4.974  1.00  0.00     0.272 C 
HETATM   35  C21 UNL     1      36.901  12.322  -5.405  1.00  0.00     0.272 C 
BRANCH  33  36
HETATM   36  C22 UNL     1      36.285  12.930  -3.147  1.00  0.00     0.252 C 
BRANCH  36  37
HETATM   37  C23 UNL     1      36.223  13.973  -2.079  1.00  0.00     0.142 C 
HETATM   38 CL3  UNL     1      34.563  14.359  -1.589  1.00  0.00    -0.129 Cl
ENDBRANCH  36  37
ENDBRANCH  33  36
ENDBRANCH  27  33
ENDBRANCH  22  24
ENDBRANCH   1  20
TORSDOF 14
ENDMDL
MODEL 3
REMARK VINA RESULT: -8.170184827      0.655      1.008
REMARK  14 active torsions:
REMARK  status: ('A' for Active; 'I' for Inactive)
REMARK    1  A    between atoms: C2_2  and  N1_3 
REMARK    2  A    between atoms: C6_8  and  N2_9 
REMARK       I    between atoms: N2_9  and  C7_11 
REMARK    3  A    between atoms: C7_11  and  C8_13 
REMARK    4  A    between atoms: C8_13  and  C9_14 
REMARK    5  A    between atoms: C9_14  and  C10_15 
REMARK    6  A    between atoms: C10_15  and  C11_16 
REMARK    7  A    between atoms: C11_16  and  C12_17 
REMARK    8  A    between atoms: C12_17  and  C13_18 
REMARK    9  A    between atoms: C13_18  and  C14_19 
REMARK       I    between atoms: C14_19  and  N3_21 
REMARK   10  A    between atoms: N3_21  and  C15_23 
REMARK   11  A    between atoms: C15_23  and  C16_24 
REMARK   12  A    between atoms: C19_28  and  N4_29 
REMARK   13  A    between atoms: N4_29  and  C22_32 
REMARK   14  A    between atoms: C22_32  and  C23_33 
ROOT
HETATM    1  C13 UNL     1      44.023  16.605  -4.379  1.00  0.00     0.103 C 
ENDROOT
BRANCH   1   2
HETATM    2  C12 UNL     1      45.071  15.924  -3.555  1.00  0.00     0.009 C 
BRANCH   2   3
HETATM    3  C11 UNL     1      46.442  16.316  -3.953  1.00  0.00     0.000 C 
BRANCH   3   4
HETATM    4  C10 UNL     1      47.416  15.225  -4.115  1.00  0.00     0.000 C 
BRANCH   4   5
HETATM    5  C9  UNL     1      48.813  15.547  -4.361  1.00  0.00     0.009 C 
BRANCH   5   6
HETATM    6  C8  UNL     1      49.604  16.198  -3.307  1.00  0.00     0.103 C 
BRANCH   6   7
HETATM    7  C7  UNL     1      51.059  16.334  -3.787  1.00  0.00     0.222 C 
HETATM    8  N2  UNL     1      52.032  16.192  -2.784  1.00  0.00    -0.326 N 
ATOM      9  H2  UNL     1      51.709  16.020  -1.832  1.00  0.00     0.169 HD
HETATM   10  O1  UNL     1      51.236  16.549  -4.985  1.00  0.00    -0.273 OA
BRANCH   8  11
HETATM   11  C6  UNL     1      53.416  16.271  -2.996  1.00  0.00     0.052 A 
HETATM   12  C5  UNL     1      54.152  15.246  -3.502  1.00  0.00     0.056 A 
HETATM   13  C4  UNL     1      55.525  15.388  -3.709  1.00  0.00     0.051 A 
HETATM   14  C3  UNL     1      56.133  16.573  -3.398  1.00  0.00     0.114 A 
HETATM   15 CL1  UNL     1      56.449  14.042  -4.366  1.00  0.00    -0.083 Cl
HETATM   16  N1  UNL     1      55.401  17.580  -2.899  1.00  0.00    -0.363 N 
HETATM   17  C26 UNL     1      54.086  17.462  -2.695  1.00  0.00     0.119 A 
BRANCH  16  18
HETATM   18  C2  UNL     1      56.018  18.867  -2.550  1.00  0.00     0.123 C 
HETATM   19  C1  UNL     1      55.142  19.981  -3.036  1.00  0.00     0.027 C 
ENDBRANCH  16  18
ENDBRANCH   8  11
ENDBRANCH   6   7
ENDBRANCH   5   6
ENDBRANCH   4   5
ENDBRANCH   3   4
ENDBRANCH   2   3
ENDBRANCH   1   2
BRANCH   1  20
HETATM   20  C14 UNL     1      42.911  15.627  -4.682  1.00  0.00     0.218 C 
HETATM   21  O2  UNL     1      43.229  14.427  -4.655  1.00  0.00    -0.274 OA
HETATM   22  N3  UNL     1      41.627  16.101  -4.967  1.00  0.00    -0.349 N 
ATOM     23  H3  UNL     1      41.535  17.116  -4.930  1.00  0.00     0.163 HD
BRANCH  22  24
HETATM   24  C15 UNL     1      40.419  15.410  -5.301  1.00  0.00     0.062 C 
HETATM   25  C17 UNL     1      40.531  14.044  -4.625  1.00  0.00     0.036 C 
HETATM   26  C18 UNL     1      39.247  13.300  -4.536  1.00  0.00     0.036 C 
HETATM   27  C19 UNL     1      38.073  14.136  -4.173  1.00  0.00     0.191 C 
HETATM   28  C24 UNL     1      37.981  15.431  -4.910  1.00  0.00     0.056 C 
HETATM   29  C25 UNL     1      39.255  16.195  -4.729  1.00  0.00     0.113 C 
HETATM   30 CL4  UNL     1      39.479  16.485  -2.989  1.00  0.00    -0.122 Cl
BRANCH  24  31
HETATM   31  C16 UNL     1      40.218  15.239  -6.749  1.00  0.00     0.147 C 
HETATM   32 CL2  UNL     1      41.516  14.374  -7.551  1.00  0.00    -0.128 Cl
ENDBRANCH  24  31
BRANCH  27  33
HETATM   33  N4  UNL     1      36.838  13.391  -4.352  1.00  0.00    -0.069 N 
HETATM   34  C20 UNL     1      37.064  12.340  -5.334  1.00  0.00     0.272 C 
HETATM   35  C21 UNL     1      36.419  12.720  -3.137  1.00  0.00     0.272 C 
BRANCH  33  36
HETATM   36  C22 UNL     1      35.875  14.304  -4.883  1.00  0.00     0.252 C 
BRANCH  36  37
HETATM   37  C23 UNL     1      34.534  14.285  -4.226  1.00  0.00     0.142 C 
HETATM   38 CL3  UNL     1      34.341  15.569  -3.018  1.00  0.00    -0.129 Cl
ENDBRANCH  36  37
ENDBRANCH  33  36
ENDBRANCH  27  33
ENDBRANCH  22  24
ENDBRANCH   1  20
TORSDOF 14
ENDMDL
MODEL 4
REMARK VINA RESULT: -8.107063514      1.738      2.487
REMARK  14 active torsions:
REMARK  status: ('A' for Active; 'I' for Inactive)
REMARK    1  A    between atoms: C2_2  and  N1_3 
REMARK    2  A    between atoms: C6_8  and  N2_9 
REMARK       I    between atoms: N2_9  and  C7_11 
REMARK    3  A    between atoms: C7_11  and  C8_13 
REMARK    4  A    between atoms: C8_13  and  C9_14 
REMARK    5  A    between atoms: C9_14  and  C10_15 
REMARK    6  A    between atoms: C10_15  and  C11_16 
REMARK    7  A    between atoms: C11_16  and  C12_17 
REMARK    8  A    between atoms: C12_17  and  C13_18 
REMARK    9  A    between atoms: C13_18  and  C14_19 
REMARK       I    between atoms: C14_19  and  N3_21 
REMARK   10  A    between atoms: N3_21  and  C15_23 
REMARK   11  A    between atoms: C15_23  and  C16_24 
REMARK   12  A    between atoms: C19_28  and  N4_29 
REMARK   13  A    between atoms: N4_29  and  C22_32 
REMARK   14  A    between atoms: C22_32  and  C23_33 
ROOT
HETATM    1  C13 UNL     1      43.786  16.482  -4.620  1.00  0.00     0.103 C 
ENDROOT
BRANCH   1   2
HETATM    2  C12 UNL     1      44.873  16.011  -3.705  1.00  0.00     0.009 C 
BRANCH   2   3
HETATM    3  C11 UNL     1      46.207  16.503  -4.117  1.00  0.00     0.000 C 
BRANCH   3   4
HETATM    4  C10 UNL     1      47.357  15.655  -3.767  1.00  0.00     0.000 C 
BRANCH   4   5
HETATM    5  C9  UNL     1      48.705  16.164  -3.965  1.00  0.00     0.009 C 
BRANCH   5   6
HETATM    6  C8  UNL     1      49.734  15.905  -2.948  1.00  0.00     0.103 C 
BRANCH   6   7
HETATM    7  C7  UNL     1      51.115  16.232  -3.541  1.00  0.00     0.222 C 
HETATM    8  N2  UNL     1      52.185  16.160  -2.634  1.00  0.00    -0.326 N 
ATOM      9  H2  UNL     1      51.971  15.909  -1.669  1.00  0.00     0.169 HD
HETATM   10  O1  UNL     1      51.158  16.519  -4.737  1.00  0.00    -0.273 OA
BRANCH   8  11
HETATM   11  C6  UNL     1      53.526  16.410  -2.958  1.00  0.00     0.052 A 
HETATM   12  C5  UNL     1      54.087  17.648  -2.909  1.00  0.00     0.056 A 
HETATM   13  C4  UNL     1      55.434  17.835  -3.225  1.00  0.00     0.051 A 
HETATM   14  C3  UNL     1      56.194  16.757  -3.588  1.00  0.00     0.114 A 
HETATM   15 CL1  UNL     1      56.129  19.449  -3.152  1.00  0.00    -0.083 Cl
HETATM   16  N1  UNL     1      55.635  15.539  -3.633  1.00  0.00    -0.363 N 
HETATM   17  C26 UNL     1      54.348  15.342  -3.334  1.00  0.00     0.119 A 
BRANCH  16  18
HETATM   18  C2  UNL     1      56.418  14.357  -4.021  1.00  0.00     0.123 C 
HETATM   19  C1  UNL     1      55.483  13.252  -4.405  1.00  0.00     0.027 C 
ENDBRANCH  16  18
ENDBRANCH   8  11
ENDBRANCH   6   7
ENDBRANCH   5   6
ENDBRANCH   4   5
ENDBRANCH   3   4
ENDBRANCH   2   3
ENDBRANCH   1   2
BRANCH   1  20
HETATM   20  C14 UNL     1      42.646  15.491  -4.595  1.00  0.00     0.218 C 
HETATM   21  O2  UNL     1      42.974  14.294  -4.547  1.00  0.00    -0.274 OA
HETATM   22  N3  UNL     1      41.325  15.948  -4.624  1.00  0.00    -0.349 N 
ATOM     23  H3  UNL     1      41.232  16.964  -4.646  1.00  0.00     0.163 HD
BRANCH  22  24
HETATM   24  C15 UNL     1      40.080  15.241  -4.630  1.00  0.00     0.062 C 
HETATM   25  C17 UNL     1      39.809  14.884  -3.168  1.00  0.00     0.036 C 
HETATM   26  C18 UNL     1      38.410  14.468  -2.891  1.00  0.00     0.036 C 
HETATM   27  C19 UNL     1      37.375  15.275  -3.590  1.00  0.00     0.191 C 
HETATM   28  C24 UNL     1      37.663  15.539  -5.031  1.00  0.00     0.056 C 
HETATM   29  C25 UNL     1      39.011  16.176  -5.158  1.00  0.00     0.113 C 
HETATM   30 CL4  UNL     1      38.988  17.699  -4.240  1.00  0.00    -0.122 Cl
BRANCH  24  31
HETATM   31  C16 UNL     1      40.100  14.019  -5.449  1.00  0.00     0.147 C 
HETATM   32 CL2  UNL     1      40.303  14.315  -7.165  1.00  0.00    -0.128 Cl
ENDBRANCH  24  31
BRANCH  27  33
HETATM   33  N4  UNL     1      36.068  14.652  -3.466  1.00  0.00    -0.069 N 
HETATM   34  C20 UNL     1      36.055  13.825  -2.268  1.00  0.00     0.272 C 
HETATM   35  C21 UNL     1      35.008  15.626  -3.291  1.00  0.00     0.272 C 
BRANCH  33  36
HETATM   36  C22 UNL     1      35.904  13.802  -4.603  1.00  0.00     0.252 C 
BRANCH  36  37
HETATM   37  C23 UNL     1      36.353  12.388  -4.424  1.00  0.00     0.142 C 
HETATM   38 CL3  UNL     1      37.297  11.788  -5.801  1.00  0.00    -0.129 Cl
ENDBRANCH  36  37
ENDBRANCH  33  36
ENDBRANCH  27  33
ENDBRANCH  22  24
ENDBRANCH   1  20
TORSDOF 14
ENDMDL
MODEL 5
REMARK VINA RESULT: -8.022765537      1.376      1.703
REMARK  14 active torsions:
REMARK  status: ('A' for Active; 'I' for Inactive)
REMARK    1  A    between atoms: C2_2  and  N1_3 
REMARK    2  A    between atoms: C6_8  and  N2_9 
REMARK       I    between atoms: N2_9  and  C7_11 
REMARK    3  A    between atoms: C7_11  and  C8_13 
REMARK    4  A    between atoms: C8_13  and  C9_14 
REMARK    5  A    between atoms: C9_14  and  C10_15 
REMARK    6  A    between atoms: C10_15  and  C11_16 
REMARK    7  A    between atoms: C11_16  and  C12_17 
REMARK    8  A    between atoms: C12_17  and  C13_18 
REMARK    9  A    between atoms: C13_18  and  C14_19 
REMARK       I    between atoms: C14_19  and  N3_21 
REMARK   10  A    between atoms: N3_21  and  C15_23 
REMARK   11  A    between atoms: C15_23  and  C16_24 
REMARK   12  A    between atoms: C19_28  and  N4_29 
REMARK   13  A    between atoms: N4_29  and  C22_32 
REMARK   14  A    between atoms: C22_32  and  C23_33 
ROOT
HETATM    1  C13 UNL     1      43.953  16.429  -4.621  1.00  0.00     0.103 C 
ENDROOT
BRANCH   1   2
HETATM    2  C12 UNL     1      45.006  15.951  -3.671  1.00  0.00     0.009 C 
BRANCH   2   3
HETATM    3  C11 UNL     1      46.374  16.223  -4.166  1.00  0.00     0.000 C 
BRANCH   3   4
HETATM    4  C10 UNL     1      47.346  15.125  -4.047  1.00  0.00     0.000 C 
BRANCH   4   5
HETATM    5  C9  UNL     1      48.757  15.392  -4.281  1.00  0.00     0.009 C 
BRANCH   5   6
HETATM    6  C8  UNL     1      49.541  16.094  -3.254  1.00  0.00     0.103 C 
BRANCH   6   7
HETATM    7  C7  UNL     1      50.973  16.301  -3.776  1.00  0.00     0.222 C 
HETATM    8  N2  UNL     1      51.986  16.137  -2.816  1.00  0.00    -0.326 N 
ATOM      9  H2  UNL     1      51.702  15.904  -1.864  1.00  0.00     0.169 HD
HETATM   10  O1  UNL     1      51.101  16.585  -4.966  1.00  0.00    -0.273 OA
BRANCH   8  11
HETATM   11  C6  UNL     1      53.358  16.270  -3.071  1.00  0.00     0.052 A 
HETATM   12  C5  UNL     1      54.196  15.209  -3.215  1.00  0.00     0.056 A 
HETATM   13  C4  UNL     1      55.551  15.402  -3.486  1.00  0.00     0.051 A 
HETATM   14  C3  UNL     1      56.038  16.674  -3.608  1.00  0.00     0.114 A 
HETATM   15 CL1  UNL     1      56.609  14.008  -3.668  1.00  0.00    -0.083 Cl
HETATM   16  N1  UNL     1      55.206  17.717  -3.465  1.00  0.00    -0.363 N 
HETATM   17  C26 UNL     1      53.906  17.551  -3.205  1.00  0.00     0.119 A 
BRANCH  16  18
HETATM   18  C2  UNL     1      55.691  19.098  -3.585  1.00  0.00     0.123 C 
HETATM   19  C1  UNL     1      55.822  19.449  -5.035  1.00  0.00     0.027 C 
ENDBRANCH  16  18
ENDBRANCH   8  11
ENDBRANCH   6   7
ENDBRANCH   5   6
ENDBRANCH   4   5
ENDBRANCH   3   4
ENDBRANCH   2   3
ENDBRANCH   1   2
BRANCH   1  20
HETATM   20  C14 UNL     1      42.796  15.456  -4.616  1.00  0.00     0.218 C 
HETATM   21  O2  UNL     1      43.104  14.254  -4.599  1.00  0.00    -0.274 OA
HETATM   22  N3  UNL     1      41.483  15.937  -4.630  1.00  0.00    -0.349 N 
ATOM     23  H3  UNL     1      41.407  16.954  -4.626  1.00  0.00     0.163 HD
BRANCH  22  24
HETATM   24  C15 UNL     1      40.226  15.251  -4.648  1.00  0.00     0.062 C 
HETATM   25  C17 UNL     1      39.941  14.886  -3.192  1.00  0.00     0.036 C 
HETATM   26  C18 UNL     1      38.533  14.491  -2.926  1.00  0.00     0.036 C 
HETATM   27  C19 UNL     1      37.516  15.322  -3.624  1.00  0.00     0.191 C 
HETATM   28  C24 UNL     1      37.817  15.594  -5.061  1.00  0.00     0.056 C 
HETATM   29  C25 UNL     1      39.176  16.209  -5.174  1.00  0.00     0.113 C 
HETATM   30 CL4  UNL     1      39.173  17.723  -4.243  1.00  0.00    -0.122 Cl
BRANCH  24  31
HETATM   31  C16 UNL     1      40.230  14.036  -5.479  1.00  0.00     0.147 C 
HETATM   32 CL2  UNL     1      40.414  14.346  -7.194  1.00  0.00    -0.128 Cl
ENDBRANCH  24  31
BRANCH  27  33
HETATM   33  N4  UNL     1      36.198  14.720  -3.512  1.00  0.00    -0.069 N 
HETATM   34  C20 UNL     1      36.198  13.799  -2.385  1.00  0.00     0.272 C 
HETATM   35  C21 UNL     1      35.168  15.700  -3.228  1.00  0.00     0.272 C 
BRANCH  33  36
HETATM   36  C22 UNL     1      35.982  13.969  -4.708  1.00  0.00     0.252 C 
BRANCH  36  37
HETATM   37  C23 UNL     1      36.086  12.485  -4.569  1.00  0.00     0.142 C 
HETATM   38 CL3  UNL     1      37.450  11.803  -5.474  1.00  0.00    -0.129 Cl
ENDBRANCH  36  37
ENDBRANCH  33  36
ENDBRANCH  27  33
ENDBRANCH  22  24
ENDBRANCH   1  20
TORSDOF 14
ENDMDL
