MODEL 1
REMARK VINA RESULT: -10.730056388      0.000      0.000
REMARK  14 active torsions:
REMARK  status: ('A' for Active; 'I' for Inactive)
REMARK    1  A    between atoms: N1_2  and  C2_3 
REMARK    2  A    between atoms: C2_3  and  C3_4 
REMARK       I    between atoms: C3_4  and  N2_6 
REMARK    3  A    between atoms: N2_6  and  C4_8 
REMARK    4  A    between atoms: C7_12  and  C8_13 
REMARK       I    between atoms: C8_13  and  N3_15 
REMARK    5  A    between atoms: N3_15  and  C9_17 
REMARK    6  A    between atoms: C9_17  and  C10_18 
REMARK    7  A    between atoms: C10_18  and  C11_19 
REMARK    8  A    between atoms: C11_19  and  C12_20 
REMARK    9  A    between atoms: C12_20  and  C13_21 
REMARK   10  A    between atoms: C13_21  and  C14_22 
REMARK   11  A    between atoms: C14_22  and  C15_23 
REMARK   12  A    between atoms: C15_23  and  C16_24 
REMARK   13  A    between atoms: C16_24  and  N4_25 
REMARK   14  A    between atoms: N4_25  and  C19_28 
ROOT
HETATM    1  C8  UNL     1      45.058  16.928  -4.188  1.00  0.00     0.254 C 
HETATM    2  O2  UNL     1      44.625  18.102  -4.329  1.00  0.00    -0.268 OA
HETATM    3  N3  UNL     1      44.239  15.822  -4.356  1.00  0.00    -0.357 N 
ATOM      4  H3  UNL     1      44.692  14.912  -4.271  1.00  0.00     0.162 HD
ENDROOT
BRANCH   1   5
HETATM    5  C7  UNL     1      46.500  16.800  -3.833  1.00  0.00     0.073 A 
HETATM    6  C6  UNL     1      47.301  17.842  -3.481  1.00  0.00     0.134 A 
HETATM    7  C5  UNL     1      48.625  17.688  -3.112  1.00  0.00     0.076 A 
HETATM    8  F1  UNL     1      46.763  19.113  -3.535  1.00  0.00    -0.205 F 
HETATM    9  C4  UNL     1      49.199  16.458  -3.082  1.00  0.00     0.076 A 
HETATM   10  C25 UNL     1      48.383  15.374  -3.443  1.00  0.00     0.144 A 
HETATM   11  C24 UNL     1      47.069  15.533  -3.809  1.00  0.00     0.065 A 
HETATM   12  F4  UNL     1      48.900  14.099  -3.436  1.00  0.00    -0.204 F 
BRANCH   9  13
HETATM   13  N2  UNL     1      50.532  16.184  -2.703  1.00  0.00    -0.320 N 
HETATM   14  C3  UNL     1      51.697  16.235  -3.477  1.00  0.00     0.269 C 
HETATM   15  O1  UNL     1      51.534  16.573  -4.715  1.00  0.00    -0.267 OA
ATOM     16  H2  UNL     1      50.664  15.911  -1.729  1.00  0.00     0.169 HD
BRANCH  14  17
HETATM   17  C2  UNL     1      53.056  15.966  -3.102  1.00  0.00     0.276 C 
BRANCH  17  18
HETATM   18  N1  UNL     1      54.106  16.906  -3.366  1.00  0.00    -0.046 N 
HETATM   19  C1  UNL     1      55.314  16.081  -2.973  1.00  0.00     0.278 C 
HETATM   20  C26 UNL     1      54.181  18.008  -2.506  1.00  0.00     0.243 C 
HETATM   21  C27 UNL     1      54.662  19.316  -2.923  1.00  0.00     0.028 C 
HETATM   22  C28 UNL     1      55.989  19.358  -3.647  1.00  0.00     0.002 C 
HETATM   23  C29 UNL     1      55.946  18.843  -5.042  1.00  0.00     0.002 C 
HETATM   24  C30 UNL     1      54.569  18.369  -5.356  1.00  0.00     0.028 C 
HETATM   25  C31 UNL     1      54.286  17.060  -4.758  1.00  0.00     0.243 C 
ENDBRANCH  17  18
ENDBRANCH  14  17
ENDBRANCH   9  13
ENDBRANCH   1   5
BRANCH   3  26
HETATM   26  C9  UNL     1      42.854  15.802  -4.630  1.00  0.00     0.123 C 
BRANCH  26  27
HETATM   27  C10 UNL     1      42.203  14.527  -4.964  1.00  0.00     0.020 C 
BRANCH  27  28
HETATM   28  C11 UNL     1      42.373  13.978  -6.312  1.00  0.00     0.002 C 
BRANCH  28  29
HETATM   29  C12 UNL     1      41.453  14.733  -7.301  1.00  0.00     0.000 C 
BRANCH  29  30
HETATM   30  C13 UNL     1      40.026  14.339  -7.208  1.00  0.00     0.000 C 
BRANCH  30  31
HETATM   31  C14 UNL     1      39.089  15.500  -7.127  1.00  0.00     0.002 C 
BRANCH  31  32
HETATM   32  C15 UNL     1      38.625  15.829  -5.728  1.00  0.00     0.028 C 
BRANCH  32  33
HETATM   33  C16 UNL     1      37.834  14.618  -5.261  1.00  0.00     0.237 C 
BRANCH  33  34
HETATM   34  N4  UNL     1      38.094  14.223  -3.919  1.00  0.00    -0.070 N 
HETATM   35  C17 UNL     1      38.899  13.008  -3.981  1.00  0.00     0.272 C 
HETATM   36  C18 UNL     1      38.907  15.221  -3.247  1.00  0.00     0.272 C 
BRANCH  34  37
HETATM   37  C19 UNL     1      36.880  14.051  -3.167  1.00  0.00     0.195 C 
HETATM   38  C20 UNL     1      35.889  13.170  -3.897  1.00  0.00     0.039 C 
HETATM   39  C21 UNL     1      34.710  14.083  -4.198  1.00  0.00     0.081 C 
HETATM   40  C22 UNL     1      34.707  14.993  -2.965  1.00  0.00     0.245 C 
HETATM   41  F2  UNL     1      33.975  16.136  -3.200  1.00  0.00    -0.206 F 
HETATM   42  F3  UNL     1      34.230  14.359  -1.855  1.00  0.00    -0.206 F 
HETATM   43  C23 UNL     1      36.179  15.344  -2.876  1.00  0.00     0.112 C 
ENDBRANCH  34  37
ENDBRANCH  33  34
ENDBRANCH  32  33
ENDBRANCH  31  32
ENDBRANCH  30  31
ENDBRANCH  29  30
ENDBRANCH  28  29
ENDBRANCH  27  28
ENDBRANCH  26  27
ENDBRANCH   3  26
TORSDOF 14
ENDMDL
MODEL 2
REMARK VINA RESULT: -10.537562227      0.757      1.345
REMARK  14 active torsions:
REMARK  status: ('A' for Active; 'I' for Inactive)
REMARK    1  A    between atoms: N1_2  and  C2_3 
REMARK    2  A    between atoms: C2_3  and  C3_4 
REMARK       I    between atoms: C3_4  and  N2_6 
REMARK    3  A    between atoms: N2_6  and  C4_8 
REMARK    4  A    between atoms: C7_12  and  C8_13 
REMARK       I    between atoms: C8_13  and  N3_15 
REMARK    5  A    between atoms: N3_15  and  C9_17 
REMARK    6  A    between atoms: C9_17  and  C10_18 
REMARK    7  A    between atoms: C10_18  and  C11_19 
REMARK    8  A    between atoms: C11_19  and  C12_20 
REMARK    9  A    between atoms: C12_20  and  C13_21 
REMARK   10  A    between atoms: C13_21  and  C14_22 
REMARK   11  A    between atoms: C14_22  and  C15_23 
REMARK   12  A    between atoms: C15_23  and  C16_24 
REMARK   13  A    between atoms: C16_24  and  N4_25 
REMARK   14  A    between atoms: N4_25  and  C19_28 
ROOT
HETATM    1  C8  UNL     1      45.279  16.850  -4.185  1.00  0.00     0.254 C 
HETATM    2  O2  UNL     1      44.938  18.056  -4.296  1.00  0.00    -0.268 OA
HETATM    3  N3  UNL     1      44.379  15.814  -4.384  1.00  0.00    -0.357 N 
ATOM      4  H3  UNL     1      44.761  14.870  -4.322  1.00  0.00     0.162 HD
ENDROOT
BRANCH   1   5
HETATM    5  C7  UNL     1      46.706  16.603  -3.830  1.00  0.00     0.073 A 
HETATM    6  C6  UNL     1      47.380  15.455  -4.105  1.00  0.00     0.134 A 
HETATM    7  C5  UNL     1      48.717  15.271  -3.805  1.00  0.00     0.076 A 
HETATM    8  F1  UNL     1      46.673  14.417  -4.681  1.00  0.00    -0.205 F 
HETATM    9  C4  UNL     1      49.436  16.254  -3.206  1.00  0.00     0.076 A 
HETATM   10  C25 UNL     1      48.752  17.445  -2.915  1.00  0.00     0.144 A 
HETATM   11  C24 UNL     1      47.424  17.622  -3.216  1.00  0.00     0.065 A 
HETATM   12  F4  UNL     1      49.419  18.484  -2.307  1.00  0.00    -0.204 F 
BRANCH   9  13
HETATM   13  N2  UNL     1      50.807  16.182  -2.873  1.00  0.00    -0.320 N 
HETATM   14  C3  UNL     1      51.925  16.359  -3.697  1.00  0.00     0.269 C 
HETATM   15  O1  UNL     1      51.671  16.617  -4.939  1.00  0.00    -0.267 OA
ATOM     16  H2  UNL     1      51.011  15.971  -1.896  1.00  0.00     0.169 HD
BRANCH  14  17
HETATM   17  C2  UNL     1      53.321  16.296  -3.370  1.00  0.00     0.276 C 
BRANCH  17  18
HETATM   18  N1  UNL     1      54.268  17.202  -3.951  1.00  0.00    -0.046 N 
HETATM   19  C1  UNL     1      55.528  16.366  -3.870  1.00  0.00     0.278 C 
HETATM   20  C26 UNL     1      54.588  18.333  -3.191  1.00  0.00     0.243 C 
HETATM   21  C27 UNL     1      54.950  19.614  -3.778  1.00  0.00     0.028 C 
HETATM   22  C28 UNL     1      56.028  19.599  -4.839  1.00  0.00     0.002 C 
HETATM   23  C29 UNL     1      55.599  19.034  -6.146  1.00  0.00     0.002 C 
HETATM   24  C30 UNL     1      54.184  18.579  -6.051  1.00  0.00     0.028 C 
HETATM   25  C31 UNL     1      54.061  17.300  -5.344  1.00  0.00     0.243 C 
ENDBRANCH  17  18
ENDBRANCH  14  17
ENDBRANCH   9  13
ENDBRANCH   1   5
BRANCH   3  26
HETATM   26  C9  UNL     1      42.997  15.907  -4.661  1.00  0.00     0.123 C 
BRANCH  26  27
HETATM   27  C10 UNL     1      42.233  14.682  -4.936  1.00  0.00     0.020 C 
BRANCH  27  28
HETATM   28  C11 UNL     1      42.414  14.009  -6.225  1.00  0.00     0.002 C 
BRANCH  28  29
HETATM   29  C12 UNL     1      41.516  14.680  -7.292  1.00  0.00     0.000 C 
BRANCH  29  30
HETATM   30  C13 UNL     1      40.081  14.326  -7.173  1.00  0.00     0.000 C 
BRANCH  30  31
HETATM   31  C14 UNL     1      39.174  15.512  -7.122  1.00  0.00     0.002 C 
BRANCH  31  32
HETATM   32  C15 UNL     1      38.655  15.841  -5.742  1.00  0.00     0.028 C 
BRANCH  32  33
HETATM   33  C16 UNL     1      37.923  14.595  -5.271  1.00  0.00     0.237 C 
BRANCH  33  34
HETATM   34  N4  UNL     1      38.157  14.251  -3.910  1.00  0.00    -0.070 N 
HETATM   35  C17 UNL     1      39.001  13.063  -3.910  1.00  0.00     0.272 C 
HETATM   36  C18 UNL     1      38.917  15.297  -3.248  1.00  0.00     0.272 C 
BRANCH  34  37
HETATM   37  C19 UNL     1      36.927  14.063  -3.187  1.00  0.00     0.195 C 
HETATM   38  C20 UNL     1      35.956  13.189  -3.952  1.00  0.00     0.039 C 
HETATM   39  C21 UNL     1      34.780  14.101  -4.265  1.00  0.00     0.081 C 
HETATM   40  C22 UNL     1      34.745  14.992  -3.019  1.00  0.00     0.245 C 
HETATM   41  F2  UNL     1      34.014  16.135  -3.254  1.00  0.00    -0.206 F 
HETATM   42  F3  UNL     1      34.248  14.340  -1.929  1.00  0.00    -0.206 F 
HETATM   43  C23 UNL     1      36.214  15.348  -2.893  1.00  0.00     0.112 C 
ENDBRANCH  34  37
ENDBRANCH  33  34
ENDBRANCH  32  33
ENDBRANCH  31  32
ENDBRANCH  30  31
ENDBRANCH  29  30
ENDBRANCH  28  29
ENDBRANCH  27  28
ENDBRANCH  26  27
ENDBRANCH   3  26
TORSDOF 14
ENDMDL
MODEL 3
REMARK VINA RESULT: -10.529976565      1.495      2.207
REMARK  14 active torsions:
REMARK  status: ('A' for Active; 'I' for Inactive)
REMARK    1  A    between atoms: N1_2  and  C2_3 
REMARK    2  A    between atoms: C2_3  and  C3_4 
REMARK       I    between atoms: C3_4  and  N2_6 
REMARK    3  A    between atoms: N2_6  and  C4_8 
REMARK    4  A    between atoms: C7_12  and  C8_13 
REMARK       I    between atoms: C8_13  and  N3_15 
REMARK    5  A    between atoms: N3_15  and  C9_17 
REMARK    6  A    between atoms: C9_17  and  C10_18 
REMARK    7  A    between atoms: C10_18  and  C11_19 
REMARK    8  A    between atoms: C11_19  and  C12_20 
REMARK    9  A    between atoms: C12_20  and  C13_21 
REMARK   10  A    between atoms: C13_21  and  C14_22 
REMARK   11  A    between atoms: C14_22  and  C15_23 
REMARK   12  A    between atoms: C15_23  and  C16_24 
REMARK   13  A    between atoms: C16_24  and  N4_25 
REMARK   14  A    between atoms: N4_25  and  C19_28 
ROOT
HETATM    1  C8  UNL     1      45.432  16.687  -4.160  1.00  0.00     0.254 C 
HETATM    2  O2  UNL     1      45.049  17.872  -4.340  1.00  0.00    -0.268 OA
HETATM    3  N3  UNL     1      44.565  15.612  -4.287  1.00  0.00    -0.357 N 
ATOM      4  H3  UNL     1      44.979  14.687  -4.172  1.00  0.00     0.162 HD
ENDROOT
BRANCH   1   5
HETATM    5  C7  UNL     1      46.868  16.509  -3.805  1.00  0.00     0.073 A 
HETATM    6  C6  UNL     1      47.605  15.406  -4.105  1.00  0.00     0.134 A 
HETATM    7  C5  UNL     1      48.949  15.287  -3.803  1.00  0.00     0.076 A 
HETATM    8  F1  UNL     1      46.957  14.346  -4.709  1.00  0.00    -0.205 F 
HETATM    9  C4  UNL     1      49.611  16.293  -3.177  1.00  0.00     0.076 A 
HETATM   10  C25 UNL     1      48.864  17.438  -2.861  1.00  0.00     0.144 A 
HETATM   11  C24 UNL     1      47.528  17.550  -3.163  1.00  0.00     0.065 A 
HETATM   12  F4  UNL     1      49.471  18.497  -2.225  1.00  0.00    -0.204 F 
BRANCH   9  13
HETATM   13  N2  UNL     1      50.984  16.287  -2.840  1.00  0.00    -0.320 N 
HETATM   14  C3  UNL     1      52.097  16.442  -3.675  1.00  0.00     0.269 C 
HETATM   15  O1  UNL     1      51.838  16.606  -4.931  1.00  0.00    -0.267 OA
ATOM     16  H2  UNL     1      51.192  16.151  -1.851  1.00  0.00     0.169 HD
BRANCH  14  17
HETATM   17  C2  UNL     1      53.494  16.446  -3.344  1.00  0.00     0.276 C 
BRANCH  17  18
HETATM   18  N1  UNL     1      54.404  17.374  -3.948  1.00  0.00    -0.046 N 
HETATM   19  C1  UNL     1      55.705  16.614  -3.798  1.00  0.00     0.278 C 
HETATM   20  C26 UNL     1      54.643  18.557  -3.239  1.00  0.00     0.243 C 
HETATM   21  C27 UNL     1      54.950  19.826  -3.880  1.00  0.00     0.028 C 
HETATM   22  C28 UNL     1      56.052  19.820  -4.915  1.00  0.00     0.002 C 
HETATM   23  C29 UNL     1      55.687  19.169  -6.201  1.00  0.00     0.002 C 
HETATM   24  C30 UNL     1      54.297  18.642  -6.115  1.00  0.00     0.028 C 
HETATM   25  C31 UNL     1      54.226  17.393  -5.349  1.00  0.00     0.243 C 
ENDBRANCH  17  18
ENDBRANCH  14  17
ENDBRANCH   9  13
ENDBRANCH   1   5
BRANCH   3  26
HETATM   26  C9  UNL     1      43.179  15.642  -4.556  1.00  0.00     0.123 C 
BRANCH  26  27
HETATM   27  C10 UNL     1      42.508  14.421  -5.024  1.00  0.00     0.020 C 
BRANCH  27  28
HETATM   28  C11 UNL     1      42.844  13.893  -6.349  1.00  0.00     0.002 C 
BRANCH  28  29
HETATM   29  C12 UNL     1      41.822  14.411  -7.389  1.00  0.00     0.000 C 
BRANCH  29  30
HETATM   30  C13 UNL     1      40.424  14.428  -6.894  1.00  0.00     0.000 C 
BRANCH  30  31
HETATM   31  C14 UNL     1      39.733  15.738  -7.098  1.00  0.00     0.002 C 
BRANCH  31  32
HETATM   32  C15 UNL     1      39.641  16.593  -5.856  1.00  0.00     0.028 C 
BRANCH  32  33
HETATM   33  C16 UNL     1      38.244  16.366  -5.303  1.00  0.00     0.237 C 
BRANCH  33  34
HETATM   34  N4  UNL     1      38.205  15.974  -3.936  1.00  0.00    -0.070 N 
HETATM   35  C17 UNL     1      39.583  15.955  -3.459  1.00  0.00     0.272 C 
HETATM   36  C18 UNL     1      37.508  16.971  -3.142  1.00  0.00     0.272 C 
BRANCH  34  37
HETATM   37  C19 UNL     1      37.537  14.712  -3.760  1.00  0.00     0.195 C 
HETATM   38  C20 UNL     1      38.468  13.659  -3.197  1.00  0.00     0.039 C 
HETATM   39  C21 UNL     1      38.581  12.615  -4.298  1.00  0.00     0.081 C 
HETATM   40  C22 UNL     1      37.175  12.660  -4.906  1.00  0.00     0.245 C 
HETATM   41  F2  UNL     1      37.163  12.085  -6.157  1.00  0.00    -0.206 F 
HETATM   42  F3  UNL     1      36.246  12.056  -4.110  1.00  0.00    -0.206 F 
HETATM   43  C23 UNL     1      36.978  14.158  -5.036  1.00  0.00     0.112 C 
ENDBRANCH  34  37
ENDBRANCH  33  34
ENDBRANCH  32  33
ENDBRANCH  31  32
ENDBRANCH  30  31
ENDBRANCH  29  30
ENDBRANCH  28  29
ENDBRANCH  27  28
ENDBRANCH  26  27
ENDBRANCH   3  26
TORSDOF 14
ENDMDL
MODEL 4
REMARK VINA RESULT: -10.502138922      0.943      1.305
REMARK  14 active torsions:
REMARK  status: ('A' for Active; 'I' for Inactive)
REMARK    1  A    between atoms: N1_2  and  C2_3 
REMARK    2  A    between atoms: C2_3  and  C3_4 
REMARK       I    between atoms: C3_4  and  N2_6 
REMARK    3  A    between atoms: N2_6  and  C4_8 
REMARK    4  A    between atoms: C7_12  and  C8_13 
REMARK       I    between atoms: C8_13  and  N3_15 
REMARK    5  A    between atoms: N3_15  and  C9_17 
REMARK    6  A    between atoms: C9_17  and  C10_18 
REMARK    7  A    between atoms: C10_18  and  C11_19 
REMARK    8  A    between atoms: C11_19  and  C12_20 
REMARK    9  A    between atoms: C12_20  and  C13_21 
REMARK   10  A    between atoms: C13_21  and  C14_22 
REMARK   11  A    between atoms: C14_22  and  C15_23 
REMARK   12  A    between atoms: C15_23  and  C16_24 
REMARK   13  A    between atoms: C16_24  and  N4_25 
REMARK   14  A    between atoms: N4_25  and  C19_28 
ROOT
HETATM    1  C8  UNL     1      45.173  16.928  -4.133  1.00  0.00     0.254 C 
HETATM    2  O2  UNL     1      44.735  18.105  -4.223  1.00  0.00    -0.268 OA
HETATM    3  N3  UNL     1      44.356  15.826  -4.339  1.00  0.00    -0.357 N 
ATOM      4  H3  UNL     1      44.813  14.916  -4.294  1.00  0.00     0.162 HD
ENDROOT
BRANCH   1   5
HETATM    5  C7  UNL     1      46.618  16.792  -3.794  1.00  0.00     0.073 A 
HETATM    6  C6  UNL     1      47.420  17.821  -3.412  1.00  0.00     0.134 A 
HETATM    7  C5  UNL     1      48.747  17.658  -3.060  1.00  0.00     0.076 A 
HETATM    8  F1  UNL     1      46.879  19.092  -3.415  1.00  0.00    -0.205 F 
HETATM    9  C4  UNL     1      49.324  16.430  -3.079  1.00  0.00     0.076 A 
HETATM   10  C25 UNL     1      48.508  15.357  -3.472  1.00  0.00     0.144 A 
HETATM   11  C24 UNL     1      47.190  15.525  -3.822  1.00  0.00     0.065 A 
HETATM   12  F4  UNL     1      49.028  14.084  -3.516  1.00  0.00    -0.204 F 
BRANCH   9  13
HETATM   13  N2  UNL     1      50.661  16.145  -2.721  1.00  0.00    -0.320 N 
HETATM   14  C3  UNL     1      51.819  16.224  -3.504  1.00  0.00     0.269 C 
HETATM   15  O1  UNL     1      51.644  16.603  -4.728  1.00  0.00    -0.267 OA
ATOM     16  H2  UNL     1      50.802  15.839  -1.758  1.00  0.00     0.169 HD
BRANCH  14  17
HETATM   17  C2  UNL     1      53.182  15.946  -3.149  1.00  0.00     0.276 C 
BRANCH  17  18
HETATM   18  N1  UNL     1      54.190  16.964  -3.193  1.00  0.00    -0.046 N 
HETATM   19  C1  UNL     1      55.402  16.164  -2.764  1.00  0.00     0.278 C 
HETATM   20  C26 UNL     1      54.105  17.961  -2.215  1.00  0.00     0.243 C 
HETATM   21  C27 UNL     1      54.540  19.332  -2.431  1.00  0.00     0.028 C 
HETATM   22  C28 UNL     1      55.929  19.528  -2.997  1.00  0.00     0.002 C 
HETATM   23  C29 UNL     1      56.063  19.177  -4.436  1.00  0.00     0.002 C 
HETATM   24  C30 UNL     1      54.759  18.670  -4.948  1.00  0.00     0.028 C 
HETATM   25  C31 UNL     1      54.501  17.287  -4.532  1.00  0.00     0.243 C 
ENDBRANCH  17  18
ENDBRANCH  14  17
ENDBRANCH   9  13
ENDBRANCH   1   5
BRANCH   3  26
HETATM   26  C9  UNL     1      42.969  15.813  -4.603  1.00  0.00     0.123 C 
BRANCH  26  27
HETATM   27  C10 UNL     1      42.319  14.549  -4.980  1.00  0.00     0.020 C 
BRANCH  27  28
HETATM   28  C11 UNL     1      42.587  13.984  -6.305  1.00  0.00     0.002 C 
BRANCH  28  29
HETATM   29  C12 UNL     1      41.444  14.369  -7.275  1.00  0.00     0.000 C 
BRANCH  29  30
HETATM   30  C13 UNL     1      40.107  14.413  -6.634  1.00  0.00     0.000 C 
BRANCH  30  31
HETATM   31  C14 UNL     1      39.206  15.461  -7.202  1.00  0.00     0.002 C 
BRANCH  31  32
HETATM   32  C15 UNL     1      38.348  16.166  -6.178  1.00  0.00     0.028 C 
BRANCH  32  33
HETATM   33  C16 UNL     1      39.035  15.941  -4.841  1.00  0.00     0.237 C 
BRANCH  33  34
HETATM   34  N4  UNL     1      38.149  15.803  -3.737  1.00  0.00    -0.070 N 
HETATM   35  C17 UNL     1      38.878  15.096  -2.691  1.00  0.00     0.272 C 
HETATM   36  C18 UNL     1      37.810  17.106  -3.193  1.00  0.00     0.272 C 
BRANCH  34  37
HETATM   37  C19 UNL     1      36.928  15.141  -4.111  1.00  0.00     0.195 C 
HETATM   38  C20 UNL     1      35.771  15.559  -3.228  1.00  0.00     0.039 C 
HETATM   39  C21 UNL     1      35.373  14.292  -2.486  1.00  0.00     0.081 C 
HETATM   40  C22 UNL     1      35.644  13.220  -3.547  1.00  0.00     0.245 C 
HETATM   41  F2  UNL     1      35.724  11.971  -2.973  1.00  0.00    -0.206 F 
HETATM   42  F3  UNL     1      34.700  13.217  -4.532  1.00  0.00    -0.206 F 
HETATM   43  C23 UNL     1      37.018  13.646  -4.027  1.00  0.00     0.112 C 
ENDBRANCH  34  37
ENDBRANCH  33  34
ENDBRANCH  32  33
ENDBRANCH  31  32
ENDBRANCH  30  31
ENDBRANCH  29  30
ENDBRANCH  28  29
ENDBRANCH  27  28
ENDBRANCH  26  27
ENDBRANCH   3  26
TORSDOF 14
ENDMDL
MODEL 5
REMARK VINA RESULT: -10.334126480      1.407      1.870
REMARK  14 active torsions:
REMARK  status: ('A' for Active; 'I' for Inactive)
REMARK    1  A    between atoms: N1_2  and  C2_3 
REMARK    2  A    between atoms: C2_3  and  C3_4 
REMARK       I    between atoms: C3_4  and  N2_6 
REMARK    3  A    between atoms: N2_6  and  C4_8 
REMARK    4  A    between atoms: C7_12  and  C8_13 
REMARK       I    between atoms: C8_13  and  N3_15 
REMARK    5  A    between atoms: N3_15  and  C9_17 
REMARK    6  A    between atoms: C9_17  and  C10_18 
REMARK    7  A    between atoms: C10_18  and  C11_19 
REMARK    8  A    between atoms: C11_19  and  C12_20 
REMARK    9  A    between atoms: C12_20  and  C13_21 
REMARK   10  A    between atoms: C13_21  and  C14_22 
REMARK   11  A    between atoms: C14_22  and  C15_23 
REMARK   12  A    between atoms: C15_23  and  C16_24 
REMARK   13  A    between atoms: C16_24  and  N4_25 
REMARK   14  A    between atoms: N4_25  and  C19_28 
ROOT
HETATM    1  C8  UNL     1      45.237  16.784  -4.079  1.00  0.00     0.254 C 
HETATM    2  O2  UNL     1      44.791  17.948  -4.259  1.00  0.00    -0.268 OA
HETATM    3  N3  UNL     1      44.424  15.666  -4.184  1.00  0.00    -0.357 N 
ATOM      4  H3  UNL     1      44.886  14.764  -4.071  1.00  0.00     0.162 HD
ENDROOT
BRANCH   1   5
HETATM    5  C7  UNL     1      46.687  16.682  -3.748  1.00  0.00     0.073 A 
HETATM    6  C6  UNL     1      47.483  17.742  -3.441  1.00  0.00     0.134 A 
HETATM    7  C5  UNL     1      48.815  17.613  -3.094  1.00  0.00     0.076 A 
HETATM    8  F1  UNL     1      46.929  19.005  -3.519  1.00  0.00    -0.205 F 
HETATM    9  C4  UNL     1      49.403  16.391  -3.042  1.00  0.00     0.076 A 
HETATM   10  C25 UNL     1      48.594  15.288  -3.356  1.00  0.00     0.144 A 
HETATM   11  C24 UNL     1      47.271  15.422  -3.701  1.00  0.00     0.065 A 
HETATM   12  F4  UNL     1      49.125  14.019  -3.324  1.00  0.00    -0.204 F 
BRANCH   9  13
HETATM   13  N2  UNL     1      50.747  16.142  -2.681  1.00  0.00    -0.320 N 
HETATM   14  C3  UNL     1      51.901  16.227  -3.468  1.00  0.00     0.269 C 
HETATM   15  O1  UNL     1      51.716  16.574  -4.700  1.00  0.00    -0.267 OA
ATOM     16  H2  UNL     1      50.896  15.861  -1.711  1.00  0.00     0.169 HD
BRANCH  14  17
HETATM   17  C2  UNL     1      53.270  15.984  -3.112  1.00  0.00     0.276 C 
BRANCH  17  18
HETATM   18  N1  UNL     1      54.259  17.019  -3.189  1.00  0.00    -0.046 N 
HETATM   19  C1  UNL     1      55.485  16.257  -2.732  1.00  0.00     0.278 C 
HETATM   20  C26 UNL     1      54.153  18.047  -2.244  1.00  0.00     0.243 C 
HETATM   21  C27 UNL     1      54.563  19.418  -2.505  1.00  0.00     0.028 C 
HETATM   22  C28 UNL     1      55.948  19.621  -3.076  1.00  0.00     0.002 C 
HETATM   23  C29 UNL     1      56.091  19.225  -4.502  1.00  0.00     0.002 C 
HETATM   24  C30 UNL     1      54.798  18.677  -4.999  1.00  0.00     0.028 C 
HETATM   25  C31 UNL     1      54.566  17.304  -4.537  1.00  0.00     0.243 C 
ENDBRANCH  17  18
ENDBRANCH  14  17
ENDBRANCH   9  13
ENDBRANCH   1   5
BRANCH   3  26
HETATM   26  C9  UNL     1      43.034  15.624  -4.428  1.00  0.00     0.123 C 
BRANCH  26  27
HETATM   27  C10 UNL     1      42.428  14.385  -4.937  1.00  0.00     0.020 C 
BRANCH  27  28
HETATM   28  C11 UNL     1      42.511  14.093  -6.370  1.00  0.00     0.002 C 
BRANCH  28  29
HETATM   29  C12 UNL     1      41.152  14.400  -7.043  1.00  0.00     0.000 C 
BRANCH  29  30
HETATM   30  C13 UNL     1      40.936  15.840  -7.323  1.00  0.00     0.000 C 
BRANCH  30  31
HETATM   31  C14 UNL     1      39.619  16.353  -6.837  1.00  0.00     0.002 C 
BRANCH  31  32
HETATM   32  C15 UNL     1      39.580  16.669  -5.360  1.00  0.00     0.028 C 
BRANCH  32  33
HETATM   33  C16 UNL     1      38.136  16.461  -4.933  1.00  0.00     0.237 C 
BRANCH  33  34
HETATM   34  N4  UNL     1      37.980  15.850  -3.657  1.00  0.00    -0.070 N 
HETATM   35  C17 UNL     1      39.274  15.921  -2.989  1.00  0.00     0.272 C 
HETATM   36  C18 UNL     1      37.053  16.614  -2.841  1.00  0.00     0.272 C 
BRANCH  34  37
HETATM   37  C19 UNL     1      37.480  14.505  -3.766  1.00  0.00     0.195 C 
HETATM   38  C20 UNL     1      38.504  13.489  -3.304  1.00  0.00     0.039 C 
HETATM   39  C21 UNL     1      38.839  12.686  -4.552  1.00  0.00     0.081 C 
HETATM   40  C22 UNL     1      37.489  12.669  -5.276  1.00  0.00     0.245 C 
HETATM   41  F2  UNL     1      37.647  12.334  -6.602  1.00  0.00    -0.206 F 
HETATM   42  F3  UNL     1      36.596  11.821  -4.688  1.00  0.00    -0.206 F 
HETATM   43  C23 UNL     1      37.097  14.130  -5.166  1.00  0.00     0.112 C 
ENDBRANCH  34  37
ENDBRANCH  33  34
ENDBRANCH  32  33
ENDBRANCH  31  32
ENDBRANCH  30  31
ENDBRANCH  29  30
ENDBRANCH  28  29
ENDBRANCH  27  28
ENDBRANCH  26  27
ENDBRANCH   3  26
TORSDOF 14
ENDMDL
