MODEL 1
REMARK VINA RESULT: -9.737279672      0.000      0.000
REMARK  10 active torsions:
REMARK  status: ('A' for Active; 'I' for Inactive)
REMARK    1  A    between atoms: C4_4  and  O1_5 
REMARK    2  A    between atoms: C4_4  and  C12_14 
REMARK    3  A    between atoms: O1_5  and  C5_6 
REMARK    4  A    between atoms: C12_14  and  O2_15 
REMARK    5  A    between atoms: C12_14  and  C13_17 
REMARK    6  A    between atoms: C13_17  and  O3_18 
REMARK    7  A    between atoms: O3_18  and  C14_19 
REMARK    8  A    between atoms: C17_23  and  O4_24 
REMARK    9  A    between atoms: O4_24  and  C18_25 
REMARK   10  A    between atoms: C18_25  and  C19_26 
ROOT
HETATM    1  C12 UNL     1      22.720 -18.497  19.453  1.00  0.00     0.199 C 
ENDROOT
BRANCH   1   2
HETATM    2  C4  UNL     1      23.743 -18.256  18.429  1.00  0.00     0.079 C 
HETATM    3  C2  UNL     1      23.690 -18.157  17.161  1.00  0.00    -0.056 C 
HETATM    4  C1  UNL     1      22.578 -18.243  16.207  1.00  0.00     0.046 C 
HETATM    5  C3  UNL     1      25.043 -17.902  16.461  1.00  0.00     0.046 C 
BRANCH   2   6
HETATM    6  O1  UNL     1      25.070 -18.103  18.995  1.00  0.00    -0.347 OA
BRANCH   6   7
HETATM    7  C5  UNL     1      25.297 -16.962  19.792  1.00  0.00     0.130 C 
HETATM    8  C6  UNL     1      24.884 -15.748  19.035  1.00  0.00     0.032 C 
HETATM    9  C7  UNL     1      25.087 -14.468  19.812  1.00  0.00     0.004 C 
HETATM   10  C8  UNL     1      26.298 -14.530  20.707  1.00  0.00     0.025 C 
HETATM   11  C9  UNL     1      27.317 -15.551  20.254  1.00  0.00     0.036 C 
HETATM   12  C10 UNL     1      27.965 -15.158  18.946  1.00  0.00     0.033 C 
HETATM   13 CL1  UNL     1      28.611 -15.571  21.486  1.00  0.00    -0.119 Cl
HETATM   14  C11 UNL     1      26.748 -16.952  20.200  1.00  0.00     0.057 C 
ENDBRANCH   6   7
ENDBRANCH   2   6
ENDBRANCH   1   2
BRANCH   1  15
HETATM   15  O2  UNL     1      22.172 -19.785  19.094  1.00  0.00    -0.387 OA
ATOM     16  H2  UNL     1      22.920 -20.369  19.143  1.00  0.00     0.210 HD
ENDBRANCH   1  15
BRANCH   1  17
HETATM   17  C13 UNL     1      21.629 -17.513  19.452  1.00  0.00     0.214 C 
BRANCH  17  18
HETATM   18  O3  UNL     1      20.378 -17.936  18.954  1.00  0.00    -0.345 OA
BRANCH  18  19
HETATM   19  C14 UNL     1      19.193 -17.317  18.897  1.00  0.00     0.112 A 
HETATM   20  C15 UNL     1      18.070 -17.928  19.418  1.00  0.00     0.071 A 
HETATM   21 CL2  UNL     1      18.168 -19.526  20.171  1.00  0.00    -0.081 Cl
HETATM   22  C16 UNL     1      16.824 -17.350  19.391  1.00  0.00     0.063 A 
HETATM   23  C17 UNL     1      16.656 -16.083  18.812  1.00  0.00     0.072 A 
HETATM   24  C20 UNL     1      17.757 -15.470  18.293  1.00  0.00     0.063 A 
HETATM   25  C21 UNL     1      19.020 -16.085  18.335  1.00  0.00     0.071 A 
HETATM   26 CL3  UNL     1      20.306 -15.179  17.568  1.00  0.00    -0.081 Cl
BRANCH  23  27
HETATM   27  O4  UNL     1      15.374 -15.557  18.819  1.00  0.00    -0.341 OA
BRANCH  27  28
HETATM   28  C18 UNL     1      14.363 -15.746  17.901  1.00  0.00     0.288 C 
BRANCH  28  29
HETATM   29  C19 UNL     1      13.257 -16.605  18.325  1.00  0.00     0.198 C 
HETATM   30  O5  UNL     1      13.229 -17.066  19.494  1.00  0.00    -0.646 OA
HETATM   31  O6  UNL     1      12.200 -16.959  17.502  1.00  0.00    -0.646 OA
ENDBRANCH  28  29
ENDBRANCH  27  28
ENDBRANCH  23  27
ENDBRANCH  18  19
ENDBRANCH  17  18
ENDBRANCH   1  17
TORSDOF 10
ENDMDL
MODEL 2
REMARK VINA RESULT: -9.703483987      0.140      1.761
REMARK  10 active torsions:
REMARK  status: ('A' for Active; 'I' for Inactive)
REMARK    1  A    between atoms: C4_4  and  O1_5 
REMARK    2  A    between atoms: C4_4  and  C12_14 
REMARK    3  A    between atoms: O1_5  and  C5_6 
REMARK    4  A    between atoms: C12_14  and  O2_15 
REMARK    5  A    between atoms: C12_14  and  C13_17 
REMARK    6  A    between atoms: C13_17  and  O3_18 
REMARK    7  A    between atoms: O3_18  and  C14_19 
REMARK    8  A    between atoms: C17_23  and  O4_24 
REMARK    9  A    between atoms: O4_24  and  C18_25 
REMARK   10  A    between atoms: C18_25  and  C19_26 
ROOT
HETATM    1  C12 UNL     1      22.714 -18.475  19.455  1.00  0.00     0.199 C 
ENDROOT
BRANCH   1   2
HETATM    2  C4  UNL     1      23.743 -18.251  18.435  1.00  0.00     0.079 C 
HETATM    3  C2  UNL     1      23.698 -18.164  17.165  1.00  0.00    -0.056 C 
HETATM    4  C1  UNL     1      22.590 -18.251  16.206  1.00  0.00     0.046 C 
HETATM    5  C3  UNL     1      25.056 -17.924  16.470  1.00  0.00     0.046 C 
BRANCH   2   6
HETATM    6  O1  UNL     1      25.069 -18.101  19.006  1.00  0.00    -0.347 OA
BRANCH   6   7
HETATM    7  C5  UNL     1      25.295 -16.961  19.805  1.00  0.00     0.130 C 
HETATM    8  C6  UNL     1      24.896 -15.745  19.045  1.00  0.00     0.032 C 
HETATM    9  C7  UNL     1      25.099 -14.466  19.823  1.00  0.00     0.004 C 
HETATM   10  C8  UNL     1      26.302 -14.535  20.730  1.00  0.00     0.025 C 
HETATM   11  C9  UNL     1      27.318 -15.563  20.287  1.00  0.00     0.036 C 
HETATM   12  C10 UNL     1      27.982 -15.174  18.986  1.00  0.00     0.033 C 
HETATM   13 CL1  UNL     1      28.600 -15.590  21.532  1.00  0.00    -0.119 Cl
HETATM   14  C11 UNL     1      26.741 -16.960  20.227  1.00  0.00     0.057 C 
ENDBRANCH   6   7
ENDBRANCH   2   6
ENDBRANCH   1   2
BRANCH   1  15
HETATM   15  O2  UNL     1      22.152 -19.757  19.100  1.00  0.00    -0.387 OA
ATOM     16  H2  UNL     1      22.407 -20.322  19.819  1.00  0.00     0.210 HD
ENDBRANCH   1  15
BRANCH   1  17
HETATM   17  C13 UNL     1      21.635 -17.478  19.446  1.00  0.00     0.214 C 
BRANCH  17  18
HETATM   18  O3  UNL     1      20.429 -17.836  18.808  1.00  0.00    -0.345 OA
BRANCH  18  19
HETATM   19  C14 UNL     1      19.213 -17.280  18.838  1.00  0.00     0.112 A 
HETATM   20  C15 UNL     1      19.009 -16.033  18.281  1.00  0.00     0.071 A 
HETATM   21 CL2  UNL     1      20.338 -15.149  17.517  1.00  0.00    -0.081 Cl
HETATM   22  C16 UNL     1      17.788 -15.405  18.280  1.00  0.00     0.063 A 
HETATM   23  C17 UNL     1      16.679 -16.035  18.865  1.00  0.00     0.072 A 
HETATM   24  C20 UNL     1      16.867 -17.266  19.419  1.00  0.00     0.063 A 
HETATM   25  C21 UNL     1      18.128 -17.885  19.406  1.00  0.00     0.071 A 
HETATM   26 CL3  UNL     1      18.197 -19.436  20.215  1.00  0.00    -0.081 Cl
BRANCH  23  27
HETATM   27  O4  UNL     1      15.476 -15.348  18.827  1.00  0.00    -0.341 OA
BRANCH  27  28
HETATM   28  C18 UNL     1      14.457 -15.451  17.905  1.00  0.00     0.288 C 
BRANCH  28  29
HETATM   29  C19 UNL     1      13.431 -16.455  18.187  1.00  0.00     0.198 C 
HETATM   30  O5  UNL     1      12.643 -16.825  17.280  1.00  0.00    -0.646 OA
HETATM   31  O6  UNL     1      13.258 -17.051  19.426  1.00  0.00    -0.646 OA
ENDBRANCH  28  29
ENDBRANCH  27  28
ENDBRANCH  23  27
ENDBRANCH  18  19
ENDBRANCH  17  18
ENDBRANCH   1  17
TORSDOF 10
ENDMDL
MODEL 3
REMARK VINA RESULT: -9.688965746      1.021      1.218
REMARK  10 active torsions:
REMARK  status: ('A' for Active; 'I' for Inactive)
REMARK    1  A    between atoms: C4_4  and  O1_5 
REMARK    2  A    between atoms: C4_4  and  C12_14 
REMARK    3  A    between atoms: O1_5  and  C5_6 
REMARK    4  A    between atoms: C12_14  and  O2_15 
REMARK    5  A    between atoms: C12_14  and  C13_17 
REMARK    6  A    between atoms: C13_17  and  O3_18 
REMARK    7  A    between atoms: O3_18  and  C14_19 
REMARK    8  A    between atoms: C17_23  and  O4_24 
REMARK    9  A    between atoms: O4_24  and  C18_25 
REMARK   10  A    between atoms: C18_25  and  C19_26 
ROOT
HETATM    1  C12 UNL     1      22.757 -17.107  18.698  1.00  0.00     0.199 C 
ENDROOT
BRANCH   1   2
HETATM    2  C4  UNL     1      23.928 -17.974  18.534  1.00  0.00     0.079 C 
HETATM    3  C2  UNL     1      24.093 -19.233  18.631  1.00  0.00    -0.056 C 
HETATM    4  C1  UNL     1      23.170 -20.331  18.946  1.00  0.00     0.046 C 
HETATM    5  C3  UNL     1      25.531 -19.733  18.377  1.00  0.00     0.046 C 
BRANCH   2   6
HETATM    6  O1  UNL     1      25.127 -17.230  18.193  1.00  0.00    -0.347 OA
BRANCH   6   7
HETATM    7  C5  UNL     1      25.477 -16.159  19.041  1.00  0.00     0.130 C 
HETATM    8  C6  UNL     1      25.582 -14.912  18.234  1.00  0.00     0.032 C 
HETATM    9  C7  UNL     1      25.951 -13.702  19.059  1.00  0.00     0.004 C 
HETATM   10  C8  UNL     1      26.877 -14.048  20.198  1.00  0.00     0.025 C 
HETATM   11  C9  UNL     1      27.653 -15.324  19.962  1.00  0.00     0.036 C 
HETATM   12  C10 UNL     1      28.651 -15.176  18.836  1.00  0.00     0.033 C 
HETATM   13 CL1  UNL     1      28.594 -15.637  21.448  1.00  0.00    -0.119 Cl
HETATM   14  C11 UNL     1      26.751 -16.521  19.758  1.00  0.00     0.057 C 
ENDBRANCH   6   7
ENDBRANCH   2   6
ENDBRANCH   1   2
BRANCH   1  15
HETATM   15  O2  UNL     1      22.522 -17.114  20.124  1.00  0.00    -0.387 OA
ATOM     16  H2  UNL     1      23.259 -17.602  20.471  1.00  0.00     0.210 HD
ENDBRANCH   1  15
BRANCH   1  17
HETATM   17  C13 UNL     1      21.547 -17.602  18.028  1.00  0.00     0.214 C 
BRANCH  17  18
HETATM   18  O3  UNL     1      20.403 -17.807  18.827  1.00  0.00    -0.345 OA
BRANCH  18  19
HETATM   19  C14 UNL     1      19.198 -17.224  18.815  1.00  0.00     0.112 A 
HETATM   20  C15 UNL     1      18.105 -17.887  19.336  1.00  0.00     0.071 A 
HETATM   21 CL2  UNL     1      18.268 -19.506  20.031  1.00  0.00    -0.081 Cl
HETATM   22  C16 UNL     1      16.842 -17.349  19.353  1.00  0.00     0.063 A 
HETATM   23  C17 UNL     1      16.623 -16.068  18.822  1.00  0.00     0.072 A 
HETATM   24  C20 UNL     1      17.694 -15.404  18.303  1.00  0.00     0.063 A 
HETATM   25  C21 UNL     1      18.975 -15.980  18.299  1.00  0.00     0.071 A 
HETATM   26 CL3  UNL     1      20.218 -15.009  17.539  1.00  0.00    -0.081 Cl
BRANCH  23  27
HETATM   27  O4  UNL     1      15.326 -15.583  18.872  1.00  0.00    -0.341 OA
BRANCH  27  28
HETATM   28  C18 UNL     1      14.300 -15.782  17.974  1.00  0.00     0.288 C 
BRANCH  28  29
HETATM   29  C19 UNL     1      13.216 -16.660  18.415  1.00  0.00     0.198 C 
HETATM   30  O5  UNL     1      13.233 -17.152  19.571  1.00  0.00    -0.646 OA
HETATM   31  O6  UNL     1      12.131 -17.000  17.622  1.00  0.00    -0.646 OA
ENDBRANCH  28  29
ENDBRANCH  27  28
ENDBRANCH  23  27
ENDBRANCH  18  19
ENDBRANCH  17  18
ENDBRANCH   1  17
TORSDOF 10
ENDMDL
MODEL 4
REMARK VINA RESULT: -9.503190604      1.261      1.735
REMARK  10 active torsions:
REMARK  status: ('A' for Active; 'I' for Inactive)
REMARK    1  A    between atoms: C4_4  and  O1_5 
REMARK    2  A    between atoms: C4_4  and  C12_14 
REMARK    3  A    between atoms: O1_5  and  C5_6 
REMARK    4  A    between atoms: C12_14  and  O2_15 
REMARK    5  A    between atoms: C12_14  and  C13_17 
REMARK    6  A    between atoms: C13_17  and  O3_18 
REMARK    7  A    between atoms: O3_18  and  C14_19 
REMARK    8  A    between atoms: C17_23  and  O4_24 
REMARK    9  A    between atoms: O4_24  and  C18_25 
REMARK   10  A    between atoms: C18_25  and  C19_26 
ROOT
HETATM    1  C12 UNL     1      22.509 -17.171  18.439  1.00  0.00     0.199 C 
ENDROOT
BRANCH   1   2
HETATM    2  C4  UNL     1      23.692 -18.036  18.491  1.00  0.00     0.079 C 
HETATM    3  C2  UNL     1      24.056 -19.045  17.804  1.00  0.00    -0.056 C 
HETATM    4  C1  UNL     1      23.435 -19.752  16.677  1.00  0.00     0.046 C 
HETATM    5  C3  UNL     1      25.406 -19.672  18.215  1.00  0.00     0.046 C 
BRANCH   2   6
HETATM    6  O1  UNL     1      24.620 -17.648  19.537  1.00  0.00    -0.347 OA
BRANCH   6   7
HETATM    7  C5  UNL     1      25.735 -16.877  19.149  1.00  0.00     0.130 C 
HETATM    8  C6  UNL     1      26.826 -17.060  20.145  1.00  0.00     0.032 C 
HETATM    9  C7  UNL     1      28.071 -16.271  19.812  1.00  0.00     0.004 C 
HETATM   10  C8  UNL     1      27.752 -14.958  19.145  1.00  0.00     0.025 C 
HETATM   11  C9  UNL     1      26.354 -14.466  19.443  1.00  0.00     0.036 C 
HETATM   12  C10 UNL     1      26.191 -14.079  20.895  1.00  0.00     0.033 C 
HETATM   13 CL1  UNL     1      26.114 -12.979  18.482  1.00  0.00    -0.119 Cl
HETATM   14  C11 UNL     1      25.289 -15.445  19.000  1.00  0.00     0.057 C 
ENDBRANCH   6   7
ENDBRANCH   2   6
ENDBRANCH   1   2
BRANCH   1  15
HETATM   15  O2  UNL     1      22.342 -16.736  19.807  1.00  0.00    -0.387 OA
ATOM     16  H2  UNL     1      22.514 -15.803  19.769  1.00  0.00     0.210 HD
ENDBRANCH   1  15
BRANCH   1  17
HETATM   17  C13 UNL     1      21.282 -17.859  18.018  1.00  0.00     0.214 C 
BRANCH  17  18
HETATM   18  O3  UNL     1      20.217 -17.905  18.943  1.00  0.00    -0.345 OA
BRANCH  18  19
HETATM   19  C14 UNL     1      19.021 -17.307  18.947  1.00  0.00     0.112 A 
HETATM   20  C15 UNL     1      17.928 -17.951  19.492  1.00  0.00     0.071 A 
HETATM   21 CL2  UNL     1      18.081 -19.566  20.196  1.00  0.00    -0.081 Cl
HETATM   22  C16 UNL     1      16.673 -17.395  19.526  1.00  0.00     0.063 A 
HETATM   23  C17 UNL     1      16.462 -16.116  18.989  1.00  0.00     0.072 A 
HETATM   24  C20 UNL     1      17.533 -15.470  18.447  1.00  0.00     0.063 A 
HETATM   25  C21 UNL     1      18.806 -16.063  18.425  1.00  0.00     0.071 A 
HETATM   26 CL3  UNL     1      20.048 -15.115  17.637  1.00  0.00    -0.081 Cl
BRANCH  23  27
HETATM   27  O4  UNL     1      15.173 -15.612  19.057  1.00  0.00    -0.341 OA
BRANCH  27  28
HETATM   28  C18 UNL     1      14.156 -15.728  18.132  1.00  0.00     0.288 C 
BRANCH  28  29
HETATM   29  C19 UNL     1      13.091 -16.676  18.458  1.00  0.00     0.198 C 
HETATM   30  O5  UNL     1      13.076 -17.249  19.577  1.00  0.00    -0.646 OA
HETATM   31  O6  UNL     1      12.059 -17.000  17.592  1.00  0.00    -0.646 OA
ENDBRANCH  28  29
ENDBRANCH  27  28
ENDBRANCH  23  27
ENDBRANCH  18  19
ENDBRANCH  17  18
ENDBRANCH   1  17
TORSDOF 10
ENDMDL
MODEL 5
REMARK VINA RESULT: -9.488088238      1.036      2.059
REMARK  10 active torsions:
REMARK  status: ('A' for Active; 'I' for Inactive)
REMARK    1  A    between atoms: C4_4  and  O1_5 
REMARK    2  A    between atoms: C4_4  and  C12_14 
REMARK    3  A    between atoms: O1_5  and  C5_6 
REMARK    4  A    between atoms: C12_14  and  O2_15 
REMARK    5  A    between atoms: C12_14  and  C13_17 
REMARK    6  A    between atoms: C13_17  and  O3_18 
REMARK    7  A    between atoms: O3_18  and  C14_19 
REMARK    8  A    between atoms: C17_23  and  O4_24 
REMARK    9  A    between atoms: O4_24  and  C18_25 
REMARK   10  A    between atoms: C18_25  and  C19_26 
ROOT
HETATM    1  C12 UNL     1      22.732 -16.981  18.720  1.00  0.00     0.199 C 
ENDROOT
BRANCH   1   2
HETATM    2  C4  UNL     1      23.891 -17.862  18.553  1.00  0.00     0.079 C 
HETATM    3  C2  UNL     1      24.040 -19.124  18.645  1.00  0.00    -0.056 C 
HETATM    4  C1  UNL     1      23.103 -20.210  18.957  1.00  0.00     0.046 C 
HETATM    5  C3  UNL     1      25.472 -19.642  18.389  1.00  0.00     0.046 C 
BRANCH   2   6
HETATM    6  O1  UNL     1      25.100 -17.134  18.213  1.00  0.00    -0.347 OA
BRANCH   6   7
HETATM    7  C5  UNL     1      25.477 -16.085  19.078  1.00  0.00     0.130 C 
HETATM    8  C6  UNL     1      25.595 -14.825  18.294  1.00  0.00     0.032 C 
HETATM    9  C7  UNL     1      25.994 -13.637  19.138  1.00  0.00     0.004 C 
HETATM   10  C8  UNL     1      26.926 -14.021  20.258  1.00  0.00     0.025 C 
HETATM   11  C9  UNL     1      27.677 -15.305  19.989  1.00  0.00     0.036 C 
HETATM   12  C10 UNL     1      28.665 -15.152  18.856  1.00  0.00     0.033 C 
HETATM   13 CL1  UNL     1      28.629 -15.663  21.458  1.00  0.00    -0.119 Cl
HETATM   14  C11 UNL     1      26.753 -16.483  19.773  1.00  0.00     0.057 C 
ENDBRANCH   6   7
ENDBRANCH   2   6
ENDBRANCH   1   2
BRANCH   1  15
HETATM   15  O2  UNL     1      22.442 -17.059  20.134  1.00  0.00    -0.387 OA
ATOM     16  H2  UNL     1      22.441 -17.992  20.311  1.00  0.00     0.210 HD
ENDBRANCH   1  15
BRANCH   1  17
HETATM   17  C13 UNL     1      21.539 -17.413  17.979  1.00  0.00     0.214 C 
BRANCH  17  18
HETATM   18  O3  UNL     1      20.411 -17.795  18.736  1.00  0.00    -0.345 OA
BRANCH  18  19
HETATM   19  C14 UNL     1      19.171 -17.296  18.789  1.00  0.00     0.112 A 
HETATM   20  C15 UNL     1      18.911 -16.038  18.284  1.00  0.00     0.071 A 
HETATM   21 CL2  UNL     1      20.196 -15.064  17.557  1.00  0.00    -0.081 Cl
HETATM   22  C16 UNL     1      17.663 -15.465  18.310  1.00  0.00     0.063 A 
HETATM   23  C17 UNL     1      16.584 -16.168  18.869  1.00  0.00     0.072 A 
HETATM   24  C20 UNL     1      16.829 -17.411  19.372  1.00  0.00     0.063 A 
HETATM   25  C21 UNL     1      18.116 -17.972  19.333  1.00  0.00     0.071 A 
HETATM   26 CL3  UNL     1      18.256 -19.550  20.078  1.00  0.00    -0.081 Cl
BRANCH  23  27
HETATM   27  O4  UNL     1      15.352 -15.534  18.861  1.00  0.00    -0.341 OA
BRANCH  27  28
HETATM   28  C18 UNL     1      14.308 -15.699  17.976  1.00  0.00     0.288 C 
BRANCH  28  29
HETATM   29  C19 UNL     1      13.252 -16.625  18.386  1.00  0.00     0.198 C 
HETATM   30  O5  UNL     1      13.242 -17.093  19.552  1.00  0.00    -0.646 OA
HETATM   31  O6  UNL     1      12.225 -17.037  17.552  1.00  0.00    -0.646 OA
ENDBRANCH  28  29
ENDBRANCH  27  28
ENDBRANCH  23  27
ENDBRANCH  18  19
ENDBRANCH  17  18
ENDBRANCH   1  17
TORSDOF 10
ENDMDL
