MODEL 1
REMARK VINA RESULT: -8.734525055      0.000      0.000
REMARK  11 active torsions:
REMARK  status: ('A' for Active; 'I' for Inactive)
REMARK    1  A    between atoms: C2_2  and  N1_4 
REMARK    2  A    between atoms: N1_4  and  N2_5 
REMARK       I    between atoms: N2_5  and  C3_7 
REMARK    3  A    between atoms: C3_7  and  C4_9 
REMARK    4  A    between atoms: C4_9  and  C5_10 
REMARK    5  A    between atoms: C5_10  and  C6_11 
REMARK    6  A    between atoms: C6_11  and  C7_12 
REMARK    7  A    between atoms: C7_12  and  C8_13 
REMARK    8  A    between atoms: C8_13  and  C9_14 
REMARK    9  A    between atoms: C9_14  and  C10_15 
REMARK   10  A    between atoms: C10_15  and  N3_16 
REMARK   11  A    between atoms: N3_16  and  C11_18 
ROOT
HETATM    1  C9  UNL     1      22.514 -17.000  17.294  1.00  0.00     0.020 C 
ENDROOT
BRANCH   1   2
HETATM    2  C8  UNL     1      23.888 -17.333  16.804  1.00  0.00     0.002 C 
BRANCH   2   3
HETATM    3  C7  UNL     1      24.187 -18.792  16.853  1.00  0.00     0.000 C 
BRANCH   3   4
HETATM    4  C6  UNL     1      25.194 -19.202  17.886  1.00  0.00     0.000 C 
BRANCH   4   5
HETATM    5  C5  UNL     1      25.942 -17.997  18.386  1.00  0.00     0.009 C 
BRANCH   5   6
HETATM    6  C4  UNL     1      26.037 -17.907  19.872  1.00  0.00     0.104 C 
BRANCH   6   7
HETATM    7  C3  UNL     1      26.663 -16.664  20.331  1.00  0.00     0.233 C 
HETATM    8  N2  UNL     1      25.870 -15.481  20.416  1.00  0.00    -0.273 N 
ATOM      9  H2  UNL     1      24.884 -15.515  20.159  1.00  0.00     0.185 HD
HETATM   10  O1  UNL     1      27.866 -16.586  20.652  1.00  0.00    -0.272 OA
BRANCH   8  11
HETATM   11  N1  UNL     1      26.438 -14.261  20.855  1.00  0.00    -0.118 NA
BRANCH  11  12
HETATM   12  C2  UNL     1      26.565 -13.381  19.687  1.00  0.00     0.191 C 
HETATM   13  C1  UNL     1      28.001 -13.270  19.290  1.00  0.00     0.046 C 
HETATM   14 CL1  UNL     1      25.576 -13.904  18.333  1.00  0.00    -0.105 Cl
ENDBRANCH  11  12
ENDBRANCH   8  11
ENDBRANCH   6   7
ENDBRANCH   5   6
ENDBRANCH   4   5
ENDBRANCH   3   4
ENDBRANCH   2   3
ENDBRANCH   1   2
BRANCH   1  15
HETATM   15  C10 UNL     1      22.493 -16.850  18.811  1.00  0.00     0.122 C 
BRANCH  15  16
HETATM   16  N3  UNL     1      21.677 -17.902  19.399  1.00  0.00    -0.365 N 
ATOM     17  H3  UNL     1      22.094 -18.703  19.874  1.00  0.00     0.162 HD
BRANCH  16  18
HETATM   18  C11 UNL     1      20.371 -17.765  19.284  1.00  0.00     0.188 A 
HETATM   19  O2  UNL     1      19.501 -18.661  18.985  1.00  0.00    -0.286 OA
HETATM   20  C12 UNL     1      18.273 -18.387  18.908  1.00  0.00     0.097 A 
HETATM   21  C13 UNL     1      17.232 -19.287  18.589  1.00  0.00     0.040 A 
HETATM   22  C17 UNL     1      17.874 -17.101  19.154  1.00  0.00     0.066 A 
HETATM   23  C14 UNL     1      15.926 -18.871  18.537  1.00  0.00     0.024 A 
HETATM   24  C15 UNL     1      15.556 -17.567  18.791  1.00  0.00     0.034 A 
HETATM   25 BR1  UNL     1      13.717 -17.005  18.712  1.00  0.00    -0.049 Br
HETATM   26  C16 UNL     1      16.555 -16.677  19.102  1.00  0.00     0.071 A 
HETATM   27 CL2  UNL     1      16.226 -14.997  19.447  1.00  0.00    -0.081 Cl
HETATM   28  S1  UNL     1      19.401 -16.372  19.488  1.00  0.00    -0.042 SA
ENDBRANCH  16  18
ENDBRANCH  15  16
ENDBRANCH   1  15
TORSDOF 11
ENDMDL
MODEL 2
REMARK VINA RESULT: -8.625593840      1.748      2.137
REMARK  11 active torsions:
REMARK  status: ('A' for Active; 'I' for Inactive)
REMARK    1  A    between atoms: C2_2  and  N1_4 
REMARK    2  A    between atoms: N1_4  and  N2_5 
REMARK       I    between atoms: N2_5  and  C3_7 
REMARK    3  A    between atoms: C3_7  and  C4_9 
REMARK    4  A    between atoms: C4_9  and  C5_10 
REMARK    5  A    between atoms: C5_10  and  C6_11 
REMARK    6  A    between atoms: C6_11  and  C7_12 
REMARK    7  A    between atoms: C7_12  and  C8_13 
REMARK    8  A    between atoms: C8_13  and  C9_14 
REMARK    9  A    between atoms: C9_14  and  C10_15 
REMARK   10  A    between atoms: C10_15  and  N3_16 
REMARK   11  A    between atoms: N3_16  and  C11_18 
ROOT
HETATM    1  C9  UNL     1      23.464 -18.975  17.754  1.00  0.00     0.020 C 
ENDROOT
BRANCH   1   2
HETATM    2  C8  UNL     1      24.902 -19.245  18.070  1.00  0.00     0.002 C 
BRANCH   2   3
HETATM    3  C7  UNL     1      25.689 -18.003  18.313  1.00  0.00     0.000 C 
BRANCH   3   4
HETATM    4  C6  UNL     1      25.987 -17.708  19.752  1.00  0.00     0.000 C 
BRANCH   4   5
HETATM    5  C5  UNL     1      25.254 -16.469  20.190  1.00  0.00     0.009 C 
BRANCH   5   6
HETATM    6  C4  UNL     1      24.874 -15.555  19.073  1.00  0.00     0.104 C 
BRANCH   6   7
HETATM    7  C3  UNL     1      25.625 -14.296  19.086  1.00  0.00     0.233 C 
HETATM    8  N2  UNL     1      27.050 -14.340  19.036  1.00  0.00    -0.273 N 
ATOM      9  H2  UNL     1      27.526 -15.241  18.992  1.00  0.00     0.185 HD
HETATM   10  O1  UNL     1      25.076 -13.177  19.139  1.00  0.00    -0.272 OA
BRANCH   8  11
HETATM   11  N1  UNL     1      27.810 -13.146  19.046  1.00  0.00    -0.118 NA
BRANCH  11  12
HETATM   12  C2  UNL     1      29.221 -13.515  19.207  1.00  0.00     0.191 C 
HETATM   13  C1  UNL     1      29.345 -14.995  19.365  1.00  0.00     0.046 C 
HETATM   14 CL1  UNL     1      30.228 -12.937  17.889  1.00  0.00    -0.105 Cl
ENDBRANCH  11  12
ENDBRANCH   8  11
ENDBRANCH   6   7
ENDBRANCH   5   6
ENDBRANCH   4   5
ENDBRANCH   3   4
ENDBRANCH   2   3
ENDBRANCH   1   2
BRANCH   1  15
HETATM   15  C10 UNL     1      22.588 -19.149  18.988  1.00  0.00     0.122 C 
BRANCH  15  16
HETATM   16  N3  UNL     1      22.014 -17.867  19.371  1.00  0.00    -0.365 N 
ATOM     17  H3  UNL     1      22.594 -17.100  19.712  1.00  0.00     0.162 HD
BRANCH  16  18
HETATM   18  C11 UNL     1      20.706 -17.751  19.253  1.00  0.00     0.188 A 
HETATM   19  O2  UNL     1      19.845 -18.674  19.017  1.00  0.00    -0.286 OA
HETATM   20  C12 UNL     1      18.613 -18.418  18.928  1.00  0.00     0.097 A 
HETATM   21  C13 UNL     1      17.581 -19.348  18.674  1.00  0.00     0.040 A 
HETATM   22  C17 UNL     1      18.202 -17.123  19.090  1.00  0.00     0.066 A 
HETATM   23  C14 UNL     1      16.270 -18.949  18.600  1.00  0.00     0.024 A 
HETATM   24  C15 UNL     1      15.888 -17.635  18.769  1.00  0.00     0.034 A 
HETATM   25 BR1  UNL     1      14.043 -17.099  18.661  1.00  0.00    -0.049 Br
HETATM   26  C16 UNL     1      16.879 -16.716  19.016  1.00  0.00     0.071 A 
HETATM   27 CL2  UNL     1      16.533 -15.021  19.252  1.00  0.00    -0.081 Cl
HETATM   28  S1  UNL     1      19.723 -16.358  19.370  1.00  0.00    -0.042 SA
ENDBRANCH  16  18
ENDBRANCH  15  16
ENDBRANCH   1  15
TORSDOF 11
ENDMDL
MODEL 3
REMARK VINA RESULT: -8.594446320      1.305      1.368
REMARK  11 active torsions:
REMARK  status: ('A' for Active; 'I' for Inactive)
REMARK    1  A    between atoms: C2_2  and  N1_4 
REMARK    2  A    between atoms: N1_4  and  N2_5 
REMARK       I    between atoms: N2_5  and  C3_7 
REMARK    3  A    between atoms: C3_7  and  C4_9 
REMARK    4  A    between atoms: C4_9  and  C5_10 
REMARK    5  A    between atoms: C5_10  and  C6_11 
REMARK    6  A    between atoms: C6_11  and  C7_12 
REMARK    7  A    between atoms: C7_12  and  C8_13 
REMARK    8  A    between atoms: C8_13  and  C9_14 
REMARK    9  A    between atoms: C9_14  and  C10_15 
REMARK   10  A    between atoms: C10_15  and  N3_16 
REMARK   11  A    between atoms: N3_16  and  C11_18 
ROOT
HETATM    1  C9  UNL     1      22.311 -17.163  17.199  1.00  0.00     0.020 C 
ENDROOT
BRANCH   1   2
HETATM    2  C8  UNL     1      23.571 -17.688  16.588  1.00  0.00     0.002 C 
BRANCH   2   3
HETATM    3  C7  UNL     1      23.747 -19.155  16.783  1.00  0.00     0.000 C 
BRANCH   3   4
HETATM    4  C6  UNL     1      24.806 -19.545  17.770  1.00  0.00     0.000 C 
BRANCH   4   5
HETATM    5  C5  UNL     1      25.810 -18.435  17.918  1.00  0.00     0.009 C 
BRANCH   5   6
HETATM    6  C4  UNL     1      25.999 -17.963  19.320  1.00  0.00     0.104 C 
BRANCH   6   7
HETATM    7  C3  UNL     1      26.266 -16.524  19.407  1.00  0.00     0.233 C 
HETATM    8  N2  UNL     1      27.022 -16.026  20.511  1.00  0.00    -0.273 N 
ATOM      9  H2  UNL     1      27.365 -16.673  21.220  1.00  0.00     0.185 HD
HETATM   10  O1  UNL     1      25.862 -15.704  18.558  1.00  0.00    -0.272 OA
BRANCH   8  11
HETATM   11  N1  UNL     1      27.301 -14.643  20.630  1.00  0.00    -0.118 NA
BRANCH  11  12
HETATM   12  C2  UNL     1      28.757 -14.475  20.588  1.00  0.00     0.191 C 
HETATM   13  C1  UNL     1      29.408 -15.442  21.522  1.00  0.00     0.046 C 
HETATM   14 CL1  UNL     1      29.411 -14.630  18.965  1.00  0.00    -0.105 Cl
ENDBRANCH  11  12
ENDBRANCH   8  11
ENDBRANCH   6   7
ENDBRANCH   5   6
ENDBRANCH   4   5
ENDBRANCH   3   4
ENDBRANCH   2   3
ENDBRANCH   1   2
BRANCH   1  15
HETATM   15  C10 UNL     1      22.473 -16.948  18.699  1.00  0.00     0.122 C 
BRANCH  15  16
HETATM   16  N3  UNL     1      21.651 -17.903  19.426  1.00  0.00    -0.365 N 
ATOM     17  H3  UNL     1      22.062 -18.641  19.998  1.00  0.00     0.162 HD
BRANCH  16  18
HETATM   18  C11 UNL     1      20.345 -17.763  19.306  1.00  0.00     0.188 A 
HETATM   19  O2  UNL     1      19.475 -18.658  19.005  1.00  0.00    -0.286 OA
HETATM   20  C12 UNL     1      18.247 -18.383  18.923  1.00  0.00     0.097 A 
HETATM   21  C13 UNL     1      17.206 -19.281  18.601  1.00  0.00     0.040 A 
HETATM   22  C17 UNL     1      17.850 -17.095  19.166  1.00  0.00     0.066 A 
HETATM   23  C14 UNL     1      15.901 -18.862  18.544  1.00  0.00     0.024 A 
HETATM   24  C15 UNL     1      15.532 -17.557  18.794  1.00  0.00     0.034 A 
HETATM   25 BR1  UNL     1      13.695 -16.993  18.707  1.00  0.00    -0.049 Br
HETATM   26  C16 UNL     1      16.532 -16.669  19.108  1.00  0.00     0.071 A 
HETATM   27 CL2  UNL     1      16.205 -14.988  19.450  1.00  0.00    -0.081 Cl
HETATM   28  S1  UNL     1      19.377 -16.369  19.505  1.00  0.00    -0.042 SA
ENDBRANCH  16  18
ENDBRANCH  15  16
ENDBRANCH   1  15
TORSDOF 11
ENDMDL
MODEL 4
REMARK VINA RESULT: -8.586654084      1.892      3.619
REMARK  11 active torsions:
REMARK  status: ('A' for Active; 'I' for Inactive)
REMARK    1  A    between atoms: C2_2  and  N1_4 
REMARK    2  A    between atoms: N1_4  and  N2_5 
REMARK       I    between atoms: N2_5  and  C3_7 
REMARK    3  A    between atoms: C3_7  and  C4_9 
REMARK    4  A    between atoms: C4_9  and  C5_10 
REMARK    5  A    between atoms: C5_10  and  C6_11 
REMARK    6  A    between atoms: C6_11  and  C7_12 
REMARK    7  A    between atoms: C7_12  and  C8_13 
REMARK    8  A    between atoms: C8_13  and  C9_14 
REMARK    9  A    between atoms: C9_14  and  C10_15 
REMARK   10  A    between atoms: C10_15  and  N3_16 
REMARK   11  A    between atoms: N3_16  and  C11_18 
ROOT
HETATM    1  C9  UNL     1      24.425 -14.483  19.523  1.00  0.00     0.020 C 
ENDROOT
BRANCH   1   2
HETATM    2  C8  UNL     1      25.476 -13.819  18.690  1.00  0.00     0.002 C 
BRANCH   2   3
HETATM    3  C7  UNL     1      26.602 -13.272  19.499  1.00  0.00     0.000 C 
BRANCH   3   4
HETATM    4  C6  UNL     1      27.973 -13.639  19.016  1.00  0.00     0.000 C 
BRANCH   4   5
HETATM    5  C5  UNL     1      28.484 -14.836  19.772  1.00  0.00     0.009 C 
BRANCH   5   6
HETATM    6  C4  UNL     1      28.280 -16.137  19.071  1.00  0.00     0.104 C 
BRANCH   6   7
HETATM    7  C3  UNL     1      27.209 -16.943  19.664  1.00  0.00     0.233 C 
HETATM    8  N2  UNL     1      26.267 -17.582  18.804  1.00  0.00    -0.273 N 
ATOM      9  H2  UNL     1      26.350 -17.471  17.794  1.00  0.00     0.185 HD
HETATM   10  O1  UNL     1      27.078 -17.099  20.895  1.00  0.00    -0.272 OA
BRANCH   8  11
HETATM   11  N1  UNL     1      25.219 -18.369  19.339  1.00  0.00    -0.118 NA
BRANCH  11  12
HETATM   12  C2  UNL     1      24.790 -19.310  18.299  1.00  0.00     0.191 C 
HETATM   13  C1  UNL     1      23.606 -20.087  18.774  1.00  0.00     0.046 C 
HETATM   14 CL1  UNL     1      24.451 -18.519  16.768  1.00  0.00    -0.105 Cl
ENDBRANCH  11  12
ENDBRANCH   8  11
ENDBRANCH   6   7
ENDBRANCH   5   6
ENDBRANCH   4   5
ENDBRANCH   3   4
ENDBRANCH   2   3
ENDBRANCH   1   2
BRANCH   1  15
HETATM   15  C10 UNL     1      23.424 -15.232  18.652  1.00  0.00     0.122 C 
BRANCH  15  16
HETATM   16  N3  UNL     1      22.936 -16.406  19.360  1.00  0.00    -0.365 N 
ATOM     17  H3  UNL     1      23.561 -17.013  19.889  1.00  0.00     0.162 HD
BRANCH  16  18
HETATM   18  C11 UNL     1      21.641 -16.642  19.280  1.00  0.00     0.188 A 
HETATM   19  O2  UNL     1      21.015 -17.733  19.537  1.00  0.00    -0.286 OA
HETATM   20  C12 UNL     1      19.763 -17.819  19.415  1.00  0.00     0.097 A 
HETATM   21  C13 UNL     1      18.972 -18.962  19.668  1.00  0.00     0.040 A 
HETATM   22  C17 UNL     1      19.070 -16.713  19.000  1.00  0.00     0.066 A 
HETATM   23  C14 UNL     1      17.611 -18.933  19.500  1.00  0.00     0.024 A 
HETATM   24  C15 UNL     1      16.942 -17.803  19.082  1.00  0.00     0.034 A 
HETATM   25 BR1  UNL     1      15.032 -17.787  18.853  1.00  0.00    -0.049 Br
HETATM   26  C16 UNL     1      17.695 -16.681  18.829  1.00  0.00     0.071 A 
HETATM   27 CL2  UNL     1      16.975 -15.183  18.296  1.00  0.00    -0.081 Cl
HETATM   28  S1  UNL     1      20.371 -15.596  18.814  1.00  0.00    -0.042 SA
ENDBRANCH  16  18
ENDBRANCH  15  16
ENDBRANCH   1  15
TORSDOF 11
ENDMDL
MODEL 5
REMARK VINA RESULT: -8.544276897      1.694      2.144
REMARK  11 active torsions:
REMARK  status: ('A' for Active; 'I' for Inactive)
REMARK    1  A    between atoms: C2_2  and  N1_4 
REMARK    2  A    between atoms: N1_4  and  N2_5 
REMARK       I    between atoms: N2_5  and  C3_7 
REMARK    3  A    between atoms: C3_7  and  C4_9 
REMARK    4  A    between atoms: C4_9  and  C5_10 
REMARK    5  A    between atoms: C5_10  and  C6_11 
REMARK    6  A    between atoms: C6_11  and  C7_12 
REMARK    7  A    between atoms: C7_12  and  C8_13 
REMARK    8  A    between atoms: C8_13  and  C9_14 
REMARK    9  A    between atoms: C9_14  and  C10_15 
REMARK   10  A    between atoms: C10_15  and  N3_16 
REMARK   11  A    between atoms: N3_16  and  C11_18 
ROOT
HETATM    1  C9  UNL     1      23.843 -19.258  19.401  1.00  0.00     0.020 C 
ENDROOT
BRANCH   1   2
HETATM    2  C8  UNL     1      24.846 -19.296  18.292  1.00  0.00     0.002 C 
BRANCH   2   3
HETATM    3  C7  UNL     1      25.151 -17.949  17.734  1.00  0.00     0.000 C 
BRANCH   3   4
HETATM    4  C6  UNL     1      25.206 -16.839  18.741  1.00  0.00     0.000 C 
BRANCH   4   5
HETATM    5  C5  UNL     1      25.099 -15.507  18.048  1.00  0.00     0.009 C 
BRANCH   5   6
HETATM    6  C4  UNL     1      24.802 -14.364  18.960  1.00  0.00     0.104 C 
BRANCH   6   7
HETATM    7  C3  UNL     1      25.952 -13.974  19.781  1.00  0.00     0.233 C 
HETATM    8  N2  UNL     1      27.238 -13.882  19.169  1.00  0.00    -0.273 N 
ATOM      9  H2  UNL     1      27.340 -14.087  18.175  1.00  0.00     0.185 HD
HETATM   10  O1  UNL     1      25.864 -13.717  20.998  1.00  0.00    -0.272 OA
BRANCH   8  11
HETATM   11  N1  UNL     1      28.373 -13.508  19.928  1.00  0.00    -0.118 NA
BRANCH  11  12
HETATM   12  C2  UNL     1      29.217 -14.697  20.086  1.00  0.00     0.191 C 
HETATM   13  C1  UNL     1      29.220 -15.132  21.515  1.00  0.00     0.046 C 
HETATM   14 CL1  UNL     1      28.738 -16.014  19.027  1.00  0.00    -0.105 Cl
ENDBRANCH  11  12
ENDBRANCH   8  11
ENDBRANCH   6   7
ENDBRANCH   5   6
ENDBRANCH   4   5
ENDBRANCH   3   4
ENDBRANCH   2   3
ENDBRANCH   1   2
BRANCH   1  15
HETATM   15  C10 UNL     1      22.431 -19.069  18.861  1.00  0.00     0.122 C 
BRANCH  15  16
HETATM   16  N3  UNL     1      21.835 -17.876  19.443  1.00  0.00    -0.365 N 
ATOM     17  H3  UNL     1      22.398 -17.176  19.927  1.00  0.00     0.162 HD
BRANCH  16  18
HETATM   18  C11 UNL     1      20.529 -17.748  19.311  1.00  0.00     0.188 A 
HETATM   19  O2  UNL     1      19.666 -18.659  19.041  1.00  0.00    -0.286 OA
HETATM   20  C12 UNL     1      18.437 -18.394  18.943  1.00  0.00     0.097 A 
HETATM   21  C13 UNL     1      17.402 -19.310  18.651  1.00  0.00     0.040 A 
HETATM   22  C17 UNL     1      18.032 -17.100  19.133  1.00  0.00     0.066 A 
HETATM   23  C14 UNL     1      16.095 -18.901  18.571  1.00  0.00     0.024 A 
HETATM   24  C15 UNL     1      15.718 -17.589  18.768  1.00  0.00     0.034 A 
HETATM   25 BR1  UNL     1      13.879 -17.038  18.650  1.00  0.00    -0.049 Br
HETATM   26  C16 UNL     1      16.712 -16.683  19.052  1.00  0.00     0.071 A 
HETATM   27 CL2  UNL     1      16.374 -14.993  19.326  1.00  0.00    -0.081 Cl
HETATM   28  S1  UNL     1      19.553 -16.352  19.451  1.00  0.00    -0.042 SA
ENDBRANCH  16  18
ENDBRANCH  15  16
ENDBRANCH   1  15
TORSDOF 11
ENDMDL
