MODEL 1
REMARK VINA RESULT: -9.951315345      0.000      0.000
REMARK  11 active torsions:
REMARK  status: ('A' for Active; 'I' for Inactive)
REMARK    1  A    between atoms: C2_2  and  C3_3 
REMARK    2  A    between atoms: C3_3  and  C4_4 
REMARK    3  A    between atoms: C4_4  and  C5_5 
REMARK    4  A    between atoms: C6_7  and  O2_8 
REMARK    5  A    between atoms: O2_8  and  C7_9 
REMARK    6  A    between atoms: C7_9  and  C8_10 
REMARK    7  A    between atoms: C8_10  and  C9_11 
REMARK    8  A    between atoms: C9_11  and  C10_12 
REMARK    9  A    between atoms: C16_18  and  O3_19 
REMARK   10  A    between atoms: C17_21  and  O4_22 
REMARK   11  A    between atoms: C18_24  and  C19_25 
ROOT
HETATM    1  C5  UNL     1      24.127 -17.363  17.053  1.00  0.00     0.264 C 
HETATM    2  O1  UNL     1      22.950 -17.444  17.797  1.00  0.00    -0.329 OA
HETATM    3  C6  UNL     1      22.370 -16.179  17.950  1.00  0.00     0.293 C 
HETATM    4  C16 UNL     1      22.786 -15.492  19.221  1.00  0.00     0.205 C 
HETATM    5  C17 UNL     1      24.108 -16.124  19.675  1.00  0.00     0.185 C 
HETATM    6  C18 UNL     1      25.109 -15.958  18.594  1.00  0.00     0.191 C 
HETATM    7  O5  UNL     1      25.180 -17.193  17.896  1.00  0.00    -0.349 OA
ENDROOT
BRANCH   3   8
HETATM    8  O2  UNL     1      20.999 -16.372  17.851  1.00  0.00    -0.358 OA
BRANCH   8   9
HETATM    9  C7  UNL     1      20.678 -17.641  18.314  1.00  0.00     0.171 C 
BRANCH   9  10
HETATM   10  C8  UNL     1      19.697 -17.564  19.481  1.00  0.00     0.027 C 
BRANCH  10  11
HETATM   11  C9  UNL     1      18.464 -18.357  19.132  1.00  0.00     0.007 C 
BRANCH  11  12
HETATM   12  C10 UNL     1      17.244 -17.575  19.490  1.00  0.00    -0.014 C 
HETATM   13  C11 UNL     1      17.561 -16.095  19.472  1.00  0.00     0.004 C 
HETATM   14  C12 UNL     1      16.838 -15.472  18.319  1.00  0.00     0.000 C 
HETATM   15  C13 UNL     1      15.329 -15.558  18.516  1.00  0.00     0.000 C 
HETATM   16  C14 UNL     1      14.927 -16.937  19.000  1.00  0.00     0.000 C 
HETATM   17  C15 UNL     1      16.085 -17.863  18.594  1.00  0.00     0.004 C 
ENDBRANCH  11  12
ENDBRANCH  10  11
ENDBRANCH   9  10
ENDBRANCH   8   9
ENDBRANCH   3   8
BRANCH   4  18
HETATM   18  O3  UNL     1      23.043 -14.153  18.925  1.00  0.00    -0.388 OA
ATOM     19  H3  UNL     1      23.041 -13.665  19.741  1.00  0.00     0.210 HD
ENDBRANCH   4  18
BRANCH   1  20
HETATM   20  C4  UNL     1      24.314 -18.570  16.195  1.00  0.00     0.061 C 
BRANCH  20  21
HETATM   21  C3  UNL     1      23.726 -19.841  16.668  1.00  0.00     0.004 C 
BRANCH  21  22
HETATM   22  C2  UNL     1      24.311 -20.463  17.884  1.00  0.00    -0.004 C 
HETATM   23  C1  UNL     1      23.240 -20.475  18.992  1.00  0.00     0.005 C 
ENDBRANCH  21  22
ENDBRANCH  20  21
ENDBRANCH   1  20
BRANCH   5  24
HETATM   24  O4  UNL     1      23.805 -17.419  20.021  1.00  0.00    -0.390 OA
ATOM     25  H4  UNL     1      23.129 -17.359  20.685  1.00  0.00     0.210 HD
ENDBRANCH   5  24
BRANCH   6  26
HETATM   26  C19 UNL     1      26.500 -15.699  19.032  1.00  0.00    -0.002 A 
HETATM   27  C20 UNL     1      27.364 -16.684  19.448  1.00  0.00     0.015 A 
HETATM   28  C21 UNL     1      28.670 -16.392  19.846  1.00  0.00     0.046 A 
HETATM   29  C22 UNL     1      29.115 -15.109  19.827  1.00  0.00     0.156 A 
HETATM   30  F1  UNL     1      30.404 -14.850  20.224  1.00  0.00    -0.203 F 
HETATM   31  C23 UNL     1      28.281 -14.111  19.419  1.00  0.00     0.177 A 
HETATM   32  F2  UNL     1      28.744 -12.844  19.409  1.00  0.00    -0.201 F 
HETATM   33  C24 UNL     1      26.992 -14.412  19.028  1.00  0.00     0.084 A 
HETATM   34 CL1  UNL     1      25.985 -13.088  18.520  1.00  0.00    -0.080 Cl
ENDBRANCH   6  26
TORSDOF 11
ENDMDL
MODEL 2
REMARK VINA RESULT: -9.884936368      1.167      1.892
REMARK  11 active torsions:
REMARK  status: ('A' for Active; 'I' for Inactive)
REMARK    1  A    between atoms: C2_2  and  C3_3 
REMARK    2  A    between atoms: C3_3  and  C4_4 
REMARK    3  A    between atoms: C4_4  and  C5_5 
REMARK    4  A    between atoms: C6_7  and  O2_8 
REMARK    5  A    between atoms: O2_8  and  C7_9 
REMARK    6  A    between atoms: C7_9  and  C8_10 
REMARK    7  A    between atoms: C8_10  and  C9_11 
REMARK    8  A    between atoms: C9_11  and  C10_12 
REMARK    9  A    between atoms: C16_18  and  O3_19 
REMARK   10  A    between atoms: C17_21  and  O4_22 
REMARK   11  A    between atoms: C18_24  and  C19_25 
ROOT
HETATM    1  C5  UNL     1      23.744 -17.368  17.073  1.00  0.00     0.264 C 
HETATM    2  O1  UNL     1      22.688 -17.707  17.920  1.00  0.00    -0.329 OA
HETATM    3  C6  UNL     1      21.734 -16.683  17.960  1.00  0.00     0.293 C 
HETATM    4  C16 UNL     1      21.954 -15.721  19.094  1.00  0.00     0.205 C 
HETATM    5  C17 UNL     1      23.427 -15.827  19.510  1.00  0.00     0.185 C 
HETATM    6  C18 UNL     1      24.275 -15.514  18.336  1.00  0.00     0.191 C 
HETATM    7  O5  UNL     1      24.717 -16.752  17.795  1.00  0.00    -0.349 OA
ENDROOT
BRANCH   3   8
HETATM    8  O2  UNL     1      20.498 -17.313  18.003  1.00  0.00    -0.358 OA
BRANCH   8   9
HETATM    9  C7  UNL     1      20.268 -17.788  19.288  1.00  0.00     0.171 C 
BRANCH   9  10
HETATM   10  C8  UNL     1      18.782 -17.731  19.633  1.00  0.00     0.027 C 
BRANCH  10  11
HETATM   11  C9  UNL     1      18.315 -16.302  19.536  1.00  0.00     0.007 C 
BRANCH  11  12
HETATM   12  C10 UNL     1      17.127 -16.219  18.636  1.00  0.00    -0.014 C 
HETATM   13  C11 UNL     1      16.366 -17.527  18.672  1.00  0.00     0.004 C 
HETATM   14  C12 UNL     1      15.057 -17.294  19.358  1.00  0.00     0.000 C 
HETATM   15  C13 UNL     1      14.184 -16.342  18.549  1.00  0.00     0.000 C 
HETATM   16  C14 UNL     1      14.993 -15.162  18.050  1.00  0.00     0.000 C 
HETATM   17  C15 UNL     1      16.216 -15.087  18.979  1.00  0.00     0.004 C 
ENDBRANCH  11  12
ENDBRANCH  10  11
ENDBRANCH   9  10
ENDBRANCH   8   9
ENDBRANCH   3   8
BRANCH   4  18
HETATM   18  O3  UNL     1      21.749 -14.428  18.610  1.00  0.00    -0.388 OA
ATOM     19  H3  UNL     1      22.288 -14.314  17.836  1.00  0.00     0.210 HD
ENDBRANCH   4  18
BRANCH   1  20
HETATM   20  C4  UNL     1      24.279 -18.566  16.362  1.00  0.00     0.061 C 
BRANCH  20  21
HETATM   21  C3  UNL     1      24.037 -19.889  16.976  1.00  0.00     0.004 C 
BRANCH  21  22
HETATM   22  C2  UNL     1      24.668 -20.167  18.292  1.00  0.00    -0.004 C 
HETATM   23  C1  UNL     1      23.555 -20.440  19.322  1.00  0.00     0.005 C 
ENDBRANCH  21  22
ENDBRANCH  20  21
ENDBRANCH   1  20
BRANCH   5  24
HETATM   24  O4  UNL     1      23.576 -17.086  20.041  1.00  0.00    -0.390 OA
ATOM     25  H4  UNL     1      22.724 -17.500  19.968  1.00  0.00     0.210 HD
ENDBRANCH   5  24
BRANCH   6  26
HETATM   26  C19 UNL     1      25.522 -14.766  18.616  1.00  0.00    -0.002 A 
HETATM   27  C20 UNL     1      25.622 -13.397  18.542  1.00  0.00     0.015 A 
HETATM   28  C21 UNL     1      26.819 -12.734  18.822  1.00  0.00     0.046 A 
HETATM   29  C22 UNL     1      27.922 -13.443  19.178  1.00  0.00     0.156 A 
HETATM   30  F1  UNL     1      29.085 -12.767  19.447  1.00  0.00    -0.203 F 
HETATM   31  C23 UNL     1      27.853 -14.802  19.259  1.00  0.00     0.177 A 
HETATM   32  F2  UNL     1      28.959 -15.487  19.614  1.00  0.00    -0.201 F 
HETATM   33  C24 UNL     1      26.663 -15.446  18.980  1.00  0.00     0.084 A 
HETATM   34 CL1  UNL     1      26.651 -17.181  19.106  1.00  0.00    -0.080 Cl
ENDBRANCH   6  26
TORSDOF 11
ENDMDL
MODEL 3
REMARK VINA RESULT: -9.868793098      1.113      1.596
REMARK  11 active torsions:
REMARK  status: ('A' for Active; 'I' for Inactive)
REMARK    1  A    between atoms: C2_2  and  C3_3 
REMARK    2  A    between atoms: C3_3  and  C4_4 
REMARK    3  A    between atoms: C4_4  and  C5_5 
REMARK    4  A    between atoms: C6_7  and  O2_8 
REMARK    5  A    between atoms: O2_8  and  C7_9 
REMARK    6  A    between atoms: C7_9  and  C8_10 
REMARK    7  A    between atoms: C8_10  and  C9_11 
REMARK    8  A    between atoms: C9_11  and  C10_12 
REMARK    9  A    between atoms: C16_18  and  O3_19 
REMARK   10  A    between atoms: C17_21  and  O4_22 
REMARK   11  A    between atoms: C18_24  and  C19_25 
ROOT
HETATM    1  C5  UNL     1      23.710 -17.350  17.067  1.00  0.00     0.264 C 
HETATM    2  O1  UNL     1      22.633 -17.648  17.903  1.00  0.00    -0.329 OA
HETATM    3  C6  UNL     1      21.707 -16.599  17.915  1.00  0.00     0.293 C 
HETATM    4  C16 UNL     1      21.936 -15.627  19.038  1.00  0.00     0.205 C 
HETATM    5  C17 UNL     1      23.400 -15.766  19.478  1.00  0.00     0.185 C 
HETATM    6  C18 UNL     1      24.273 -15.493  18.311  1.00  0.00     0.191 C 
HETATM    7  O5  UNL     1      24.689 -16.750  17.795  1.00  0.00    -0.349 OA
ENDROOT
BRANCH   3   8
HETATM    8  O2  UNL     1      20.453 -17.195  17.949  1.00  0.00    -0.358 OA
BRANCH   8   9
HETATM    9  C7  UNL     1      20.442 -18.189  18.918  1.00  0.00     0.171 C 
BRANCH   9  10
HETATM   10  C8  UNL     1      19.225 -18.051  19.828  1.00  0.00     0.027 C 
BRANCH  10  11
HETATM   11  C9  UNL     1      18.005 -18.529  19.083  1.00  0.00     0.007 C 
BRANCH  11  12
HETATM   12  C10 UNL     1      16.848 -17.634  19.383  1.00  0.00    -0.014 C 
HETATM   13  C11 UNL     1      17.323 -16.200  19.485  1.00  0.00     0.004 C 
HETATM   14  C12 UNL     1      16.782 -15.439  18.316  1.00  0.00     0.000 C 
HETATM   15  C13 UNL     1      15.260 -15.365  18.377  1.00  0.00     0.000 C 
HETATM   16  C14 UNL     1      14.669 -16.713  18.737  1.00  0.00     0.000 C 
HETATM   17  C15 UNL     1      15.753 -17.741  18.374  1.00  0.00     0.004 C 
ENDBRANCH  11  12
ENDBRANCH  10  11
ENDBRANCH   9  10
ENDBRANCH   8   9
ENDBRANCH   3   8
BRANCH   4  18
HETATM   18  O3  UNL     1      21.773 -14.336  18.533  1.00  0.00    -0.388 OA
ATOM     19  H3  UNL     1      21.547 -13.763  19.257  1.00  0.00     0.210 HD
ENDBRANCH   4  18
BRANCH   1  20
HETATM   20  C4  UNL     1      24.223 -18.572  16.381  1.00  0.00     0.061 C 
BRANCH  20  21
HETATM   21  C3  UNL     1      23.957 -19.877  17.023  1.00  0.00     0.004 C 
BRANCH  21  22
HETATM   22  C2  UNL     1      24.613 -20.154  18.326  1.00  0.00    -0.004 C 
HETATM   23  C1  UNL     1      23.520 -20.438  19.374  1.00  0.00     0.005 C 
ENDBRANCH  21  22
ENDBRANCH  20  21
ENDBRANCH   1  20
BRANCH   5  24
HETATM   24  O4  UNL     1      23.507 -17.021  20.028  1.00  0.00    -0.390 OA
ATOM     25  H4  UNL     1      24.418 -17.272  19.925  1.00  0.00     0.210 HD
ENDBRANCH   5  24
BRANCH   6  26
HETATM   26  C19 UNL     1      25.535 -14.775  18.599  1.00  0.00    -0.002 A 
HETATM   27  C20 UNL     1      25.669 -13.409  18.522  1.00  0.00     0.015 A 
HETATM   28  C21 UNL     1      26.880 -12.774  18.809  1.00  0.00     0.046 A 
HETATM   29  C22 UNL     1      27.962 -13.509  19.176  1.00  0.00     0.156 A 
HETATM   30  F1  UNL     1      29.139 -12.860  19.453  1.00  0.00    -0.203 F 
HETATM   31  C23 UNL     1      27.859 -14.865  19.262  1.00  0.00     0.177 A 
HETATM   32  F2  UNL     1      28.945 -15.575  19.629  1.00  0.00    -0.201 F 
HETATM   33  C24 UNL     1      26.657 -15.481  18.976  1.00  0.00     0.084 A 
HETATM   34 CL1  UNL     1      26.600 -17.215  19.107  1.00  0.00    -0.080 Cl
ENDBRANCH   6  26
TORSDOF 11
ENDMDL
MODEL 4
REMARK VINA RESULT: -9.714221285      4.035      8.728
REMARK  11 active torsions:
REMARK  status: ('A' for Active; 'I' for Inactive)
REMARK    1  A    between atoms: C2_2  and  C3_3 
REMARK    2  A    between atoms: C3_3  and  C4_4 
REMARK    3  A    between atoms: C4_4  and  C5_5 
REMARK    4  A    between atoms: C6_7  and  O2_8 
REMARK    5  A    between atoms: O2_8  and  C7_9 
REMARK    6  A    between atoms: C7_9  and  C8_10 
REMARK    7  A    between atoms: C8_10  and  C9_11 
REMARK    8  A    between atoms: C9_11  and  C10_12 
REMARK    9  A    between atoms: C16_18  and  O3_19 
REMARK   10  A    between atoms: C17_21  and  O4_22 
REMARK   11  A    between atoms: C18_24  and  C19_25 
ROOT
HETATM    1  C5  UNL     1      22.736 -18.068  19.537  1.00  0.00     0.264 C 
HETATM    2  O1  UNL     1      23.318 -17.249  18.569  1.00  0.00    -0.329 OA
HETATM    3  C6  UNL     1      23.104 -15.898  18.865  1.00  0.00     0.293 C 
HETATM    4  C16 UNL     1      21.884 -15.335  18.193  1.00  0.00     0.205 C 
HETATM    5  C17 UNL     1      20.962 -16.513  17.848  1.00  0.00     0.185 C 
HETATM    6  C18 UNL     1      20.631 -17.236  19.099  1.00  0.00     0.191 C 
HETATM    7  O5  UNL     1      21.469 -18.382  19.156  1.00  0.00    -0.349 OA
ENDROOT
BRANCH   3   8
HETATM    8  O2  UNL     1      24.277 -15.240  18.520  1.00  0.00    -0.358 OA
BRANCH   8   9
HETATM    9  C7  UNL     1      25.121 -15.194  19.622  1.00  0.00     0.171 C 
BRANCH   9  10
HETATM   10  C8  UNL     1      25.480 -13.753  19.975  1.00  0.00     0.027 C 
BRANCH  10  11
HETATM   11  C9  UNL     1      26.438 -13.762  21.138  1.00  0.00     0.007 C 
BRANCH  11  12
HETATM   12  C10 UNL     1      27.829 -13.531  20.647  1.00  0.00    -0.014 C 
HETATM   13  C11 UNL     1      28.642 -14.798  20.799  1.00  0.00     0.004 C 
HETATM   14  C12 UNL     1      28.937 -15.336  19.434  1.00  0.00     0.000 C 
HETATM   15  C13 UNL     1      29.829 -14.375  18.655  1.00  0.00     0.000 C 
HETATM   16  C14 UNL     1      29.350 -12.946  18.815  1.00  0.00     0.000 C 
HETATM   17  C15 UNL     1      27.874 -13.058  19.232  1.00  0.00     0.004 C 
ENDBRANCH  11  12
ENDBRANCH  10  11
ENDBRANCH   9  10
ENDBRANCH   8   9
ENDBRANCH   3   8
BRANCH   4  18
HETATM   18  O3  UNL     1      21.210 -14.534  19.116  1.00  0.00    -0.388 OA
ATOM     19  H3  UNL     1      21.859 -14.068  19.631  1.00  0.00     0.210 HD
ENDBRANCH   4  18
BRANCH   1  20
HETATM   20  C4  UNL     1      23.547 -19.298  19.771  1.00  0.00     0.061 C 
BRANCH  20  21
HETATM   21  C3  UNL     1      23.564 -20.318  18.702  1.00  0.00     0.004 C 
BRANCH  21  22
HETATM   22  C2  UNL     1      24.457 -20.085  17.538  1.00  0.00    -0.004 C 
HETATM   23  C1  UNL     1      23.589 -19.969  16.270  1.00  0.00     0.005 C 
ENDBRANCH  21  22
ENDBRANCH  20  21
ENDBRANCH   1  20
BRANCH   5  24
HETATM   24  O4  UNL     1      21.627 -17.241  16.891  1.00  0.00    -0.390 OA
ATOM     25  H4  UNL     1      20.988 -17.417  16.210  1.00  0.00     0.210 HD
ENDBRANCH   5  24
BRANCH   6  26
HETATM   26  C19 UNL     1      19.256 -17.778  19.191  1.00  0.00    -0.002 A 
HETATM   27  C20 UNL     1      18.963 -19.037  19.659  1.00  0.00     0.015 A 
HETATM   28  C21 UNL     1      17.649 -19.503  19.733  1.00  0.00     0.046 A 
HETATM   29  C22 UNL     1      16.622 -18.707  19.336  1.00  0.00     0.156 A 
HETATM   30  F1  UNL     1      15.340 -19.190  19.419  1.00  0.00    -0.203 F 
HETATM   31  C23 UNL     1      16.881 -17.454  18.867  1.00  0.00     0.177 A 
HETATM   32  F2  UNL     1      15.847 -16.681  18.479  1.00  0.00    -0.201 F 
HETATM   33  C24 UNL     1      18.185 -17.004  18.799  1.00  0.00     0.084 A 
HETATM   34 CL1  UNL     1      18.440 -15.395  18.190  1.00  0.00    -0.080 Cl
ENDBRANCH   6  26
TORSDOF 11
ENDMDL
MODEL 5
REMARK VINA RESULT: -9.399628986      3.653      8.692
REMARK  11 active torsions:
REMARK  status: ('A' for Active; 'I' for Inactive)
REMARK    1  A    between atoms: C2_2  and  C3_3 
REMARK    2  A    between atoms: C3_3  and  C4_4 
REMARK    3  A    between atoms: C4_4  and  C5_5 
REMARK    4  A    between atoms: C6_7  and  O2_8 
REMARK    5  A    between atoms: O2_8  and  C7_9 
REMARK    6  A    between atoms: C7_9  and  C8_10 
REMARK    7  A    between atoms: C8_10  and  C9_11 
REMARK    8  A    between atoms: C9_11  and  C10_12 
REMARK    9  A    between atoms: C16_18  and  O3_19 
REMARK   10  A    between atoms: C17_21  and  O4_22 
REMARK   11  A    between atoms: C18_24  and  C19_25 
ROOT
HETATM    1  C5  UNL     1      23.135 -15.944  18.507  1.00  0.00     0.264 C 
HETATM    2  O1  UNL     1      24.074 -16.957  18.696  1.00  0.00    -0.329 OA
HETATM    3  C6  UNL     1      24.095 -17.827  17.600  1.00  0.00     0.293 C 
HETATM    4  C16 UNL     1      23.199 -19.021  17.781  1.00  0.00     0.205 C 
HETATM    5  C17 UNL     1      22.145 -18.651  18.833  1.00  0.00     0.185 C 
HETATM    6  C18 UNL     1      21.403 -17.459  18.361  1.00  0.00     0.191 C 
HETATM    7  O5  UNL     1      21.944 -16.332  19.037  1.00  0.00    -0.349 OA
ENDROOT
BRANCH   3   8
HETATM    8  O2  UNL     1      25.428 -18.163  17.403  1.00  0.00    -0.358 OA
BRANCH   8   9
HETATM    9  C7  UNL     1      25.937 -18.731  18.564  1.00  0.00     0.171 C 
BRANCH   9  10
HETATM   10  C8  UNL     1      26.519 -17.661  19.484  1.00  0.00     0.027 C 
BRANCH  10  11
HETATM   11  C9  UNL     1      27.399 -16.747  18.671  1.00  0.00     0.007 C 
BRANCH  11  12
HETATM   12  C10 UNL     1      28.556 -16.295  19.498  1.00  0.00    -0.014 C 
HETATM   13  C11 UNL     1      29.189 -15.072  18.868  1.00  0.00     0.004 C 
HETATM   14  C12 UNL     1      28.923 -13.895  19.752  1.00  0.00     0.000 C 
HETATM   15  C13 UNL     1      29.620 -14.061  21.098  1.00  0.00     0.000 C 
HETATM   16  C14 UNL     1      29.426 -15.465  21.635  1.00  0.00     0.000 C 
HETATM   17  C15 UNL     1      28.181 -16.007  20.914  1.00  0.00     0.004 C 
ENDBRANCH  11  12
ENDBRANCH  10  11
ENDBRANCH   9  10
ENDBRANCH   8   9
ENDBRANCH   3   8
BRANCH   4  18
HETATM   18  O3  UNL     1      22.528 -19.245  16.578  1.00  0.00    -0.388 OA
ATOM     19  H3  UNL     1      22.487 -20.183  16.434  1.00  0.00     0.210 HD
ENDBRANCH   4  18
BRANCH   1  20
HETATM   20  C4  UNL     1      23.594 -14.655  19.105  1.00  0.00     0.061 C 
BRANCH  20  21
HETATM   21  C3  UNL     1      24.859 -14.082  18.599  1.00  0.00     0.004 C 
BRANCH  21  22
HETATM   22  C2  UNL     1      25.684 -13.286  19.543  1.00  0.00    -0.004 C 
HETATM   23  C1  UNL     1      25.486 -13.852  20.963  1.00  0.00     0.005 C 
ENDBRANCH  21  22
ENDBRANCH  20  21
ENDBRANCH   1  20
BRANCH   5  24
HETATM   24  O4  UNL     1      22.831 -18.504  20.014  1.00  0.00    -0.390 OA
ATOM     25  H4  UNL     1      22.176 -18.295  20.670  1.00  0.00     0.210 HD
ENDBRANCH   5  24
BRANCH   6  26
HETATM   26  C19 UNL     1      19.958 -17.424  18.682  1.00  0.00    -0.002 A 
HETATM   27  C20 UNL     1      19.304 -18.425  19.362  1.00  0.00     0.015 A 
HETATM   28  C21 UNL     1      17.940 -18.346  19.648  1.00  0.00     0.046 A 
HETATM   29  C22 UNL     1      17.224 -17.261  19.252  1.00  0.00     0.156 A 
HETATM   30  F1  UNL     1      15.885 -17.209  19.545  1.00  0.00    -0.203 F 
HETATM   31  C23 UNL     1      17.845 -16.253  18.576  1.00  0.00     0.177 A 
HETATM   32  F2  UNL     1      17.116 -15.186  18.192  1.00  0.00    -0.201 F 
HETATM   33  C24 UNL     1      19.195 -16.343  18.299  1.00  0.00     0.084 A 
HETATM   34 CL1  UNL     1      19.918 -15.019  17.433  1.00  0.00    -0.080 Cl
ENDBRANCH   6  26
TORSDOF 11
ENDMDL
