MODEL 1
REMARK VINA RESULT: -7.606266509      0.000      0.000
REMARK  4 active torsions:
REMARK  status: ('A' for Active; 'I' for Inactive)
REMARK    1  A    between atoms: C2_3  and  C3_4 
REMARK    2  A    between atoms: C2_3  and  C9_10 
REMARK    3  A    between atoms: C3_4  and  C4_5 
REMARK       I    between atoms: C9_10  and  N2_12 
REMARK    4  A    between atoms: C13_19  and  O2_20 
ROOT
HETATM    1  N1  UNL     1      18.547   9.944  -1.632  1.00  0.00    -0.196 NA
HETATM    2  C1  UNL     1      17.463  10.063  -1.227  1.00  0.00     0.073 C 
HETATM    3  C2  UNL     1      16.124  10.198  -0.684  1.00  0.00     0.185 C 
ENDROOT
BRANCH   3   4
HETATM    4  C3  UNL     1      15.166  10.820  -1.635  1.00  0.00     0.033 C 
BRANCH   4   5
HETATM    5  C4  UNL     1      14.606  10.001  -2.710  1.00  0.00    -0.013 C 
HETATM    6  C5  UNL     1      15.046  10.198  -4.108  1.00  0.00     0.005 C 
HETATM    7  C6  UNL     1      13.860   9.829  -4.990  1.00  0.00     0.000 C 
HETATM    8  C7  UNL     1      12.791   9.388  -4.047  1.00  0.00     0.000 C 
HETATM    9  C8  UNL     1      13.079  10.198  -2.775  1.00  0.00     0.005 C 
ENDBRANCH   4   5
ENDBRANCH   3   4
BRANCH   3  10
HETATM   10  C9  UNL     1      16.283  11.050   0.548  1.00  0.00     0.237 C 
HETATM   11  O1  UNL     1      17.019  12.053   0.417  1.00  0.00    -0.272 OA
HETATM   12  N2  UNL     1      15.656  10.757   1.774  1.00  0.00    -0.347 N 
HETATM   13  C10 UNL     1      15.942  11.700   2.837  1.00  0.00     0.127 C 
HETATM   14  C14 UNL     1      14.812   9.601   1.900  1.00  0.00     0.186 C 
HETATM   15  C11 UNL     1      16.052  11.033   4.186  1.00  0.00     0.047 C 
HETATM   16  C12 UNL     1      14.670  10.948   4.797  1.00  0.00     0.237 C 
HETATM   17  N3  UNL     1      14.055   9.737   4.237  1.00  0.00    -0.047 N 
HETATM   18  C13 UNL     1      13.669   9.920   2.871  1.00  0.00     0.336 C 
ATOM     19  H32 UNL     1      14.666   8.927   4.346  1.00  0.00     0.280 HD
ATOM     20  H31 UNL     1      13.269   9.422   4.806  1.00  0.00     0.280 HD
BRANCH  18  21
HETATM   21  O2  UNL     1      12.601   9.073   2.603  1.00  0.00    -0.368 OA
ATOM     22  H2  UNL     1      12.933   8.311   2.143  1.00  0.00     0.212 HD
ENDBRANCH  18  21
ENDBRANCH   3  10
TORSDOF 4
ENDMDL
MODEL 2
REMARK VINA RESULT: -7.351361467      1.846      2.015
REMARK  4 active torsions:
REMARK  status: ('A' for Active; 'I' for Inactive)
REMARK    1  A    between atoms: C2_3  and  C3_4 
REMARK    2  A    between atoms: C2_3  and  C9_10 
REMARK    3  A    between atoms: C3_4  and  C4_5 
REMARK       I    between atoms: C9_10  and  N2_12 
REMARK    4  A    between atoms: C13_19  and  O2_20 
ROOT
HETATM    1  N1  UNL     1      14.464   7.378  -0.372  1.00  0.00    -0.196 NA
HETATM    2  C1  UNL     1      14.075   8.471  -0.286  1.00  0.00     0.073 C 
HETATM    3  C2  UNL     1      13.597   9.834  -0.136  1.00  0.00     0.185 C 
ENDROOT
BRANCH   3   4
HETATM    4  C3  UNL     1      13.275  10.487  -1.432  1.00  0.00     0.033 C 
BRANCH   4   5
HETATM    5  C4  UNL     1      13.562   9.770  -2.674  1.00  0.00    -0.013 C 
HETATM    6  C5  UNL     1      14.623  10.247  -3.587  1.00  0.00     0.005 C 
HETATM    7  C6  UNL     1      14.197   9.845  -4.993  1.00  0.00     0.000 C 
HETATM    8  C7  UNL     1      12.915   9.104  -4.818  1.00  0.00     0.000 C 
HETATM    9  C8  UNL     1      12.303   9.740  -3.562  1.00  0.00     0.005 C 
ENDBRANCH   4   5
ENDBRANCH   3   4
BRANCH   3  10
HETATM   10  C9  UNL     1      14.709  10.565   0.570  1.00  0.00     0.237 C 
HETATM   11  O1  UNL     1      15.323  11.408  -0.123  1.00  0.00    -0.272 OA
HETATM   12  N2  UNL     1      15.051  10.332   1.914  1.00  0.00    -0.347 N 
HETATM   13  C10 UNL     1      16.154  11.138   2.403  1.00  0.00     0.127 C 
HETATM   14  C14 UNL     1      14.330   9.362   2.690  1.00  0.00     0.186 C 
HETATM   15  C11 UNL     1      17.032  10.387   3.372  1.00  0.00     0.047 C 
HETATM   16  C12 UNL     1      16.459  10.543   4.764  1.00  0.00     0.237 C 
HETATM   17  N3  UNL     1      15.420   9.512   4.891  1.00  0.00    -0.047 N 
HETATM   18  C13 UNL     1      14.246   9.846   4.143  1.00  0.00     0.336 C 
ATOM     19  H32 UNL     1      15.777   8.592   4.633  1.00  0.00     0.280 HD
ATOM     20  H31 UNL     1      15.197   9.328   5.870  1.00  0.00     0.280 HD
BRANCH  18  21
HETATM   21  O2  UNL     1      13.154   9.244   4.756  1.00  0.00    -0.368 OA
ATOM     22  H2  UNL     1      13.007   8.402   4.343  1.00  0.00     0.212 HD
ENDBRANCH  18  21
ENDBRANCH   3  10
TORSDOF 4
ENDMDL
MODEL 3
REMARK VINA RESULT: -7.329947645      2.059      4.038
REMARK  4 active torsions:
REMARK  status: ('A' for Active; 'I' for Inactive)
REMARK    1  A    between atoms: C2_3  and  C3_4 
REMARK    2  A    between atoms: C2_3  and  C9_10 
REMARK    3  A    between atoms: C3_4  and  C4_5 
REMARK       I    between atoms: C9_10  and  N2_12 
REMARK    4  A    between atoms: C13_19  and  O2_20 
ROOT
HETATM    1  N1  UNL     1      12.451  11.321   2.486  1.00  0.00    -0.196 NA
HETATM    2  C1  UNL     1      13.225  10.887   1.733  1.00  0.00     0.073 C 
HETATM    3  C2  UNL     1      14.221  10.370   0.813  1.00  0.00     0.185 C 
ENDROOT
BRANCH   3   4
HETATM    4  C3  UNL     1      13.714   9.260  -0.036  1.00  0.00     0.033 C 
BRANCH   4   5
HETATM    5  C4  UNL     1      14.041   9.255  -1.461  1.00  0.00    -0.013 C 
HETATM    6  C5  UNL     1      15.269   9.918  -1.950  1.00  0.00     0.005 C 
HETATM    7  C6  UNL     1      14.967  10.400  -3.363  1.00  0.00     0.000 C 
HETATM    8  C7  UNL     1      13.574   9.947  -3.644  1.00  0.00     0.000 C 
HETATM    9  C8  UNL     1      12.914   9.941  -2.258  1.00  0.00     0.005 C 
ENDBRANCH   4   5
ENDBRANCH   3   4
BRANCH   3  10
HETATM   10  C9  UNL     1      15.357   9.901   1.684  1.00  0.00     0.237 C 
HETATM   11  O1  UNL     1      15.124   8.879   2.368  1.00  0.00    -0.272 OA
HETATM   12  N2  UNL     1      16.603  10.552   1.741  1.00  0.00    -0.347 N 
HETATM   13  C10 UNL     1      17.560   9.944   2.645  1.00  0.00     0.127 C 
HETATM   14  C14 UNL     1      16.849  11.721   0.944  1.00  0.00     0.186 C 
HETATM   15  C11 UNL     1      18.422  10.964   3.345  1.00  0.00     0.047 C 
HETATM   16  C12 UNL     1      19.621  11.265   2.472  1.00  0.00     0.237 C 
HETATM   17  N3  UNL     1      19.176  12.284   1.512  1.00  0.00    -0.047 N 
HETATM   18  C13 UNL     1      18.319  11.730   0.508  1.00  0.00     0.336 C 
ATOM     19  H32 UNL     1      18.733  13.072   1.985  1.00  0.00     0.280 HD
ATOM     20  H31 UNL     1      19.969  12.772   1.095  1.00  0.00     0.280 HD
BRANCH  18  21
HETATM   21  O2  UNL     1      18.443  12.499  -0.643  1.00  0.00    -0.368 OA
ATOM     22  H2  UNL     1      17.860  12.143  -1.304  1.00  0.00     0.212 HD
ENDBRANCH  18  21
ENDBRANCH   3  10
TORSDOF 4
ENDMDL
MODEL 4
REMARK VINA RESULT: -7.317074137      2.364      3.130
REMARK  4 active torsions:
REMARK  status: ('A' for Active; 'I' for Inactive)
REMARK    1  A    between atoms: C2_3  and  C3_4 
REMARK    2  A    between atoms: C2_3  and  C9_10 
REMARK    3  A    between atoms: C3_4  and  C4_5 
REMARK       I    between atoms: C9_10  and  N2_12 
REMARK    4  A    between atoms: C13_19  and  O2_20 
ROOT
HETATM    1  N1  UNL     1      13.886   7.899   0.158  1.00  0.00    -0.196 NA
HETATM    2  C1  UNL     1      14.160   9.003  -0.086  1.00  0.00     0.073 C 
HETATM    3  C2  UNL     1      14.529  10.381  -0.356  1.00  0.00     0.185 C 
ENDROOT
BRANCH   3   4
HETATM    4  C3  UNL     1      13.978  10.895  -1.637  1.00  0.00     0.033 C 
BRANCH   4   5
HETATM    5  C4  UNL     1      13.867   9.981  -2.774  1.00  0.00    -0.013 C 
HETATM    6  C5  UNL     1      14.597  10.256  -4.030  1.00  0.00     0.005 C 
HETATM    7  C6  UNL     1      13.758   9.665  -5.156  1.00  0.00     0.000 C 
HETATM    8  C7  UNL     1      12.589   9.029  -4.483  1.00  0.00     0.000 C 
HETATM    9  C8  UNL     1      12.395   9.882  -3.221  1.00  0.00     0.005 C 
ENDBRANCH   4   5
ENDBRANCH   3   4
BRANCH   3  10
HETATM   10  C9  UNL     1      16.035  10.388  -0.381  1.00  0.00     0.237 C 
HETATM   11  O1  UNL     1      16.557  10.041  -1.464  1.00  0.00    -0.272 OA
HETATM   12  N2  UNL     1      16.822  10.755   0.727  1.00  0.00    -0.347 N 
HETATM   13  C10 UNL     1      18.253  10.691   0.497  1.00  0.00     0.127 C 
HETATM   14  C14 UNL     1      16.201  11.154   1.959  1.00  0.00     0.186 C 
HETATM   15  C11 UNL     1      19.013  10.231   1.716  1.00  0.00     0.047 C 
HETATM   16  C12 UNL     1      19.326  11.438   2.573  1.00  0.00     0.237 C 
HETATM   17  N3  UNL     1      18.131  11.673   3.394  1.00  0.00    -0.047 N 
HETATM   18  C13 UNL     1      17.061  12.234   2.626  1.00  0.00     0.336 C 
ATOM     19  H32 UNL     1      17.838  10.822   3.875  1.00  0.00     0.280 HD
ATOM     20  H31 UNL     1      18.346  12.250   4.208  1.00  0.00     0.280 HD
BRANCH  18  21
HETATM   21  O2  UNL     1      16.260  12.984   3.479  1.00  0.00    -0.368 OA
ATOM     22  H2  UNL     1      16.029  13.792   3.036  1.00  0.00     0.212 HD
ENDBRANCH  18  21
ENDBRANCH   3  10
TORSDOF 4
ENDMDL
MODEL 5
REMARK VINA RESULT: -7.243501122      2.127      6.432
REMARK  4 active torsions:
REMARK  status: ('A' for Active; 'I' for Inactive)
REMARK    1  A    between atoms: C2_3  and  C3_4 
REMARK    2  A    between atoms: C2_3  and  C9_10 
REMARK    3  A    between atoms: C3_4  and  C4_5 
REMARK       I    between atoms: C9_10  and  N2_12 
REMARK    4  A    between atoms: C13_19  and  O2_20 
ROOT
HETATM    1  N1  UNL     1      13.556   6.343   1.389  1.00  0.00    -0.196 NA
HETATM    2  C1  UNL     1      13.866   7.457   1.262  1.00  0.00     0.073 C 
HETATM    3  C2  UNL     1      14.263   8.839   1.063  1.00  0.00     0.185 C 
ENDROOT
BRANCH   3   4
HETATM    4  C3  UNL     1      13.972   9.706   2.234  1.00  0.00     0.033 C 
BRANCH   4   5
HETATM    5  C4  UNL     1      14.889  10.802   2.546  1.00  0.00    -0.013 C 
HETATM    6  C5  UNL     1      16.122  10.996   1.753  1.00  0.00     0.005 C 
HETATM    7  C6  UNL     1      17.148  11.615   2.693  1.00  0.00     0.000 C 
HETATM    8  C7  UNL     1      16.435  11.792   3.991  1.00  0.00     0.000 C 
HETATM    9  C8  UNL     1      15.404  10.655   3.991  1.00  0.00     0.005 C 
ENDBRANCH   4   5
ENDBRANCH   3   4
BRANCH   3  10
HETATM   10  C9  UNL     1      13.495   9.299  -0.148  1.00  0.00     0.237 C 
HETATM   11  O1  UNL     1      12.256   9.394   0.005  1.00  0.00    -0.272 OA
HETATM   12  N2  UNL     1      14.107   9.605  -1.378  1.00  0.00    -0.347 N 
HETATM   13  C10 UNL     1      13.189  10.026  -2.419  1.00  0.00     0.127 C 
HETATM   14  C14 UNL     1      15.531   9.492  -1.529  1.00  0.00     0.186 C 
HETATM   15  C11 UNL     1      13.600   9.533  -3.784  1.00  0.00     0.047 C 
HETATM   16  C12 UNL     1      14.558  10.536  -4.391  1.00  0.00     0.237 C 
HETATM   17  N3  UNL     1      15.885  10.199  -3.859  1.00  0.00    -0.047 N 
HETATM   18  C13 UNL     1      16.021  10.585  -2.487  1.00  0.00     0.336 C 
ATOM     19  H32 UNL     1      16.098   9.210  -3.990  1.00  0.00     0.280 HD
ATOM     20  H31 UNL     1      16.628  10.600  -4.432  1.00  0.00     0.280 HD
BRANCH  18  21
HETATM   21  O2  UNL     1      17.364  10.835  -2.235  1.00  0.00    -0.368 OA
ATOM     22  H2  UNL     1      17.526  10.693  -1.310  1.00  0.00     0.212 HD
ENDBRANCH  18  21
ENDBRANCH   3  10
TORSDOF 4
ENDMDL
