MODEL 1
REMARK VINA RESULT: -7.105659388      0.000      0.000
REMARK  5 active torsions:
REMARK  status: ('A' for Active; 'I' for Inactive)
REMARK    1  A    between atoms: O1_1  and  C1_3 
REMARK    2  A    between atoms: C1_3  and  C2_4 
REMARK    3  A    between atoms: C2_4  and  N1_5 
REMARK    4  A    between atoms: C9_12  and  N2_13 
REMARK    5  A    between atoms: C12_16  and  O2_17 
ROOT
HETATM    1  C2  UNL     1      13.903   8.636   1.331  1.00  0.00     0.182 C 
HETATM    2  C7  UNL     1      12.528   9.050   1.770  1.00  0.00     0.046 C 
HETATM    3  C8  UNL     1      12.665   9.081   3.277  1.00  0.00     0.038 C 
HETATM    4  C9  UNL     1      14.007   9.707   3.437  1.00  0.00     0.225 C 
HETATM    5  C15 UNL     1      14.846   8.895   2.485  1.00  0.00     0.079 C 
ENDROOT
BRANCH   1   6
HETATM    6  C1  UNL     1      13.880   7.143   1.085  1.00  0.00     0.206 C 
BRANCH   6   7
HETATM    7  O1  UNL     1      14.403   6.771  -0.146  1.00  0.00    -0.398 OA
ATOM      8  H1  UNL     1      13.742   6.618  -0.811  1.00  0.00     0.209 HD
ENDBRANCH   6   7
ENDBRANCH   1   6
BRANCH   1   9
HETATM    9  N1  UNL     1      14.362   9.296   0.153  1.00  0.00     0.100 N 
HETATM   10  C3  UNL     1      13.361  10.024  -0.558  1.00  0.00     0.273 C 
HETATM   11  C4  UNL     1      14.091  11.225  -1.173  1.00  0.00     0.032 C 
HETATM   12  C5  UNL     1      15.552  10.867  -1.018  1.00  0.00     0.032 C 
HETATM   13  C6  UNL     1      15.493  10.159   0.346  1.00  0.00     0.273 C 
ENDBRANCH   1   9
BRANCH   4  14
HETATM   14  N2  UNL     1      14.512   9.716   4.771  1.00  0.00     0.093 N 
HETATM   15  C10 UNL     1      13.766   8.864   5.630  1.00  0.00     0.275 C 
HETATM   16  C11 UNL     1      14.001   9.381   7.055  1.00  0.00     0.062 C 
HETATM   17  C12 UNL     1      15.466   9.374   7.333  1.00  0.00     0.121 C 
HETATM   18  C13 UNL     1      16.315   8.943   6.176  1.00  0.00     0.062 C 
HETATM   19  C14 UNL     1      15.935   9.567   4.873  1.00  0.00     0.275 C 
BRANCH  17  20
HETATM   20  O2  UNL     1      15.688   8.446   8.371  1.00  0.00    -0.395 OA
ATOM     21  H2  UNL     1      16.609   8.213   8.347  1.00  0.00     0.210 HD
ENDBRANCH  17  20
ENDBRANCH   4  14
TORSDOF 5
ENDMDL
MODEL 2
REMARK VINA RESULT: -7.034597271      4.230      5.279
REMARK  5 active torsions:
REMARK  status: ('A' for Active; 'I' for Inactive)
REMARK    1  A    between atoms: O1_1  and  C1_3 
REMARK    2  A    between atoms: C1_3  and  C2_4 
REMARK    3  A    between atoms: C2_4  and  N1_5 
REMARK    4  A    between atoms: C9_12  and  N2_13 
REMARK    5  A    between atoms: C12_16  and  O2_17 
ROOT
HETATM    1  C2  UNL     1      14.633   9.923  -1.500  1.00  0.00     0.182 C 
HETATM    2  C7  UNL     1      14.112  10.893  -0.480  1.00  0.00     0.046 C 
HETATM    3  C8  UNL     1      15.241  10.944   0.526  1.00  0.00     0.038 C 
HETATM    4  C9  UNL     1      16.431  10.961  -0.369  1.00  0.00     0.225 C 
HETATM    5  C15 UNL     1      16.131   9.825  -1.311  1.00  0.00     0.079 C 
ENDROOT
BRANCH   1   6
HETATM    6  C1  UNL     1      14.043   8.564  -1.188  1.00  0.00     0.206 C 
BRANCH   6   7
HETATM    7  O1  UNL     1      14.959   7.667  -0.655  1.00  0.00    -0.398 OA
ATOM      8  H1  UNL     1      15.764   8.073  -0.356  1.00  0.00     0.209 HD
ENDBRANCH   6   7
ENDBRANCH   1   6
BRANCH   1   9
HETATM    9  N1  UNL     1      14.320  10.268  -2.847  1.00  0.00     0.100 N 
HETATM   10  C3  UNL     1      15.432  10.263  -3.743  1.00  0.00     0.273 C 
HETATM   11  C4  UNL     1      14.861   9.823  -5.097  1.00  0.00     0.032 C 
HETATM   12  C5  UNL     1      13.366   9.945  -4.907  1.00  0.00     0.032 C 
HETATM   13  C6  UNL     1      13.264   9.498  -3.439  1.00  0.00     0.273 C 
ENDBRANCH   1   9
BRANCH   4  14
HETATM   14  N2  UNL     1      17.687  10.829   0.295  1.00  0.00     0.093 N 
HETATM   15  C10 UNL     1      18.640  11.776  -0.169  1.00  0.00     0.275 C 
HETATM   16  C11 UNL     1      20.020  11.189   0.153  1.00  0.00     0.062 C 
HETATM   17  C12 UNL     1      20.101  10.930   1.619  1.00  0.00     0.121 C 
HETATM   18  C13 UNL     1      18.843  11.235   2.374  1.00  0.00     0.062 C 
HETATM   19  C14 UNL     1      17.600  10.722   1.723  1.00  0.00     0.275 C 
BRANCH  17  20
HETATM   20  O2  UNL     1      21.103  11.777   2.137  1.00  0.00    -0.395 OA
ATOM     21  H2  UNL     1      20.667  12.441   2.658  1.00  0.00     0.210 HD
ENDBRANCH  17  20
ENDBRANCH   4  14
TORSDOF 5
ENDMDL
MODEL 3
REMARK VINA RESULT: -6.992698783      1.849      6.427
REMARK  5 active torsions:
REMARK  status: ('A' for Active; 'I' for Inactive)
REMARK    1  A    between atoms: O1_1  and  C1_3 
REMARK    2  A    between atoms: C1_3  and  C2_4 
REMARK    3  A    between atoms: C2_4  and  N1_5 
REMARK    4  A    between atoms: C9_12  and  N2_13 
REMARK    5  A    between atoms: C12_16  and  O2_17 
ROOT
HETATM    1  C2  UNL     1      14.925   9.669   4.546  1.00  0.00     0.182 C 
HETATM    2  C7  UNL     1      15.337  11.090   4.285  1.00  0.00     0.046 C 
HETATM    3  C8  UNL     1      15.296  11.167   2.774  1.00  0.00     0.038 C 
HETATM    4  C9  UNL     1      14.051  10.404   2.475  1.00  0.00     0.225 C 
HETATM    5  C15 UNL     1      14.245   9.156   3.296  1.00  0.00     0.079 C 
ENDROOT
BRANCH   1   6
HETATM    6  C1  UNL     1      16.185   8.854   4.748  1.00  0.00     0.206 C 
BRANCH   6   7
HETATM    7  O1  UNL     1      16.497   8.032   3.674  1.00  0.00    -0.398 OA
ATOM      8  H1  UNL     1      16.631   7.123   3.914  1.00  0.00     0.209 HD
ENDBRANCH   6   7
ENDBRANCH   1   6
BRANCH   1   9
HETATM    9  N1  UNL     1      14.077   9.506   5.680  1.00  0.00     0.100 N 
HETATM   10  C3  UNL     1      14.193   8.247   6.343  1.00  0.00     0.273 C 
HETATM   11  C4  UNL     1      13.938   8.544   7.826  1.00  0.00     0.032 C 
HETATM   12  C5  UNL     1      13.354   9.938   7.812  1.00  0.00     0.032 C 
HETATM   13  C6  UNL     1      14.181  10.544   6.666  1.00  0.00     0.273 C 
ENDBRANCH   1   9
BRANCH   4  14
HETATM   14  N2  UNL     1      13.824  10.141   1.091  1.00  0.00     0.093 N 
HETATM   15  C10 UNL     1      14.575  11.009   0.252  1.00  0.00     0.275 C 
HETATM   16  C11 UNL     1      13.846  11.039  -1.097  1.00  0.00     0.062 C 
HETATM   17  C12 UNL     1      13.743   9.646  -1.617  1.00  0.00     0.121 C 
HETATM   18  C13 UNL     1      14.298   8.598  -0.702  1.00  0.00     0.062 C 
HETATM   19  C14 UNL     1      13.889   8.756   0.726  1.00  0.00     0.275 C 
BRANCH  17  20
HETATM   20  O2  UNL     1      14.498   9.590  -2.807  1.00  0.00    -0.395 OA
ATOM     21  H2  UNL     1      14.569   8.674  -3.052  1.00  0.00     0.210 HD
ENDBRANCH  17  20
ENDBRANCH   4  14
TORSDOF 5
ENDMDL
MODEL 4
REMARK VINA RESULT: -6.915190582      2.059      6.519
REMARK  5 active torsions:
REMARK  status: ('A' for Active; 'I' for Inactive)
REMARK    1  A    between atoms: O1_1  and  C1_3 
REMARK    2  A    between atoms: C1_3  and  C2_4 
REMARK    3  A    between atoms: C2_4  and  N1_5 
REMARK    4  A    between atoms: C9_12  and  N2_13 
REMARK    5  A    between atoms: C12_16  and  O2_17 
ROOT
HETATM    1  C2  UNL     1      15.511  10.045   3.675  1.00  0.00     0.182 C 
HETATM    2  C7  UNL     1      16.124  11.348   3.249  1.00  0.00     0.046 C 
HETATM    3  C8  UNL     1      16.171  11.207   1.743  1.00  0.00     0.038 C 
HETATM    4  C9  UNL     1      14.851  10.573   1.467  1.00  0.00     0.225 C 
HETATM    5  C15 UNL     1      14.831   9.445   2.464  1.00  0.00     0.079 C 
ENDROOT
BRANCH   1   6
HETATM    6  C1  UNL     1      16.635   9.115   4.076  1.00  0.00     0.206 C 
BRANCH   6   7
HETATM    7  O1  UNL     1      16.552   7.856   3.496  1.00  0.00    -0.398 OA
ATOM      8  H1  UNL     1      17.098   7.203   3.919  1.00  0.00     0.209 HD
ENDBRANCH   6   7
ENDBRANCH   1   6
BRANCH   1   9
HETATM    9  N1  UNL     1      14.592  10.160   4.759  1.00  0.00     0.100 N 
HETATM   10  C3  UNL     1      13.726   9.039   4.936  1.00  0.00     0.273 C 
HETATM   11  C4  UNL     1      13.484   8.946   6.447  1.00  0.00     0.032 C 
HETATM   12  C5  UNL     1      13.989  10.272   6.968  1.00  0.00     0.032 C 
HETATM   13  C6  UNL     1      15.189  10.471   6.027  1.00  0.00     0.273 C 
ENDBRANCH   1   9
BRANCH   4  14
HETATM   14  N2  UNL     1      14.660  10.142   0.120  1.00  0.00     0.093 N 
HETATM   15  C10 UNL     1      13.628  10.868  -0.533  1.00  0.00     0.275 C 
HETATM   16  C11 UNL     1      13.137   9.978  -1.682  1.00  0.00     0.062 C 
HETATM   17  C12 UNL     1      14.293   9.657  -2.567  1.00  0.00     0.121 C 
HETATM   18  C13 UNL     1      15.605  10.208  -2.099  1.00  0.00     0.062 C 
HETATM   19  C14 UNL     1      15.868  10.007  -0.642  1.00  0.00     0.275 C 
BRANCH  17  20
HETATM   20  O2  UNL     1      14.030  10.241  -3.823  1.00  0.00    -0.395 OA
ATOM     21  H2  UNL     1      14.762  10.812  -4.026  1.00  0.00     0.210 HD
ENDBRANCH  17  20
ENDBRANCH   4  14
TORSDOF 5
ENDMDL
MODEL 5
REMARK VINA RESULT: -6.802601465      1.737      6.743
REMARK  5 active torsions:
REMARK  status: ('A' for Active; 'I' for Inactive)
REMARK    1  A    between atoms: O1_1  and  C1_3 
REMARK    2  A    between atoms: C1_3  and  C2_4 
REMARK    3  A    between atoms: C2_4  and  N1_5 
REMARK    4  A    between atoms: C9_12  and  N2_13 
REMARK    5  A    between atoms: C12_16  and  O2_17 
ROOT
HETATM    1  C2  UNL     1      14.721   9.146   6.754  1.00  0.00     0.182 C 
HETATM    2  C7  UNL     1      16.097   9.644   6.419  1.00  0.00     0.046 C 
HETATM    3  C8  UNL     1      16.205   9.327   4.943  1.00  0.00     0.038 C 
HETATM    4  C9  UNL     1      14.848   9.707   4.461  1.00  0.00     0.225 C 
HETATM    5  C15 UNL     1      13.956   9.011   5.455  1.00  0.00     0.079 C 
ENDROOT
BRANCH   1   6
HETATM    6  C1  UNL     1      14.863   7.761   7.347  1.00  0.00     0.206 C 
BRANCH   6   7
HETATM    7  O1  UNL     1      16.144   7.475   7.797  1.00  0.00    -0.398 OA
ATOM      8  H1  UNL     1      16.365   6.551   7.760  1.00  0.00     0.209 HD
ENDBRANCH   6   7
ENDBRANCH   1   6
BRANCH   1   9
HETATM    9  N1  UNL     1      14.008   9.975   7.670  1.00  0.00     0.100 N 
HETATM   10  C3  UNL     1      12.820   9.394   8.208  1.00  0.00     0.273 C 
HETATM   11  C4  UNL     1      12.702   9.953   9.631  1.00  0.00     0.032 C 
HETATM   12  C5  UNL     1      13.692  11.095   9.645  1.00  0.00     0.032 C 
HETATM   13  C6  UNL     1      14.791  10.485   8.759  1.00  0.00     0.273 C 
ENDBRANCH   1   9
BRANCH   4  14
HETATM   14  N2  UNL     1      14.569   9.354   3.106  1.00  0.00     0.093 N 
HETATM   15  C10 UNL     1      13.178   9.389   2.821  1.00  0.00     0.275 C 
HETATM   16  C11 UNL     1      12.965   8.475   1.608  1.00  0.00     0.062 C 
HETATM   17  C12 UNL     1      13.818   8.961   0.486  1.00  0.00     0.121 C 
HETATM   18  C13 UNL     1      14.682  10.135   0.827  1.00  0.00     0.062 C 
HETATM   19  C14 UNL     1      15.394  10.011   2.134  1.00  0.00     0.275 C 
BRANCH  17  20
HETATM   20  O2  UNL     1      12.950   9.378  -0.545  1.00  0.00    -0.395 OA
ATOM     21  H2  UNL     1      13.444   9.964  -1.107  1.00  0.00     0.210 HD
ENDBRANCH  17  20
ENDBRANCH   4  14
TORSDOF 5
ENDMDL
