MODEL 1
REMARK VINA RESULT: -4.437008587      0.000      0.000
REMARK  5 active torsions:
REMARK  status: ('A' for Active; 'I' for Inactive)
REMARK    1  A    between atoms: N1_2  and  C1_4 
REMARK    2  A    between atoms: C1_4  and  C2_5 
REMARK    3  A    between atoms: C2_5  and  S1_6 
REMARK    4  A    between atoms: S1_6  and  C3_7 
REMARK    5  A    between atoms: C3_7  and  N2_9 
ROOT
HETATM    1  C3  UNL     1     -59.291 -69.020  20.995  1.00  0.00     0.138 C 
HETATM    2  S2  UNL     1     -60.566 -68.048  21.386  1.00  0.00    -0.053 SA
ENDROOT
BRANCH   1   3
HETATM    3  S1  UNL     1     -58.299 -68.744  19.554  1.00  0.00    -0.099 SA
BRANCH   3   4
HETATM    4  C2  UNL     1     -58.104 -66.998  19.157  1.00  0.00     0.108 C 
BRANCH   4   5
HETATM    5  C1  UNL     1     -57.072 -66.764  18.079  1.00  0.00     0.212 C 
BRANCH   5   6
HETATM    6  N1  UNL     1     -56.186 -65.710  18.507  1.00  0.00    -0.155 N 
HETATM    7  O1  UNL     1     -55.741 -65.708  19.648  1.00  0.00    -0.537 OA
HETATM    8  O2  UNL     1     -55.848 -64.716  17.636  1.00  0.00    -0.537 OA
ENDBRANCH   5   6
ENDBRANCH   4   5
ENDBRANCH   3   4
ENDBRANCH   1   3
BRANCH   1   9
HETATM    9  N2  UNL     1     -59.012 -70.080  21.849  1.00  0.00    -0.343 N 
HETATM   10  C4  UNL     1     -58.942 -71.477  21.534  1.00  0.00     0.152 C 
HETATM   11  C5  UNL     1     -57.824 -71.902  22.488  1.00  0.00     0.189 C 
HETATM   12  O3  UNL     1     -57.654 -70.870  23.386  1.00  0.00    -0.370 OA
HETATM   13  C6  UNL     1     -58.727 -69.986  23.253  1.00  0.00     0.294 C 
ENDBRANCH   1   9
TORSDOF 5
ENDMDL
MODEL 2
REMARK VINA RESULT: -4.310973103      1.240      1.394
REMARK  5 active torsions:
REMARK  status: ('A' for Active; 'I' for Inactive)
REMARK    1  A    between atoms: N1_2  and  C1_4 
REMARK    2  A    between atoms: C1_4  and  C2_5 
REMARK    3  A    between atoms: C2_5  and  S1_6 
REMARK    4  A    between atoms: S1_6  and  C3_7 
REMARK    5  A    between atoms: C3_7  and  N2_9 
ROOT
HETATM    1  C3  UNL     1     -59.887 -68.866  20.741  1.00  0.00     0.138 C 
HETATM    2  S2  UNL     1     -60.863 -68.405  21.989  1.00  0.00    -0.053 SA
ENDROOT
BRANCH   1   3
HETATM    3  S1  UNL     1     -59.536 -67.799  19.372  1.00  0.00    -0.099 SA
BRANCH   3   4
HETATM    4  C2  UNL     1     -57.839 -67.196  19.366  1.00  0.00     0.108 C 
BRANCH   4   5
HETATM    5  C1  UNL     1     -57.609 -66.130  18.320  1.00  0.00     0.212 C 
BRANCH   5   6
HETATM    6  N1  UNL     1     -56.332 -65.507  18.567  1.00  0.00    -0.155 N 
HETATM    7  O1  UNL     1     -55.722 -65.748  19.601  1.00  0.00    -0.537 OA
HETATM    8  O2  UNL     1     -55.810 -64.649  17.644  1.00  0.00    -0.537 OA
ENDBRANCH   5   6
ENDBRANCH   4   5
ENDBRANCH   3   4
ENDBRANCH   1   3
BRANCH   1   9
HETATM    9  N2  UNL     1     -59.337 -70.141  20.799  1.00  0.00    -0.343 N 
HETATM   10  C4  UNL     1     -57.952 -70.507  20.850  1.00  0.00     0.152 C 
HETATM   11  C5  UNL     1     -58.043 -71.743  21.748  1.00  0.00     0.189 C 
HETATM   12  O3  UNL     1     -59.375 -72.095  21.804  1.00  0.00    -0.370 OA
HETATM   13  C6  UNL     1     -60.064 -71.379  20.824  1.00  0.00     0.294 C 
ENDBRANCH   1   9
TORSDOF 5
ENDMDL
MODEL 3
REMARK VINA RESULT: -4.252520317      0.925      1.524
REMARK  5 active torsions:
REMARK  status: ('A' for Active; 'I' for Inactive)
REMARK    1  A    between atoms: N1_2  and  C1_4 
REMARK    2  A    between atoms: C1_4  and  C2_5 
REMARK    3  A    between atoms: C2_5  and  S1_6 
REMARK    4  A    between atoms: S1_6  and  C3_7 
REMARK    5  A    between atoms: C3_7  and  N2_9 
ROOT
HETATM    1  C3  UNL     1     -59.633 -68.726  21.066  1.00  0.00     0.138 C 
HETATM    2  S2  UNL     1     -60.948 -68.338  21.984  1.00  0.00    -0.053 SA
ENDROOT
BRANCH   1   3
HETATM    3  S1  UNL     1     -59.349 -68.011  19.472  1.00  0.00    -0.099 SA
BRANCH   3   4
HETATM    4  C2  UNL     1     -57.680 -67.363  19.277  1.00  0.00     0.108 C 
BRANCH   4   5
HETATM    5  C1  UNL     1     -57.615 -66.223  18.288  1.00  0.00     0.212 C 
BRANCH   5   6
HETATM    6  N1  UNL     1     -56.389 -65.495  18.501  1.00  0.00    -0.155 N 
HETATM    7  O1  UNL     1     -56.032 -64.645  17.695  1.00  0.00    -0.537 OA
HETATM    8  O2  UNL     1     -55.630 -65.758  19.604  1.00  0.00    -0.537 OA
ENDBRANCH   5   6
ENDBRANCH   4   5
ENDBRANCH   3   4
ENDBRANCH   1   3
BRANCH   1   9
HETATM    9  N2  UNL     1     -58.737 -69.648  21.594  1.00  0.00    -0.343 N 
HETATM   10  C4  UNL     1     -58.425 -69.892  22.972  1.00  0.00     0.152 C 
HETATM   11  C5  UNL     1     -58.188 -71.404  22.920  1.00  0.00     0.189 C 
HETATM   12  O3  UNL     1     -58.064 -71.740  21.589  1.00  0.00    -0.370 OA
HETATM   13  C6  UNL     1     -57.925 -70.566  20.846  1.00  0.00     0.294 C 
ENDBRANCH   1   9
TORSDOF 5
ENDMDL
MODEL 4
REMARK VINA RESULT: -4.228148276      1.269      1.305
REMARK  5 active torsions:
REMARK  status: ('A' for Active; 'I' for Inactive)
REMARK    1  A    between atoms: N1_2  and  C1_4 
REMARK    2  A    between atoms: C1_4  and  C2_5 
REMARK    3  A    between atoms: C2_5  and  S1_6 
REMARK    4  A    between atoms: S1_6  and  C3_7 
REMARK    5  A    between atoms: C3_7  and  N2_9 
ROOT
HETATM    1  C3  UNL     1     -60.141 -69.699  20.540  1.00  0.00     0.138 C 
HETATM    2  S2  UNL     1     -61.407 -70.471  19.816  1.00  0.00    -0.053 SA
ENDROOT
BRANCH   1   3
HETATM    3  S1  UNL     1     -59.699 -68.031  20.144  1.00  0.00    -0.099 SA
BRANCH   3   4
HETATM    4  C2  UNL     1     -58.001 -67.869  19.569  1.00  0.00     0.108 C 
BRANCH   4   5
HETATM    5  C1  UNL     1     -57.763 -66.574  18.829  1.00  0.00     0.212 C 
BRANCH   5   6
HETATM    6  N1  UNL     1     -56.343 -66.335  18.759  1.00  0.00    -0.155 N 
HETATM    7  O1  UNL     1     -55.791 -65.658  19.618  1.00  0.00    -0.537 OA
HETATM    8  O2  UNL     1     -55.618 -66.865  17.732  1.00  0.00    -0.537 OA
ENDBRANCH   5   6
ENDBRANCH   4   5
ENDBRANCH   3   4
ENDBRANCH   1   3
BRANCH   1   9
HETATM    9  N2  UNL     1     -59.420 -70.411  21.491  1.00  0.00    -0.343 N 
HETATM   10  C4  UNL     1     -59.125 -71.814  21.512  1.00  0.00     0.152 C 
HETATM   11  C5  UNL     1     -57.730 -71.777  22.142  1.00  0.00     0.189 C 
HETATM   12  O3  UNL     1     -57.568 -70.513  22.670  1.00  0.00    -0.370 OA
HETATM   13  C6  UNL     1     -58.808 -69.870  22.672  1.00  0.00     0.294 C 
ENDBRANCH   1   9
TORSDOF 5
ENDMDL
MODEL 5
REMARK VINA RESULT: -4.175406565      1.030      1.322
REMARK  5 active torsions:
REMARK  status: ('A' for Active; 'I' for Inactive)
REMARK    1  A    between atoms: N1_2  and  C1_4 
REMARK    2  A    between atoms: C1_4  and  C2_5 
REMARK    3  A    between atoms: C2_5  and  S1_6 
REMARK    4  A    between atoms: S1_6  and  C3_7 
REMARK    5  A    between atoms: C3_7  and  N2_9 
ROOT
HETATM    1  C3  UNL     1     -59.438 -69.116  21.040  1.00  0.00     0.138 C 
HETATM    2  S2  UNL     1     -60.562 -68.015  21.535  1.00  0.00    -0.053 SA
ENDROOT
BRANCH   1   3
HETATM    3  S1  UNL     1     -58.439 -68.865  19.600  1.00  0.00    -0.099 SA
BRANCH   3   4
HETATM    4  C2  UNL     1     -57.988 -67.140  19.347  1.00  0.00     0.108 C 
BRANCH   4   5
HETATM    5  C1  UNL     1     -56.992 -66.962  18.226  1.00  0.00     0.212 C 
BRANCH   5   6
HETATM    6  N1  UNL     1     -56.126 -65.855  18.547  1.00  0.00    -0.155 N 
HETATM    7  O1  UNL     1     -55.699 -65.720  19.687  1.00  0.00    -0.537 OA
HETATM    8  O2  UNL     1     -55.786 -64.959  17.576  1.00  0.00    -0.537 OA
ENDBRANCH   5   6
ENDBRANCH   4   5
ENDBRANCH   3   4
ENDBRANCH   1   3
BRANCH   1   9
HETATM    9  N2  UNL     1     -59.294 -70.268  21.804  1.00  0.00    -0.343 N 
HETATM   10  C4  UNL     1     -59.935 -70.595  23.044  1.00  0.00     0.152 C 
HETATM   11  C5  UNL     1     -60.097 -72.107  22.861  1.00  0.00     0.189 C 
HETATM   12  O3  UNL     1     -59.293 -72.466  21.800  1.00  0.00    -0.370 OA
HETATM   13  C6  UNL     1     -58.455 -71.392  21.495  1.00  0.00     0.294 C 
ENDBRANCH   1   9
TORSDOF 5
ENDMDL
