MODEL 1
REMARK VINA RESULT: -4.359526235      0.000      0.000
REMARK  5 active torsions:
REMARK  status: ('A' for Active; 'I' for Inactive)
REMARK    1  A    between atoms: O1_2  and  C2_3 
REMARK    2  A    between atoms: C2_3  and  C3_4 
REMARK    3  A    between atoms: C3_4  and  O2_5 
REMARK    4  A    between atoms: O2_5  and  C4_6 
REMARK    5  A    between atoms: C4_6  and  N1_8 
ROOT
HETATM    1  N1  UNL     1     -59.076 -69.439  20.882  1.00  0.00    -0.218 N 
HETATM    2  O3  UNL     1     -58.796 -70.750  20.725  1.00  0.00    -0.249 OA
HETATM    3  C5  UNL     1     -57.697 -71.030  21.538  1.00  0.00     0.370 C 
HETATM    4  O4  UNL     1     -57.778 -70.430  22.780  1.00  0.00    -0.362 OA
HETATM    5  C6  UNL     1     -59.121 -70.195  23.134  1.00  0.00     0.198 C 
HETATM    6  C7  UNL     1     -59.581 -69.060  22.206  1.00  0.00     0.138 C 
HETATM    7  C8  UNL     1     -61.073 -69.032  22.230  1.00  0.00     0.037 C 
ENDROOT
BRANCH   1   8
HETATM    8  C4  UNL     1     -58.891 -68.515  19.845  1.00  0.00     0.237 C 
HETATM    9  S1  UNL     1     -59.792 -68.677  18.496  1.00  0.00    -0.031 SA
BRANCH   8  10
HETATM   10  O2  UNL     1     -57.990 -67.484  19.914  1.00  0.00    -0.323 OA
BRANCH  10  11
HETATM   11  C3  UNL     1     -57.639 -66.625  18.869  1.00  0.00     0.204 C 
BRANCH  11  12
HETATM   12  C2  UNL     1     -56.240 -66.081  18.981  1.00  0.00     0.193 C 
BRANCH  12  13
HETATM   13  O1  UNL     1     -56.014 -64.952  18.233  1.00  0.00    -0.394 OA
HETATM   14  C1  UNL     1     -56.991 -64.717  17.296  1.00  0.00     0.201 C 
ENDBRANCH  12  13
ENDBRANCH  11  12
ENDBRANCH  10  11
ENDBRANCH   8  10
ENDBRANCH   1   8
TORSDOF 5
ENDMDL
MODEL 2
REMARK VINA RESULT: -4.306624530      2.629      4.231
REMARK  5 active torsions:
REMARK  status: ('A' for Active; 'I' for Inactive)
REMARK    1  A    between atoms: O1_2  and  C2_3 
REMARK    2  A    between atoms: C2_3  and  C3_4 
REMARK    3  A    between atoms: C3_4  and  O2_5 
REMARK    4  A    between atoms: O2_5  and  C4_6 
REMARK    5  A    between atoms: C4_6  and  N1_8 
ROOT
HETATM    1  N1  UNL     1     -59.239 -69.516  20.721  1.00  0.00    -0.218 N 
HETATM    2  O3  UNL     1     -59.002 -70.845  20.774  1.00  0.00    -0.249 OA
HETATM    3  C5  UNL     1     -57.822 -71.016  21.498  1.00  0.00     0.370 C 
HETATM    4  O4  UNL     1     -57.748 -70.203  22.612  1.00  0.00    -0.362 OA
HETATM    5  C6  UNL     1     -59.037 -69.858  23.064  1.00  0.00     0.198 C 
HETATM    6  C7  UNL     1     -59.581 -68.889  22.002  1.00  0.00     0.138 C 
HETATM    7  C8  UNL     1     -61.060 -68.800  22.185  1.00  0.00     0.037 C 
ENDROOT
BRANCH   1   8
HETATM    8  C4  UNL     1     -59.159 -68.800  19.520  1.00  0.00     0.237 C 
HETATM    9  S1  UNL     1     -58.070 -67.591  19.410  1.00  0.00    -0.031 SA
BRANCH   8  10
HETATM   10  O2  UNL     1     -59.952 -69.071  18.434  1.00  0.00    -0.323 OA
BRANCH  10  11
HETATM   11  C3  UNL     1     -61.348 -69.012  18.399  1.00  0.00     0.204 C 
BRANCH  11  12
HETATM   12  C2  UNL     1     -62.006 -70.364  18.325  1.00  0.00     0.193 C 
BRANCH  12  13
HETATM   13  O1  UNL     1     -62.138 -70.991  19.540  1.00  0.00    -0.394 OA
HETATM   14  C1  UNL     1     -62.087 -72.361  19.453  1.00  0.00     0.201 C 
ENDBRANCH  12  13
ENDBRANCH  11  12
ENDBRANCH  10  11
ENDBRANCH   8  10
ENDBRANCH   1   8
TORSDOF 5
ENDMDL
MODEL 3
REMARK VINA RESULT: -4.289058495      2.313      2.607
REMARK  5 active torsions:
REMARK  status: ('A' for Active; 'I' for Inactive)
REMARK    1  A    between atoms: O1_2  and  C2_3 
REMARK    2  A    between atoms: C2_3  and  C3_4 
REMARK    3  A    between atoms: C3_4  and  O2_5 
REMARK    4  A    between atoms: O2_5  and  C4_6 
REMARK    5  A    between atoms: C4_6  and  N1_8 
ROOT
HETATM    1  N1  UNL     1     -59.270 -69.477  20.683  1.00  0.00    -0.218 N 
HETATM    2  O3  UNL     1     -59.051 -70.808  20.754  1.00  0.00    -0.249 OA
HETATM    3  C5  UNL     1     -57.867 -70.985  21.469  1.00  0.00     0.370 C 
HETATM    4  O4  UNL     1     -57.770 -70.155  22.570  1.00  0.00    -0.362 OA
HETATM    5  C6  UNL     1     -59.050 -69.785  23.029  1.00  0.00     0.198 C 
HETATM    6  C7  UNL     1     -59.591 -68.826  21.958  1.00  0.00     0.138 C 
HETATM    7  C8  UNL     1     -61.066 -68.713  22.153  1.00  0.00     0.037 C 
ENDROOT
BRANCH   1   8
HETATM    8  C4  UNL     1     -59.192 -68.780  19.470  1.00  0.00     0.237 C 
HETATM    9  S1  UNL     1     -57.928 -67.778  19.233  1.00  0.00    -0.031 SA
BRANCH   8  10
HETATM   10  O2  UNL     1     -60.128 -68.905  18.476  1.00  0.00    -0.323 OA
BRANCH  10  11
HETATM   11  C3  UNL     1     -61.343 -68.219  18.397  1.00  0.00     0.204 C 
BRANCH  11  12
HETATM   12  C2  UNL     1     -61.245 -66.900  17.679  1.00  0.00     0.193 C 
BRANCH  12  13
HETATM   13  O1  UNL     1     -61.002 -65.829  18.503  1.00  0.00    -0.394 OA
HETATM   14  C1  UNL     1     -60.248 -64.846  17.908  1.00  0.00     0.201 C 
ENDBRANCH  12  13
ENDBRANCH  11  12
ENDBRANCH  10  11
ENDBRANCH   8  10
ENDBRANCH   1   8
TORSDOF 5
ENDMDL
MODEL 4
REMARK VINA RESULT: -4.252440372      1.261      1.325
REMARK  5 active torsions:
REMARK  status: ('A' for Active; 'I' for Inactive)
REMARK    1  A    between atoms: O1_2  and  C2_3 
REMARK    2  A    between atoms: C2_3  and  C3_4 
REMARK    3  A    between atoms: C3_4  and  O2_5 
REMARK    4  A    between atoms: O2_5  and  C4_6 
REMARK    5  A    between atoms: C4_6  and  N1_8 
ROOT
HETATM    1  N1  UNL     1     -59.279 -69.653  20.723  1.00  0.00    -0.218 N 
HETATM    2  O3  UNL     1     -59.071 -70.980  20.866  1.00  0.00    -0.249 OA
HETATM    3  C5  UNL     1     -57.861 -71.128  21.544  1.00  0.00     0.370 C 
HETATM    4  O4  UNL     1     -57.713 -70.235  22.588  1.00  0.00    -0.362 OA
HETATM    5  C6  UNL     1     -58.970 -69.822  23.072  1.00  0.00     0.198 C 
HETATM    6  C7  UNL     1     -59.542 -68.922  21.966  1.00  0.00     0.138 C 
HETATM    7  C8  UNL     1     -61.007 -68.779  22.212  1.00  0.00     0.037 C 
ENDROOT
BRANCH   1   8
HETATM    8  C4  UNL     1     -59.242 -69.032  19.467  1.00  0.00     0.237 C 
HETATM    9  S1  UNL     1     -60.578 -69.092  18.535  1.00  0.00    -0.031 SA
BRANCH   8  10
HETATM   10  O2  UNL     1     -58.135 -68.378  18.990  1.00  0.00    -0.323 OA
BRANCH  10  11
HETATM   11  C3  UNL     1     -57.711 -67.099  19.361  1.00  0.00     0.204 C 
BRANCH  11  12
HETATM   12  C2  UNL     1     -57.946 -66.055  18.302  1.00  0.00     0.193 C 
BRANCH  12  13
HETATM   13  O1  UNL     1     -59.259 -65.674  18.172  1.00  0.00    -0.394 OA
HETATM   14  C1  UNL     1     -59.415 -64.484  17.503  1.00  0.00     0.201 C 
ENDBRANCH  12  13
ENDBRANCH  11  12
ENDBRANCH  10  11
ENDBRANCH   8  10
ENDBRANCH   1   8
TORSDOF 5
ENDMDL
MODEL 5
REMARK VINA RESULT: -4.162726401      1.400      2.167
REMARK  5 active torsions:
REMARK  status: ('A' for Active; 'I' for Inactive)
REMARK    1  A    between atoms: O1_2  and  C2_3 
REMARK    2  A    between atoms: C2_3  and  C3_4 
REMARK    3  A    between atoms: C3_4  and  O2_5 
REMARK    4  A    between atoms: O2_5  and  C4_6 
REMARK    5  A    between atoms: C4_6  and  N1_8 
ROOT
HETATM    1  N1  UNL     1     -59.536 -69.102  21.055  1.00  0.00    -0.218 N 
HETATM    2  O3  UNL     1     -60.084 -68.873  22.268  1.00  0.00    -0.249 OA
HETATM    3  C5  UNL     1     -61.350 -69.460  22.257  1.00  0.00     0.370 C 
HETATM    4  O4  UNL     1     -61.364 -70.704  21.657  1.00  0.00    -0.362 OA
HETATM    5  C6  UNL     1     -60.094 -71.309  21.735  1.00  0.00     0.198 C 
HETATM    6  C7  UNL     1     -59.213 -70.504  20.768  1.00  0.00     0.138 C 
HETATM    7  C8  UNL     1     -57.788 -70.809  21.091  1.00  0.00     0.037 C 
ENDROOT
BRANCH   1   8
HETATM    8  C4  UNL     1     -59.299 -68.064  20.144  1.00  0.00     0.237 C 
HETATM    9  S1  UNL     1     -60.529 -67.575  19.193  1.00  0.00    -0.031 SA
BRANCH   8  10
HETATM   10  O2  UNL     1     -58.084 -67.442  20.020  1.00  0.00    -0.323 OA
BRANCH  10  11
HETATM   11  C3  UNL     1     -57.659 -66.674  18.933  1.00  0.00     0.204 C 
BRANCH  11  12
HETATM   12  C2  UNL     1     -56.349 -65.970  19.168  1.00  0.00     0.193 C 
BRANCH  12  13
HETATM   13  O1  UNL     1     -55.731 -65.535  18.021  1.00  0.00    -0.394 OA
HETATM   14  C1  UNL     1     -56.402 -64.511  17.398  1.00  0.00     0.201 C 
ENDBRANCH  12  13
ENDBRANCH  11  12
ENDBRANCH  10  11
ENDBRANCH   8  10
ENDBRANCH   1   8
TORSDOF 5
ENDMDL
