MODEL 1
REMARK VINA RESULT: -4.758289087      0.000      0.000
REMARK  3 active torsions:
REMARK  status: ('A' for Active; 'I' for Inactive)
REMARK    1  A    between atoms: O1_2  and  C2_3 
REMARK    2  A    between atoms: C4_6  and  C5_7 
REMARK    3  A    between atoms: C5_7  and  N1_9 
ROOT
HETATM    1  C5  UNL     1     -59.805 -68.775  21.822  1.00  0.00     0.258 C 
HETATM    2  C6  UNL     1     -61.014 -67.900  21.984  1.00  0.00     0.046 C 
ENDROOT
BRANCH   1   3
HETATM    3  C4  UNL     1     -59.527 -68.923  20.353  1.00  0.00     0.219 C 
HETATM    4  S1  UNL     1     -60.531 -67.749  19.358  1.00  0.00    -0.130 SA
HETATM    5  C3  UNL     1     -59.143 -67.438  18.188  1.00  0.00     0.137 C 
HETATM    6  C2  UNL     1     -57.991 -67.837  19.059  1.00  0.00     0.270 C 
HETATM    7  O3  UNL     1     -58.274 -68.776  19.932  1.00  0.00    -0.343 OA
BRANCH   6   8
HETATM    8  O1  UNL     1     -57.456 -66.663  19.590  1.00  0.00    -0.365 OA
HETATM    9  C1  UNL     1     -56.482 -66.095  18.772  1.00  0.00     0.204 C 
ENDBRANCH   6   8
ENDBRANCH   1   3
BRANCH   1  10
HETATM   10  N1  UNL     1     -60.021 -70.054  22.404  1.00  0.00     0.100 N 
HETATM   11  C7  UNL     1     -60.192 -71.128  21.493  1.00  0.00     0.299 C 
HETATM   12  C8  UNL     1     -59.722 -72.466  21.996  1.00  0.00     0.198 C 
HETATM   13  O2  UNL     1     -58.502 -72.467  22.587  1.00  0.00    -0.388 OA
HETATM   14  C9  UNL     1     -58.025 -71.224  22.965  1.00  0.00     0.198 C 
HETATM   15  C10 UNL     1     -59.180 -70.425  23.485  1.00  0.00     0.299 C 
ENDBRANCH   1  10
TORSDOF 3
ENDMDL
MODEL 2
REMARK VINA RESULT: -4.697565476      1.755      2.293
REMARK  3 active torsions:
REMARK  status: ('A' for Active; 'I' for Inactive)
REMARK    1  A    between atoms: O1_2  and  C2_3 
REMARK    2  A    between atoms: C4_6  and  C5_7 
REMARK    3  A    between atoms: C5_7  and  N1_9 
ROOT
HETATM    1  C5  UNL     1     -59.417 -68.562  21.382  1.00  0.00     0.258 C 
HETATM    2  C6  UNL     1     -60.727 -68.720  22.095  1.00  0.00     0.046 C 
ENDROOT
BRANCH   1   3
HETATM    3  C4  UNL     1     -59.655 -68.763  19.913  1.00  0.00     0.219 C 
HETATM    4  S1  UNL     1     -61.392 -69.257  19.576  1.00  0.00    -0.130 SA
HETATM    5  C3  UNL     1     -61.465 -68.233  18.047  1.00  0.00     0.137 C 
HETATM    6  C2  UNL     1     -60.366 -67.261  18.347  1.00  0.00     0.270 C 
HETATM    7  O3  UNL     1     -59.400 -67.751  19.090  1.00  0.00    -0.343 OA
BRANCH   6   8
HETATM    8  O1  UNL     1     -60.970 -66.101  18.834  1.00  0.00    -0.365 OA
HETATM    9  C1  UNL     1     -60.607 -64.962  18.119  1.00  0.00     0.204 C 
ENDBRANCH   6   8
ENDBRANCH   1   3
BRANCH   1  10
HETATM   10  N1  UNL     1     -58.464 -69.507  21.852  1.00  0.00     0.100 N 
HETATM   11  C7  UNL     1     -58.619 -69.925  23.199  1.00  0.00     0.299 C 
HETATM   12  C8  UNL     1     -58.154 -71.328  23.485  1.00  0.00     0.198 C 
HETATM   13  O2  UNL     1     -58.560 -72.265  22.594  1.00  0.00    -0.388 OA
HETATM   14  C9  UNL     1     -59.024 -71.774  21.385  1.00  0.00     0.198 C 
HETATM   15  C10 UNL     1     -58.169 -70.606  21.003  1.00  0.00     0.299 C 
ENDBRANCH   1  10
TORSDOF 3
ENDMDL
MODEL 3
REMARK VINA RESULT: -4.641055127      2.276      5.602
REMARK  3 active torsions:
REMARK  status: ('A' for Active; 'I' for Inactive)
REMARK    1  A    between atoms: O1_2  and  C2_3 
REMARK    2  A    between atoms: C4_6  and  C5_7 
REMARK    3  A    between atoms: C5_7  and  N1_9 
ROOT
HETATM    1  C5  UNL     1     -58.829 -67.918  19.674  1.00  0.00     0.258 C 
HETATM    2  C6  UNL     1     -57.985 -69.072  19.220  1.00  0.00     0.046 C 
ENDROOT
BRANCH   1   3
HETATM    3  C4  UNL     1     -59.788 -68.419  20.717  1.00  0.00     0.219 C 
HETATM    4  S1  UNL     1     -60.267 -70.165  20.403  1.00  0.00    -0.130 SA
HETATM    5  C3  UNL     1     -60.248 -70.571  22.199  1.00  0.00     0.137 C 
HETATM    6  C2  UNL     1     -59.347 -69.479  22.690  1.00  0.00     0.270 C 
HETATM    7  O3  UNL     1     -59.413 -68.369  21.991  1.00  0.00    -0.343 OA
BRANCH   6   8
HETATM    8  O1  UNL     1     -58.073 -70.033  22.824  1.00  0.00    -0.365 OA
HETATM    9  C1  UNL     1     -58.096 -71.318  23.360  1.00  0.00     0.204 C 
ENDBRANCH   6   8
ENDBRANCH   1   3
BRANCH   1  10
HETATM   10  N1  UNL     1     -59.551 -67.356  18.585  1.00  0.00     0.100 N 
HETATM   11  C7  UNL     1     -60.684 -66.574  18.931  1.00  0.00     0.299 C 
HETATM   12  C8  UNL     1     -61.004 -65.461  17.970  1.00  0.00     0.198 C 
HETATM   13  O2  UNL     1     -59.944 -64.709  17.582  1.00  0.00    -0.388 OA
HETATM   14  C9  UNL     1     -58.700 -65.267  17.822  1.00  0.00     0.198 C 
HETATM   15  C10 UNL     1     -58.795 -66.737  17.556  1.00  0.00     0.299 C 
ENDBRANCH   1  10
TORSDOF 3
ENDMDL
MODEL 4
REMARK VINA RESULT: -4.574679612      1.761      2.062
REMARK  3 active torsions:
REMARK  status: ('A' for Active; 'I' for Inactive)
REMARK    1  A    between atoms: O1_2  and  C2_3 
REMARK    2  A    between atoms: C4_6  and  C5_7 
REMARK    3  A    between atoms: C5_7  and  N1_9 
ROOT
HETATM    1  C5  UNL     1     -59.450 -68.612  20.793  1.00  0.00     0.258 C 
HETATM    2  C6  UNL     1     -60.639 -67.929  21.401  1.00  0.00     0.046 C 
ENDROOT
BRANCH   1   3
HETATM    3  C4  UNL     1     -59.636 -68.642  19.303  1.00  0.00     0.219 C 
HETATM    4  S1  UNL     1     -61.409 -68.827  18.853  1.00  0.00    -0.130 SA
HETATM    5  C3  UNL     1     -61.244 -67.672  17.428  1.00  0.00     0.137 C 
HETATM    6  C2  UNL     1     -60.028 -66.914  17.863  1.00  0.00     0.270 C 
HETATM    7  O3  UNL     1     -59.187 -67.612  18.592  1.00  0.00    -0.343 OA
BRANCH   6   8
HETATM    8  O1  UNL     1     -60.475 -65.722  18.435  1.00  0.00    -0.365 OA
HETATM    9  C1  UNL     1     -59.893 -64.595  17.860  1.00  0.00     0.204 C 
ENDBRANCH   6   8
ENDBRANCH   1   3
BRANCH   1  10
HETATM   10  N1  UNL     1     -59.314 -69.937  21.290  1.00  0.00     0.100 N 
HETATM   11  C7  UNL     1     -58.117 -70.612  20.936  1.00  0.00     0.299 C 
HETATM   12  C8  UNL     1     -57.636 -71.621  21.943  1.00  0.00     0.198 C 
HETATM   13  O2  UNL     1     -57.641 -71.200  23.232  1.00  0.00    -0.388 OA
HETATM   14  C9  UNL     1     -58.402 -70.072  23.485  1.00  0.00     0.198 C 
HETATM   15  C10 UNL     1     -59.644 -70.156  22.653  1.00  0.00     0.299 C 
ENDBRANCH   1  10
TORSDOF 3
ENDMDL
MODEL 5
REMARK VINA RESULT: -4.568857251      2.052      5.375
REMARK  3 active torsions:
REMARK  status: ('A' for Active; 'I' for Inactive)
REMARK    1  A    between atoms: O1_2  and  C2_3 
REMARK    2  A    between atoms: C4_6  and  C5_7 
REMARK    3  A    between atoms: C5_7  and  N1_9 
ROOT
HETATM    1  C5  UNL     1     -60.410 -69.095  20.945  1.00  0.00     0.258 C 
HETATM    2  C6  UNL     1     -61.126 -68.704  22.204  1.00  0.00     0.046 C 
ENDROOT
BRANCH   1   3
HETATM    3  C4  UNL     1     -59.359 -70.108  21.298  1.00  0.00     0.219 C 
HETATM    4  S1  UNL     1     -58.793 -69.910  23.035  1.00  0.00    -0.130 SA
HETATM    5  C3  UNL     1     -58.673 -71.731  23.282  1.00  0.00     0.137 C 
HETATM    6  C2  UNL     1     -59.608 -72.189  22.204  1.00  0.00     0.270 C 
HETATM    7  O3  UNL     1     -59.655 -71.397  21.158  1.00  0.00    -0.343 OA
BRANCH   6   8
HETATM    8  O1  UNL     1     -60.835 -72.454  22.815  1.00  0.00    -0.365 OA
HETATM    9  C1  UNL     1     -61.896 -72.466  21.913  1.00  0.00     0.204 C 
ENDBRANCH   6   8
ENDBRANCH   1   3
BRANCH   1  10
HETATM   10  N1  UNL     1     -59.804 -67.964  20.332  1.00  0.00     0.100 N 
HETATM   11  C7  UNL     1     -58.497 -68.165  19.816  1.00  0.00     0.299 C 
HETATM   12  C8  UNL     1     -58.148 -67.315  18.625  1.00  0.00     0.198 C 
HETATM   13  O2  UNL     1     -59.093 -67.262  17.654  1.00  0.00    -0.388 OA
HETATM   14  C9  UNL     1     -60.357 -67.682  18.033  1.00  0.00     0.198 C 
HETATM   15  C10 UNL     1     -60.600 -67.208  19.433  1.00  0.00     0.299 C 
ENDBRANCH   1  10
TORSDOF 3
ENDMDL
