MODEL 1
REMARK VINA RESULT: -5.296940278      0.000      0.000
REMARK  4 active torsions:
REMARK  status: ('A' for Active; 'I' for Inactive)
REMARK    1  A    between atoms: C2_2  and  C3_3 
REMARK    2  A    between atoms: C2_2  and  C5_6 
REMARK    3  A    between atoms: C5_6  and  O2_8 
REMARK    4  A    between atoms: O2_8  and  C6_9 
ROOT
HETATM    1  C3  UNL     1     -58.770 -71.160  21.374  1.00  0.00     0.167 C 
HETATM    2  C4  UNL     1     -57.387 -71.625  21.406  1.00  0.00     0.064 C 
HETATM    3  N1  UNL     1     -56.277 -72.015  21.417  1.00  0.00    -0.197 NA
ENDROOT
BRANCH   1   4
HETATM    4  C2  UNL     1     -58.986 -70.023  22.303  1.00  0.00     0.021 C 
HETATM    5  C1  UNL     1     -58.430 -70.064  23.483  1.00  0.00     0.026 C 
BRANCH   4   6
HETATM    6  C5  UNL     1     -59.804 -68.865  21.925  1.00  0.00     0.289 C 
HETATM    7  O1  UNL     1     -60.978 -68.716  22.344  1.00  0.00    -0.260 OA
BRANCH   6   8
HETATM    8  O2  UNL     1     -59.306 -67.884  21.085  1.00  0.00    -0.310 OA
BRANCH   8   9
HETATM    9  C6  UNL     1     -59.636 -67.916  19.717  1.00  0.00     0.158 C 
HETATM   10  C7  UNL     1     -58.359 -67.528  18.961  1.00  0.00     0.201 C 
HETATM   11  O3  UNL     1     -58.393 -66.174  18.654  1.00  0.00    -0.379 OA
HETATM   12  C8  UNL     1     -59.244 -66.031  17.551  1.00  0.00     0.174 C 
HETATM   13  C9  UNL     1     -60.012 -64.748  17.491  1.00  0.00     0.202 C 
HETATM   14  C10 UNL     1     -60.586 -66.593  17.894  1.00  0.00     0.155 C 
HETATM   15  O4  UNL     1     -61.242 -65.424  17.513  1.00  0.00    -0.381 OA
HETATM   16  C11 UNL     1     -60.695 -66.897  19.358  1.00  0.00     0.069 C 
ENDBRANCH   8   9
ENDBRANCH   6   8
ENDBRANCH   4   6
ENDBRANCH   1   4
TORSDOF 4
ENDMDL
MODEL 2
REMARK VINA RESULT: -5.260181243      9.864     11.829
REMARK  4 active torsions:
REMARK  status: ('A' for Active; 'I' for Inactive)
REMARK    1  A    between atoms: C2_2  and  C3_3 
REMARK    2  A    between atoms: C2_2  and  C5_6 
REMARK    3  A    between atoms: C5_6  and  O2_8 
REMARK    4  A    between atoms: O2_8  and  C6_9 
ROOT
HETATM    1  C3  UNL     1     -52.796 -63.658  15.242  1.00  0.00     0.167 C 
HETATM    2  C4  UNL     1     -53.203 -62.382  15.822  1.00  0.00     0.064 C 
HETATM    3  N1  UNL     1     -53.539 -61.363  16.306  1.00  0.00    -0.197 NA
ENDROOT
BRANCH   1   4
HETATM    4  C2  UNL     1     -52.157 -63.477  13.916  1.00  0.00     0.021 C 
HETATM    5  C1  UNL     1     -52.416 -62.391  13.238  1.00  0.00     0.026 C 
BRANCH   4   6
HETATM    6  C5  UNL     1     -51.247 -64.482  13.355  1.00  0.00     0.289 C 
HETATM    7  O1  UNL     1     -50.276 -64.167  12.625  1.00  0.00    -0.260 OA
BRANCH   6   8
HETATM    8  O2  UNL     1     -51.430 -65.830  13.613  1.00  0.00    -0.310 OA
BRANCH   8   9
HETATM    9  C6  UNL     1     -50.305 -66.653  13.813  1.00  0.00     0.158 C 
HETATM   10  C7  UNL     1     -50.802 -68.097  13.676  1.00  0.00     0.201 C 
HETATM   11  O3  UNL     1     -51.064 -68.621  14.934  1.00  0.00    -0.379 OA
HETATM   12  C8  UNL     1     -49.827 -68.962  15.495  1.00  0.00     0.174 C 
HETATM   13  C9  UNL     1     -49.735 -68.833  16.984  1.00  0.00     0.202 C 
HETATM   14  C10 UNL     1     -48.954 -67.750  15.529  1.00  0.00     0.155 C 
HETATM   15  O4  UNL     1     -48.686 -67.904  16.888  1.00  0.00    -0.381 OA
HETATM   16  C11 UNL     1     -49.729 -66.508  15.204  1.00  0.00     0.069 C 
ENDBRANCH   8   9
ENDBRANCH   6   8
ENDBRANCH   4   6
ENDBRANCH   1   4
TORSDOF 4
ENDMDL
MODEL 3
REMARK VINA RESULT: -5.231953885      2.214      5.618
REMARK  4 active torsions:
REMARK  status: ('A' for Active; 'I' for Inactive)
REMARK    1  A    between atoms: C2_2  and  C3_3 
REMARK    2  A    between atoms: C2_2  and  C5_6 
REMARK    3  A    between atoms: C5_6  and  O2_8 
REMARK    4  A    between atoms: O2_8  and  C6_9 
ROOT
HETATM    1  C3  UNL     1     -57.671 -66.858  17.930  1.00  0.00     0.167 C 
HETATM    2  C4  UNL     1     -56.627 -66.219  18.725  1.00  0.00     0.064 C 
HETATM    3  N1  UNL     1     -55.771 -65.717  19.359  1.00  0.00    -0.197 NA
ENDROOT
BRANCH   1   4
HETATM    4  C2  UNL     1     -58.990 -66.213  18.139  1.00  0.00     0.021 C 
HETATM    5  C1  UNL     1     -59.125 -64.949  17.837  1.00  0.00     0.026 C 
BRANCH   4   6
HETATM    6  C5  UNL     1     -60.136 -66.957  18.674  1.00  0.00     0.289 C 
HETATM    7  O1  UNL     1     -61.142 -67.223  17.972  1.00  0.00    -0.260 OA
BRANCH   6   8
HETATM    8  O2  UNL     1     -60.149 -67.399  19.985  1.00  0.00    -0.310 OA
BRANCH   8   9
HETATM    9  C6  UNL     1     -60.011 -68.775  20.251  1.00  0.00     0.158 C 
HETATM   10  C7  UNL     1     -61.018 -69.098  21.361  1.00  0.00     0.201 C 
HETATM   11  O3  UNL     1     -60.378 -69.078  22.593  1.00  0.00    -0.379 OA
HETATM   12  C8  UNL     1     -59.674 -70.284  22.702  1.00  0.00     0.174 C 
HETATM   13  C9  UNL     1     -58.400 -70.219  23.485  1.00  0.00     0.202 C 
HETATM   14  C10 UNL     1     -58.733 -70.406  21.548  1.00  0.00     0.155 C 
HETATM   15  O4  UNL     1     -57.642 -70.644  22.382  1.00  0.00    -0.381 OA
HETATM   16  C11 UNL     1     -58.636 -69.121  20.780  1.00  0.00     0.069 C 
ENDBRANCH   8   9
ENDBRANCH   6   8
ENDBRANCH   4   6
ENDBRANCH   1   4
TORSDOF 4
ENDMDL
MODEL 4
REMARK VINA RESULT: -5.163495522      1.798      2.648
REMARK  4 active torsions:
REMARK  status: ('A' for Active; 'I' for Inactive)
REMARK    1  A    between atoms: C2_2  and  C3_3 
REMARK    2  A    between atoms: C2_2  and  C5_6 
REMARK    3  A    between atoms: C5_6  and  O2_8 
REMARK    4  A    between atoms: O2_8  and  C6_9 
ROOT
HETATM    1  C3  UNL     1     -59.365 -71.897  21.960  1.00  0.00     0.167 C 
HETATM    2  C4  UNL     1     -58.613 -70.955  22.783  1.00  0.00     0.064 C 
HETATM    3  N1  UNL     1     -57.989 -70.208  23.444  1.00  0.00    -0.197 NA
ENDROOT
BRANCH   1   4
HETATM    4  C2  UNL     1     -60.782 -71.484  21.814  1.00  0.00     0.021 C 
HETATM    5  C1  UNL     1     -61.715 -72.389  21.941  1.00  0.00     0.026 C 
BRANCH   4   6
HETATM    6  C5  UNL     1     -61.155 -70.093  21.530  1.00  0.00     0.289 C 
HETATM    7  O1  UNL     1     -61.829 -69.408  22.337  1.00  0.00    -0.260 OA
BRANCH   6   8
HETATM    8  O2  UNL     1     -60.771 -69.480  20.350  1.00  0.00    -0.310 OA
BRANCH   8   9
HETATM    9  C6  UNL     1     -59.949 -68.338  20.402  1.00  0.00     0.158 C 
HETATM   10  C7  UNL     1     -60.632 -67.280  19.527  1.00  0.00     0.201 C 
HETATM   11  O3  UNL     1     -60.066 -67.290  18.259  1.00  0.00    -0.379 OA
HETATM   12  C8  UNL     1     -58.846 -66.609  18.356  1.00  0.00     0.174 C 
HETATM   13  C9  UNL     1     -57.766 -67.086  17.436  1.00  0.00     0.202 C 
HETATM   14  C10 UNL     1     -57.995 -67.276  19.387  1.00  0.00     0.155 C 
HETATM   15  O4  UNL     1     -56.919 -67.398  18.511  1.00  0.00    -0.381 OA
HETATM   16  C11 UNL     1     -58.579 -68.590  19.813  1.00  0.00     0.069 C 
ENDBRANCH   8   9
ENDBRANCH   6   8
ENDBRANCH   4   6
ENDBRANCH   1   4
TORSDOF 4
ENDMDL
MODEL 5
REMARK VINA RESULT: -5.156669114      2.413      5.804
REMARK  4 active torsions:
REMARK  status: ('A' for Active; 'I' for Inactive)
REMARK    1  A    between atoms: C2_2  and  C3_3 
REMARK    2  A    between atoms: C2_2  and  C5_6 
REMARK    3  A    between atoms: C5_6  and  O2_8 
REMARK    4  A    between atoms: O2_8  and  C6_9 
ROOT
HETATM    1  C3  UNL     1     -57.804 -66.257  17.787  1.00  0.00     0.167 C 
HETATM    2  C4  UNL     1     -56.681 -65.992  18.681  1.00  0.00     0.064 C 
HETATM    3  N1  UNL     1     -55.771 -65.760  19.390  1.00  0.00    -0.197 NA
ENDROOT
BRANCH   1   4
HETATM    4  C2  UNL     1     -58.538 -67.485  18.181  1.00  0.00     0.021 C 
HETATM    5  C1  UNL     1     -58.292 -68.596  17.540  1.00  0.00     0.026 C 
BRANCH   4   6
HETATM    6  C5  UNL     1     -59.526 -67.476  19.266  1.00  0.00     0.289 C 
HETATM    7  O1  UNL     1     -60.671 -66.984  19.119  1.00  0.00    -0.260 OA
BRANCH   6   8
HETATM    8  O2  UNL     1     -59.227 -68.017  20.505  1.00  0.00    -0.310 OA
BRANCH   8   9
HETATM    9  C6  UNL     1     -59.802 -69.247  20.877  1.00  0.00     0.158 C 
HETATM   10  C7  UNL     1     -60.301 -69.068  22.316  1.00  0.00     0.201 C 
HETATM   11  O3  UNL     1     -59.352 -69.558  23.203  1.00  0.00    -0.379 OA
HETATM   12  C8  UNL     1     -59.475 -70.953  23.196  1.00  0.00     0.174 C 
HETATM   13  C9  UNL     1     -58.208 -71.714  23.428  1.00  0.00     0.202 C 
HETATM   14  C10 UNL     1     -59.294 -71.453  21.800  1.00  0.00     0.155 C 
HETATM   15  O4  UNL     1     -58.312 -72.363  22.187  1.00  0.00    -0.381 OA
HETATM   16  C11 UNL     1     -58.789 -70.371  20.892  1.00  0.00     0.069 C 
ENDBRANCH   8   9
ENDBRANCH   6   8
ENDBRANCH   4   6
ENDBRANCH   1   4
TORSDOF 4
ENDMDL
