MODEL 1
REMARK VINA RESULT: -4.522239302      0.000      0.000
REMARK  5 active torsions:
REMARK  status: ('A' for Active; 'I' for Inactive)
REMARK    1  A    between atoms: C2_2  and  C3_3 
REMARK    2  A    between atoms: C3_3  and  N1_4 
REMARK    3  A    between atoms: N1_4  and  C4_7 
REMARK    4  A    between atoms: C6_12  and  N3_13 
REMARK    5  A    between atoms: C7_17  and  N4_18 
ROOT
HETATM    1  C4  UNL     1      11.296  20.258 -10.686  1.00  0.00     0.245 C 
HETATM    2  C5  UNL     1      10.078  20.778 -10.064  1.00  0.00     0.270 C 
HETATM    3  N2  UNL     1       9.279  19.589  -9.757  1.00  0.00    -0.042 N 
ATOM      4  H21 UNL     1       8.428  19.534 -10.316  1.00  0.00     0.279 HD
ATOM      5  H22 UNL     1       8.839  19.639  -8.838  1.00  0.00     0.279 HD
HETATM    6  C6  UNL     1      10.115  18.431  -9.908  1.00  0.00     0.412 C 
HETATM    7  C7  UNL     1      11.524  18.979  -9.832  1.00  0.00     0.273 C 
ENDROOT
BRANCH   1   8
HETATM    8  N1  UNL     1      12.485  21.021 -10.731  1.00  0.00    -0.064 N 
ATOM      9  H12 UNL     1      12.563  21.554 -11.597  1.00  0.00     0.278 HD
ATOM     10  H11 UNL     1      13.310  20.432 -10.841  1.00  0.00     0.278 HD
BRANCH   8  11
HETATM   11  C3  UNL     1      12.578  21.867  -9.569  1.00  0.00     0.259 C 
BRANCH  11  12
HETATM   12  C2  UNL     1      13.010  23.251  -9.757  1.00  0.00    -0.010 C 
HETATM   13  C1  UNL     1      13.943  23.910  -9.067  1.00  0.00     0.008 C 
ENDBRANCH  11  12
ENDBRANCH   8  11
ENDBRANCH   1   8
BRANCH   7  14
HETATM   14  N4  UNL     1      12.523  18.159 -10.417  1.00  0.00    -0.069 N 
ATOM     15  H43 UNL     1      12.202  17.733 -11.287  1.00  0.00     0.274 HD
ATOM     16  H42 UNL     1      13.294  18.710 -10.793  1.00  0.00     0.274 HD
ATOM     17  H41 UNL     1      12.849  17.458  -9.751  1.00  0.00     0.274 HD
ENDBRANCH   7  14
BRANCH   6  18
HETATM   18  N3  UNL     1       9.870  17.436  -8.889  1.00  0.00    -0.048 N 
ATOM     19  H33 UNL     1      10.333  16.555  -9.116  1.00  0.00     0.276 HD
ATOM     20  H32 UNL     1      10.365  17.663  -8.027  1.00  0.00     0.276 HD
ATOM     21  H31 UNL     1       8.876  17.292  -8.715  1.00  0.00     0.276 HD
ENDBRANCH   6  18
TORSDOF 5
ENDMDL
MODEL 2
REMARK VINA RESULT: -4.305416570      2.198      3.143
REMARK  5 active torsions:
REMARK  status: ('A' for Active; 'I' for Inactive)
REMARK    1  A    between atoms: C2_2  and  C3_3 
REMARK    2  A    between atoms: C3_3  and  N1_4 
REMARK    3  A    between atoms: N1_4  and  C4_7 
REMARK    4  A    between atoms: C6_12  and  N3_13 
REMARK    5  A    between atoms: C7_17  and  N4_18 
ROOT
HETATM    1  C4  UNL     1      11.586  20.189 -10.625  1.00  0.00     0.245 C 
HETATM    2  C5  UNL     1      10.867  18.967 -10.264  1.00  0.00     0.270 C 
HETATM    3  N2  UNL     1      11.827  17.886 -10.499  1.00  0.00    -0.042 N 
ATOM      4  H21 UNL     1      11.553  17.279 -11.271  1.00  0.00     0.279 HD
ATOM      5  H22 UNL     1      11.816  17.183  -9.759  1.00  0.00     0.279 HD
HETATM    6  C6  UNL     1      13.127  18.468 -10.688  1.00  0.00     0.412 C 
HETATM    7  C7  UNL     1      13.005  19.850 -10.083  1.00  0.00     0.273 C 
ENDROOT
BRANCH   1   8
HETATM    8  N1  UNL     1      11.180  21.453 -10.142  1.00  0.00    -0.064 N 
ATOM      9  H12 UNL     1      11.945  21.950  -9.685  1.00  0.00     0.278 HD
ATOM     10  H11 UNL     1      10.554  21.372  -9.341  1.00  0.00     0.278 HD
BRANCH   8  11
HETATM   11  C3  UNL     1      10.595  22.228 -11.206  1.00  0.00     0.259 C 
BRANCH  11  12
HETATM   12  C2  UNL     1      11.189  22.127 -12.539  1.00  0.00    -0.010 C 
HETATM   13  C1  UNL     1      10.839  22.802 -13.635  1.00  0.00     0.008 C 
ENDBRANCH  11  12
ENDBRANCH   8  11
ENDBRANCH   1   8
BRANCH   7  14
HETATM   14  N4  UNL     1      13.955  20.797 -10.545  1.00  0.00    -0.069 N 
ATOM     15  H43 UNL     1      13.914  20.912 -11.558  1.00  0.00     0.274 HD
ATOM     16  H42 UNL     1      13.705  21.748 -10.274  1.00  0.00     0.274 HD
ATOM     17  H41 UNL     1      14.893  20.548 -10.230  1.00  0.00     0.274 HD
ENDBRANCH   7  14
BRANCH   6  18
HETATM   18  N3  UNL     1      14.175  17.697 -10.058  1.00  0.00    -0.048 N 
ATOM     19  H33 UNL     1      13.884  17.362  -9.140  1.00  0.00     0.276 HD
ATOM     20  H32 UNL     1      14.304  16.801 -10.526  1.00  0.00     0.276 HD
ATOM     21  H31 UNL     1      15.054  18.210  -9.998  1.00  0.00     0.276 HD
ENDBRANCH   6  18
TORSDOF 5
ENDMDL
MODEL 3
REMARK VINA RESULT: -4.271971845      1.314      1.739
REMARK  5 active torsions:
REMARK  status: ('A' for Active; 'I' for Inactive)
REMARK    1  A    between atoms: C2_2  and  C3_3 
REMARK    2  A    between atoms: C3_3  and  N1_4 
REMARK    3  A    between atoms: N1_4  and  C4_7 
REMARK    4  A    between atoms: C6_12  and  N3_13 
REMARK    5  A    between atoms: C7_17  and  N4_18 
ROOT
HETATM    1  C4  UNL     1      11.379  21.203 -10.158  1.00  0.00     0.245 C 
HETATM    2  C5  UNL     1      11.440  20.696  -8.786  1.00  0.00     0.270 C 
HETATM    3  N2  UNL     1      11.130  19.270  -8.902  1.00  0.00    -0.042 N 
ATOM      4  H21 UNL     1      10.238  19.026  -8.470  1.00  0.00     0.279 HD
ATOM      5  H22 UNL     1      11.730  18.689  -8.317  1.00  0.00     0.279 HD
HETATM    6  C6  UNL     1      11.189  18.904 -10.290  1.00  0.00     0.412 C 
HETATM    7  C7  UNL     1      12.007  20.006 -10.928  1.00  0.00     0.273 C 
ENDROOT
BRANCH   1   8
HETATM    8  N1  UNL     1      12.026  22.403 -10.530  1.00  0.00    -0.064 N 
ATOM      9  H12 UNL     1      11.464  23.224 -10.306  1.00  0.00     0.278 HD
ATOM     10  H11 UNL     1      12.061  22.517 -11.543  1.00  0.00     0.278 HD
BRANCH   8  11
HETATM   11  C3  UNL     1      13.336  22.468  -9.934  1.00  0.00     0.259 C 
BRANCH  11  12
HETATM   12  C2  UNL     1      13.724  23.704  -9.256  1.00  0.00    -0.010 C 
HETATM   13  C1  UNL     1      13.113  24.889  -9.319  1.00  0.00     0.008 C 
ENDBRANCH  11  12
ENDBRANCH   8  11
ENDBRANCH   1   8
BRANCH   7  14
HETATM   14  N4  UNL     1      11.824  20.161 -12.326  1.00  0.00    -0.069 N 
ATOM     15  H43 UNL     1      11.968  21.126 -12.623  1.00  0.00     0.274 HD
ATOM     16  H42 UNL     1      12.577  19.724 -12.858  1.00  0.00     0.274 HD
ATOM     17  H41 UNL     1      10.908  19.811 -12.609  1.00  0.00     0.274 HD
ENDBRANCH   7  14
BRANCH   6  18
HETATM   18  N3  UNL     1      11.788  17.604 -10.494  1.00  0.00    -0.048 N 
ATOM     19  H33 UNL     1      11.714  17.029  -9.654  1.00  0.00     0.276 HD
ATOM     20  H32 UNL     1      11.228  17.038 -11.130  1.00  0.00     0.276 HD
ATOM     21  H31 UNL     1      12.755  17.666 -10.811  1.00  0.00     0.276 HD
ENDBRANCH   6  18
TORSDOF 5
ENDMDL
MODEL 4
REMARK VINA RESULT: -4.263288261      2.095      3.132
REMARK  5 active torsions:
REMARK  status: ('A' for Active; 'I' for Inactive)
REMARK    1  A    between atoms: C2_2  and  C3_3 
REMARK    2  A    between atoms: C3_3  and  N1_4 
REMARK    3  A    between atoms: N1_4  and  C4_7 
REMARK    4  A    between atoms: C6_12  and  N3_13 
REMARK    5  A    between atoms: C7_17  and  N4_18 
ROOT
HETATM    1  C4  UNL     1      13.354  20.951 -10.856  1.00  0.00     0.245 C 
HETATM    2  C5  UNL     1      14.323  20.581 -11.888  1.00  0.00     0.270 C 
HETATM    3  N2  UNL     1      14.974  19.374 -11.371  1.00  0.00    -0.042 N 
ATOM      4  H21 UNL     1      15.957  19.526 -11.143  1.00  0.00     0.279 HD
ATOM      5  H22 UNL     1      15.107  18.662 -12.089  1.00  0.00     0.279 HD
HETATM    6  C6  UNL     1      14.215  18.894 -10.250  1.00  0.00     0.412 C 
HETATM    7  C7  UNL     1      12.858  19.544 -10.417  1.00  0.00     0.273 C 
ENDROOT
BRANCH   1   8
HETATM    8  N1  UNL     1      12.246  21.778 -11.147  1.00  0.00    -0.064 N 
ATOM      9  H12 UNL     1      11.363  21.334 -10.896  1.00  0.00     0.278 HD
ATOM     10  H11 UNL     1      12.090  21.866 -12.151  1.00  0.00     0.278 HD
BRANCH   8  11
HETATM   11  C3  UNL     1      12.402  23.062 -10.512  1.00  0.00     0.259 C 
BRANCH  11  12
HETATM   12  C2  UNL     1      13.285  23.153  -9.350  1.00  0.00    -0.010 C 
HETATM   13  C1  UNL     1      14.087  24.167  -9.019  1.00  0.00     0.008 C 
ENDBRANCH  11  12
ENDBRANCH   8  11
ENDBRANCH   1   8
BRANCH   7  14
HETATM   14  N4  UNL     1      12.083  19.634  -9.232  1.00  0.00    -0.069 N 
ATOM     15  H43 UNL     1      11.844  20.600  -9.009  1.00  0.00     0.274 HD
ATOM     16  H42 UNL     1      11.139  19.271  -9.368  1.00  0.00     0.274 HD
ATOM     17  H41 UNL     1      12.558  19.172  -8.456  1.00  0.00     0.274 HD
ENDBRANCH   7  14
BRANCH   6  18
HETATM   18  N3  UNL     1      14.120  17.452 -10.223  1.00  0.00    -0.048 N 
ATOM     19  H33 UNL     1      15.032  17.027 -10.054  1.00  0.00     0.276 HD
ATOM     20  H32 UNL     1      13.633  17.132  -9.387  1.00  0.00     0.276 HD
ATOM     21  H31 UNL     1      13.690  17.074 -11.066  1.00  0.00     0.276 HD
ENDBRANCH   6  18
TORSDOF 5
ENDMDL
MODEL 5
REMARK VINA RESULT: -4.262461451      1.686      2.193
REMARK  5 active torsions:
REMARK  status: ('A' for Active; 'I' for Inactive)
REMARK    1  A    between atoms: C2_2  and  C3_3 
REMARK    2  A    between atoms: C3_3  and  N1_4 
REMARK    3  A    between atoms: N1_4  and  C4_7 
REMARK    4  A    between atoms: C6_12  and  N3_13 
REMARK    5  A    between atoms: C7_17  and  N4_18 
ROOT
HETATM    1  C4  UNL     1      11.143  20.012 -10.905  1.00  0.00     0.245 C 
HETATM    2  C5  UNL     1      10.067  20.664 -10.159  1.00  0.00     0.270 C 
HETATM    3  N2  UNL     1       9.260  19.563  -9.628  1.00  0.00    -0.042 N 
ATOM      4  H21 UNL     1       8.330  19.520 -10.047  1.00  0.00     0.279 HD
ATOM      5  H22 UNL     1       8.970  19.718  -8.663  1.00  0.00     0.279 HD
HETATM    6  C6  UNL     1       9.997  18.341  -9.795  1.00  0.00     0.412 C 
HETATM    7  C7  UNL     1      11.429  18.795  -9.980  1.00  0.00     0.273 C 
ENDROOT
BRANCH   1   8
HETATM    8  N1  UNL     1      12.351  20.684 -11.196  1.00  0.00    -0.064 N 
ATOM      9  H12 UNL     1      12.955  20.135 -11.807  1.00  0.00     0.278 HD
ATOM     10  H11 UNL     1      12.965  20.733 -10.383  1.00  0.00     0.278 HD
BRANCH   8  11
HETATM   11  C3  UNL     1      12.076  21.989 -11.742  1.00  0.00     0.259 C 
BRANCH  11  12
HETATM   12  C2  UNL     1      11.674  22.077 -13.146  1.00  0.00    -0.010 C 
HETATM   13  C1  UNL     1      10.766  22.897 -13.678  1.00  0.00     0.008 C 
ENDBRANCH  11  12
ENDBRANCH   8  11
ENDBRANCH   1   8
BRANCH   7  14
HETATM   14  N4  UNL     1      12.278  17.862 -10.629  1.00  0.00    -0.069 N 
ATOM     15  H43 UNL     1      12.637  18.227 -11.511  1.00  0.00     0.274 HD
ATOM     16  H42 UNL     1      13.165  17.750 -10.138  1.00  0.00     0.274 HD
ATOM     17  H41 UNL     1      11.800  16.969 -10.756  1.00  0.00     0.274 HD
ENDBRANCH   7  14
BRANCH   6  18
HETATM   18  N3  UNL     1       9.857  17.452  -8.664  1.00  0.00    -0.048 N 
ATOM     19  H33 UNL     1      10.293  17.846  -7.830  1.00  0.00     0.276 HD
ATOM     20  H32 UNL     1       8.890  17.418  -8.341  1.00  0.00     0.276 HD
ATOM     21  H31 UNL     1      10.213  16.517  -8.856  1.00  0.00     0.276 HD
ENDBRANCH   6  18
TORSDOF 5
ENDMDL
