MODEL 1
REMARK VINA RESULT: -4.503849104      0.000      0.000
REMARK  4 active torsions:
REMARK  status: ('A' for Active; 'I' for Inactive)
REMARK    1  A    between atoms: N1_2  and  C2_5 
REMARK    2  A    between atoms: C2_5  and  C3_6 
REMARK    3  A    between atoms: C3_6  and  N2_7 
REMARK    4  A    between atoms: N2_7  and  C4_9 
ROOT
HETATM    1  C4  UNL     1      11.007  19.255  -9.424  1.00  0.00     0.706 A 
HETATM    2  N3  UNL     1      10.540  18.005  -9.579  1.00  0.00    -0.114 N 
ATOM      3  H3  UNL     1      11.095  17.156  -9.474  1.00  0.00     0.203 HD
HETATM    4  N4  UNL     1       9.247  18.039  -9.892  1.00  0.00     0.009 NA
HETATM    5  N5  UNL     1       8.894  19.327  -9.933  1.00  0.00    -0.212 N 
ATOM      6  H5  UNL     1       7.963  19.684 -10.146  1.00  0.00     0.206 HD
HETATM    7  N6  UNL     1       9.942  20.052  -9.654  1.00  0.00    -0.118 N 
ATOM      8  H6  UNL     1       9.954  21.071  -9.616  1.00  0.00     0.207 HD
ENDROOT
BRANCH   1   9
HETATM    9  N2  UNL     1      12.228  19.590  -9.119  1.00  0.00    -0.222 N 
ATOM     10  H2  UNL     1      12.539  19.674  -8.150  1.00  0.00     0.177 HD
BRANCH   9  11
HETATM   11  C3  UNL     1      13.113  19.834 -10.228  1.00  0.00     0.165 C 
BRANCH  11  12
HETATM   12  C2  UNL     1      14.306  18.945 -10.291  1.00  0.00     0.252 C 
BRANCH  12  13
HETATM   13  N1  UNL     1      14.033  17.547 -10.277  1.00  0.00    -0.077 N 
HETATM   14  C1  UNL     1      13.543  17.106 -11.549  1.00  0.00     0.267 C 
ATOM     15  H12 UNL     1      13.397  17.295  -9.522  1.00  0.00     0.276 HD
ATOM     16  H11 UNL     1      14.847  17.008  -9.981  1.00  0.00     0.276 HD
ENDBRANCH  12  13
ENDBRANCH  11  12
ENDBRANCH   9  11
ENDBRANCH   1   9
TORSDOF 4
ENDMDL
MODEL 2
REMARK VINA RESULT: -4.416990225      1.184      1.677
REMARK  4 active torsions:
REMARK  status: ('A' for Active; 'I' for Inactive)
REMARK    1  A    between atoms: N1_2  and  C2_5 
REMARK    2  A    between atoms: C2_5  and  C3_6 
REMARK    3  A    between atoms: C3_6  and  N2_7 
REMARK    4  A    between atoms: N2_7  and  C4_9 
ROOT
HETATM    1  C4  UNL     1      10.263  19.473  -9.213  1.00  0.00     0.706 A 
HETATM    2  N3  UNL     1       9.504  18.934 -10.182  1.00  0.00    -0.114 N 
ATOM      3  H3  UNL     1       9.202  19.419 -11.027  1.00  0.00     0.203 HD
HETATM    4  N4  UNL     1       9.203  17.674  -9.876  1.00  0.00     0.009 NA
HETATM    5  N5  UNL     1       9.781  17.415  -8.700  1.00  0.00    -0.212 N 
ATOM      6  H5  UNL     1       9.736  16.530  -8.196  1.00  0.00     0.206 HD
HETATM    7  N6  UNL     1      10.412  18.485  -8.305  1.00  0.00    -0.118 N 
ATOM      8  H6  UNL     1      10.941  18.565  -7.437  1.00  0.00     0.207 HD
ENDROOT
BRANCH   1   9
HETATM    9  N2  UNL     1      10.734  20.687  -9.188  1.00  0.00    -0.222 N 
ATOM     10  H2  UNL     1      10.133  21.501  -9.316  1.00  0.00     0.177 HD
BRANCH   9  11
HETATM   11  C3  UNL     1      12.151  20.811  -8.968  1.00  0.00     0.165 C 
BRANCH  11  12
HETATM   12  C2  UNL     1      13.009  20.300 -10.072  1.00  0.00     0.252 C 
BRANCH  12  13
HETATM   13  N1  UNL     1      13.614  19.030  -9.844  1.00  0.00    -0.077 N 
HETATM   14  C1  UNL     1      13.241  18.093 -10.862  1.00  0.00     0.267 C 
ATOM     15  H12 UNL     1      13.404  18.676  -8.912  1.00  0.00     0.276 HD
ATOM     16  H11 UNL     1      14.627  19.107  -9.757  1.00  0.00     0.276 HD
ENDBRANCH  12  13
ENDBRANCH  11  12
ENDBRANCH   9  11
ENDBRANCH   1   9
TORSDOF 4
ENDMDL
MODEL 3
REMARK VINA RESULT: -4.385730876      0.989      1.888
REMARK  4 active torsions:
REMARK  status: ('A' for Active; 'I' for Inactive)
REMARK    1  A    between atoms: N1_2  and  C2_5 
REMARK    2  A    between atoms: C2_5  and  C3_6 
REMARK    3  A    between atoms: C3_6  and  N2_7 
REMARK    4  A    between atoms: N2_7  and  C4_9 
ROOT
HETATM    1  C4  UNL     1      10.543  18.766  -9.973  1.00  0.00     0.706 A 
HETATM    2  N3  UNL     1       9.209  18.804  -9.823  1.00  0.00    -0.114 N 
ATOM      3  H3  UNL     1       8.588  17.998  -9.899  1.00  0.00     0.203 HD
HETATM    4  N4  UNL     1       8.816  20.049  -9.561  1.00  0.00     0.009 NA
HETATM    5  N5  UNL     1       9.917  20.805  -9.545  1.00  0.00    -0.212 N 
ATOM      6  H5  UNL     1       9.948  21.809  -9.371  1.00  0.00     0.206 HD
HETATM    7  N6  UNL     1      10.946  20.042  -9.791  1.00  0.00    -0.118 N 
ATOM      8  H6  UNL     1      11.913  20.362  -9.838  1.00  0.00     0.207 HD
ENDROOT
BRANCH   1   9
HETATM    9  N2  UNL     1      11.260  17.712 -10.239  1.00  0.00    -0.222 N 
ATOM     10  H2  UNL     1      11.255  16.890  -9.635  1.00  0.00     0.177 HD
BRANCH   9  11
HETATM   11  C3  UNL     1      12.059  17.775 -11.435  1.00  0.00     0.165 C 
BRANCH  11  12
HETATM   12  C2  UNL     1      13.474  17.343 -11.272  1.00  0.00     0.252 C 
BRANCH  12  13
HETATM   13  N1  UNL     1      14.148  17.859 -10.128  1.00  0.00    -0.077 N 
HETATM   14  C1  UNL     1      14.827  19.081 -10.438  1.00  0.00     0.267 C 
ATOM     15  H12 UNL     1      14.782  17.170  -9.722  1.00  0.00     0.276 HD
ATOM     16  H11 UNL     1      13.514  17.971  -9.337  1.00  0.00     0.276 HD
ENDBRANCH  12  13
ENDBRANCH  11  12
ENDBRANCH   9  11
ENDBRANCH   1   9
TORSDOF 4
ENDMDL
MODEL 4
REMARK VINA RESULT: -4.290697365      0.964      1.108
REMARK  4 active torsions:
REMARK  status: ('A' for Active; 'I' for Inactive)
REMARK    1  A    between atoms: N1_2  and  C2_5 
REMARK    2  A    between atoms: C2_5  and  C3_6 
REMARK    3  A    between atoms: C3_6  and  N2_7 
REMARK    4  A    between atoms: N2_7  and  C4_9 
ROOT
HETATM    1  C4  UNL     1      10.978  19.376  -9.835  1.00  0.00     0.706 A 
HETATM    2  N3  UNL     1      10.070  18.707 -10.565  1.00  0.00    -0.114 N 
ATOM      3  H3  UNL     1       9.942  18.804 -11.572  1.00  0.00     0.203 HD
HETATM    4  N4  UNL     1       9.362  17.898  -9.779  1.00  0.00     0.009 NA
HETATM    5  N5  UNL     1       9.831  18.060  -8.539  1.00  0.00    -0.212 N 
ATOM      6  H5  UNL     1       9.493  17.577  -7.707  1.00  0.00     0.206 HD
HETATM    7  N6  UNL     1      10.793  18.940  -8.571  1.00  0.00    -0.118 N 
ATOM      8  H6  UNL     1      11.327  19.252  -7.761  1.00  0.00     0.207 HD
ENDROOT
BRANCH   1   9
HETATM    9  N2  UNL     1      11.834  20.251 -10.282  1.00  0.00    -0.222 N 
ATOM     10  H2  UNL     1      11.730  21.249 -10.100  1.00  0.00     0.177 HD
BRANCH   9  11
HETATM   11  C3  UNL     1      12.934  19.725 -11.048  1.00  0.00     0.165 C 
BRANCH  11  12
HETATM   12  C2  UNL     1      14.020  19.099 -10.244  1.00  0.00     0.252 C 
BRANCH  12  13
HETATM   13  N1  UNL     1      14.032  17.674 -10.230  1.00  0.00    -0.077 N 
HETATM   14  C1  UNL     1      13.577  17.144 -11.481  1.00  0.00     0.267 C 
ATOM     15  H12 UNL     1      13.496  17.301  -9.447  1.00  0.00     0.276 HD
ATOM     16  H11 UNL     1      14.950  17.309  -9.979  1.00  0.00     0.276 HD
ENDBRANCH  12  13
ENDBRANCH  11  12
ENDBRANCH   9  11
ENDBRANCH   1   9
TORSDOF 4
ENDMDL
MODEL 5
REMARK VINA RESULT: -4.277121331      0.542      1.259
REMARK  4 active torsions:
REMARK  status: ('A' for Active; 'I' for Inactive)
REMARK    1  A    between atoms: N1_2  and  C2_5 
REMARK    2  A    between atoms: C2_5  and  C3_6 
REMARK    3  A    between atoms: C3_6  and  N2_7 
REMARK    4  A    between atoms: N2_7  and  C4_9 
ROOT
HETATM    1  C4  UNL     1      11.113  19.722  -9.371  1.00  0.00     0.706 A 
HETATM    2  N3  UNL     1      10.260  20.754  -9.253  1.00  0.00    -0.114 N 
ATOM      3  H3  UNL     1      10.514  21.691  -8.940  1.00  0.00     0.203 HD
HETATM    4  N4  UNL     1       9.034  20.372  -9.604  1.00  0.00     0.009 NA
HETATM    5  N5  UNL     1       9.116  19.084  -9.949  1.00  0.00    -0.212 N 
ATOM      6  H5  UNL     1       8.341  18.502 -10.267  1.00  0.00     0.206 HD
HETATM    7  N6  UNL     1      10.353  18.696  -9.810  1.00  0.00    -0.118 N 
ATOM      8  H6  UNL     1      10.696  17.756 -10.005  1.00  0.00     0.207 HD
ENDROOT
BRANCH   1   9
HETATM    9  N2  UNL     1      12.388  19.742  -9.109  1.00  0.00    -0.222 N 
ATOM     10  H2  UNL     1      12.744  19.670  -8.155  1.00  0.00     0.177 HD
BRANCH   9  11
HETATM   11  C3  UNL     1      13.266  19.872 -10.243  1.00  0.00     0.165 C 
BRANCH  11  12
HETATM   12  C2  UNL     1      14.335  18.840 -10.335  1.00  0.00     0.252 C 
BRANCH  12  13
HETATM   13  N1  UNL     1      13.888  17.488 -10.331  1.00  0.00    -0.077 N 
HETATM   14  C1  UNL     1      13.333  17.126 -11.601  1.00  0.00     0.267 C 
ATOM     15  H12 UNL     1      13.232  17.311  -9.571  1.00  0.00     0.276 HD
ATOM     16  H11 UNL     1      14.629  16.847 -10.048  1.00  0.00     0.276 HD
ENDBRANCH  12  13
ENDBRANCH  11  12
ENDBRANCH   9  11
ENDBRANCH   1   9
TORSDOF 4
ENDMDL
