MODEL 1
REMARK VINA RESULT: -6.239035540      0.000      0.000
REMARK  5 active torsions:
REMARK  status: ('A' for Active; 'I' for Inactive)
REMARK    1  A    between atoms: S1_2  and  C2_3 
REMARK    2  A    between atoms: C2_3  and  C3_5 
REMARK    3  A    between atoms: C3_5  and  C4_6 
REMARK    4  A    between atoms: C8_10  and  N1_11 
REMARK    5  A    between atoms: N1_11  and  O2_12 
ROOT
HETATM    1  C3  UNL     1      -9.480  47.023  -5.733  1.00  0.00     0.108 A 
HETATM    2  C8  UNL     1      -8.495  47.233  -6.803  1.00  0.00     0.170 A 
HETATM    3  C9  UNL     1      -9.934  46.862  -7.200  1.00  0.00     0.154 A 
HETATM    4 CL1  UNL     1     -10.206  45.199  -7.747  1.00  0.00    -0.098 Cl
HETATM    5 CL2  UNL     1     -10.880  48.173  -7.920  1.00  0.00    -0.098 Cl
ENDROOT
BRANCH   1   6
HETATM    6  C2  UNL     1      -9.464  45.772  -4.915  1.00  0.00     0.203 C 
HETATM    7  O1  UNL     1      -8.398  45.262  -4.709  1.00  0.00    -0.284 OA
BRANCH   6   8
HETATM    8  S1  UNL     1     -10.976  45.060  -4.265  1.00  0.00    -0.096 SA
HETATM    9  C1  UNL     1     -10.956  43.286  -4.627  1.00  0.00     0.098 C 
ENDBRANCH   6   8
ENDBRANCH   1   6
BRANCH   1  10
HETATM   10  C4  UNL     1     -10.143  48.175  -5.058  1.00  0.00    -0.002 C 
HETATM   11  C5  UNL     1      -9.478  49.108  -4.399  1.00  0.00    -0.090 C 
HETATM   12  C6  UNL     1     -10.235  50.212  -3.764  1.00  0.00     0.042 C 
HETATM   13  C7  UNL     1      -8.006  49.109  -4.261  1.00  0.00     0.042 C 
ENDBRANCH   1  10
BRANCH   2  14
HETATM   14  N1  UNL     1      -7.516  46.196  -6.999  1.00  0.00    -0.094 NA
BRANCH  14  15
HETATM   15  O2  UNL     1      -6.339  46.486  -6.386  1.00  0.00    -0.296 OA
ATOM     16  H2  UNL     1      -5.615  46.507  -7.000  1.00  0.00     0.238 HD
ENDBRANCH  14  15
ENDBRANCH   2  14
TORSDOF 5
ENDMDL
MODEL 2
REMARK VINA RESULT: -4.795943419      2.465      2.938
REMARK  5 active torsions:
REMARK  status: ('A' for Active; 'I' for Inactive)
REMARK    1  A    between atoms: S1_2  and  C2_3 
REMARK    2  A    between atoms: C2_3  and  C3_5 
REMARK    3  A    between atoms: C3_5  and  C4_6 
REMARK    4  A    between atoms: C8_10  and  N1_11 
REMARK    5  A    between atoms: N1_11  and  O2_12 
ROOT
HETATM    1  C3  UNL     1     -10.086  45.827  -4.555  1.00  0.00     0.108 A 
HETATM    2  C8  UNL     1     -10.739  45.576  -5.847  1.00  0.00     0.170 A 
HETATM    3  C9  UNL     1     -11.179  44.740  -4.634  1.00  0.00     0.154 A 
HETATM    4 CL1  UNL     1     -10.608  43.064  -4.573  1.00  0.00    -0.098 Cl
HETATM    5 CL2  UNL     1     -12.780  45.131  -3.989  1.00  0.00    -0.098 Cl
ENDROOT
BRANCH   1   6
HETATM    6  C2  UNL     1      -8.698  45.338  -4.294  1.00  0.00     0.203 C 
HETATM    7  O1  UNL     1      -7.830  45.723  -5.027  1.00  0.00    -0.284 OA
BRANCH   6   8
HETATM    8  S1  UNL     1      -8.340  44.219  -2.938  1.00  0.00    -0.096 SA
HETATM    9  C1  UNL     1      -6.718  43.476  -3.244  1.00  0.00     0.098 C 
ENDBRANCH   6   8
ENDBRANCH   1   6
BRANCH   1  10
HETATM   10  C4  UNL     1     -10.491  46.976  -3.697  1.00  0.00    -0.002 C 
HETATM   11  C5  UNL     1     -10.473  48.231  -4.111  1.00  0.00    -0.090 C 
HETATM   12  C6  UNL     1     -10.896  49.300  -3.176  1.00  0.00     0.042 C 
HETATM   13  C7  UNL     1     -10.050  48.629  -5.470  1.00  0.00     0.042 C 
ENDBRANCH   1  10
BRANCH   2  14
HETATM   14  N1  UNL     1      -9.971  44.868  -6.838  1.00  0.00    -0.094 NA
BRANCH  14  15
HETATM   15  O2  UNL     1      -9.189  45.704  -7.568  1.00  0.00    -0.296 OA
ATOM     16  H2  UNL     1      -8.811  46.393  -7.035  1.00  0.00     0.238 HD
ENDBRANCH  14  15
ENDBRANCH   2  14
TORSDOF 5
ENDMDL
MODEL 3
REMARK VINA RESULT: -4.541653515      2.658      3.371
REMARK  5 active torsions:
REMARK  status: ('A' for Active; 'I' for Inactive)
REMARK    1  A    between atoms: S1_2  and  C2_3 
REMARK    2  A    between atoms: C2_3  and  C3_5 
REMARK    3  A    between atoms: C3_5  and  C4_6 
REMARK    4  A    between atoms: C8_10  and  N1_11 
REMARK    5  A    between atoms: N1_11  and  O2_12 
ROOT
HETATM    1  C3  UNL     1      -9.366  46.428  -4.972  1.00  0.00     0.108 A 
HETATM    2  C8  UNL     1     -10.474  45.907  -5.785  1.00  0.00     0.170 A 
HETATM    3  C9  UNL     1     -10.272  45.331  -4.373  1.00  0.00     0.154 A 
HETATM    4 CL1  UNL     1      -9.559  43.712  -4.269  1.00  0.00    -0.098 Cl
HETATM    5 CL2  UNL     1     -11.483  45.820  -3.178  1.00  0.00    -0.098 Cl
ENDROOT
BRANCH   1   6
HETATM    6  C2  UNL     1      -7.956  46.026  -5.257  1.00  0.00     0.203 C 
HETATM    7  O1  UNL     1      -7.406  45.330  -4.449  1.00  0.00    -0.284 OA
BRANCH   6   8
HETATM    8  S1  UNL     1      -7.113  46.561  -6.747  1.00  0.00    -0.096 SA
HETATM    9  C1  UNL     1      -5.390  46.018  -6.637  1.00  0.00     0.098 C 
ENDBRANCH   6   8
ENDBRANCH   1   6
BRANCH   1  10
HETATM   10  C4  UNL     1      -9.488  47.723  -4.242  1.00  0.00    -0.002 C 
HETATM   11  C5  UNL     1     -10.045  48.800  -4.768  1.00  0.00    -0.090 C 
HETATM   12  C6  UNL     1     -10.115  50.037  -3.956  1.00  0.00     0.042 C 
HETATM   13  C7  UNL     1     -10.609  48.837  -6.134  1.00  0.00     0.042 C 
ENDBRANCH   1  10
BRANCH   2  14
HETATM   14  N1  UNL     1     -10.127  45.023  -6.867  1.00  0.00    -0.094 NA
BRANCH  14  15
HETATM   15  O2  UNL     1     -10.311  45.607  -8.079  1.00  0.00    -0.296 OA
ATOM     16  H2  UNL     1      -9.945  45.085  -8.784  1.00  0.00     0.238 HD
ENDBRANCH  14  15
ENDBRANCH   2  14
TORSDOF 5
ENDMDL
MODEL 4
REMARK VINA RESULT: -4.359512483      7.976      9.136
REMARK  5 active torsions:
REMARK  status: ('A' for Active; 'I' for Inactive)
REMARK    1  A    between atoms: S1_2  and  C2_3 
REMARK    2  A    between atoms: C2_3  and  C3_5 
REMARK    3  A    between atoms: C3_5  and  C4_6 
REMARK    4  A    between atoms: C8_10  and  N1_11 
REMARK    5  A    between atoms: N1_11  and  O2_12 
ROOT
HETATM    1  C3  UNL     1      -2.222  43.883  -5.099  1.00  0.00     0.108 A 
HETATM    2  C8  UNL     1      -1.629  42.638  -4.589  1.00  0.00     0.170 A 
HETATM    3  C9  UNL     1      -2.947  43.126  -3.966  1.00  0.00     0.154 A 
HETATM    4 CL1  UNL     1      -2.844  43.860  -2.356  1.00  0.00    -0.098 Cl
HETATM    5 CL2  UNL     1      -4.380  42.177  -4.392  1.00  0.00    -0.098 Cl
ENDROOT
BRANCH   1   6
HETATM    6  C2  UNL     1      -1.644  45.211  -4.730  1.00  0.00     0.203 C 
HETATM    7  O1  UNL     1      -2.392  46.147  -4.692  1.00  0.00    -0.284 OA
BRANCH   6   8
HETATM    8  S1  UNL     1       0.101  45.400  -4.357  1.00  0.00    -0.096 SA
HETATM    9  C1  UNL     1       0.240  46.226  -2.752  1.00  0.00     0.098 C 
ENDBRANCH   6   8
ENDBRANCH   1   6
BRANCH   1  10
HETATM   10  C4  UNL     1      -3.010  43.899  -6.364  1.00  0.00    -0.002 C 
HETATM   11  C5  UNL     1      -2.459  43.791  -7.561  1.00  0.00    -0.090 C 
HETATM   12  C6  UNL     1      -3.335  43.820  -8.756  1.00  0.00     0.042 C 
HETATM   13  C7  UNL     1      -1.004  43.641  -7.773  1.00  0.00     0.042 C 
ENDBRANCH   1  10
BRANCH   2  14
HETATM   14  N1  UNL     1      -0.466  42.768  -3.750  1.00  0.00    -0.094 NA
BRANCH  14  15
HETATM   15  O2  UNL     1       0.505  41.880  -4.086  1.00  0.00    -0.296 OA
ATOM     16  H2  UNL     1       0.311  41.433  -4.901  1.00  0.00     0.238 HD
ENDBRANCH  14  15
ENDBRANCH   2  14
TORSDOF 5
ENDMDL
MODEL 5
REMARK VINA RESULT: -4.110599156      2.716      3.688
REMARK  5 active torsions:
REMARK  status: ('A' for Active; 'I' for Inactive)
REMARK    1  A    between atoms: S1_2  and  C2_3 
REMARK    2  A    between atoms: C2_3  and  C3_5 
REMARK    3  A    between atoms: C3_5  and  C4_6 
REMARK    4  A    between atoms: C8_10  and  N1_11 
REMARK    5  A    between atoms: N1_11  and  O2_12 
ROOT
HETATM    1  C3  UNL     1      -9.044  46.646  -5.488  1.00  0.00     0.108 A 
HETATM    2  C8  UNL     1      -9.668  47.690  -6.313  1.00  0.00     0.170 A 
HETATM    3  C9  UNL     1      -9.535  47.938  -4.801  1.00  0.00     0.154 A 
HETATM    4 CL1  UNL     1     -11.013  47.788  -3.836  1.00  0.00    -0.098 Cl
HETATM    5 CL2  UNL     1      -8.320  49.140  -4.338  1.00  0.00    -0.098 Cl
ENDROOT
BRANCH   1   6
HETATM    6  C2  UNL     1      -9.792  45.399  -5.142  1.00  0.00     0.203 C 
HETATM    7  O1  UNL     1     -10.297  44.790  -6.043  1.00  0.00    -0.284 OA
BRANCH   6   8
HETATM    8  S1  UNL     1      -9.930  44.833  -3.445  1.00  0.00    -0.096 SA
HETATM    9  C1  UNL     1      -8.550  43.706  -3.121  1.00  0.00     0.098 C 
ENDBRANCH   6   8
ENDBRANCH   1   6
BRANCH   1  10
HETATM   10  C4  UNL     1      -7.562  46.497  -5.423  1.00  0.00    -0.002 C 
HETATM   11  C5  UNL     1      -6.807  46.306  -6.490  1.00  0.00    -0.090 C 
HETATM   12  C6  UNL     1      -5.342  46.171  -6.315  1.00  0.00     0.042 C 
HETATM   13  C7  UNL     1      -7.349  46.220  -7.863  1.00  0.00     0.042 C 
ENDBRANCH   1  10
BRANCH   2  14
HETATM   14  N1  UNL     1     -11.006  47.437  -6.780  1.00  0.00    -0.094 NA
BRANCH  14  15
HETATM   15  O2  UNL     1     -11.014  46.834  -7.997  1.00  0.00    -0.296 OA
ATOM     16  H2  UNL     1     -10.995  45.887  -7.924  1.00  0.00     0.238 HD
ENDBRANCH  14  15
ENDBRANCH   2  14
TORSDOF 5
ENDMDL
