MODEL 1
REMARK VINA RESULT: -8.040443382      0.000      0.000
REMARK  5 active torsions:
REMARK  status: ('A' for Active; 'I' for Inactive)
REMARK    1  A    between atoms: C2_2  and  C3_3 
REMARK    2  A    between atoms: C3_3  and  C4_4 
REMARK       I    between atoms: C4_4  and  N1_6 
REMARK    3  A    between atoms: C5_7  and  O2_8 
REMARK    4  A    between atoms: C7_11  and  C8_12 
REMARK    5  A    between atoms: C13_19  and  O3_20 
ROOT
HETATM    1  C4  UNL     1      -7.374  43.331  -3.545  1.00  0.00     0.232 C 
HETATM    2  O1  UNL     1      -6.189  43.283  -3.929  1.00  0.00    -0.273 OA
HETATM    3  N1  UNL     1      -8.216  44.457  -3.865  1.00  0.00    -0.241 N 
HETATM    4  C5  UNL     1      -9.499  44.608  -3.482  1.00  0.00     0.151 A 
HETATM    5  C6  UNL     1      -9.997  45.770  -4.090  1.00  0.00     0.068 A 
HETATM    6  C7  UNL     1      -8.993  46.323  -4.848  1.00  0.00     0.002 A 
HETATM    7  C13 UNL     1      -7.871  45.464  -4.679  1.00  0.00     0.158 A 
ENDROOT
BRANCH   6   8
HETATM    8  C8  UNL     1      -8.987  47.592  -5.600  1.00  0.00     0.029 C 
HETATM    9  C9  UNL     1     -10.356  48.028  -6.055  1.00  0.00     0.015 C 
HETATM   10  C10 UNL     1     -10.737  49.330  -5.444  1.00  0.00     0.080 C 
HETATM   11  C11 UNL     1      -9.873  49.395  -4.188  1.00  0.00     0.244 C 
HETATM   12  F1  UNL     1      -9.699  50.715  -3.789  1.00  0.00    -0.206 F 
HETATM   13  F2  UNL     1     -10.525  48.675  -3.223  1.00  0.00    -0.206 F 
HETATM   14  C12 UNL     1      -8.596  48.723  -4.607  1.00  0.00     0.088 C 
ENDBRANCH   6   8
BRANCH   7  15
HETATM   15  O3  UNL     1      -6.660  45.707  -5.299  1.00  0.00    -0.345 OA
ATOM     16  H3  UNL     1      -5.817  45.909  -4.910  1.00  0.00     0.219 HD
ENDBRANCH   7  15
BRANCH   4  17
HETATM   17  O2  UNL     1     -10.283  43.837  -2.646  1.00  0.00    -0.346 OA
ATOM     18  H2  UNL     1     -10.722  43.010  -2.801  1.00  0.00     0.219 HD
ENDBRANCH   4  17
BRANCH   1  19
HETATM   19  C3  UNL     1      -7.895  42.193  -2.758  1.00  0.00     0.103 C 
BRANCH  19  20
HETATM   20  C2  UNL     1      -7.760  40.871  -3.501  1.00  0.00     0.005 C 
HETATM   21  C1  UNL     1      -9.149  40.493  -3.983  1.00  0.00     0.005 C 
ENDBRANCH  19  20
ENDBRANCH   1  19
TORSDOF 5
ENDMDL
MODEL 2
REMARK VINA RESULT: -7.318354351      2.383      2.973
REMARK  5 active torsions:
REMARK  status: ('A' for Active; 'I' for Inactive)
REMARK    1  A    between atoms: C2_2  and  C3_3 
REMARK    2  A    between atoms: C3_3  and  C4_4 
REMARK       I    between atoms: C4_4  and  N1_6 
REMARK    3  A    between atoms: C5_7  and  O2_8 
REMARK    4  A    between atoms: C7_11  and  C8_12 
REMARK    5  A    between atoms: C13_19  and  O3_20 
ROOT
HETATM    1  C4  UNL     1      -6.270  43.782  -3.830  1.00  0.00     0.232 C 
HETATM    2  O1  UNL     1      -5.441  44.407  -4.520  1.00  0.00    -0.273 OA
HETATM    3  N1  UNL     1      -7.619  44.267  -3.667  1.00  0.00    -0.241 N 
HETATM    4  C5  UNL     1      -8.578  43.674  -2.930  1.00  0.00     0.151 A 
HETATM    5  C6  UNL     1      -9.772  44.387  -3.122  1.00  0.00     0.068 A 
HETATM    6  C7  UNL     1      -9.518  45.424  -3.988  1.00  0.00     0.002 A 
HETATM    7  C13 UNL     1      -8.137  45.321  -4.311  1.00  0.00     0.158 A 
ENDROOT
BRANCH   6   8
HETATM    8  C8  UNL     1     -10.418  46.508  -4.428  1.00  0.00     0.029 C 
HETATM    9  C9  UNL     1      -9.699  47.654  -5.091  1.00  0.00     0.015 C 
HETATM   10  C10 UNL     1     -10.136  47.817  -6.504  1.00  0.00     0.080 C 
HETATM   11  C11 UNL     1     -10.670  46.436  -6.869  1.00  0.00     0.244 C 
HETATM   12  F1  UNL     1     -11.574  46.529  -7.921  1.00  0.00    -0.206 F 
HETATM   13  F2  UNL     1      -9.587  45.675  -7.222  1.00  0.00    -0.206 F 
HETATM   14  C12 UNL     1     -11.289  45.950  -5.588  1.00  0.00     0.088 C 
ENDBRANCH   6   8
BRANCH   7  15
HETATM   15  O3  UNL     1      -7.516  46.210  -5.168  1.00  0.00    -0.345 OA
ATOM     16  H3  UNL     1      -6.667  46.142  -5.590  1.00  0.00     0.219 HD
ENDBRANCH   7  15
BRANCH   4  17
HETATM   17  O2  UNL     1      -8.520  42.574  -2.097  1.00  0.00    -0.346 OA
ATOM     18  H2  UNL     1      -7.887  42.338  -1.430  1.00  0.00     0.219 HD
ENDBRANCH   4  17
BRANCH   1  19
HETATM   19  C3  UNL     1      -5.834  42.523  -3.191  1.00  0.00     0.103 C 
BRANCH  19  20
HETATM   20  C2  UNL     1      -5.121  41.600  -4.169  1.00  0.00     0.005 C 
HETATM   21  C1  UNL     1      -3.632  41.762  -3.923  1.00  0.00     0.005 C 
ENDBRANCH  19  20
ENDBRANCH   1  19
TORSDOF 5
ENDMDL
MODEL 3
REMARK VINA RESULT: -7.069853369      1.497      2.592
REMARK  5 active torsions:
REMARK  status: ('A' for Active; 'I' for Inactive)
REMARK    1  A    between atoms: C2_2  and  C3_3 
REMARK    2  A    between atoms: C3_3  and  C4_4 
REMARK       I    between atoms: C4_4  and  N1_6 
REMARK    3  A    between atoms: C5_7  and  O2_8 
REMARK    4  A    between atoms: C7_11  and  C8_12 
REMARK    5  A    between atoms: C13_19  and  O3_20 
ROOT
HETATM    1  C4  UNL     1      -7.385  43.419  -3.196  1.00  0.00     0.232 C 
HETATM    2  O1  UNL     1      -8.069  42.753  -2.395  1.00  0.00    -0.273 OA
HETATM    3  N1  UNL     1      -7.959  44.521  -3.929  1.00  0.00    -0.241 N 
HETATM    4  C5  UNL     1      -7.308  45.285  -4.828  1.00  0.00     0.151 A 
HETATM    5  C6  UNL     1      -8.175  46.314  -5.227  1.00  0.00     0.068 A 
HETATM    6  C7  UNL     1      -9.364  46.159  -4.556  1.00  0.00     0.002 A 
HETATM    7  C13 UNL     1      -9.194  45.004  -3.741  1.00  0.00     0.158 A 
ENDROOT
BRANCH   6   8
HETATM    8  C8  UNL     1     -10.618  46.923  -4.698  1.00  0.00     0.029 C 
HETATM    9  C9  UNL     1     -11.132  47.483  -3.398  1.00  0.00     0.015 C 
HETATM   10  C10 UNL     1     -11.171  48.971  -3.430  1.00  0.00     0.080 C 
HETATM   11  C11 UNL     1     -10.149  49.325  -4.505  1.00  0.00     0.244 C 
HETATM   12  F1  UNL     1     -10.421  50.582  -5.035  1.00  0.00    -0.206 F 
HETATM   13  F2  UNL     1      -8.920  49.305  -3.903  1.00  0.00    -0.206 F 
HETATM   14  C12 UNL     1     -10.291  48.212  -5.504  1.00  0.00     0.088 C 
ENDBRANCH   6   8
BRANCH   7  15
HETATM   15  O3  UNL     1     -10.198  44.535  -2.916  1.00  0.00    -0.345 OA
ATOM     16  H3  UNL     1     -11.135  44.685  -2.966  1.00  0.00     0.219 HD
ENDBRANCH   7  15
BRANCH   4  17
HETATM   17  O2  UNL     1      -6.032  45.175  -5.344  1.00  0.00    -0.346 OA
ATOM     18  H2  UNL     1      -5.476  45.824  -5.759  1.00  0.00     0.219 HD
ENDBRANCH   4  17
BRANCH   1  19
HETATM   19  C3  UNL     1      -5.963  43.052  -3.367  1.00  0.00     0.103 C 
BRANCH  19  20
HETATM   20  C2  UNL     1      -5.789  41.593  -3.762  1.00  0.00     0.005 C 
HETATM   21  C1  UNL     1      -4.299  41.304  -3.736  1.00  0.00     0.005 C 
ENDBRANCH  19  20
ENDBRANCH   1  19
TORSDOF 5
ENDMDL
MODEL 4
REMARK VINA RESULT: -6.795722481      3.372      6.533
REMARK  5 active torsions:
REMARK  status: ('A' for Active; 'I' for Inactive)
REMARK    1  A    between atoms: C2_2  and  C3_3 
REMARK    2  A    between atoms: C3_3  and  C4_4 
REMARK       I    between atoms: C4_4  and  N1_6 
REMARK    3  A    between atoms: C5_7  and  O2_8 
REMARK    4  A    between atoms: C7_11  and  C8_12 
REMARK    5  A    between atoms: C13_19  and  O3_20 
ROOT
HETATM    1  C4  UNL     1     -10.210  45.786  -3.926  1.00  0.00     0.232 C 
HETATM    2  O1  UNL     1     -11.127  45.292  -3.241  1.00  0.00    -0.273 OA
HETATM    3  N1  UNL     1      -8.877  45.237  -3.892  1.00  0.00    -0.241 N 
HETATM    4  C5  UNL     1      -7.819  45.710  -4.580  1.00  0.00     0.151 A 
HETATM    5  C6  UNL     1      -6.742  44.836  -4.369  1.00  0.00     0.068 A 
HETATM    6  C7  UNL     1      -7.165  43.824  -3.539  1.00  0.00     0.002 A 
HETATM    7  C13 UNL     1      -8.528  44.113  -3.251  1.00  0.00     0.158 A 
ENDROOT
BRANCH   6   8
HETATM    8  C8  UNL     1      -6.385  42.719  -2.950  1.00  0.00     0.029 C 
HETATM    9  C9  UNL     1      -6.312  41.499  -3.828  1.00  0.00     0.015 C 
HETATM   10  C10 UNL     1      -4.909  41.201  -4.222  1.00  0.00     0.080 C 
HETATM   11  C11 UNL     1      -4.210  42.549  -4.075  1.00  0.00     0.244 C 
HETATM   12  F1  UNL     1      -2.844  42.367  -3.886  1.00  0.00    -0.206 F 
HETATM   13  F2  UNL     1      -4.454  43.248  -5.227  1.00  0.00    -0.206 F 
HETATM   14  C12 UNL     1      -4.899  43.173  -2.895  1.00  0.00     0.088 C 
ENDBRANCH   6   8
BRANCH   7  15
HETATM   15  O3  UNL     1      -9.292  43.303  -2.433  1.00  0.00    -0.345 OA
ATOM     16  H3  UNL     1      -9.322  42.354  -2.389  1.00  0.00     0.219 HD
ENDBRANCH   7  15
BRANCH   4  17
HETATM   17  O2  UNL     1      -7.693  46.834  -5.371  1.00  0.00    -0.346 OA
ATOM     18  H2  UNL     1      -8.050  47.708  -5.265  1.00  0.00     0.219 HD
ENDBRANCH   4  17
BRANCH   1  19
HETATM   19  C3  UNL     1     -10.532  46.946  -4.783  1.00  0.00     0.103 C 
BRANCH  19  20
HETATM   20  C2  UNL     1     -10.841  48.194  -3.970  1.00  0.00     0.005 C 
HETATM   21  C1  UNL     1      -9.808  49.238  -4.355  1.00  0.00     0.005 C 
ENDBRANCH  19  20
ENDBRANCH   1  19
TORSDOF 5
ENDMDL
MODEL 5
REMARK VINA RESULT: -6.652046783      2.075      3.095
REMARK  5 active torsions:
REMARK  status: ('A' for Active; 'I' for Inactive)
REMARK    1  A    between atoms: C2_2  and  C3_3 
REMARK    2  A    between atoms: C3_3  and  C4_4 
REMARK       I    between atoms: C4_4  and  N1_6 
REMARK    3  A    between atoms: C5_7  and  O2_8 
REMARK    4  A    between atoms: C7_11  and  C8_12 
REMARK    5  A    between atoms: C13_19  and  O3_20 
ROOT
HETATM    1  C4  UNL     1      -7.432  43.132  -2.926  1.00  0.00     0.232 C 
HETATM    2  O1  UNL     1      -8.181  42.463  -2.188  1.00  0.00    -0.273 OA
HETATM    3  N1  UNL     1      -7.941  44.239  -3.697  1.00  0.00    -0.241 N 
HETATM    4  C5  UNL     1      -7.218  45.008  -4.534  1.00  0.00     0.151 A 
HETATM    5  C6  UNL     1      -8.047  46.041  -4.997  1.00  0.00     0.068 A 
HETATM    6  C7  UNL     1      -9.288  45.884  -4.427  1.00  0.00     0.002 A 
HETATM    7  C13 UNL     1      -9.187  44.724  -3.609  1.00  0.00     0.158 A 
ENDROOT
BRANCH   6   8
HETATM    8  C8  UNL     1     -10.525  46.652  -4.668  1.00  0.00     0.029 C 
HETATM    9  C9  UNL     1     -10.324  48.144  -4.626  1.00  0.00     0.015 C 
HETATM   10  C10 UNL     1     -10.645  48.767  -5.938  1.00  0.00     0.080 C 
HETATM   11  C11 UNL     1     -10.474  47.616  -6.925  1.00  0.00     0.244 C 
HETATM   12  F1  UNL     1     -11.217  47.853  -8.076  1.00  0.00    -0.206 F 
HETATM   13  F2  UNL     1      -9.138  47.539  -7.213  1.00  0.00    -0.206 F 
HETATM   14  C12 UNL     1     -10.940  46.418  -6.148  1.00  0.00     0.088 C 
ENDBRANCH   6   8
BRANCH   7  15
HETATM   15  O3  UNL     1     -10.256  44.251  -2.872  1.00  0.00    -0.345 OA
ATOM     16  H3  UNL     1     -11.176  44.206  -3.111  1.00  0.00     0.219 HD
ENDBRANCH   7  15
BRANCH   4  17
HETATM   17  O2  UNL     1      -5.903  44.899  -4.943  1.00  0.00    -0.346 OA
ATOM     18  H2  UNL     1      -5.095  44.947  -4.445  1.00  0.00     0.219 HD
ENDBRANCH   4  17
BRANCH   1  19
HETATM   19  C3  UNL     1      -6.001  42.764  -2.981  1.00  0.00     0.103 C 
BRANCH  19  20
HETATM   20  C2  UNL     1      -5.745  41.590  -3.915  1.00  0.00     0.005 C 
HETATM   21  C1  UNL     1      -4.261  41.277  -3.832  1.00  0.00     0.005 C 
ENDBRANCH  19  20
ENDBRANCH   1  19
TORSDOF 5
ENDMDL
