MODEL 1
REMARK VINA RESULT: -5.772877904      0.000      0.000
REMARK  5 active torsions:
REMARK  status: ('A' for Active; 'I' for Inactive)
REMARK    1  A    between atoms: C2_2  and  C5_5 
REMARK    2  A    between atoms: C5_5  and  O1_6 
REMARK    3  A    between atoms: C5_5  and  C6_8 
REMARK    4  A    between atoms: C8_12  and  C9_13 
REMARK    5  A    between atoms: C10_16  and  C11_17 
ROOT
HETATM    1  C6  UNL     1      -7.855  44.464  -3.823  1.00  0.00     0.038 A 
HETATM    2  C7  UNL     1      -8.956  43.951  -3.077  1.00  0.00     0.101 A 
HETATM    3  N1  UNL     1      -8.933  42.919  -2.053  1.00  0.00    -0.093 NA
HETATM    4  S1  UNL     1     -10.290  44.791  -3.645  1.00  0.00    -0.067 SA
HETATM    5  C8  UNL     1      -9.551  45.784  -4.795  1.00  0.00     0.095 A 
HETATM    6  C10 UNL     1      -8.198  45.429  -4.717  1.00  0.00     0.045 A 
ENDROOT
BRANCH   1   7
HETATM    7  C5  UNL     1      -6.541  43.864  -3.493  1.00  0.00     0.064 C 
BRANCH   7   8
HETATM    8  C2  UNL     1      -5.398  43.230  -4.048  1.00  0.00    -0.002 C 
HETATM    9  C1  UNL     1      -4.310  43.314  -2.844  1.00  0.00     0.021 C 
HETATM   10  C3  UNL     1      -4.599  43.883  -5.132  1.00  0.00     0.021 C 
HETATM   11  C4  UNL     1      -5.445  41.740  -4.316  1.00  0.00     0.021 C 
ENDBRANCH   7   8
BRANCH   7  12
HETATM   12  O1  UNL     1      -6.294  43.907  -2.154  1.00  0.00    -0.363 OA
ATOM     13  H1  UNL     1      -6.413  44.819  -1.918  1.00  0.00     0.217 HD
ENDBRANCH   7  12
ENDBRANCH   1   7
BRANCH   6  14
HETATM   14  C11 UNL     1      -7.279  46.243  -5.608  1.00  0.00     0.389 C 
HETATM   15  F1  UNL     1      -7.498  45.987  -6.953  1.00  0.00    -0.209 F 
HETATM   16  F2  UNL     1      -7.274  47.571  -5.463  1.00  0.00    -0.209 F 
ENDBRANCH   6  14
BRANCH   5  17
HETATM   17  C9  UNL     1     -10.274  46.751  -5.613  1.00  0.00     0.217 C 
HETATM   18  O2  UNL     1     -10.773  46.692  -6.716  1.00  0.00    -0.643 OA
HETATM   19  O3  UNL     1     -10.454  48.047  -5.033  1.00  0.00    -0.643 OA
ENDBRANCH   5  17
TORSDOF 5
ENDMDL
MODEL 2
REMARK VINA RESULT: -5.647277814      5.436      7.372
REMARK  5 active torsions:
REMARK  status: ('A' for Active; 'I' for Inactive)
REMARK    1  A    between atoms: C2_2  and  C5_5 
REMARK    2  A    between atoms: C5_5  and  O1_6 
REMARK    3  A    between atoms: C5_5  and  C6_8 
REMARK    4  A    between atoms: C8_12  and  C9_13 
REMARK    5  A    between atoms: C10_16  and  C11_17 
ROOT
HETATM    1  C6  UNL     1      -2.715  46.104  -5.927  1.00  0.00     0.038 A 
HETATM    2  C7  UNL     1      -1.735  47.062  -5.535  1.00  0.00     0.101 A 
HETATM    3  N1  UNL     1      -1.467  48.358  -6.137  1.00  0.00    -0.093 NA
HETATM    4  S1  UNL     1      -0.948  46.364  -4.231  1.00  0.00    -0.067 SA
HETATM    5  C8  UNL     1      -1.784  44.900  -4.125  1.00  0.00     0.095 A 
HETATM    6  C10 UNL     1      -2.720  44.979  -5.166  1.00  0.00     0.045 A 
ENDROOT
BRANCH   1   7
HETATM    7  C5  UNL     1      -3.553  46.502  -7.082  1.00  0.00     0.064 C 
BRANCH   7   8
HETATM    8  C2  UNL     1      -3.819  46.236  -8.452  1.00  0.00    -0.002 C 
HETATM    9  C1  UNL     1      -2.386  46.517  -9.166  1.00  0.00     0.021 C 
HETATM   10  C3  UNL     1      -4.671  47.155  -9.269  1.00  0.00     0.021 C 
HETATM   11  C4  UNL     1      -4.100  44.811  -8.880  1.00  0.00     0.021 C 
ENDBRANCH   7   8
BRANCH   7  12
HETATM   12  O1  UNL     1      -4.404  47.514  -6.757  1.00  0.00    -0.363 OA
ATOM     13  H1  UNL     1      -3.838  48.252  -6.567  1.00  0.00     0.217 HD
ENDBRANCH   7  12
ENDBRANCH   1   7
BRANCH   6  14
HETATM   14  C11 UNL     1      -3.673  43.802  -5.247  1.00  0.00     0.389 C 
HETATM   15  F1  UNL     1      -4.996  44.192  -5.103  1.00  0.00    -0.209 F 
HETATM   16  F2  UNL     1      -3.618  43.018  -6.328  1.00  0.00    -0.209 F 
ENDBRANCH   6  14
BRANCH   5  17
HETATM   17  C9  UNL     1      -1.499  43.876  -3.127  1.00  0.00     0.217 C 
HETATM   18  O2  UNL     1      -1.136  42.722  -3.206  1.00  0.00    -0.643 OA
HETATM   19  O3  UNL     1      -1.671  44.271  -1.761  1.00  0.00    -0.643 OA
ENDBRANCH   5  17
TORSDOF 5
ENDMDL
MODEL 3
REMARK VINA RESULT: -5.570759297      1.831      5.175
REMARK  5 active torsions:
REMARK  status: ('A' for Active; 'I' for Inactive)
REMARK    1  A    between atoms: C2_2  and  C5_5 
REMARK    2  A    between atoms: C5_5  and  O1_6 
REMARK    3  A    between atoms: C5_5  and  C6_8 
REMARK    4  A    between atoms: C8_12  and  C9_13 
REMARK    5  A    between atoms: C10_16  and  C11_17 
ROOT
HETATM    1  C6  UNL     1      -8.857  45.366  -4.154  1.00  0.00     0.038 A 
HETATM    2  C7  UNL     1      -9.636  44.533  -3.299  1.00  0.00     0.101 A 
HETATM    3  N1  UNL     1     -11.041  44.678  -2.954  1.00  0.00    -0.093 NA
HETATM    4  S1  UNL     1      -8.575  43.350  -2.767  1.00  0.00    -0.067 SA
HETATM    5  C8  UNL     1      -7.166  43.831  -3.565  1.00  0.00     0.095 A 
HETATM    6  C10 UNL     1      -7.563  44.971  -4.277  1.00  0.00     0.045 A 
ENDROOT
BRANCH   1   7
HETATM    7  C5  UNL     1      -9.590  46.504  -4.756  1.00  0.00     0.064 C 
BRANCH   7   8
HETATM    8  C2  UNL     1      -9.809  47.904  -4.665  1.00  0.00    -0.002 C 
HETATM    9  C1  UNL     1     -10.399  48.280  -6.132  1.00  0.00     0.021 C 
HETATM   10  C3  UNL     1      -8.664  48.867  -4.620  1.00  0.00     0.021 C 
HETATM   11  C4  UNL     1     -10.904  48.417  -3.753  1.00  0.00     0.021 C 
ENDBRANCH   7   8
BRANCH   7  12
HETATM   12  O1  UNL     1     -10.375  46.101  -5.793  1.00  0.00    -0.363 OA
ATOM     13  H1  UNL     1     -10.460  45.162  -5.678  1.00  0.00     0.217 HD
ENDBRANCH   7  12
ENDBRANCH   1   7
BRANCH   6  14
HETATM   14  C11 UNL     1      -6.486  45.570  -5.161  1.00  0.00     0.389 C 
HETATM   15  F1  UNL     1      -5.490  44.654  -5.462  1.00  0.00    -0.209 F 
HETATM   16  F2  UNL     1      -6.856  46.131  -6.316  1.00  0.00    -0.209 F 
ENDBRANCH   6  14
BRANCH   5  17
HETATM   17  C9  UNL     1      -5.893  43.128  -3.455  1.00  0.00     0.217 C 
HETATM   18  O2  UNL     1      -4.890  43.330  -2.806  1.00  0.00    -0.643 OA
HETATM   19  O3  UNL     1      -5.759  41.952  -4.261  1.00  0.00    -0.643 OA
ENDBRANCH   5  17
TORSDOF 5
ENDMDL
MODEL 4
REMARK VINA RESULT: -5.494237568      5.398      7.397
REMARK  5 active torsions:
REMARK  status: ('A' for Active; 'I' for Inactive)
REMARK    1  A    between atoms: C2_2  and  C5_5 
REMARK    2  A    between atoms: C5_5  and  O1_6 
REMARK    3  A    between atoms: C5_5  and  C6_8 
REMARK    4  A    between atoms: C8_12  and  C9_13 
REMARK    5  A    between atoms: C10_16  and  C11_17 
ROOT
HETATM    1  C6  UNL     1      -2.651  46.227  -5.992  1.00  0.00     0.038 A 
HETATM    2  C7  UNL     1      -1.621  47.140  -5.619  1.00  0.00     0.101 A 
HETATM    3  N1  UNL     1      -1.261  48.388  -6.271  1.00  0.00    -0.093 NA
HETATM    4  S1  UNL     1      -0.907  46.454  -4.268  1.00  0.00    -0.067 SA
HETATM    5  C8  UNL     1      -1.834  45.050  -4.117  1.00  0.00     0.095 A 
HETATM    6  C10 UNL     1      -2.741  45.139  -5.182  1.00  0.00     0.045 A 
ENDROOT
BRANCH   1   7
HETATM    7  C5  UNL     1      -3.438  46.622  -7.182  1.00  0.00     0.064 C 
BRANCH   7   8
HETATM    8  C2  UNL     1      -3.547  46.463  -8.589  1.00  0.00    -0.002 C 
HETATM    9  C1  UNL     1      -3.941  44.895  -8.753  1.00  0.00     0.021 C 
HETATM   10  C3  UNL     1      -2.337  46.493  -9.469  1.00  0.00     0.021 C 
HETATM   11  C4  UNL     1      -4.688  47.143  -9.317  1.00  0.00     0.021 C 
ENDBRANCH   7   8
BRANCH   7  12
HETATM   12  O1  UNL     1      -4.452  47.470  -6.853  1.00  0.00    -0.363 OA
ATOM     13  H1  UNL     1      -5.027  47.460  -7.608  1.00  0.00     0.217 HD
ENDBRANCH   7  12
ENDBRANCH   1   7
BRANCH   6  14
HETATM   14  C11 UNL     1      -3.764  44.020  -5.234  1.00  0.00     0.389 C 
HETATM   15  F1  UNL     1      -5.057  44.502  -5.367  1.00  0.00    -0.209 F 
HETATM   16  F2  UNL     1      -3.610  43.067  -6.157  1.00  0.00    -0.209 F 
ENDBRANCH   6  14
BRANCH   5  17
HETATM   17  C9  UNL     1      -1.634  44.057  -3.069  1.00  0.00     0.217 C 
HETATM   18  O2  UNL     1      -1.155  42.944  -3.065  1.00  0.00    -0.643 OA
HETATM   19  O3  UNL     1      -2.080  44.433  -1.761  1.00  0.00    -0.643 OA
ENDBRANCH   5  17
TORSDOF 5
ENDMDL
MODEL 5
REMARK VINA RESULT: -5.471194890      5.563      7.397
REMARK  5 active torsions:
REMARK  status: ('A' for Active; 'I' for Inactive)
REMARK    1  A    between atoms: C2_2  and  C5_5 
REMARK    2  A    between atoms: C5_5  and  O1_6 
REMARK    3  A    between atoms: C5_5  and  C6_8 
REMARK    4  A    between atoms: C8_12  and  C9_13 
REMARK    5  A    between atoms: C10_16  and  C11_17 
ROOT
HETATM    1  C6  UNL     1      -2.600  46.097  -6.309  1.00  0.00     0.038 A 
HETATM    2  C7  UNL     1      -1.748  47.154  -5.874  1.00  0.00     0.101 A 
HETATM    3  N1  UNL     1      -1.473  48.410  -6.551  1.00  0.00    -0.093 NA
HETATM    4  S1  UNL     1      -1.124  46.628  -4.411  1.00  0.00    -0.067 SA
HETATM    5  C8  UNL     1      -1.876  45.121  -4.287  1.00  0.00     0.095 A 
HETATM    6  C10 UNL     1      -2.650  45.042  -5.453  1.00  0.00     0.045 A 
ENDROOT
BRANCH   1   7
HETATM    7  C5  UNL     1      -3.279  46.333  -7.604  1.00  0.00     0.064 C 
BRANCH   7   8
HETATM    8  C2  UNL     1      -4.549  46.452  -8.228  1.00  0.00    -0.002 C 
HETATM    9  C1  UNL     1      -4.658  45.086  -9.103  1.00  0.00     0.021 C 
HETATM   10  C3  UNL     1      -4.786  47.447  -9.320  1.00  0.00     0.021 C 
HETATM   11  C4  UNL     1      -5.796  46.369  -7.373  1.00  0.00     0.021 C 
ENDBRANCH   7   8
BRANCH   7  12
HETATM   12  O1  UNL     1      -2.382  46.495  -8.616  1.00  0.00    -0.363 OA
ATOM     13  H1  UNL     1      -1.883  45.687  -8.626  1.00  0.00     0.217 HD
ENDBRANCH   7  12
ENDBRANCH   1   7
BRANCH   6  14
HETATM   14  C11 UNL     1      -3.508  43.796  -5.558  1.00  0.00     0.389 C 
HETATM   15  F1  UNL     1      -4.808  44.021  -5.133  1.00  0.00    -0.209 F 
HETATM   16  F2  UNL     1      -3.590  43.184  -6.743  1.00  0.00    -0.209 F 
ENDBRANCH   6  14
BRANCH   5  17
HETATM   17  C9  UNL     1      -1.682  44.208  -3.166  1.00  0.00     0.217 C 
HETATM   18  O2  UNL     1      -1.264  43.074  -3.087  1.00  0.00    -0.643 OA
HETATM   19  O3  UNL     1      -2.044  44.717  -1.878  1.00  0.00    -0.643 OA
ENDBRANCH   5  17
TORSDOF 5
ENDMDL
