MODEL 1
REMARK VINA RESULT: -9.277223310      0.000      0.000
REMARK  5 active torsions:
REMARK  status: ('A' for Active; 'I' for Inactive)
REMARK    1  A    between atoms: C2_2  and  O1_3 
REMARK    2  A    between atoms: C2_2  and  C3_5 
REMARK    3  A    between atoms: C2_2  and  C7_16 
REMARK    4  A    between atoms: C5_7  and  C6_8 
REMARK    5  A    between atoms: C6_8  and  O2_9 
ROOT
HETATM    1  C3  UNL     1      -9.914  45.632  -5.120  1.00  0.00     0.113 A 
HETATM    2  C4  UNL     1      -8.786  45.155  -4.466  1.00  0.00     0.072 A 
HETATM    3  C5  UNL     1      -9.204  44.172  -3.594  1.00  0.00     0.118 A 
HETATM    4  N1  UNL     1     -10.533  44.099  -3.755  1.00  0.00    -0.258 N 
ATOM      5  H1  UNL     1     -11.145  43.461  -3.248  1.00  0.00     0.194 HD
HETATM    6  O3  UNL     1     -10.933  44.963  -4.654  1.00  0.00    -0.239 OA
ENDROOT
BRANCH   1   7
HETATM    7  C2  UNL     1      -9.968  46.703  -6.162  1.00  0.00     0.108 C 
HETATM    8  C1  UNL     1      -8.605  46.783  -6.774  1.00  0.00     0.053 C 
BRANCH   7   9
HETATM    9  O1  UNL     1     -10.956  46.416  -7.085  1.00  0.00    -0.383 OA
ATOM     10  H1  UNL     1     -11.709  46.990  -7.011  1.00  0.00     0.211 HD
ENDBRANCH   7   9
BRANCH   7  11
HETATM   11  C7  UNL     1     -10.269  47.996  -5.473  1.00  0.00     0.026 C 
HETATM   12  C8  UNL     1      -9.015  48.618  -4.857  1.00  0.00     0.008 C 
HETATM   13  C9  UNL     1      -9.665  49.734  -4.025  1.00  0.00     0.001 C 
HETATM   14  C10 UNL     1     -10.776  48.978  -3.346  1.00  0.00     0.001 C 
HETATM   15  C11 UNL     1     -11.109  47.808  -4.222  1.00  0.00     0.008 C 
ENDBRANCH   7  11
ENDBRANCH   1   7
BRANCH   3  16
HETATM   16  C6  UNL     1      -8.366  43.360  -2.653  1.00  0.00     0.329 C 
HETATM   17  F1  UNL     1      -8.605  42.007  -2.816  1.00  0.00    -0.186 F 
HETATM   18 CL1  UNL     1      -6.655  43.707  -3.005  1.00  0.00    -0.046 Cl
BRANCH  16  19
HETATM   19  O2  UNL     1      -8.665  43.741  -1.335  1.00  0.00    -0.345 OA
ATOM     20  H2  UNL     1      -8.902  42.967  -0.838  1.00  0.00     0.215 HD
ENDBRANCH  16  19
ENDBRANCH   3  16
TORSDOF 5
ENDMDL
MODEL 2
REMARK VINA RESULT: -8.569981177      1.567      2.611
REMARK  5 active torsions:
REMARK  status: ('A' for Active; 'I' for Inactive)
REMARK    1  A    between atoms: C2_2  and  O1_3 
REMARK    2  A    between atoms: C2_2  and  C3_5 
REMARK    3  A    between atoms: C2_2  and  C7_16 
REMARK    4  A    between atoms: C5_7  and  C6_8 
REMARK    5  A    between atoms: C6_8  and  O2_9 
ROOT
HETATM    1  C3  UNL     1      -9.159  46.218  -4.388  1.00  0.00     0.113 A 
HETATM    2  C4  UNL     1      -8.237  45.204  -4.165  1.00  0.00     0.072 A 
HETATM    3  C5  UNL     1      -8.902  44.179  -3.527  1.00  0.00     0.118 A 
HETATM    4  N1  UNL     1     -10.166  44.607  -3.395  1.00  0.00    -0.258 N 
ATOM      5  H1  UNL     1     -10.917  44.073  -2.958  1.00  0.00     0.194 HD
HETATM    6  O3  UNL     1     -10.300  45.805  -3.905  1.00  0.00    -0.239 OA
ENDROOT
BRANCH   1   7
HETATM    7  C2  UNL     1      -8.912  47.533  -5.053  1.00  0.00     0.108 C 
HETATM    8  C1  UNL     1      -9.837  48.523  -4.418  1.00  0.00     0.053 C 
BRANCH   7   9
HETATM    9  O1  UNL     1      -7.581  47.885  -4.927  1.00  0.00    -0.383 OA
ATOM     10  H1  UNL     1      -7.004  47.345  -5.454  1.00  0.00     0.211 HD
ENDBRANCH   7   9
BRANCH   7  11
HETATM   11  C7  UNL     1      -9.270  47.390  -6.498  1.00  0.00     0.026 C 
HETATM   12  C8  UNL     1     -10.618  48.038  -6.817  1.00  0.00     0.008 C 
HETATM   13  C9  UNL     1     -10.826  47.506  -8.244  1.00  0.00     0.001 C 
HETATM   14  C10 UNL     1     -10.498  46.048  -8.059  1.00  0.00     0.001 C 
HETATM   15  C11 UNL     1      -9.572  45.953  -6.884  1.00  0.00     0.008 C 
ENDBRANCH   7  11
ENDBRANCH   1   7
BRANCH   3  16
HETATM   16  C6  UNL     1      -8.343  42.868  -3.063  1.00  0.00     0.329 C 
HETATM   17  F1  UNL     1      -8.886  41.815  -3.777  1.00  0.00    -0.186 F 
HETATM   18 CL1  UNL     1      -6.579  42.906  -3.310  1.00  0.00    -0.046 Cl
BRANCH  16  19
HETATM   19  O2  UNL     1      -8.626  42.712  -1.696  1.00  0.00    -0.345 OA
ATOM     20  H2  UNL     1      -9.255  43.375  -1.436  1.00  0.00     0.215 HD
ENDBRANCH  16  19
ENDBRANCH   3  16
TORSDOF 5
ENDMDL
MODEL 3
REMARK VINA RESULT: -8.275800484      1.736      2.454
REMARK  5 active torsions:
REMARK  status: ('A' for Active; 'I' for Inactive)
REMARK    1  A    between atoms: C2_2  and  O1_3 
REMARK    2  A    between atoms: C2_2  and  C3_5 
REMARK    3  A    between atoms: C2_2  and  C7_16 
REMARK    4  A    between atoms: C5_7  and  C6_8 
REMARK    5  A    between atoms: C6_8  and  O2_9 
ROOT
HETATM    1  C3  UNL     1      -9.946  44.370  -3.532  1.00  0.00     0.113 A 
HETATM    2  C4  UNL     1      -9.572  43.154  -4.087  1.00  0.00     0.072 A 
HETATM    3  C5  UNL     1      -8.800  42.497  -3.153  1.00  0.00     0.118 A 
HETATM    4  N1  UNL     1      -8.741  43.324  -2.100  1.00  0.00    -0.258 N 
ATOM      5  H1  UNL     1      -8.240  43.128  -1.234  1.00  0.00     0.194 HD
HETATM    6  O3  UNL     1      -9.419  44.419  -2.339  1.00  0.00    -0.239 OA
ENDROOT
BRANCH   1   7
HETATM    7  C2  UNL     1     -10.790  45.430  -4.163  1.00  0.00     0.108 C 
HETATM    8  C1  UNL     1     -10.702  45.231  -5.643  1.00  0.00     0.053 C 
BRANCH   7   9
HETATM    9  O1  UNL     1     -12.085  45.351  -3.686  1.00  0.00    -0.383 OA
ATOM     10  H1  UNL     1     -12.141  44.931  -2.836  1.00  0.00     0.211 HD
ENDBRANCH   7   9
BRANCH   7  11
HETATM   11  C7  UNL     1     -10.194  46.757  -3.815  1.00  0.00     0.026 C 
HETATM   12  C8  UNL     1     -11.242  47.872  -3.827  1.00  0.00     0.008 C 
HETATM   13  C9  UNL     1     -10.317  49.093  -3.711  1.00  0.00     0.001 C 
HETATM   14  C10 UNL     1      -9.273  48.764  -4.745  1.00  0.00     0.001 C 
HETATM   15  C11 UNL     1      -9.251  47.272  -4.886  1.00  0.00     0.008 C 
ENDBRANCH   7  11
ENDBRANCH   1   7
BRANCH   3  16
HETATM   16  C6  UNL     1      -8.148  41.153  -3.279  1.00  0.00     0.329 C 
HETATM   17  F1  UNL     1      -8.689  40.436  -4.332  1.00  0.00    -0.186 F 
HETATM   18 CL1  UNL     1      -6.410  41.412  -3.568  1.00  0.00    -0.046 Cl
BRANCH  16  19
HETATM   19  O2  UNL     1      -8.330  40.447  -2.079  1.00  0.00    -0.345 OA
ATOM     20  H2  UNL     1      -7.589  40.614  -1.509  1.00  0.00     0.215 HD
ENDBRANCH  16  19
ENDBRANCH   3  16
TORSDOF 5
ENDMDL
MODEL 4
REMARK VINA RESULT: -8.239279309      0.823      1.257
REMARK  5 active torsions:
REMARK  status: ('A' for Active; 'I' for Inactive)
REMARK    1  A    between atoms: C2_2  and  O1_3 
REMARK    2  A    between atoms: C2_2  and  C3_5 
REMARK    3  A    between atoms: C2_2  and  C7_16 
REMARK    4  A    between atoms: C5_7  and  C6_8 
REMARK    5  A    between atoms: C6_8  and  O2_9 
ROOT
HETATM    1  C3  UNL     1      -9.592  45.514  -4.784  1.00  0.00     0.113 A 
HETATM    2  C4  UNL     1      -8.539  44.833  -4.189  1.00  0.00     0.072 A 
HETATM    3  C5  UNL     1      -9.026  43.614  -3.768  1.00  0.00     0.118 A 
HETATM    4  N1  UNL     1     -10.320  43.611  -4.119  1.00  0.00    -0.258 N 
ATOM      5  H1  UNL     1     -10.967  42.842  -3.947  1.00  0.00     0.194 HD
HETATM    6  O3  UNL     1     -10.636  44.734  -4.714  1.00  0.00    -0.239 OA
ENDROOT
BRANCH   1   7
HETATM    7  C2  UNL     1      -9.555  46.878  -5.395  1.00  0.00     0.108 C 
HETATM    8  C1  UNL     1      -8.211  47.031  -6.034  1.00  0.00     0.053 C 
BRANCH   7   9
HETATM    9  O1  UNL     1     -10.597  47.023  -6.293  1.00  0.00    -0.383 OA
ATOM     10  H1  UNL     1     -11.283  46.379  -6.169  1.00  0.00     0.211 HD
ENDBRANCH   7   9
BRANCH   7  11
HETATM   11  C7  UNL     1      -9.685  47.877  -4.291  1.00  0.00     0.026 C 
HETATM   12  C8  UNL     1     -11.149  48.216  -4.000  1.00  0.00     0.008 C 
HETATM   13  C9  UNL     1     -10.952  49.415  -3.059  1.00  0.00     0.001 C 
HETATM   14  C10 UNL     1      -9.929  50.215  -3.821  1.00  0.00     0.001 C 
HETATM   15  C11 UNL     1      -9.171  49.250  -4.683  1.00  0.00     0.008 C 
ENDBRANCH   7  11
ENDBRANCH   1   7
BRANCH   3  16
HETATM   16  C6  UNL     1      -8.283  42.522  -3.058  1.00  0.00     0.329 C 
HETATM   17  F1  UNL     1      -8.637  41.278  -3.552  1.00  0.00    -0.186 F 
HETATM   18 CL1  UNL     1      -6.541  42.789  -3.314  1.00  0.00    -0.046 Cl
BRANCH  16  19
HETATM   19  O2  UNL     1      -8.578  42.591  -1.687  1.00  0.00    -0.345 OA
ATOM     20  H2  UNL     1      -7.923  43.130  -1.259  1.00  0.00     0.215 HD
ENDBRANCH  16  19
ENDBRANCH   3  16
TORSDOF 5
ENDMDL
MODEL 5
REMARK VINA RESULT: -8.190609552      1.479      2.589
REMARK  5 active torsions:
REMARK  status: ('A' for Active; 'I' for Inactive)
REMARK    1  A    between atoms: C2_2  and  O1_3 
REMARK    2  A    between atoms: C2_2  and  C3_5 
REMARK    3  A    between atoms: C2_2  and  C7_16 
REMARK    4  A    between atoms: C5_7  and  C6_8 
REMARK    5  A    between atoms: C6_8  and  O2_9 
ROOT
HETATM    1  C3  UNL     1      -9.807  45.927  -4.124  1.00  0.00     0.113 A 
HETATM    2  C4  UNL     1      -8.739  45.040  -4.098  1.00  0.00     0.072 A 
HETATM    3  C5  UNL     1      -9.139  43.938  -3.374  1.00  0.00     0.118 A 
HETATM    4  N1  UNL     1     -10.400  44.199  -3.003  1.00  0.00    -0.258 N 
ATOM      5  H1  UNL     1     -10.985  43.573  -2.449  1.00  0.00     0.194 HD
HETATM    6  O3  UNL     1     -10.777  45.371  -3.451  1.00  0.00    -0.239 OA
ENDROOT
BRANCH   1   7
HETATM    7  C2  UNL     1      -9.855  47.264  -4.791  1.00  0.00     0.108 C 
HETATM    8  C1  UNL     1     -10.640  48.169  -3.895  1.00  0.00     0.053 C 
BRANCH   7   9
HETATM    9  O1  UNL     1      -8.572  47.722  -5.026  1.00  0.00    -0.383 OA
ATOM     10  H1  UNL     1      -8.447  48.625  -4.762  1.00  0.00     0.211 HD
ENDBRANCH   7   9
BRANCH   7  11
HETATM   11  C7  UNL     1     -10.588  47.103  -6.085  1.00  0.00     0.026 C 
HETATM   12  C8  UNL     1      -9.877  46.128  -7.025  1.00  0.00     0.008 C 
HETATM   13  C9  UNL     1     -10.682  46.379  -8.310  1.00  0.00     0.001 C 
HETATM   14  C10 UNL     1     -10.704  47.884  -8.347  1.00  0.00     0.001 C 
HETATM   15  C11 UNL     1     -10.552  48.360  -6.934  1.00  0.00     0.008 C 
ENDBRANCH   7  11
ENDBRANCH   1   7
BRANCH   3  16
HETATM   16  C6  UNL     1      -8.342  42.710  -3.053  1.00  0.00     0.329 C 
HETATM   17  F1  UNL     1      -8.662  41.671  -3.910  1.00  0.00    -0.186 F 
HETATM   18 CL1  UNL     1      -6.617  43.114  -3.229  1.00  0.00    -0.046 Cl
BRANCH  16  19
HETATM   19  O2  UNL     1      -8.608  42.331  -1.727  1.00  0.00    -0.345 OA
ATOM     20  H2  UNL     1      -9.027  43.056  -1.279  1.00  0.00     0.215 HD
ENDBRANCH  16  19
ENDBRANCH   3  16
TORSDOF 5
ENDMDL
