MODEL 1
REMARK VINA RESULT: -8.707110262      0.000      0.000
REMARK  7 active torsions:
REMARK  status: ('A' for Active; 'I' for Inactive)
REMARK    1  A    between atoms: O1_1  and  N1_3 
REMARK    2  A    between atoms: N1_3  and  N2_4 
REMARK    3  A    between atoms: N1_3  and  N5_23 
REMARK    4  A    between atoms: N2_4  and  S1_6 
REMARK    5  A    between atoms: S1_6  and  N3_8 
REMARK    6  A    between atoms: S1_6  and  C1_12 
REMARK    7  A    between atoms: N3_8  and  O3_10 
ROOT
HETATM    1  S1  UNL     1      13.807   8.727   1.387  1.00  0.00     0.175 S 
HETATM    2  O2  UNL     1      12.345   8.604   1.712  1.00  0.00    -0.223 OA
ENDROOT
BRANCH   1   3
HETATM    3  N2  UNL     1      14.755   9.081   2.781  1.00  0.00    -0.199 N 
ATOM      4  H2  UNL     1      15.755   8.884   2.746  1.00  0.00     0.202 HD
BRANCH   3   5
HETATM    5  N1  UNL     1      14.229   9.622   3.958  1.00  0.00    -0.089 N 
BRANCH   5   6
HETATM    6  O1  UNL     1      13.411  10.573   3.797  1.00  0.00    -0.253 OA
ATOM      7  H1  UNL     1      12.949  10.848   4.580  1.00  0.00     0.248 HD
ENDBRANCH   5   6
BRANCH   5   8
HETATM    8  N5  UNL     1      14.580   9.153   5.216  1.00  0.00    -0.286 N 
HETATM    9  C9  UNL     1      13.564   8.396   5.899  1.00  0.00     0.146 C 
HETATM   10  C10 UNL     1      13.111   9.212   7.086  1.00  0.00     0.021 C 
HETATM   11  C11 UNL     1      14.260   9.855   7.817  1.00  0.00     0.002 C 
HETATM   12  C12 UNL     1      15.404   8.938   8.077  1.00  0.00     0.002 C 
HETATM   13  C13 UNL     1      16.298   8.706   6.898  1.00  0.00     0.021 C 
HETATM   14  C14 UNL     1      15.900   9.481   5.674  1.00  0.00     0.146 C 
ENDBRANCH   5   8
ENDBRANCH   3   5
ENDBRANCH   1   3
BRANCH   1  15
HETATM   15  N3  UNL     1      14.280   7.337   0.818  1.00  0.00    -0.208 N 
ATOM     16  H3  UNL     1      15.029   7.306   0.127  1.00  0.00     0.205 HD
BRANCH  15  17
HETATM   17  O3  UNL     1      13.691   6.155   1.244  1.00  0.00    -0.281 OA
ATOM     18  H3  UNL     1      14.113   5.318   1.094  1.00  0.00     0.245 HD
ENDBRANCH  15  17
ENDBRANCH   1  15
BRANCH   1  19
HETATM   19  C1  UNL     1      14.072   9.971   0.147  1.00  0.00     0.310 C 
HETATM   20  C2  UNL     1      15.269   9.569  -0.686  1.00  0.00     0.056 C 
HETATM   21  C3  UNL     1      15.061  10.448  -1.924  1.00  0.00     0.019 C 
HETATM   22  C4  UNL     1      15.791   9.855  -3.103  1.00  0.00     0.007 C 
HETATM   23  C8  UNL     1      13.566  10.384  -2.082  1.00  0.00     0.191 C 
HETATM   24  C5  UNL     1      15.094  10.275  -4.376  1.00  0.00     0.001 C 
HETATM   25  C6  UNL     1      13.765   9.592  -4.451  1.00  0.00     0.002 C 
HETATM   26  C7  UNL     1      13.142   9.347  -3.095  1.00  0.00     0.033 C 
HETATM   27  N4  UNL     1      13.015  10.020  -0.813  1.00  0.00    -0.053 N 
ATOM     28  H42 UNL     1      12.482   9.152  -0.853  1.00  0.00     0.279 HD
ATOM     29  H41 UNL     1      12.255  10.638  -0.526  1.00  0.00     0.279 HD
ENDBRANCH   1  19
TORSDOF 7
ENDMDL
MODEL 2
REMARK VINA RESULT: -8.654077911      3.191      3.875
REMARK  7 active torsions:
REMARK  status: ('A' for Active; 'I' for Inactive)
REMARK    1  A    between atoms: O1_1  and  N1_3 
REMARK    2  A    between atoms: N1_3  and  N2_4 
REMARK    3  A    between atoms: N1_3  and  N5_23 
REMARK    4  A    between atoms: N2_4  and  S1_6 
REMARK    5  A    between atoms: S1_6  and  N3_8 
REMARK    6  A    between atoms: S1_6  and  C1_12 
REMARK    7  A    between atoms: N3_8  and  O3_10 
ROOT
HETATM    1  S1  UNL     1      14.042   9.075   1.059  1.00  0.00     0.175 S 
HETATM    2  O2  UNL     1      12.589   8.915   1.405  1.00  0.00    -0.223 OA
ENDROOT
BRANCH   1   3
HETATM    3  N2  UNL     1      14.968   9.652   2.391  1.00  0.00    -0.199 N 
ATOM      4  H2  UNL     1      14.547  10.351   3.003  1.00  0.00     0.202 HD
BRANCH   3   5
HETATM    5  N1  UNL     1      16.264   9.214   2.681  1.00  0.00    -0.089 N 
BRANCH   5   6
HETATM    6  O1  UNL     1      16.343   8.057   3.187  1.00  0.00    -0.253 OA
ATOM      7  H1  UNL     1      15.556   7.749   3.621  1.00  0.00     0.248 HD
ENDBRANCH   5   6
BRANCH   5   8
HETATM    8  N5  UNL     1      17.386   9.992   2.435  1.00  0.00    -0.286 N 
HETATM    9  C9  UNL     1      17.124  11.364   2.091  1.00  0.00     0.146 C 
HETATM   10  C10 UNL     1      17.523  11.554   0.646  1.00  0.00     0.021 C 
HETATM   11  C11 UNL     1      18.827  10.879   0.314  1.00  0.00     0.002 C 
HETATM   12  C12 UNL     1      19.909  11.122   1.308  1.00  0.00     0.002 C 
HETATM   13  C13 UNL     1      19.810  10.296   2.553  1.00  0.00     0.021 C 
HETATM   14  C14 UNL     1      18.656   9.333   2.551  1.00  0.00     0.146 C 
ENDBRANCH   5   8
ENDBRANCH   3   5
ENDBRANCH   1   3
BRANCH   1  15
HETATM   15  N3  UNL     1      14.590   7.652   0.667  1.00  0.00    -0.208 N 
ATOM     16  H3  UNL     1      15.454   7.576   0.132  1.00  0.00     0.205 HD
BRANCH  15  17
HETATM   17  O3  UNL     1      13.912   6.500   1.040  1.00  0.00    -0.281 OA
ATOM     18  H3  UNL     1      14.319   5.646   0.958  1.00  0.00     0.245 HD
ENDBRANCH  15  17
ENDBRANCH   1  15
BRANCH   1  19
HETATM   19  C1  UNL     1      14.241  10.164  -0.330  1.00  0.00     0.310 C 
HETATM   20  C2  UNL     1      15.225   9.539  -1.293  1.00  0.00     0.056 C 
HETATM   21  C3  UNL     1      14.918  10.331  -2.568  1.00  0.00     0.019 C 
HETATM   22  C4  UNL     1      15.365   9.550  -3.778  1.00  0.00     0.007 C 
HETATM   23  C8  UNL     1      13.422  10.455  -2.483  1.00  0.00     0.191 C 
HETATM   24  C5  UNL     1      14.519   9.952  -4.963  1.00  0.00     0.001 C 
HETATM   25  C6  UNL     1      13.125   9.449  -4.759  1.00  0.00     0.002 C 
HETATM   26  C7  UNL     1      12.713   9.403  -3.305  1.00  0.00     0.033 C 
HETATM   27  N4  UNL     1      13.051  10.275  -1.114  1.00  0.00    -0.053 N 
ATOM     28  H42 UNL     1      12.420   9.485  -0.980  1.00  0.00     0.279 HD
ATOM     29  H41 UNL     1      12.428  11.010  -0.777  1.00  0.00     0.279 HD
ENDBRANCH   1  19
TORSDOF 7
ENDMDL
MODEL 3
REMARK VINA RESULT: -8.632023036      3.391      4.274
REMARK  7 active torsions:
REMARK  status: ('A' for Active; 'I' for Inactive)
REMARK    1  A    between atoms: O1_1  and  N1_3 
REMARK    2  A    between atoms: N1_3  and  N2_4 
REMARK    3  A    between atoms: N1_3  and  N5_23 
REMARK    4  A    between atoms: N2_4  and  S1_6 
REMARK    5  A    between atoms: S1_6  and  N3_8 
REMARK    6  A    between atoms: S1_6  and  C1_12 
REMARK    7  A    between atoms: N3_8  and  O3_10 
ROOT
HETATM    1  S1  UNL     1      14.400   8.970   0.925  1.00  0.00     0.175 S 
HETATM    2  O2  UNL     1      13.101   9.119   1.664  1.00  0.00    -0.223 OA
ENDROOT
BRANCH   1   3
HETATM    3  N2  UNL     1      15.762   9.210   1.950  1.00  0.00    -0.199 N 
ATOM      4  H2  UNL     1      16.143   8.401   2.442  1.00  0.00     0.202 HD
BRANCH   3   5
HETATM    5  N1  UNL     1      16.376  10.451   2.146  1.00  0.00    -0.089 N 
BRANCH   5   6
HETATM    6  O1  UNL     1      15.634  11.349   2.640  1.00  0.00    -0.253 OA
ATOM      7  H1  UNL     1      15.207  11.119   3.456  1.00  0.00     0.248 HD
ENDBRANCH   5   6
BRANCH   5   8
HETATM    8  N5  UNL     1      17.705  10.685   1.821  1.00  0.00    -0.286 N 
HETATM    9  C9  UNL     1      17.937  11.786   0.924  1.00  0.00     0.146 C 
HETATM   10  C10 UNL     1      18.437  11.211  -0.380  1.00  0.00     0.021 C 
HETATM   11  C11 UNL     1      19.448  10.114  -0.177  1.00  0.00     0.002 C 
HETATM   12  C12 UNL     1      20.506  10.438   0.819  1.00  0.00     0.002 C 
HETATM   13  C13 UNL     1      20.081  10.296   2.248  1.00  0.00     0.021 C 
HETATM   14  C14 UNL     1      18.671   9.806   2.416  1.00  0.00     0.146 C 
ENDBRANCH   5   8
ENDBRANCH   3   5
ENDBRANCH   1   3
BRANCH   1  15
HETATM   15  N3  UNL     1      14.460   7.496   0.374  1.00  0.00    -0.208 N 
ATOM     16  H3  UNL     1      14.937   7.308  -0.507  1.00  0.00     0.205 HD
BRANCH  15  17
HETATM   17  O3  UNL     1      13.874   6.450   1.073  1.00  0.00    -0.281 OA
ATOM     18  H3  UNL     1      14.406   5.793   1.505  1.00  0.00     0.245 HD
ENDBRANCH  15  17
ENDBRANCH   1  15
BRANCH   1  19
HETATM   19  C1  UNL     1      14.474  10.094  -0.448  1.00  0.00     0.310 C 
HETATM   20  C2  UNL     1      15.397   9.512  -1.496  1.00  0.00     0.056 C 
HETATM   21  C3  UNL     1      14.981  10.327  -2.725  1.00  0.00     0.019 C 
HETATM   22  C4  UNL     1      15.353   9.583  -3.983  1.00  0.00     0.007 C 
HETATM   23  C8  UNL     1      13.492  10.415  -2.528  1.00  0.00     0.191 C 
HETATM   24  C5  UNL     1      14.414   9.993  -5.093  1.00  0.00     0.001 C 
HETATM   25  C6  UNL     1      13.049   9.454  -4.800  1.00  0.00     0.002 C 
HETATM   26  C7  UNL     1      12.747   9.367  -3.321  1.00  0.00     0.033 C 
HETATM   27  N4  UNL     1      13.228  10.196  -1.140  1.00  0.00    -0.053 N 
ATOM     28  H42 UNL     1      12.625   9.390  -0.979  1.00  0.00     0.279 HD
ATOM     29  H41 UNL     1      12.617  10.910  -0.741  1.00  0.00     0.279 HD
ENDBRANCH   1  19
TORSDOF 7
ENDMDL
MODEL 4
REMARK VINA RESULT: -8.589665299      5.340      6.661
REMARK  7 active torsions:
REMARK  status: ('A' for Active; 'I' for Inactive)
REMARK    1  A    between atoms: O1_1  and  N1_3 
REMARK    2  A    between atoms: N1_3  and  N2_4 
REMARK    3  A    between atoms: N1_3  and  N5_23 
REMARK    4  A    between atoms: N2_4  and  S1_6 
REMARK    5  A    between atoms: S1_6  and  N3_8 
REMARK    6  A    between atoms: S1_6  and  C1_12 
REMARK    7  A    between atoms: N3_8  and  O3_10 
ROOT
HETATM    1  S1  UNL     1      18.092  11.796   1.364  1.00  0.00     0.175 S 
HETATM    2  O2  UNL     1      18.312  12.772   0.243  1.00  0.00    -0.223 OA
ENDROOT
BRANCH   1   3
HETATM    3  N2  UNL     1      19.572  11.145   1.957  1.00  0.00    -0.199 N 
ATOM      4  H2  UNL     1      19.684  11.045   2.966  1.00  0.00     0.202 HD
BRANCH   3   5
HETATM    5  N1  UNL     1      20.628  10.745   1.133  1.00  0.00    -0.089 N 
BRANCH   5   6
HETATM    6  O1  UNL     1      21.043  11.623   0.322  1.00  0.00    -0.253 OA
ATOM      7  H1  UNL     1      21.985  11.746   0.303  1.00  0.00     0.248 HD
ENDBRANCH   5   6
BRANCH   5   8
HETATM    8  N5  UNL     1      21.184   9.475   1.197  1.00  0.00    -0.286 N 
HETATM    9  C9  UNL     1      20.850   8.712   2.370  1.00  0.00     0.146 C 
HETATM   10  C10 UNL     1      22.112   8.555   3.184  1.00  0.00     0.021 C 
HETATM   11  C11 UNL     1      23.312   8.234   2.334  1.00  0.00     0.002 C 
HETATM   12  C12 UNL     1      23.073   7.167   1.323  1.00  0.00     0.002 C 
HETATM   13  C13 UNL     1      22.340   7.620   0.098  1.00  0.00     0.021 C 
HETATM   14  C14 UNL     1      22.017   9.088   0.094  1.00  0.00     0.146 C 
ENDBRANCH   5   8
ENDBRANCH   3   5
ENDBRANCH   1   3
BRANCH   1  15
HETATM   15  N3  UNL     1      17.401  12.581   2.540  1.00  0.00    -0.208 N 
ATOM     16  H3  UNL     1      16.773  12.086   3.173  1.00  0.00     0.205 HD
BRANCH  15  17
HETATM   17  O3  UNL     1      17.634  13.936   2.727  1.00  0.00    -0.281 OA
ATOM     18  H3  UNL     1      17.784  14.290   3.595  1.00  0.00     0.245 HD
ENDBRANCH  15  17
ENDBRANCH   1  15
BRANCH   1  19
HETATM   19  C1  UNL     1      17.018  10.479   0.848  1.00  0.00     0.310 C 
HETATM   20  C2  UNL     1      15.640  11.052   0.605  1.00  0.00     0.056 C 
HETATM   21  C3  UNL     1      15.015   9.941  -0.245  1.00  0.00     0.019 C 
HETATM   22  C4  UNL     1      13.869  10.495  -1.053  1.00  0.00     0.007 C 
HETATM   23  C8  UNL     1      16.182   9.538  -1.104  1.00  0.00     0.191 C 
HETATM   24  C5  UNL     1      13.703   9.666  -2.305  1.00  0.00     0.001 C 
HETATM   25  C6  UNL     1      14.871   9.908  -3.207  1.00  0.00     0.002 C 
HETATM   26  C7  UNL     1      16.152  10.204  -2.459  1.00  0.00     0.033 C 
HETATM   27  N4  UNL     1      17.375   9.950  -0.431  1.00  0.00    -0.053 N 
ATOM     28  H42 UNL     1      17.930  10.604  -0.983  1.00  0.00     0.279 HD
ATOM     29  H41 UNL     1      18.066   9.202  -0.365  1.00  0.00     0.279 HD
ENDBRANCH   1  19
TORSDOF 7
ENDMDL
MODEL 5
REMARK VINA RESULT: -8.558721978      1.944      8.143
REMARK  7 active torsions:
REMARK  status: ('A' for Active; 'I' for Inactive)
REMARK    1  A    between atoms: O1_1  and  N1_3 
REMARK    2  A    between atoms: N1_3  and  N2_4 
REMARK    3  A    between atoms: N1_3  and  N5_23 
REMARK    4  A    between atoms: N2_4  and  S1_6 
REMARK    5  A    between atoms: S1_6  and  N3_8 
REMARK    6  A    between atoms: S1_6  and  C1_12 
REMARK    7  A    between atoms: N3_8  and  O3_10 
ROOT
HETATM    1  S1  UNL     1      15.793  10.781   3.494  1.00  0.00     0.175 S 
HETATM    2  O2  UNL     1      15.116  12.107   3.696  1.00  0.00    -0.223 OA
ENDROOT
BRANCH   1   3
HETATM    3  N2  UNL     1      15.816  10.309   1.838  1.00  0.00    -0.199 N 
ATOM      4  H2  UNL     1      16.679   9.920   1.460  1.00  0.00     0.202 HD
BRANCH   3   5
HETATM    5  N1  UNL     1      14.716  10.428   0.984  1.00  0.00    -0.089 N 
BRANCH   5   6
HETATM    6  O1  UNL     1      13.589  10.476   1.556  1.00  0.00    -0.253 OA
ATOM      7  H1  UNL     1      12.839  10.334   0.991  1.00  0.00     0.248 HD
ENDBRANCH   5   6
BRANCH   5   8
HETATM    8  N5  UNL     1      14.847  10.488  -0.396  1.00  0.00    -0.286 N 
HETATM    9  C9  UNL     1      13.807  11.206  -1.086  1.00  0.00     0.146 C 
HETATM   10  C10 UNL     1      13.021  10.201  -1.894  1.00  0.00     0.021 C 
HETATM   11  C11 UNL     1      13.906   9.204  -2.593  1.00  0.00     0.002 C 
HETATM   12  C12 UNL     1      15.070   9.811  -3.295  1.00  0.00     0.002 C 
HETATM   13  C13 UNL     1      16.213  10.183  -2.402  1.00  0.00     0.021 C 
HETATM   14  C14 UNL     1      15.993   9.831  -0.957  1.00  0.00     0.146 C 
ENDBRANCH   5   8
ENDBRANCH   3   5
ENDBRANCH   1   3
BRANCH   1  15
HETATM   15  N3  UNL     1      17.285  10.938   3.974  1.00  0.00    -0.208 N 
ATOM     16  H3  UNL     1      17.509  10.830   4.963  1.00  0.00     0.205 HD
BRANCH  15  17
HETATM   17  O3  UNL     1      18.298  11.223   3.070  1.00  0.00    -0.281 OA
ATOM     18  H3  UNL     1      18.099  11.460   2.172  1.00  0.00     0.245 HD
ENDBRANCH  15  17
ENDBRANCH   1  15
BRANCH   1  19
HETATM   19  C1  UNL     1      15.010   9.521   4.470  1.00  0.00     0.310 C 
HETATM   20  C2  UNL     1      15.966   9.099   5.564  1.00  0.00     0.056 C 
HETATM   21  C3  UNL     1      15.001   8.407   6.533  1.00  0.00     0.019 C 
HETATM   22  C4  UNL     1      15.595   8.384   7.919  1.00  0.00     0.007 C 
HETATM   23  C8  UNL     1      13.798   9.305   6.439  1.00  0.00     0.191 C 
HETATM   24  C5  UNL     1      14.476   8.344   8.933  1.00  0.00     0.001 C 
HETATM   25  C6  UNL     1      13.761   9.658   8.920  1.00  0.00     0.002 C 
HETATM   26  C7  UNL     1      13.750  10.318   7.559  1.00  0.00     0.033 C 
HETATM   27  N4  UNL     1      13.885  10.014   5.199  1.00  0.00    -0.053 N 
ATOM     28  H42 UNL     1      13.916  11.025   5.329  1.00  0.00     0.279 HD
ATOM     29  H41 UNL     1      13.019   9.968   4.661  1.00  0.00     0.279 HD
ENDBRANCH   1  19
TORSDOF 7
ENDMDL
