MODEL 1
REMARK VINA RESULT: -8.048624165      0.000      0.000
REMARK  8 active torsions:
REMARK  status: ('A' for Active; 'I' for Inactive)
REMARK    1  A    between atoms: C2_2  and  C4_4 
REMARK    2  A    between atoms: C4_4  and  C5_5 
REMARK    3  A    between atoms: C4_4  and  C6_7 
REMARK    4  A    between atoms: C6_7  and  O2_8 
REMARK    5  A    between atoms: C7_11  and  C8_12 
REMARK    6  A    between atoms: C17_23  and  C18_24 
REMARK    7  A    between atoms: C18_24  and  O6_26 
REMARK    8  A    between atoms: O6_26  and  C20_27 
ROOT
HETATM    1  C6  UNL     1      17.215  11.195   2.051  1.00  0.00     0.207 C 
HETATM    2  O3  UNL     1      16.656  11.098   0.753  1.00  0.00    -0.321 OA
HETATM    3  C7  UNL     1      16.180   9.830   0.582  1.00  0.00     0.273 C 
HETATM    4  O5  UNL     1      16.010   9.246   1.797  1.00  0.00    -0.347 OA
HETATM    5  C17 UNL     1      16.511  10.147   2.791  1.00  0.00     0.217 C 
ENDROOT
BRANCH   3   6
HETATM    6  C8  UNL     1      15.046   9.685  -0.399  1.00  0.00     0.019 C 
HETATM    7  C9  UNL     1      14.300   8.406   0.021  1.00  0.00     0.021 C 
HETATM    8  C10 UNL     1      14.106  10.808  -0.525  1.00  0.00    -0.004 C 
HETATM    9  C11 UNL     1      12.843  10.605   0.333  1.00  0.00     0.011 C 
HETATM   10  C12 UNL     1      13.602  11.115  -1.912  1.00  0.00     0.012 C 
HETATM   11  C13 UNL     1      13.490   9.920  -2.800  1.00  0.00     0.079 C 
HETATM   12  C14 UNL     1      14.609   8.974  -2.666  1.00  0.00     0.131 C 
HETATM   13  O4  UNL     1      14.619   7.960  -3.309  1.00  0.00    -0.298 OA
HETATM   14  C15 UNL     1      15.701   9.306  -1.730  1.00  0.00     0.064 C 
HETATM   15  C16 UNL     1      16.566  10.365  -2.306  1.00  0.00     0.019 C 
ENDBRANCH   3   6
BRANCH   1  16
HETATM   16  C4  UNL     1      18.679  11.130   1.880  1.00  0.00     0.140 C 
BRANCH  16  17
HETATM   17  C2  UNL     1      19.448  10.127   2.621  1.00  0.00    -0.077 C 
HETATM   18  C1  UNL     1      19.541  10.031   3.920  1.00  0.00     0.015 C 
HETATM   19  C3  UNL     1      20.222   9.081   1.838  1.00  0.00     0.043 C 
ENDBRANCH  16  17
BRANCH  16  20
HETATM   20  C5  UNL     1      19.158  11.084   0.464  1.00  0.00     0.245 C 
HETATM   21  O1  UNL     1      19.754  12.014  -0.049  1.00  0.00    -0.306 OA
ENDBRANCH  16  20
ENDBRANCH   1  16
BRANCH   1  22
HETATM   22  O2  UNL     1      16.889  12.515   2.438  1.00  0.00    -0.362 OA
ATOM     23  H2  UNL     1      15.959  12.536   2.632  1.00  0.00     0.213 HD
ENDBRANCH   1  22
BRANCH   5  24
HETATM   24  C18 UNL     1      15.269  10.592   3.507  1.00  0.00     0.163 C 
HETATM   25  C19 UNL     1      14.254   9.418   3.560  1.00  0.00     0.043 C 
BRANCH  24  26
HETATM   26  O6  UNL     1      15.385  11.021   4.812  1.00  0.00    -0.299 OA
BRANCH  26  27
HETATM   27  C20 UNL     1      15.306  10.220   5.931  1.00  0.00     0.373 C 
HETATM   28  N1  UNL     1      16.273   9.248   6.274  1.00  0.00    -0.032 NA
HETATM   29  O7  UNL     1      14.325  10.336   6.713  1.00  0.00    -0.242 OA
ENDBRANCH  26  27
ENDBRANCH  24  26
ENDBRANCH   5  24
TORSDOF 8
ENDMDL
MODEL 2
REMARK VINA RESULT: -7.854270746      3.585      7.712
REMARK  8 active torsions:
REMARK  status: ('A' for Active; 'I' for Inactive)
REMARK    1  A    between atoms: C2_2  and  C4_4 
REMARK    2  A    between atoms: C4_4  and  C5_5 
REMARK    3  A    between atoms: C4_4  and  C6_7 
REMARK    4  A    between atoms: C6_7  and  O2_8 
REMARK    5  A    between atoms: C7_11  and  C8_12 
REMARK    6  A    between atoms: C17_23  and  C18_24 
REMARK    7  A    between atoms: C18_24  and  O6_26 
REMARK    8  A    between atoms: O6_26  and  C20_27 
ROOT
HETATM    1  C6  UNL     1      18.541   9.835   3.919  1.00  0.00     0.207 C 
HETATM    2  O3  UNL     1      19.621   9.389   4.720  1.00  0.00    -0.321 OA
HETATM    3  C7  UNL     1      20.450   8.632   3.945  1.00  0.00     0.273 C 
HETATM    4  O5  UNL     1      20.216   8.907   2.635  1.00  0.00    -0.347 OA
HETATM    5  C17 UNL     1      19.100   9.803   2.568  1.00  0.00     0.217 C 
ENDROOT
BRANCH   3   6
HETATM    6  C8  UNL     1      21.893   8.593   4.377  1.00  0.00     0.019 C 
HETATM    7  C9  UNL     1      22.376  10.054   4.332  1.00  0.00     0.021 C 
HETATM    8  C10 UNL     1      22.197   7.994   5.684  1.00  0.00    -0.004 C 
HETATM    9  C11 UNL     1      22.324   9.057   6.793  1.00  0.00     0.011 C 
HETATM   10  C12 UNL     1      23.456   7.171   5.774  1.00  0.00     0.012 C 
HETATM   11  C13 UNL     1      24.552   7.628   4.869  1.00  0.00     0.079 C 
HETATM   12  C14 UNL     1      24.087   8.036   3.534  1.00  0.00     0.131 C 
HETATM   13  O4  UNL     1      24.872   8.449   2.724  1.00  0.00    -0.298 OA
HETATM   14  C15 UNL     1      22.647   7.923   3.226  1.00  0.00     0.064 C 
HETATM   15  C16 UNL     1      22.280   6.502   3.004  1.00  0.00     0.019 C 
ENDBRANCH   3   6
BRANCH   1  16
HETATM   16  C4  UNL     1      17.386   8.985   4.267  1.00  0.00     0.140 C 
BRANCH  16  17
HETATM   17  C2  UNL     1      16.660   9.231   5.515  1.00  0.00    -0.077 C 
HETATM   18  C1  UNL     1      16.985   8.783   6.698  1.00  0.00     0.015 C 
HETATM   19  C3  UNL     1      15.404  10.085   5.468  1.00  0.00     0.043 C 
ENDBRANCH  16  17
BRANCH  16  20
HETATM   20  C5  UNL     1      16.359   8.828   3.191  1.00  0.00     0.245 C 
HETATM   21  O1  UNL     1      15.892   7.742   2.895  1.00  0.00    -0.306 OA
ENDBRANCH  16  20
ENDBRANCH   1  16
BRANCH   1  22
HETATM   22  O2  UNL     1      18.286  11.130   4.425  1.00  0.00    -0.362 OA
ATOM     23  H2  UNL     1      18.569  11.756   3.768  1.00  0.00     0.213 HD
ENDBRANCH   1  22
BRANCH   5  24
HETATM   24  C18 UNL     1      19.720  11.088   2.099  1.00  0.00     0.163 C 
HETATM   25  C19 UNL     1      20.527  10.829   0.798  1.00  0.00     0.043 C 
BRANCH  24  26
HETATM   26  O6  UNL     1      18.886  12.144   1.798  1.00  0.00    -0.299 OA
BRANCH  26  27
HETATM   27  C20 UNL     1      18.009  12.195   0.737  1.00  0.00     0.373 C 
HETATM   28  N1  UNL     1      16.784  11.491   0.693  1.00  0.00    -0.032 NA
HETATM   29  O7  UNL     1      18.285  12.904  -0.267  1.00  0.00    -0.242 OA
ENDBRANCH  26  27
ENDBRANCH  24  26
ENDBRANCH   5  24
TORSDOF 8
ENDMDL
MODEL 3
REMARK VINA RESULT: -7.779101035      1.187      1.391
REMARK  8 active torsions:
REMARK  status: ('A' for Active; 'I' for Inactive)
REMARK    1  A    between atoms: C2_2  and  C4_4 
REMARK    2  A    between atoms: C4_4  and  C5_5 
REMARK    3  A    between atoms: C4_4  and  C6_7 
REMARK    4  A    between atoms: C6_7  and  O2_8 
REMARK    5  A    between atoms: C7_11  and  C8_12 
REMARK    6  A    between atoms: C17_23  and  C18_24 
REMARK    7  A    between atoms: C18_24  and  O6_26 
REMARK    8  A    between atoms: O6_26  and  C20_27 
ROOT
HETATM    1  C6  UNL     1      16.365  11.171   3.102  1.00  0.00     0.207 C 
HETATM    2  O3  UNL     1      15.953  11.134   1.747  1.00  0.00    -0.321 OA
HETATM    3  C7  UNL     1      15.736   9.833   1.397  1.00  0.00     0.273 C 
HETATM    4  O5  UNL     1      15.568   9.087   2.520  1.00  0.00    -0.347 OA
HETATM    5  C17 UNL     1      15.803   9.936   3.649  1.00  0.00     0.217 C 
ENDROOT
BRANCH   3   6
HETATM    6  C8  UNL     1      14.741   9.612   0.287  1.00  0.00     0.019 C 
HETATM    7  C9  UNL     1      14.126   8.227   0.556  1.00  0.00     0.021 C 
HETATM    8  C10 UNL     1      13.683  10.616   0.110  1.00  0.00    -0.004 C 
HETATM    9  C11 UNL     1      12.372  10.205   0.809  1.00  0.00     0.011 C 
HETATM   10  C12 UNL     1      13.294  10.946  -1.308  1.00  0.00     0.012 C 
HETATM   11  C13 UNL     1      13.433   9.805  -2.261  1.00  0.00     0.079 C 
HETATM   12  C14 UNL     1      14.644   8.997  -2.047  1.00  0.00     0.131 C 
HETATM   13  O4  UNL     1      14.853   8.035  -2.734  1.00  0.00    -0.298 OA
HETATM   14  C15 UNL     1      15.578   9.401  -0.977  1.00  0.00     0.064 C 
HETATM   15  C16 UNL     1      16.355  10.593  -1.399  1.00  0.00     0.019 C 
ENDBRANCH   3   6
BRANCH   1  16
HETATM   16  C4  UNL     1      17.825  11.381   3.087  1.00  0.00     0.140 C 
BRANCH  16  17
HETATM   17  C2  UNL     1      18.721  10.228   3.207  1.00  0.00    -0.077 C 
HETATM   18  C1  UNL     1      19.218   9.531   2.220  1.00  0.00     0.015 C 
HETATM   19  C3  UNL     1      19.133   9.769   4.595  1.00  0.00     0.043 C 
ENDBRANCH  16  17
BRANCH  16  20
HETATM   20  C5  UNL     1      18.341  12.217   1.960  1.00  0.00     0.245 C 
HETATM   21  O1  UNL     1      18.236  13.431   1.952  1.00  0.00    -0.306 OA
ENDBRANCH  16  20
ENDBRANCH   1  16
BRANCH   1  22
HETATM   22  O2  UNL     1      15.767  12.358   3.582  1.00  0.00    -0.362 OA
ATOM     23  H2  UNL     1      16.133  13.083   3.090  1.00  0.00     0.213 HD
ENDBRANCH   1  22
BRANCH   5  24
HETATM   24  C18 UNL     1      14.440  10.069   4.266  1.00  0.00     0.163 C 
HETATM   25  C19 UNL     1      13.617   8.782   3.987  1.00  0.00     0.043 C 
BRANCH  24  26
HETATM   26  O6  UNL     1      14.356  10.258   5.629  1.00  0.00    -0.299 OA
BRANCH  26  27
HETATM   27  C20 UNL     1      14.305   9.258   6.576  1.00  0.00     0.373 C 
HETATM   28  N1  UNL     1      15.358   8.346   6.816  1.00  0.00    -0.032 NA
HETATM   29  O7  UNL     1      13.273   9.123   7.286  1.00  0.00    -0.242 OA
ENDBRANCH  26  27
ENDBRANCH  24  26
ENDBRANCH   5  24
TORSDOF 8
ENDMDL
MODEL 4
REMARK VINA RESULT: -7.691497298      3.381      7.612
REMARK  8 active torsions:
REMARK  status: ('A' for Active; 'I' for Inactive)
REMARK    1  A    between atoms: C2_2  and  C4_4 
REMARK    2  A    between atoms: C4_4  and  C5_5 
REMARK    3  A    between atoms: C4_4  and  C6_7 
REMARK    4  A    between atoms: C6_7  and  O2_8 
REMARK    5  A    between atoms: C7_11  and  C8_12 
REMARK    6  A    between atoms: C17_23  and  C18_24 
REMARK    7  A    between atoms: C18_24  and  O6_26 
REMARK    8  A    between atoms: O6_26  and  C20_27 
ROOT
HETATM    1  C6  UNL     1      18.662  10.216   2.609  1.00  0.00     0.207 C 
HETATM    2  O3  UNL     1      19.457   9.721   3.671  1.00  0.00    -0.321 OA
HETATM    3  C7  UNL     1      20.233   8.705   3.193  1.00  0.00     0.273 C 
HETATM    4  O5  UNL     1      20.306   8.795   1.839  1.00  0.00    -0.347 OA
HETATM    5  C17 UNL     1      19.438   9.856   1.422  1.00  0.00     0.217 C 
ENDROOT
BRANCH   3   6
HETATM    6  C8  UNL     1      21.531   8.475   3.923  1.00  0.00     0.019 C 
HETATM    7  C9  UNL     1      22.537   8.037   2.844  1.00  0.00     0.021 C 
HETATM    8  C10 UNL     1      22.077   9.589   4.710  1.00  0.00    -0.004 C 
HETATM    9  C11 UNL     1      23.137  10.387   3.927  1.00  0.00     0.011 C 
HETATM   10  C12 UNL     1      22.732   9.234   6.021  1.00  0.00     0.012 C 
HETATM   11  C13 UNL     1      23.391   7.894   6.031  1.00  0.00     0.079 C 
HETATM   12  C14 UNL     1      22.621   6.849   5.337  1.00  0.00     0.131 C 
HETATM   13  O4  UNL     1      23.061   5.734   5.255  1.00  0.00    -0.298 OA
HETATM   14  C15 UNL     1      21.313   7.209   4.755  1.00  0.00     0.064 C 
HETATM   15  C16 UNL     1      20.297   7.352   5.827  1.00  0.00     0.019 C 
ENDBRANCH   3   6
BRANCH   1  16
HETATM   16  C4  UNL     1      17.308   9.664   2.808  1.00  0.00     0.140 C 
BRANCH  16  17
HETATM   17  C2  UNL     1      16.638   9.846   4.098  1.00  0.00    -0.077 C 
HETATM   18  C1  UNL     1      15.901  10.866   4.448  1.00  0.00     0.015 C 
HETATM   19  C3  UNL     1      16.794   8.766   5.156  1.00  0.00     0.043 C 
ENDBRANCH  16  17
BRANCH  16  20
HETATM   20  C5  UNL     1      16.312  10.010   1.749  1.00  0.00     0.245 C 
HETATM   21  O1  UNL     1      16.041  11.164   1.465  1.00  0.00    -0.306 OA
ENDBRANCH  16  20
ENDBRANCH   1  16
BRANCH   1  22
HETATM   22  O2  UNL     1      18.601  11.602   2.879  1.00  0.00    -0.362 OA
ATOM     23  H2  UNL     1      18.842  12.061   2.083  1.00  0.00     0.213 HD
ENDBRANCH   1  22
BRANCH   5  24
HETATM   24  C18 UNL     1      20.393  10.908   0.936  1.00  0.00     0.163 C 
HETATM   25  C19 UNL     1      21.731  10.240   0.518  1.00  0.00     0.043 C 
BRANCH  24  26
HETATM   26  O6  UNL     1      20.023  11.675  -0.148  1.00  0.00    -0.299 OA
BRANCH  26  27
HETATM   27  C20 UNL     1      18.730  11.993  -0.503  1.00  0.00     0.373 C 
HETATM   28  N1  UNL     1      17.968  11.259  -1.440  1.00  0.00    -0.032 NA
HETATM   29  O7  UNL     1      18.166  12.990   0.022  1.00  0.00    -0.242 OA
ENDBRANCH  26  27
ENDBRANCH  24  26
ENDBRANCH   5  24
TORSDOF 8
ENDMDL
MODEL 5
REMARK VINA RESULT: -7.687772646      3.763      7.678
REMARK  8 active torsions:
REMARK  status: ('A' for Active; 'I' for Inactive)
REMARK    1  A    between atoms: C2_2  and  C4_4 
REMARK    2  A    between atoms: C4_4  and  C5_5 
REMARK    3  A    between atoms: C4_4  and  C6_7 
REMARK    4  A    between atoms: C6_7  and  O2_8 
REMARK    5  A    between atoms: C7_11  and  C8_12 
REMARK    6  A    between atoms: C17_23  and  C18_24 
REMARK    7  A    between atoms: C18_24  and  O6_26 
REMARK    8  A    between atoms: O6_26  and  C20_27 
ROOT
HETATM    1  C6  UNL     1      18.633   9.577   3.935  1.00  0.00     0.207 C 
HETATM    2  O3  UNL     1      19.633   8.801   4.571  1.00  0.00    -0.321 OA
HETATM    3  C7  UNL     1      20.259   8.043   3.625  1.00  0.00     0.273 C 
HETATM    4  O5  UNL     1      20.032   8.579   2.397  1.00  0.00    -0.347 OA
HETATM    5  C17 UNL     1      19.118   9.670   2.558  1.00  0.00     0.217 C 
ENDROOT
BRANCH   3   6
HETATM    6  C8  UNL     1      21.681   7.653   3.936  1.00  0.00     0.019 C 
HETATM    7  C9  UNL     1      21.594   6.257   4.578  1.00  0.00     0.021 C 
HETATM    8  C10 UNL     1      22.644   7.646   2.825  1.00  0.00    -0.004 C 
HETATM    9  C11 UNL     1      22.826   6.239   2.225  1.00  0.00     0.011 C 
HETATM   10  C12 UNL     1      24.037   8.131   3.136  1.00  0.00     0.012 C 
HETATM   11  C13 UNL     1      24.481   7.860   4.535  1.00  0.00     0.079 C 
HETATM   12  C14 UNL     1      23.432   8.080   5.543  1.00  0.00     0.131 C 
HETATM   13  O4  UNL     1      23.661   7.870   6.704  1.00  0.00    -0.298 OA
HETATM   14  C15 UNL     1      22.112   8.561   5.090  1.00  0.00     0.064 C 
HETATM   15  C16 UNL     1      22.183  10.001   4.739  1.00  0.00     0.019 C 
ENDBRANCH   3   6
BRANCH   1  16
HETATM   16  C4  UNL     1      17.346   8.918   4.228  1.00  0.00     0.140 C 
BRANCH  16  17
HETATM   17  C2  UNL     1      16.598   9.299   5.428  1.00  0.00    -0.077 C 
HETATM   18  C1  UNL     1      16.794   8.843   6.636  1.00  0.00     0.015 C 
HETATM   19  C3  UNL     1      15.480  10.319   5.294  1.00  0.00     0.043 C 
ENDBRANCH  16  17
BRANCH  16  20
HETATM   20  C5  UNL     1      16.367   8.892   3.097  1.00  0.00     0.245 C 
HETATM   21  O1  UNL     1      15.723   7.895   2.820  1.00  0.00    -0.306 OA
ENDBRANCH  16  20
ENDBRANCH   1  16
BRANCH   1  22
HETATM   22  O2  UNL     1      18.667  10.790   4.659  1.00  0.00    -0.362 OA
ATOM     23  H2  UNL     1      19.140  10.630   5.467  1.00  0.00     0.213 HD
ENDBRANCH   1  22
BRANCH   5  24
HETATM   24  C18 UNL     1      19.965  10.873   2.256  1.00  0.00     0.163 C 
HETATM   25  C19 UNL     1      20.814  10.602   0.985  1.00  0.00     0.043 C 
BRANCH  24  26
HETATM   26  O6  UNL     1      19.332  12.073   2.013  1.00  0.00    -0.299 OA
BRANCH  26  27
HETATM   27  C20 UNL     1      18.213  12.246   1.227  1.00  0.00     0.373 C 
HETATM   28  N1  UNL     1      18.258  12.630  -0.132  1.00  0.00    -0.032 NA
HETATM   29  O7  UNL     1      17.069  12.057   1.719  1.00  0.00    -0.242 OA
ENDBRANCH  26  27
ENDBRANCH  24  26
ENDBRANCH   5  24
TORSDOF 8
ENDMDL
