MODEL 1
REMARK VINA RESULT: -7.731302676      0.000      0.000
REMARK  11 active torsions:
REMARK  status: ('A' for Active; 'I' for Inactive)
REMARK    1  A    between atoms: C2_2  and  C3_3 
REMARK    2  A    between atoms: C3_3  and  N1_4 
REMARK    3  A    between atoms: N1_4  and  C4_5 
REMARK    4  A    between atoms: N1_4  and  C16_23 
REMARK    5  A    between atoms: C4_5  and  O1_6 
REMARK    6  A    between atoms: C4_5  and  C5_8 
REMARK    7  A    between atoms: C5_8  and  S1_9 
REMARK    8  A    between atoms: S1_9  and  C6_10 
REMARK    9  A    between atoms: C7_11  and  C8_12 
REMARK   10  A    between atoms: C9_13  and  C10_14 
REMARK   11  A    between atoms: C10_14  and  O2_17 
ROOT
HETATM    1  C5  UNL     1      15.690  10.712   1.669  1.00  0.00     0.134 C 
ENDROOT
BRANCH   1   2
HETATM    2  C4  UNL     1      15.998  10.420   0.217  1.00  0.00     0.229 C 
BRANCH   2   3
HETATM    3  N1  UNL     1      14.985   9.821  -0.509  1.00  0.00    -0.361 N 
BRANCH   3   4
HETATM    4  C3  UNL     1      14.022   9.028   0.133  1.00  0.00     0.061 C 
BRANCH   4   5
HETATM    5  C2  UNL     1      14.419   7.649   0.505  1.00  0.00     0.040 C 
HETATM    6  C1  UNL     1      13.691   7.335   1.826  1.00  0.00     0.010 C 
ENDBRANCH   4   5
ENDBRANCH   3   4
BRANCH   3   7
HETATM    7  C16 UNL     1      14.661  10.271  -1.815  1.00  0.00     0.100 C 
HETATM    8  C17 UNL     1      13.218  10.082  -2.072  1.00  0.00     0.041 C 
HETATM    9  C18 UNL     1      12.943  10.094  -3.534  1.00  0.00     0.142 C 
HETATM   10  S2  UNL     1      14.320   9.143  -4.140  1.00  0.00     0.146 S 
HETATM   11  O3  UNL     1      13.929   7.706  -4.230  1.00  0.00    -0.228 OA
HETATM   12  O4  UNL     1      14.828   9.680  -5.442  1.00  0.00    -0.228 OA
HETATM   13  C19 UNL     1      15.452   9.460  -2.809  1.00  0.00     0.165 C 
ENDBRANCH   3   7
ENDBRANCH   2   3
BRANCH   2  14
HETATM   14  O1  UNL     1      16.338  11.673  -0.344  1.00  0.00    -0.376 OA
ATOM     15  H1  UNL     1      16.594  11.574  -1.253  1.00  0.00     0.212 HD
ENDBRANCH   2  14
ENDBRANCH   1   2
BRANCH   1  16
HETATM   16  S1  UNL     1      17.118  11.319   2.591  1.00  0.00    -0.106 SA
BRANCH  16  17
HETATM   17  C6  UNL     1      18.289  10.049   2.969  1.00  0.00     0.090 A 
HETATM   18  C7  UNL     1      18.076   9.112   3.984  1.00  0.00     0.052 A 
HETATM   19  C13 UNL     1      19.206   8.311   3.966  1.00  0.00     0.040 A 
HETATM   20  C14 UNL     1      20.062   8.752   2.981  1.00  0.00     0.093 A 
HETATM   21  N2  UNL     1      19.475   9.811   2.392  1.00  0.00    -0.355 N 
HETATM   22  C15 UNL     1      20.073  10.558   1.309  1.00  0.00     0.156 C 
BRANCH  18  23
HETATM   23  C8  UNL     1      16.922   9.043   4.829  1.00  0.00    -0.061 C 
HETATM   24  C9  UNL     1      15.937   8.963   5.544  1.00  0.00    -0.064 C 
BRANCH  24  25
HETATM   25  C10 UNL     1      14.760   8.844   6.417  1.00  0.00     0.114 C 
HETATM   26  C11 UNL     1      15.057   7.987   7.626  1.00  0.00     0.060 C 
HETATM   27  C12 UNL     1      14.351  10.222   6.945  1.00  0.00     0.060 C 
BRANCH  25  28
HETATM   28  O2  UNL     1      13.739   8.326   5.639  1.00  0.00    -0.378 OA
ATOM     29  H2  UNL     1      13.677   7.403   5.853  1.00  0.00     0.211 HD
ENDBRANCH  25  28
ENDBRANCH  24  25
ENDBRANCH  18  23
ENDBRANCH  16  17
ENDBRANCH   1  16
TORSDOF 11
ENDMDL
MODEL 2
REMARK VINA RESULT: -7.563022212      1.181      1.355
REMARK  11 active torsions:
REMARK  status: ('A' for Active; 'I' for Inactive)
REMARK    1  A    between atoms: C2_2  and  C3_3 
REMARK    2  A    between atoms: C3_3  and  N1_4 
REMARK    3  A    between atoms: N1_4  and  C4_5 
REMARK    4  A    between atoms: N1_4  and  C16_23 
REMARK    5  A    between atoms: C4_5  and  O1_6 
REMARK    6  A    between atoms: C4_5  and  C5_8 
REMARK    7  A    between atoms: C5_8  and  S1_9 
REMARK    8  A    between atoms: S1_9  and  C6_10 
REMARK    9  A    between atoms: C7_11  and  C8_12 
REMARK   10  A    between atoms: C9_13  and  C10_14 
REMARK   11  A    between atoms: C10_14  and  O2_17 
ROOT
HETATM    1  C5  UNL     1      15.576  10.507   2.500  1.00  0.00     0.134 C 
ENDROOT
BRANCH   1   2
HETATM    2  C4  UNL     1      16.105  10.279   1.102  1.00  0.00     0.229 C 
BRANCH   2   3
HETATM    3  N1  UNL     1      15.200   9.780   0.184  1.00  0.00    -0.361 N 
BRANCH   3   4
HETATM    4  C3  UNL     1      14.138   8.963   0.603  1.00  0.00     0.061 C 
BRANCH   4   5
HETATM    5  C2  UNL     1      14.398   7.507   0.687  1.00  0.00     0.040 C 
HETATM    6  C1  UNL     1      13.536   6.983   1.852  1.00  0.00     0.010 C 
ENDBRANCH   4   5
ENDBRANCH   3   4
BRANCH   3   7
HETATM    7  C16 UNL     1      15.078  10.357  -1.107  1.00  0.00     0.100 C 
HETATM    8  C17 UNL     1      13.657  10.399  -1.511  1.00  0.00     0.041 C 
HETATM    9  C18 UNL     1      13.540  10.545  -2.987  1.00  0.00     0.142 C 
HETATM   10  S2  UNL     1      14.825   9.442  -3.535  1.00  0.00     0.146 S 
HETATM   11  O3  UNL     1      14.247   8.088  -3.773  1.00  0.00    -0.228 OA
HETATM   12  O4  UNL     1      15.535   9.981  -4.738  1.00  0.00    -0.228 OA
HETATM   13  C19 UNL     1      15.846   9.503  -2.084  1.00  0.00     0.165 C 
ENDBRANCH   3   7
ENDBRANCH   2   3
BRANCH   2  14
HETATM   14  O1  UNL     1      16.594  11.540   0.685  1.00  0.00    -0.376 OA
ATOM     15  H1  UNL     1      16.909  11.497  -0.210  1.00  0.00     0.212 HD
ENDBRANCH   2  14
ENDBRANCH   1   2
BRANCH   1  16
HETATM   16  S1  UNL     1      16.807  11.203   3.622  1.00  0.00    -0.106 SA
BRANCH  16  17
HETATM   17  C6  UNL     1      18.139  10.092   3.965  1.00  0.00     0.090 A 
HETATM   18  C7  UNL     1      18.128   9.226   5.063  1.00  0.00     0.052 A 
HETATM   19  C13 UNL     1      19.330   8.544   4.984  1.00  0.00     0.040 A 
HETATM   20  C14 UNL     1      20.033   8.983   3.884  1.00  0.00     0.093 A 
HETATM   21  N2  UNL     1      19.281   9.926   3.285  1.00  0.00    -0.355 N 
HETATM   22  C15 UNL     1      19.686  10.635   2.093  1.00  0.00     0.156 C 
BRANCH  18  23
HETATM   23  C8  UNL     1      17.076   9.115   6.028  1.00  0.00    -0.061 C 
HETATM   24  C9  UNL     1      16.175   9.042   6.847  1.00  0.00    -0.064 C 
BRANCH  24  25
HETATM   25  C10 UNL     1      15.073   8.966   7.817  1.00  0.00     0.114 C 
HETATM   26  C11 UNL     1      14.048  10.049   7.570  1.00  0.00     0.060 C 
HETATM   27  C12 UNL     1      14.340   7.628   7.684  1.00  0.00     0.060 C 
BRANCH  25  28
HETATM   28  O2  UNL     1      15.645   9.056   9.075  1.00  0.00    -0.378 OA
ATOM     29  H2  UNL     1      14.966   9.372   9.660  1.00  0.00     0.211 HD
ENDBRANCH  25  28
ENDBRANCH  24  25
ENDBRANCH  18  23
ENDBRANCH  16  17
ENDBRANCH   1  16
TORSDOF 11
ENDMDL
MODEL 3
REMARK VINA RESULT: -7.539451458      1.836      4.022
REMARK  11 active torsions:
REMARK  status: ('A' for Active; 'I' for Inactive)
REMARK    1  A    between atoms: C2_2  and  C3_3 
REMARK    2  A    between atoms: C3_3  and  N1_4 
REMARK    3  A    between atoms: N1_4  and  C4_5 
REMARK    4  A    between atoms: N1_4  and  C16_23 
REMARK    5  A    between atoms: C4_5  and  O1_6 
REMARK    6  A    between atoms: C4_5  and  C5_8 
REMARK    7  A    between atoms: C5_8  and  S1_9 
REMARK    8  A    between atoms: S1_9  and  C6_10 
REMARK    9  A    between atoms: C7_11  and  C8_12 
REMARK   10  A    between atoms: C9_13  and  C10_14 
REMARK   11  A    between atoms: C10_14  and  O2_17 
ROOT
HETATM    1  C5  UNL     1      14.729  10.558   2.377  1.00  0.00     0.134 C 
ENDROOT
BRANCH   1   2
HETATM    2  C4  UNL     1      15.579  10.173   1.187  1.00  0.00     0.229 C 
BRANCH   2   3
HETATM    3  N1  UNL     1      14.913   9.575   0.134  1.00  0.00    -0.361 N 
BRANCH   3   4
HETATM    4  C3  UNL     1      13.972   8.561   0.370  1.00  0.00     0.061 C 
BRANCH   4   5
HETATM    5  C2  UNL     1      14.496   7.224   0.736  1.00  0.00     0.040 C 
HETATM    6  C1  UNL     1      13.584   6.699   1.861  1.00  0.00     0.010 C 
ENDBRANCH   4   5
ENDBRANCH   3   4
BRANCH   3   7
HETATM    7  C16 UNL     1      14.865  10.192  -1.143  1.00  0.00     0.100 C 
HETATM    8  C17 UNL     1      13.469  10.258  -1.622  1.00  0.00     0.041 C 
HETATM    9  C18 UNL     1      13.432  10.452  -3.097  1.00  0.00     0.142 C 
HETATM   10  S2  UNL     1      14.739   9.357  -3.609  1.00  0.00     0.146 S 
HETATM   11  O3  UNL     1      14.166   8.015  -3.921  1.00  0.00    -0.228 OA
HETATM   12  O4  UNL     1      15.516   9.928  -4.755  1.00  0.00    -0.228 OA
HETATM   13  C19 UNL     1      15.680   9.364  -2.104  1.00  0.00     0.165 C 
ENDBRANCH   3   7
ENDBRANCH   2   3
BRANCH   2  14
HETATM   14  O1  UNL     1      16.192  11.378   0.769  1.00  0.00    -0.376 OA
ATOM     15  H1  UNL     1      15.626  12.120   0.948  1.00  0.00     0.212 HD
ENDBRANCH   2  14
ENDBRANCH   1   2
BRANCH   1  16
HETATM   16  S1  UNL     1      15.672  11.341   3.702  1.00  0.00    -0.106 SA
BRANCH  16  17
HETATM   17  C6  UNL     1      16.295  10.184   4.885  1.00  0.00     0.090 A 
HETATM   18  C7  UNL     1      17.530   9.547   4.730  1.00  0.00     0.052 A 
HETATM   19  C13 UNL     1      17.646   8.731   5.843  1.00  0.00     0.040 A 
HETATM   20  C14 UNL     1      16.526   8.873   6.632  1.00  0.00     0.093 A 
HETATM   21  N2  UNL     1      15.723   9.764   6.021  1.00  0.00    -0.355 N 
HETATM   22  C15 UNL     1      14.439  10.173   6.543  1.00  0.00     0.156 C 
BRANCH  18  23
HETATM   23  C8  UNL     1      18.435   9.734   3.637  1.00  0.00    -0.061 C 
HETATM   24  C9  UNL     1      19.219   9.876   2.713  1.00  0.00    -0.064 C 
BRANCH  24  25
HETATM   25  C10 UNL     1      20.164  10.022   1.596  1.00  0.00     0.114 C 
HETATM   26  C11 UNL     1      19.679  11.047   0.597  1.00  0.00     0.060 C 
HETATM   27  C12 UNL     1      21.520  10.514   2.108  1.00  0.00     0.060 C 
BRANCH  25  28
HETATM   28  O2  UNL     1      20.310   8.764   1.035  1.00  0.00    -0.378 OA
ATOM     29  H2  UNL     1      19.507   8.291   1.214  1.00  0.00     0.211 HD
ENDBRANCH  25  28
ENDBRANCH  24  25
ENDBRANCH  18  23
ENDBRANCH  16  17
ENDBRANCH   1  16
TORSDOF 11
ENDMDL
MODEL 4
REMARK VINA RESULT: -7.529347417      2.185      4.196
REMARK  11 active torsions:
REMARK  status: ('A' for Active; 'I' for Inactive)
REMARK    1  A    between atoms: C2_2  and  C3_3 
REMARK    2  A    between atoms: C3_3  and  N1_4 
REMARK    3  A    between atoms: N1_4  and  C4_5 
REMARK    4  A    between atoms: N1_4  and  C16_23 
REMARK    5  A    between atoms: C4_5  and  O1_6 
REMARK    6  A    between atoms: C4_5  and  C5_8 
REMARK    7  A    between atoms: C5_8  and  S1_9 
REMARK    8  A    between atoms: S1_9  and  C6_10 
REMARK    9  A    between atoms: C7_11  and  C8_12 
REMARK   10  A    between atoms: C9_13  and  C10_14 
REMARK   11  A    between atoms: C10_14  and  O2_17 
ROOT
HETATM    1  C5  UNL     1      17.014  11.382   0.077  1.00  0.00     0.134 C 
ENDROOT
BRANCH   1   2
HETATM    2  C4  UNL     1      16.665   9.927  -0.139  1.00  0.00     0.229 C 
BRANCH   2   3
HETATM    3  N1  UNL     1      15.395   9.672  -0.621  1.00  0.00    -0.361 N 
BRANCH   3   4
HETATM    4  C3  UNL     1      14.382   9.228   0.243  1.00  0.00     0.061 C 
BRANCH   4   5
HETATM    5  C2  UNL     1      14.686   8.056   1.097  1.00  0.00     0.040 C 
HETATM    6  C1  UNL     1      13.487   7.898   2.051  1.00  0.00     0.010 C 
ENDBRANCH   4   5
ENDBRANCH   3   4
BRANCH   3   7
HETATM    7  C16 UNL     1      14.973  10.191  -1.872  1.00  0.00     0.100 C 
HETATM    8  C17 UNL     1      13.503  10.092  -1.991  1.00  0.00     0.041 C 
HETATM    9  C18 UNL     1      13.089  10.178  -3.418  1.00  0.00     0.142 C 
HETATM   10  S2  UNL     1      14.342   9.176  -4.189  1.00  0.00     0.146 S 
HETATM   11  O3  UNL     1      13.859   7.768  -4.289  1.00  0.00    -0.228 OA
HETATM   12  O4  UNL     1      14.751   9.736  -5.516  1.00  0.00    -0.228 OA
HETATM   13  C19 UNL     1      15.614   9.377  -2.967  1.00  0.00     0.165 C 
ENDBRANCH   3   7
ENDBRANCH   2   3
BRANCH   2  14
HETATM   14  O1  UNL     1      17.645   9.444  -1.039  1.00  0.00    -0.376 OA
ATOM     15  H1  UNL     1      18.153  10.163  -1.396  1.00  0.00     0.212 HD
ENDBRANCH   2  14
ENDBRANCH   1   2
BRANCH   1  16
HETATM   16  S1  UNL     1      17.583  11.737   1.752  1.00  0.00    -0.106 SA
BRANCH  16  17
HETATM   17  C6  UNL     1      17.140  10.481   2.915  1.00  0.00     0.090 A 
HETATM   18  C7  UNL     1      18.001   9.429   3.244  1.00  0.00     0.052 A 
HETATM   19  C13 UNL     1      17.294   8.673   4.165  1.00  0.00     0.040 A 
HETATM   20  C14 UNL     1      16.061   9.247   4.377  1.00  0.00     0.093 A 
HETATM   21  N2  UNL     1      15.998  10.346   3.602  1.00  0.00    -0.355 N 
HETATM   22  C15 UNL     1      14.848  11.218   3.542  1.00  0.00     0.156 C 
BRANCH  18  23
HETATM   23  C8  UNL     1      19.314   9.227   2.712  1.00  0.00    -0.061 C 
HETATM   24  C9  UNL     1      20.436   9.036   2.272  1.00  0.00    -0.064 C 
BRANCH  24  25
HETATM   25  C10 UNL     1      21.781   8.780   1.737  1.00  0.00     0.114 C 
HETATM   26  C11 UNL     1      22.275   9.946   0.911  1.00  0.00     0.060 C 
HETATM   27  C12 UNL     1      22.781   8.597   2.882  1.00  0.00     0.060 C 
BRANCH  25  28
HETATM   28  O2  UNL     1      21.700   7.609   1.003  1.00  0.00    -0.378 OA
ATOM     29  H2  UNL     1      22.445   7.077   1.257  1.00  0.00     0.211 HD
ENDBRANCH  25  28
ENDBRANCH  24  25
ENDBRANCH  18  23
ENDBRANCH  16  17
ENDBRANCH   1  16
TORSDOF 11
ENDMDL
MODEL 5
REMARK VINA RESULT: -7.505874215      3.924      6.330
REMARK  11 active torsions:
REMARK  status: ('A' for Active; 'I' for Inactive)
REMARK    1  A    between atoms: C2_2  and  C3_3 
REMARK    2  A    between atoms: C3_3  and  N1_4 
REMARK    3  A    between atoms: N1_4  and  C4_5 
REMARK    4  A    between atoms: N1_4  and  C16_23 
REMARK    5  A    between atoms: C4_5  and  O1_6 
REMARK    6  A    between atoms: C4_5  and  C5_8 
REMARK    7  A    between atoms: C5_8  and  S1_9 
REMARK    8  A    between atoms: S1_9  and  C6_10 
REMARK    9  A    between atoms: C7_11  and  C8_12 
REMARK   10  A    between atoms: C9_13  and  C10_14 
REMARK   11  A    between atoms: C10_14  and  O2_17 
ROOT
HETATM    1  C5  UNL     1      18.146   9.684   4.975  1.00  0.00     0.134 C 
ENDROOT
BRANCH   1   2
HETATM    2  C4  UNL     1      18.527   8.598   3.995  1.00  0.00     0.229 C 
BRANCH   2   3
HETATM    3  N1  UNL     1      19.789   8.056   4.151  1.00  0.00    -0.361 N 
BRANCH   3   4
HETATM    4  C3  UNL     1      19.980   6.909   4.938  1.00  0.00     0.061 C 
BRANCH   4   5
HETATM    5  C2  UNL     1      20.701   5.774   4.317  1.00  0.00     0.040 C 
HETATM    6  C1  UNL     1      19.753   4.563   4.406  1.00  0.00     0.010 C 
ENDBRANCH   4   5
ENDBRANCH   3   4
BRANCH   3   7
HETATM    7  C16 UNL     1      20.839   8.385   3.255  1.00  0.00     0.100 C 
HETATM    8  C17 UNL     1      21.808   9.283   3.918  1.00  0.00     0.041 C 
HETATM    9  C18 UNL     1      22.628  10.003   2.906  1.00  0.00     0.142 C 
HETATM   10  S2  UNL     1      21.389  10.398   1.692  1.00  0.00     0.146 S 
HETATM   11  O3  UNL     1      20.827  11.750   1.979  1.00  0.00    -0.228 OA
HETATM   12  O4  UNL     1      21.929  10.287   0.300  1.00  0.00    -0.228 OA
HETATM   13  C19 UNL     1      20.246   9.091   2.063  1.00  0.00     0.165 C 
ENDBRANCH   3   7
ENDBRANCH   2   3
BRANCH   2  14
HETATM   14  O1  UNL     1      17.535   7.601   4.149  1.00  0.00    -0.376 OA
ATOM     15  H1  UNL     1      16.679   7.996   4.267  1.00  0.00     0.212 HD
ENDBRANCH   2  14
ENDBRANCH   1   2
BRANCH   1  16
HETATM   16  S1  UNL     1      17.327  11.091   4.195  1.00  0.00    -0.106 SA
BRANCH  16  17
HETATM   17  C6  UNL     1      15.951  10.621   3.189  1.00  0.00     0.090 A 
HETATM   18  C7  UNL     1      14.738  10.189   3.736  1.00  0.00     0.052 A 
HETATM   19  C13 UNL     1      13.938   9.915   2.639  1.00  0.00     0.040 A 
HETATM   20  C14 UNL     1      14.642  10.172   1.484  1.00  0.00     0.093 A 
HETATM   21  N2  UNL     1      15.864  10.601   1.853  1.00  0.00    -0.355 N 
HETATM   22  C15 UNL     1      16.901  10.965   0.915  1.00  0.00     0.156 C 
BRANCH  18  23
HETATM   23  C8  UNL     1      14.446  10.071   5.132  1.00  0.00    -0.061 C 
HETATM   24  C9  UNL     1      14.185   9.951   6.318  1.00  0.00    -0.064 C 
BRANCH  24  25
HETATM   25  C10 UNL     1      13.880   9.782   7.746  1.00  0.00     0.114 C 
HETATM   26  C11 UNL     1      12.772   8.774   7.955  1.00  0.00     0.060 C 
HETATM   27  C12 UNL     1      15.106   9.249   8.491  1.00  0.00     0.060 C 
BRANCH  25  28
HETATM   28  O2  UNL     1      13.552  11.036   8.233  1.00  0.00    -0.378 OA
ATOM     29  H2  UNL     1      12.920  11.406   7.628  1.00  0.00     0.211 HD
ENDBRANCH  25  28
ENDBRANCH  24  25
ENDBRANCH  18  23
ENDBRANCH  16  17
ENDBRANCH   1  16
TORSDOF 11
ENDMDL
