MODEL 1
REMARK VINA RESULT: -7.814035517      0.000      0.000
REMARK  9 active torsions:
REMARK  status: ('A' for Active; 'I' for Inactive)
REMARK    1  A    between atoms: C7_7  and  O1_8 
REMARK    2  A    between atoms: C10_12  and  C12_14 
REMARK    3  A    between atoms: C12_14  and  C13_15 
REMARK    4  A    between atoms: C12_14  and  C18_24 
REMARK    5  A    between atoms: C13_15  and  C14_17 
REMARK    6  A    between atoms: C14_17  and  O3_18 
REMARK    7  A    between atoms: C18_24  and  O5_25 
REMARK    8  A    between atoms: C18_24  and  C21_29 
REMARK    9  A    between atoms: O5_25  and  C19_26 
ROOT
HETATM    1  C12 UNL     1      15.861  10.193   2.541  1.00  0.00     0.040 C 
ENDROOT
BRANCH   1   2
HETATM    2  C10 UNL     1      16.357  10.665   3.832  1.00  0.00    -0.006 C 
HETATM    3  C5  UNL     1      15.909  10.194   5.132  1.00  0.00     0.009 C 
HETATM    4  C4  UNL     1      14.493  10.424   5.560  1.00  0.00     0.011 C 
HETATM    5  C6  UNL     1      16.315   8.890   5.695  1.00  0.00     0.047 C 
HETATM    6  C3  UNL     1      14.626  10.025   7.046  1.00  0.00     0.034 C 
HETATM    7  C2  UNL     1      15.665   8.970   7.054  1.00  0.00    -0.082 C 
HETATM    8  C1  UNL     1      15.985   8.211   8.073  1.00  0.00     0.015 C 
HETATM    9  C7  UNL     1      17.824   8.929   5.826  1.00  0.00     0.126 C 
HETATM   10  C8  UNL     1      18.370   9.258   4.460  1.00  0.00     0.033 C 
HETATM   11  C9  UNL     1      17.916  10.542   3.900  1.00  0.00     0.017 C 
HETATM   12  C11 UNL     1      16.215  12.214   3.936  1.00  0.00     0.021 C 
BRANCH   9  13
HETATM   13  O1  UNL     1      18.240   7.609   6.102  1.00  0.00    -0.395 OA
ATOM     14  H1  UNL     1      19.190   7.620   6.116  1.00  0.00     0.210 HD
ENDBRANCH   9  13
ENDBRANCH   1   2
BRANCH   1  15
HETATM   15  C13 UNL     1      15.122   8.968   2.359  1.00  0.00     0.224 C 
HETATM   16  O2  UNL     1      15.803   7.926   2.231  1.00  0.00    -0.286 OA
BRANCH  15  17
HETATM   17  C14 UNL     1      13.676   8.696   2.299  1.00  0.00     0.262 A 
HETATM   18  O4  UNL     1      13.114   9.143   1.059  1.00  0.00    -0.330 OA
HETATM   19  C15 UNL     1      12.642   9.651   2.374  1.00  0.00     0.122 A 
HETATM   20  C16 UNL     1      11.224   9.143   2.559  1.00  0.00     0.052 C 
HETATM   21  C17 UNL     1      12.757  11.134   2.449  1.00  0.00     0.052 C 
BRANCH  17  22
HETATM   22  O3  UNL     1      13.340   7.393   2.675  1.00  0.00    -0.357 OA
ATOM     23  H3  UNL     1      12.574   7.056   2.226  1.00  0.00     0.213 HD
ENDBRANCH  17  22
ENDBRANCH  15  17
ENDBRANCH   1  15
BRANCH   1  24
HETATM   24  C18 UNL     1      16.710  10.460   1.321  1.00  0.00     0.135 C 
BRANCH  24  25
HETATM   25  O5  UNL     1      17.634  11.471   1.406  1.00  0.00    -0.275 OA
BRANCH  25  26
HETATM   26  C19 UNL     1      18.601  11.736   0.499  1.00  0.00     0.260 C 
HETATM   27  C20 UNL     1      19.868  10.917   0.384  1.00  0.00     0.126 C 
HETATM   28  O6  UNL     1      18.471  12.699  -0.297  1.00  0.00    -0.265 OA
ENDBRANCH  25  26
ENDBRANCH  24  25
BRANCH  24  29
HETATM   29  C21 UNL     1      15.935  10.436   0.037  1.00  0.00     0.179 C 
HETATM   30  C22 UNL     1      16.223   9.378  -0.966  1.00  0.00     0.099 C 
HETATM   31  O7  UNL     1      15.076  11.252  -0.218  1.00  0.00    -0.291 OA
ENDBRANCH  24  29
ENDBRANCH   1  24
TORSDOF 9
ENDMDL
MODEL 2
REMARK VINA RESULT: -7.450037681      1.821      5.078
REMARK  9 active torsions:
REMARK  status: ('A' for Active; 'I' for Inactive)
REMARK    1  A    between atoms: C7_7  and  O1_8 
REMARK    2  A    between atoms: C10_12  and  C12_14 
REMARK    3  A    between atoms: C12_14  and  C13_15 
REMARK    4  A    between atoms: C12_14  and  C18_24 
REMARK    5  A    between atoms: C13_15  and  C14_17 
REMARK    6  A    between atoms: C14_17  and  O3_18 
REMARK    7  A    between atoms: C18_24  and  O5_25 
REMARK    8  A    between atoms: C18_24  and  C21_29 
REMARK    9  A    between atoms: O5_25  and  C19_26 
ROOT
HETATM    1  C12 UNL     1      16.158   9.850   1.811  1.00  0.00     0.040 C 
ENDROOT
BRANCH   1   2
HETATM    2  C10 UNL     1      17.289  10.616   2.329  1.00  0.00    -0.006 C 
HETATM    3  C5  UNL     1      18.601  10.077   2.643  1.00  0.00     0.009 C 
HETATM    4  C4  UNL     1      18.748   9.067   3.737  1.00  0.00     0.011 C 
HETATM    5  C6  UNL     1      19.592   9.724   1.605  1.00  0.00     0.047 C 
HETATM    6  C3  UNL     1      20.288   9.061   3.850  1.00  0.00     0.034 C 
HETATM    7  C2  UNL     1      20.761   9.330   2.473  1.00  0.00    -0.082 C 
HETATM    8  C1  UNL     1      21.999   9.243   2.052  1.00  0.00     0.015 C 
HETATM    9  C7  UNL     1      19.898  11.003   0.852  1.00  0.00     0.126 C 
HETATM   10  C8  UNL     1      18.581  11.539   0.353  1.00  0.00     0.033 C 
HETATM   11  C9  UNL     1      17.594  11.841   1.402  1.00  0.00     0.017 C 
HETATM   12  C11 UNL     1      16.884  11.372   3.631  1.00  0.00     0.021 C 
BRANCH   9  13
HETATM   13  O1  UNL     1      20.625  10.628  -0.299  1.00  0.00    -0.395 OA
ATOM     14  H1  UNL     1      20.129   9.937  -0.721  1.00  0.00     0.210 HD
ENDBRANCH   9  13
ENDBRANCH   1   2
BRANCH   1  15
HETATM   15  C13 UNL     1      15.390  10.230   0.651  1.00  0.00     0.224 C 
HETATM   16  O2  UNL     1      14.473  11.060   0.842  1.00  0.00    -0.286 OA
BRANCH  15  17
HETATM   17  C14 UNL     1      15.481   9.821  -0.762  1.00  0.00     0.262 A 
HETATM   18  O4  UNL     1      15.582  10.959  -1.626  1.00  0.00    -0.330 OA
HETATM   19  C15 UNL     1      14.478   9.969  -1.740  1.00  0.00     0.122 A 
HETATM   20  C16 UNL     1      14.669   9.248  -3.062  1.00  0.00     0.052 C 
HETATM   21  C17 UNL     1      13.150  10.630  -1.611  1.00  0.00     0.052 C 
BRANCH  17  22
HETATM   22  O3  UNL     1      16.419   8.810  -0.988  1.00  0.00    -0.357 OA
ATOM     23  H3  UNL     1      16.428   8.497  -1.885  1.00  0.00     0.213 HD
ENDBRANCH  17  22
ENDBRANCH  15  17
ENDBRANCH   1  15
BRANCH   1  24
HETATM   24  C18 UNL     1      15.261   9.157   2.809  1.00  0.00     0.135 C 
BRANCH  24  25
HETATM   25  O5  UNL     1      15.836   8.727   3.978  1.00  0.00    -0.275 OA
BRANCH  25  26
HETATM   26  C19 UNL     1      15.307   8.865   5.215  1.00  0.00     0.260 C 
HETATM   27  C20 UNL     1      16.153   9.074   6.453  1.00  0.00     0.126 C 
HETATM   28  O6  UNL     1      14.062   8.821   5.378  1.00  0.00    -0.265 OA
ENDBRANCH  25  26
ENDBRANCH  24  25
BRANCH  24  29
HETATM   29  C21 UNL     1      14.318   8.174   2.183  1.00  0.00     0.179 C 
HETATM   30  C22 UNL     1      12.867   8.489   2.131  1.00  0.00     0.099 C 
HETATM   31  O7  UNL     1      14.695   7.121   1.714  1.00  0.00    -0.291 OA
ENDBRANCH  24  29
ENDBRANCH   1  24
TORSDOF 9
ENDMDL
MODEL 3
REMARK VINA RESULT: -7.368210664      1.902      5.009
REMARK  9 active torsions:
REMARK  status: ('A' for Active; 'I' for Inactive)
REMARK    1  A    between atoms: C7_7  and  O1_8 
REMARK    2  A    between atoms: C10_12  and  C12_14 
REMARK    3  A    between atoms: C12_14  and  C13_15 
REMARK    4  A    between atoms: C12_14  and  C18_24 
REMARK    5  A    between atoms: C13_15  and  C14_17 
REMARK    6  A    between atoms: C14_17  and  O3_18 
REMARK    7  A    between atoms: C18_24  and  O5_25 
REMARK    8  A    between atoms: C18_24  and  C21_29 
REMARK    9  A    between atoms: O5_25  and  C19_26 
ROOT
HETATM    1  C12 UNL     1      17.676   9.996   2.445  1.00  0.00     0.040 C 
ENDROOT
BRANCH   1   2
HETATM    2  C10 UNL     1      16.986   8.971   3.224  1.00  0.00    -0.006 C 
HETATM    3  C5  UNL     1      16.347   9.177   4.513  1.00  0.00     0.009 C 
HETATM    4  C4  UNL     1      17.173   9.564   5.700  1.00  0.00     0.011 C 
HETATM    5  C6  UNL     1      15.046   9.862   4.662  1.00  0.00     0.047 C 
HETATM    6  C3  UNL     1      16.111   9.365   6.803  1.00  0.00     0.034 C 
HETATM    7  C2  UNL     1      14.828   9.703   6.146  1.00  0.00    -0.082 C 
HETATM    8  C1  UNL     1      13.671   9.849   6.743  1.00  0.00     0.015 C 
HETATM    9  C7  UNL     1      14.037   9.040   3.887  1.00  0.00     0.126 C 
HETATM   10  C8  UNL     1      14.563   8.920   2.479  1.00  0.00     0.033 C 
HETATM   11  C9  UNL     1      15.882   8.275   2.360  1.00  0.00     0.017 C 
HETATM   12  C11 UNL     1      17.926   7.752   3.474  1.00  0.00     0.021 C 
BRANCH   9  13
HETATM   13  O1  UNL     1      12.864   9.820   3.797  1.00  0.00    -0.395 OA
ATOM     14  H1  UNL     1      12.231   9.430   4.387  1.00  0.00     0.210 HD
ENDBRANCH   9  13
ENDBRANCH   1   2
BRANCH   1  15
HETATM   15  C13 UNL     1      19.056  10.365   2.640  1.00  0.00     0.224 C 
HETATM   16  O2  UNL     1      19.367  10.756   3.788  1.00  0.00    -0.286 OA
BRANCH  15  17
HETATM   17  C14 UNL     1      20.210  10.366   1.724  1.00  0.00     0.262 A 
HETATM   18  O4  UNL     1      20.157   9.254   0.821  1.00  0.00    -0.330 OA
HETATM   19  C15 UNL     1      21.298   9.470   1.751  1.00  0.00     0.122 A 
HETATM   20  C16 UNL     1      22.506   9.801   0.895  1.00  0.00     0.052 C 
HETATM   21  C17 UNL     1      21.501   8.288   2.633  1.00  0.00     0.052 C 
BRANCH  17  22
HETATM   22  O3  UNL     1      20.450  11.609   1.133  1.00  0.00    -0.357 OA
ATOM     23  H3  UNL     1      21.345  11.720   0.836  1.00  0.00     0.213 HD
ENDBRANCH  17  22
ENDBRANCH  15  17
ENDBRANCH   1  15
BRANCH   1  24
HETATM   24  C18 UNL     1      16.883  11.207   2.015  1.00  0.00     0.135 C 
BRANCH  24  25
HETATM   25  O5  UNL     1      16.546  11.300   0.688  1.00  0.00    -0.275 OA
BRANCH  25  26
HETATM   26  C19 UNL     1      17.376  11.072  -0.355  1.00  0.00     0.260 C 
HETATM   27  C20 UNL     1      17.346   9.795  -1.166  1.00  0.00     0.126 C 
HETATM   28  O6  UNL     1      18.222  11.939  -0.689  1.00  0.00    -0.265 OA
ENDBRANCH  25  26
ENDBRANCH  24  25
BRANCH  24  29
HETATM   29  C21 UNL     1      17.373  12.488   2.622  1.00  0.00     0.179 C 
HETATM   30  C22 UNL     1      16.775  12.964   3.897  1.00  0.00     0.099 C 
HETATM   31  O7  UNL     1      18.243  13.158   2.110  1.00  0.00    -0.291 OA
ENDBRANCH  24  29
ENDBRANCH   1  24
TORSDOF 9
ENDMDL
MODEL 4
REMARK VINA RESULT: -7.325849222      2.209      6.790
REMARK  9 active torsions:
REMARK  status: ('A' for Active; 'I' for Inactive)
REMARK    1  A    between atoms: C7_7  and  O1_8 
REMARK    2  A    between atoms: C10_12  and  C12_14 
REMARK    3  A    between atoms: C12_14  and  C13_15 
REMARK    4  A    between atoms: C12_14  and  C18_24 
REMARK    5  A    between atoms: C13_15  and  C14_17 
REMARK    6  A    between atoms: C14_17  and  O3_18 
REMARK    7  A    between atoms: C18_24  and  O5_25 
REMARK    8  A    between atoms: C18_24  and  C21_29 
REMARK    9  A    between atoms: O5_25  and  C19_26 
ROOT
HETATM    1  C12 UNL     1      16.173  10.792   0.937  1.00  0.00     0.040 C 
ENDROOT
BRANCH   1   2
HETATM    2  C10 UNL     1      15.528   9.754   0.137  1.00  0.00    -0.006 C 
HETATM    3  C5  UNL     1      14.550   9.982  -0.914  1.00  0.00     0.009 C 
HETATM    4  C4  UNL     1      13.223  10.587  -0.576  1.00  0.00     0.011 C 
HETATM    5  C6  UNL     1      14.916  10.486  -2.253  1.00  0.00     0.047 C 
HETATM    6  C3  UNL     1      12.501  10.340  -1.919  1.00  0.00     0.034 C 
HETATM    7  C2  UNL     1      13.572  10.432  -2.937  1.00  0.00    -0.082 C 
HETATM    8  C1  UNL     1      13.402  10.465  -4.235  1.00  0.00     0.015 C 
HETATM    9  C7  UNL     1      15.858   9.463  -2.854  1.00  0.00     0.126 C 
HETATM   10  C8  UNL     1      16.995   9.293  -1.878  1.00  0.00     0.033 C 
HETATM   11  C9  UNL     1      16.600   8.833  -0.536  1.00  0.00     0.017 C 
HETATM   12  C11 UNL     1      14.833   8.707   1.061  1.00  0.00     0.021 C 
BRANCH   9  13
HETATM   13  O1  UNL     1      16.421  10.058  -4.004  1.00  0.00    -0.395 OA
ATOM     14  H1  UNL     1      16.646   9.349  -4.594  1.00  0.00     0.210 HD
ENDBRANCH   9  13
ENDBRANCH   1   2
BRANCH   1  15
HETATM   15  C13 UNL     1      17.344  11.522   0.520  1.00  0.00     0.224 C 
HETATM   16  O2  UNL     1      17.292  12.048  -0.614  1.00  0.00    -0.286 OA
BRANCH  15  17
HETATM   17  C14 UNL     1      18.629  11.781   1.193  1.00  0.00     0.262 A 
HETATM   18  O4  UNL     1      19.715  11.781   0.257  1.00  0.00    -0.330 OA
HETATM   19  C15 UNL     1      19.660  10.847   1.413  1.00  0.00     0.122 A 
HETATM   20  C16 UNL     1      20.783  11.243   2.353  1.00  0.00     0.052 C 
HETATM   21  C17 UNL     1      19.736   9.430   0.961  1.00  0.00     0.052 C 
BRANCH  17  22
HETATM   22  O3  UNL     1      18.588  12.872   2.065  1.00  0.00    -0.357 OA
ATOM     23  H3  UNL     1      19.399  13.367   2.088  1.00  0.00     0.213 HD
ENDBRANCH  17  22
ENDBRANCH  15  17
ENDBRANCH   1  15
BRANCH   1  24
HETATM   24  C18 UNL     1      16.194  10.613   2.437  1.00  0.00     0.135 C 
BRANCH  24  25
HETATM   25  O5  UNL     1      16.323   9.334   2.916  1.00  0.00    -0.275 OA
BRANCH  25  26
HETATM   26  C19 UNL     1      17.268   8.908   3.785  1.00  0.00     0.260 C 
HETATM   27  C20 UNL     1      18.085   9.852   4.641  1.00  0.00     0.126 C 
HETATM   28  O6  UNL     1      17.502   7.680   3.909  1.00  0.00    -0.265 OA
ENDBRANCH  25  26
ENDBRANCH  24  25
BRANCH  24  29
HETATM   29  C21 UNL     1      15.168  11.442   3.152  1.00  0.00     0.179 C 
HETATM   30  C22 UNL     1      13.755  10.984   3.182  1.00  0.00     0.099 C 
HETATM   31  O7  UNL     1      15.448  12.482   3.708  1.00  0.00    -0.291 OA
ENDBRANCH  24  29
ENDBRANCH   1  24
TORSDOF 9
ENDMDL
MODEL 5
REMARK VINA RESULT: -7.301327278      4.210      7.452
REMARK  9 active torsions:
REMARK  status: ('A' for Active; 'I' for Inactive)
REMARK    1  A    between atoms: C7_7  and  O1_8 
REMARK    2  A    between atoms: C10_12  and  C12_14 
REMARK    3  A    between atoms: C12_14  and  C13_15 
REMARK    4  A    between atoms: C12_14  and  C18_24 
REMARK    5  A    between atoms: C13_15  and  C14_17 
REMARK    6  A    between atoms: C14_17  and  O3_18 
REMARK    7  A    between atoms: C18_24  and  O5_25 
REMARK    8  A    between atoms: C18_24  and  C21_29 
REMARK    9  A    between atoms: O5_25  and  C19_26 
ROOT
HETATM    1  C12 UNL     1      20.707   9.152   3.185  1.00  0.00     0.040 C 
ENDROOT
BRANCH   1   2
HETATM    2  C10 UNL     1      20.915   8.174   4.249  1.00  0.00    -0.006 C 
HETATM    3  C5  UNL     1      22.076   7.311   4.388  1.00  0.00     0.009 C 
HETATM    4  C4  UNL     1      22.366   6.279   3.344  1.00  0.00     0.011 C 
HETATM    5  C6  UNL     1      23.383   7.798   4.875  1.00  0.00     0.047 C 
HETATM    6  C3  UNL     1      23.463   5.488   4.089  1.00  0.00     0.034 C 
HETATM    7  C2  UNL     1      24.156   6.503   4.914  1.00  0.00    -0.082 C 
HETATM    8  C1  UNL     1      25.270   6.327   5.581  1.00  0.00     0.015 C 
HETATM    9  C7  UNL     1      23.151   8.320   6.279  1.00  0.00     0.126 C 
HETATM   10  C8  UNL     1      22.055   9.350   6.184  1.00  0.00     0.033 C 
HETATM   11  C9  UNL     1      20.775   8.851   5.654  1.00  0.00     0.017 C 
HETATM   12  C11 UNL     1      19.713   7.182   4.320  1.00  0.00     0.021 C 
BRANCH   9  13
HETATM   13  O1  UNL     1      24.317   9.027   6.644  1.00  0.00    -0.395 OA
ATOM     14  H1  UNL     1      24.789   9.208   5.840  1.00  0.00     0.210 HD
ENDBRANCH   9  13
ENDBRANCH   1   2
BRANCH   1  15
HETATM   15  C13 UNL     1      21.774   9.839   2.500  1.00  0.00     0.224 C 
HETATM   16  O2  UNL     1      22.383  10.710   3.160  1.00  0.00    -0.286 OA
BRANCH  15  17
HETATM   17  C14 UNL     1      22.306   9.707   1.133  1.00  0.00     0.262 A 
HETATM   18  O4  UNL     1      22.325   8.336   0.713  1.00  0.00    -0.330 OA
HETATM   19  C15 UNL     1      23.557   9.167   0.773  1.00  0.00     0.122 A 
HETATM   20  C16 UNL     1      24.025   9.362  -0.657  1.00  0.00     0.052 C 
HETATM   21  C17 UNL     1      24.583   8.542   1.653  1.00  0.00     0.052 C 
BRANCH  17  22
HETATM   22  O3  UNL     1      21.738  10.605   0.226  1.00  0.00    -0.357 OA
ATOM     23  H3  UNL     1      22.300  10.799  -0.515  1.00  0.00     0.213 HD
ENDBRANCH  17  22
ENDBRANCH  15  17
ENDBRANCH   1  15
BRANCH   1  24
HETATM   24  C18 UNL     1      19.503  10.059   3.288  1.00  0.00     0.135 C 
BRANCH  24  25
HETATM   25  O5  UNL     1      18.383   9.550   3.896  1.00  0.00    -0.275 OA
BRANCH  25  26
HETATM   26  C19 UNL     1      17.605  10.202   4.789  1.00  0.00     0.260 C 
HETATM   27  C20 UNL     1      16.870   9.497   5.908  1.00  0.00     0.126 C 
HETATM   28  O6  UNL     1      17.464  11.448   4.712  1.00  0.00    -0.265 OA
ENDBRANCH  25  26
ENDBRANCH  24  25
BRANCH  24  29
HETATM   29  C21 UNL     1      19.230  10.834   2.033  1.00  0.00     0.179 C 
HETATM   30  C22 UNL     1      18.483  10.185   0.925  1.00  0.00     0.099 C 
HETATM   31  O7  UNL     1      19.600  11.979   1.885  1.00  0.00    -0.291 OA
ENDBRANCH  24  29
ENDBRANCH   1  24
TORSDOF 9
ENDMDL
