MODEL 1
REMARK VINA RESULT: -9.672098966      0.000      0.000
REMARK  7 active torsions:
REMARK  status: ('A' for Active; 'I' for Inactive)
REMARK    1  A    between atoms: C1_2  and  C2_3 
REMARK    2  A    between atoms: C1_2  and  O2_19 
REMARK    3  A    between atoms: C2_3  and  C3_4 
REMARK    4  A    between atoms: C3_4  and  C4_5 
REMARK    5  A    between atoms: C4_5  and  S1_6 
REMARK    6  A    between atoms: S1_6  and  C5_7 
REMARK    7  A    between atoms: O2_19  and  N4_20 
ROOT
HETATM    1  C2  UNL     1      15.205  10.929   2.400  1.00  0.00     0.114 C 
ENDROOT
BRANCH   1   2
HETATM    2  C1  UNL     1      15.069  11.819   3.565  1.00  0.00     0.281 C 
HETATM    3  O1  UNL     1      15.012  13.058   3.333  1.00  0.00    -0.263 OA
BRANCH   2   4
HETATM    4  O2  UNL     1      14.998  11.422   4.888  1.00  0.00    -0.200 OA
BRANCH   4   5
HETATM    5  N4  UNL     1      13.987  10.620   5.307  1.00  0.00    -0.265 N 
HETATM    6  C11 UNL     1      14.086   9.834   6.341  1.00  0.00     0.019 C 
HETATM    7  C12 UNL     1      15.326   9.746   7.164  1.00  0.00     0.034 C 
HETATM    8  C19 UNL     1      12.949   8.973   6.759  1.00  0.00     0.034 C 
HETATM    9  C13 UNL     1      14.934  10.176   8.569  1.00  0.00     0.015 C 
HETATM   10  C17 UNL     1      15.705   8.269   7.192  1.00  0.00     0.015 C 
HETATM   11  C14 UNL     1      13.815   9.315   9.054  1.00  0.00    -0.013 C 
HETATM   12  C15 UNL     1      14.301   7.889   9.141  1.00  0.00     0.009 C 
HETATM   13  C20 UNL     1      12.590   9.359   8.195  1.00  0.00     0.015 C 
HETATM   14  C16 UNL     1      14.595   7.422   7.742  1.00  0.00    -0.013 C 
HETATM   15  C18 UNL     1      13.402   7.511   6.832  1.00  0.00     0.015 C 
ATOM     16  H4  UNL     1      13.109  10.632   4.787  1.00  0.00     0.194 HD
ENDBRANCH   4   5
ENDBRANCH   2   4
ENDBRANCH   1   2
BRANCH   1  17
HETATM   17  C3  UNL     1      16.559  10.916   1.772  1.00  0.00     0.020 C 
BRANCH  17  18
HETATM   18  C4  UNL     1      16.643  11.741   0.508  1.00  0.00     0.081 C 
BRANCH  18  19
HETATM   19  S1  UNL     1      16.749  10.589  -0.886  1.00  0.00    -0.111 SA
BRANCH  19  20
HETATM   20  C5  UNL     1      15.123  10.355  -1.633  1.00  0.00     0.086 A 
HETATM   21  C6  UNL     1      13.968  10.731  -0.983  1.00  0.00     0.126 A 
HETATM   22  N1  UNL     1      12.751  10.560  -1.529  1.00  0.00    -0.348 N 
HETATM   23  C7  UNL     1      12.615  10.004  -2.753  1.00  0.00     0.132 A 
ATOM     24  H1  UNL     1      11.921  10.852  -1.014  1.00  0.00     0.167 HD
HETATM   25  N2  UNL     1      11.536   9.731  -3.503  1.00  0.00    -0.350 N 
HETATM   26  C10 UNL     1      13.762   9.624  -3.415  1.00  0.00     0.079 A 
HETATM   27  C8  UNL     1      11.975   9.174  -4.646  1.00  0.00     0.092 A 
ATOM     28  H2  UNL     1      10.564   9.911  -3.253  1.00  0.00     0.166 HD
HETATM   29  C9  UNL     1      13.349   9.096  -4.619  1.00  0.00     0.050 A 
HETATM   30  N3  UNL     1      14.996   9.802  -2.849  1.00  0.00    -0.347 N 
ATOM     31  H3  UNL     1      15.830   9.513  -3.360  1.00  0.00     0.167 HD
ENDBRANCH  19  20
ENDBRANCH  18  19
ENDBRANCH  17  18
ENDBRANCH   1  17
TORSDOF 7
ENDMDL
MODEL 2
REMARK VINA RESULT: -9.292907546      2.477      3.542
REMARK  7 active torsions:
REMARK  status: ('A' for Active; 'I' for Inactive)
REMARK    1  A    between atoms: C1_2  and  C2_3 
REMARK    2  A    between atoms: C1_2  and  O2_19 
REMARK    3  A    between atoms: C2_3  and  C3_4 
REMARK    4  A    between atoms: C3_4  and  C4_5 
REMARK    5  A    between atoms: C4_5  and  S1_6 
REMARK    6  A    between atoms: S1_6  and  C5_7 
REMARK    7  A    between atoms: O2_19  and  N4_20 
ROOT
HETATM    1  C2  UNL     1      18.901  10.852   0.753  1.00  0.00     0.114 C 
ENDROOT
BRANCH   1   2
HETATM    2  C1  UNL     1      19.577  10.961   2.056  1.00  0.00     0.281 C 
HETATM    3  O1  UNL     1      20.805  11.246   2.040  1.00  0.00    -0.263 OA
BRANCH   2   4
HETATM    4  O2  UNL     1      18.988  10.782   3.295  1.00  0.00    -0.200 OA
BRANCH   4   5
HETATM    5  N4  UNL     1      17.812  11.393   3.587  1.00  0.00    -0.265 N 
HETATM    6  C11 UNL     1      16.677  10.756   3.652  1.00  0.00     0.019 C 
HETATM    7  C12 UNL     1      16.568   9.290   3.408  1.00  0.00     0.034 C 
HETATM    8  C19 UNL     1      15.416  11.472   3.976  1.00  0.00     0.034 C 
HETATM    9  C13 UNL     1      16.031   8.685   4.697  1.00  0.00     0.015 C 
HETATM   10  C17 UNL     1      15.517   9.124   2.316  1.00  0.00     0.015 C 
HETATM   11  C14 UNL     1      14.739   9.346   5.051  1.00  0.00    -0.013 C 
HETATM   12  C15 UNL     1      13.732   9.056   3.965  1.00  0.00     0.009 C 
HETATM   13  C20 UNL     1      14.838  10.827   5.237  1.00  0.00     0.015 C 
HETATM   14  C16 UNL     1      14.205   9.736   2.710  1.00  0.00    -0.013 C 
HETATM   15  C18 UNL     1      14.377  11.220   2.878  1.00  0.00     0.015 C 
ATOM     16  H4  UNL     1      17.817  12.398   3.765  1.00  0.00     0.194 HD
ENDBRANCH   4   5
ENDBRANCH   2   4
ENDBRANCH   1   2
BRANCH   1  17
HETATM   17  C3  UNL     1      18.162  12.075   0.322  1.00  0.00     0.020 C 
BRANCH  17  18
HETATM   18  C4  UNL     1      16.710  11.815  -0.008  1.00  0.00     0.081 C 
BRANCH  18  19
HETATM   19  S1  UNL     1      16.652  10.379  -1.111  1.00  0.00    -0.111 SA
BRANCH  19  20
HETATM   20  C5  UNL     1      15.006  10.206  -1.831  1.00  0.00     0.086 A 
HETATM   21  C6  UNL     1      13.900  10.790  -1.255  1.00  0.00     0.126 A 
HETATM   22  N1  UNL     1      12.669  10.666  -1.783  1.00  0.00    -0.348 N 
HETATM   23  C7  UNL     1      12.471   9.954  -2.915  1.00  0.00     0.132 A 
ATOM     24  H1  UNL     1      11.876  11.114  -1.325  1.00  0.00     0.167 HD
HETATM   25  N2  UNL     1      11.365   9.686  -3.628  1.00  0.00    -0.350 N 
HETATM   26  C10 UNL     1      13.569   9.365  -3.502  1.00  0.00     0.079 A 
HETATM   27  C8  UNL     1      11.739   8.926  -4.672  1.00  0.00     0.092 A 
ATOM     28  H2  UNL     1      10.419  10.000  -3.416  1.00  0.00     0.166 HD
HETATM   29  C9  UNL     1      13.098   8.712  -4.620  1.00  0.00     0.050 A 
HETATM   30  N3  UNL     1      14.817   9.498  -2.956  1.00  0.00    -0.347 N 
ATOM     31  H3  UNL     1      15.615   9.052  -3.410  1.00  0.00     0.167 HD
ENDBRANCH  19  20
ENDBRANCH  18  19
ENDBRANCH  17  18
ENDBRANCH   1  17
TORSDOF 7
ENDMDL
MODEL 3
REMARK VINA RESULT: -9.275105996      0.986      1.130
REMARK  7 active torsions:
REMARK  status: ('A' for Active; 'I' for Inactive)
REMARK    1  A    between atoms: C1_2  and  C2_3 
REMARK    2  A    between atoms: C1_2  and  O2_19 
REMARK    3  A    between atoms: C2_3  and  C3_4 
REMARK    4  A    between atoms: C3_4  and  C4_5 
REMARK    5  A    between atoms: C4_5  and  S1_6 
REMARK    6  A    between atoms: S1_6  and  C5_7 
REMARK    7  A    between atoms: O2_19  and  N4_20 
ROOT
HETATM    1  C2  UNL     1      16.018  11.443   2.738  1.00  0.00     0.114 C 
ENDROOT
BRANCH   1   2
HETATM    2  C1  UNL     1      14.897  10.515   2.962  1.00  0.00     0.281 C 
HETATM    3  O1  UNL     1      14.862   9.479   2.244  1.00  0.00    -0.263 OA
BRANCH   2   4
HETATM    4  O2  UNL     1      13.880  10.676   3.886  1.00  0.00    -0.200 OA
BRANCH   4   5
HETATM    5  N4  UNL     1      13.392   9.603   4.558  1.00  0.00    -0.265 N 
HETATM    6  C11 UNL     1      13.642   9.379   5.817  1.00  0.00     0.019 C 
HETATM    7  C12 UNL     1      14.493  10.287   6.637  1.00  0.00     0.034 C 
HETATM    8  C19 UNL     1      13.083   8.187   6.508  1.00  0.00     0.034 C 
HETATM    9  C13 UNL     1      13.605  10.799   7.760  1.00  0.00     0.015 C 
HETATM   10  C17 UNL     1      15.584   9.409   7.238  1.00  0.00     0.015 C 
HETATM   11  C14 UNL     1      13.044   9.638   8.514  1.00  0.00    -0.013 C 
HETATM   12  C15 UNL     1      14.181   8.879   9.152  1.00  0.00     0.009 C 
HETATM   13  C20 UNL     1      12.238   8.695   7.677  1.00  0.00     0.015 C 
HETATM   14  C16 UNL     1      15.008   8.283   8.047  1.00  0.00    -0.013 C 
HETATM   15  C18 UNL     1      14.217   7.377   7.146  1.00  0.00     0.015 C 
ATOM     16  H4  UNL     1      12.802   8.940   4.054  1.00  0.00     0.194 HD
ENDBRANCH   4   5
ENDBRANCH   2   4
ENDBRANCH   1   2
BRANCH   1  17
HETATM   17  C3  UNL     1      16.988  11.016   1.687  1.00  0.00     0.020 C 
BRANCH  17  18
HETATM   18  C4  UNL     1      16.935  11.868   0.439  1.00  0.00     0.081 C 
BRANCH  18  19
HETATM   19  S1  UNL     1      17.041  10.754  -0.985  1.00  0.00    -0.111 SA
BRANCH  19  20
HETATM   20  C5  UNL     1      15.402  10.471  -1.685  1.00  0.00     0.086 A 
HETATM   21  C6  UNL     1      14.255  10.723  -0.965  1.00  0.00     0.126 A 
HETATM   22  N1  UNL     1      13.028  10.514  -1.477  1.00  0.00    -0.348 N 
HETATM   23  C7  UNL     1      12.876  10.044  -2.734  1.00  0.00     0.132 A 
ATOM     24  H1  UNL     1      12.205  10.713  -0.910  1.00  0.00     0.167 HD
HETATM   25  N2  UNL     1      11.784   9.758  -3.462  1.00  0.00    -0.350 N 
HETATM   26  C10 UNL     1      14.014   9.789  -3.466  1.00  0.00     0.079 A 
HETATM   27  C8  UNL     1      12.207   9.319  -4.660  1.00  0.00     0.092 A 
ATOM     28  H2  UNL     1      10.815   9.857  -3.162  1.00  0.00     0.166 HD
HETATM   29  C9  UNL     1      13.584   9.327  -4.691  1.00  0.00     0.050 A 
HETATM   30  N3  UNL     1      15.258  10.005  -2.935  1.00  0.00    -0.347 N 
ATOM     31  H3  UNL     1      16.085   9.808  -3.498  1.00  0.00     0.167 HD
ENDBRANCH  19  20
ENDBRANCH  18  19
ENDBRANCH  17  18
ENDBRANCH   1  17
TORSDOF 7
ENDMDL
MODEL 4
REMARK VINA RESULT: -9.267712637      1.577      2.143
REMARK  7 active torsions:
REMARK  status: ('A' for Active; 'I' for Inactive)
REMARK    1  A    between atoms: C1_2  and  C2_3 
REMARK    2  A    between atoms: C1_2  and  O2_19 
REMARK    3  A    between atoms: C2_3  and  C3_4 
REMARK    4  A    between atoms: C3_4  and  C4_5 
REMARK    5  A    between atoms: C4_5  and  S1_6 
REMARK    6  A    between atoms: S1_6  and  C5_7 
REMARK    7  A    between atoms: O2_19  and  N4_20 
ROOT
HETATM    1  C2  UNL     1      15.872   9.289   2.808  1.00  0.00     0.114 C 
ENDROOT
BRANCH   1   2
HETATM    2  C1  UNL     1      14.411   9.336   2.639  1.00  0.00     0.281 C 
HETATM    3  O1  UNL     1      13.953   8.961   1.525  1.00  0.00    -0.263 OA
BRANCH   2   4
HETATM    4  O2  UNL     1      13.495   9.751   3.589  1.00  0.00    -0.200 OA
BRANCH   4   5
HETATM    5  N4  UNL     1      13.054   8.886   4.536  1.00  0.00    -0.265 N 
HETATM    6  C11 UNL     1      13.458   8.921   5.774  1.00  0.00     0.019 C 
HETATM    7  C12 UNL     1      14.450   9.920   6.264  1.00  0.00     0.034 C 
HETATM    8  C19 UNL     1      12.944   7.949   6.775  1.00  0.00     0.034 C 
HETATM    9  C13 UNL     1      13.742  10.725   7.343  1.00  0.00     0.015 C 
HETATM   10  C17 UNL     1      15.571   9.115   6.911  1.00  0.00     0.015 C 
HETATM   11  C14 UNL     1      13.235   9.796   8.398  1.00  0.00    -0.013 C 
HETATM   12  C15 UNL     1      14.412   9.111   9.048  1.00  0.00     0.009 C 
HETATM   13  C20 UNL     1      12.285   8.756   7.895  1.00  0.00     0.015 C 
HETATM   14  C16 UNL     1      15.058   8.234   8.013  1.00  0.00    -0.013 C 
HETATM   15  C18 UNL     1      14.115   7.215   7.437  1.00  0.00     0.015 C 
ATOM     16  H4  UNL     1      12.373   8.175   4.267  1.00  0.00     0.194 HD
ENDBRANCH   4   5
ENDBRANCH   2   4
ENDBRANCH   1   2
BRANCH   1  17
HETATM   17  C3  UNL     1      16.502  10.581   3.210  1.00  0.00     0.020 C 
BRANCH  17  18
HETATM   18  C4  UNL     1      16.081  11.749   2.346  1.00  0.00     0.081 C 
BRANCH  18  19
HETATM   19  S1  UNL     1      17.086  11.701   0.840  1.00  0.00    -0.111 SA
BRANCH  19  20
HETATM   20  C5  UNL     1      16.119  11.057  -0.541  1.00  0.00     0.086 A 
HETATM   21  C6  UNL     1      16.722  10.528  -1.661  1.00  0.00     0.126 A 
HETATM   22  N1  UNL     1      16.010  10.046  -2.697  1.00  0.00    -0.348 N 
HETATM   23  C7  UNL     1      14.659  10.064  -2.674  1.00  0.00     0.132 A 
ATOM     24  H1  UNL     1      16.496   9.664  -3.508  1.00  0.00     0.167 HD
HETATM   25  N2  UNL     1      13.739   9.652  -3.560  1.00  0.00    -0.350 N 
HETATM   26  C10 UNL     1      14.043  10.589  -1.559  1.00  0.00     0.079 A 
HETATM   27  C8  UNL     1      12.531   9.908  -3.029  1.00  0.00     0.092 A 
ATOM     28  H2  UNL     1      13.922   9.225  -4.468  1.00  0.00     0.166 HD
HETATM   29  C9  UNL     1      12.689  10.487  -1.790  1.00  0.00     0.050 A 
HETATM   30  N3  UNL     1      14.777  11.077  -0.511  1.00  0.00    -0.347 N 
ATOM     31  H3  UNL     1      14.297  11.460   0.303  1.00  0.00     0.167 HD
ENDBRANCH  19  20
ENDBRANCH  18  19
ENDBRANCH  17  18
ENDBRANCH   1  17
TORSDOF 7
ENDMDL
MODEL 5
REMARK VINA RESULT: -9.237017866      0.929      1.398
REMARK  7 active torsions:
REMARK  status: ('A' for Active; 'I' for Inactive)
REMARK    1  A    between atoms: C1_2  and  C2_3 
REMARK    2  A    between atoms: C1_2  and  O2_19 
REMARK    3  A    between atoms: C2_3  and  C3_4 
REMARK    4  A    between atoms: C3_4  and  C4_5 
REMARK    5  A    between atoms: C4_5  and  S1_6 
REMARK    6  A    between atoms: S1_6  and  C5_7 
REMARK    7  A    between atoms: O2_19  and  N4_20 
ROOT
HETATM    1  C2  UNL     1      15.198  10.851   2.514  1.00  0.00     0.114 C 
ENDROOT
BRANCH   1   2
HETATM    2  C1  UNL     1      15.021  11.778   3.643  1.00  0.00     0.281 C 
HETATM    3  O1  UNL     1      14.954  13.006   3.368  1.00  0.00    -0.263 OA
BRANCH   2   4
HETATM    4  O2  UNL     1      14.921  11.425   4.977  1.00  0.00    -0.200 OA
BRANCH   4   5
HETATM    5  N4  UNL     1      13.926  10.601   5.393  1.00  0.00    -0.265 N 
HETATM    6  C11 UNL     1      14.044   9.807   6.419  1.00  0.00     0.019 C 
HETATM    7  C12 UNL     1      15.290   9.732   7.234  1.00  0.00     0.034 C 
HETATM    8  C19 UNL     1      12.924   8.923   6.835  1.00  0.00     0.034 C 
HETATM    9  C13 UNL     1      14.898  10.142   8.646  1.00  0.00     0.015 C 
HETATM   10  C17 UNL     1      15.694   8.262   7.247  1.00  0.00     0.015 C 
HETATM   11  C14 UNL     1      13.795   9.258   9.128  1.00  0.00    -0.013 C 
HETATM   12  C15 UNL     1      14.307   7.840   9.198  1.00  0.00     0.009 C 
HETATM   13  C20 UNL     1      12.566   9.289   8.276  1.00  0.00     0.015 C 
HETATM   14  C16 UNL     1      14.601   7.390   7.794  1.00  0.00    -0.013 C 
HETATM   15  C18 UNL     1      13.402   7.468   6.891  1.00  0.00     0.015 C 
ATOM     16  H4  UNL     1      13.046  10.603   4.878  1.00  0.00     0.194 HD
ENDBRANCH   4   5
ENDBRANCH   2   4
ENDBRANCH   1   2
BRANCH   1  17
HETATM   17  C3  UNL     1      16.443  10.029   2.561  1.00  0.00     0.020 C 
BRANCH  17  18
HETATM   18  C4  UNL     1      17.421  10.356   1.456  1.00  0.00     0.081 C 
BRANCH  18  19
HETATM   19  S1  UNL     1      16.673  11.649   0.432  1.00  0.00    -0.111 SA
BRANCH  19  20
HETATM   20  C5  UNL     1      15.775  10.915  -0.950  1.00  0.00     0.086 A 
HETATM   21  C6  UNL     1      16.432  10.312  -2.000  1.00  0.00     0.126 A 
HETATM   22  N1  UNL     1      15.772   9.763  -3.036  1.00  0.00    -0.348 N 
HETATM   23  C7  UNL     1      14.421   9.784  -3.084  1.00  0.00     0.132 A 
ATOM     24  H1  UNL     1      16.296   9.326  -3.794  1.00  0.00     0.167 HD
HETATM   25  N2  UNL     1      13.546   9.315  -3.988  1.00  0.00    -0.350 N 
HETATM   26  C10 UNL     1      13.752  10.383  -2.041  1.00  0.00     0.079 A 
HETATM   27  C8  UNL     1      12.314   9.607  -3.537  1.00  0.00     0.092 A 
ATOM     28  H2  UNL     1      13.773   8.827  -4.854  1.00  0.00     0.166 HD
HETATM   29  C9  UNL     1      12.411  10.269  -2.334  1.00  0.00     0.050 A 
HETATM   30  N3  UNL     1      14.433  10.939  -0.991  1.00  0.00    -0.347 N 
ATOM     31  H3  UNL     1      13.914  11.377  -0.230  1.00  0.00     0.167 HD
ENDBRANCH  19  20
ENDBRANCH  18  19
ENDBRANCH  17  18
ENDBRANCH   1  17
TORSDOF 7
ENDMDL
