MODEL 1
REMARK VINA RESULT: -8.781360211      0.000      0.000
REMARK  6 active torsions:
REMARK  status: ('A' for Active; 'I' for Inactive)
REMARK    1  A    between atoms: C1_2  and  C2_3 
REMARK       I    between atoms: C1_2  and  N2_12 
REMARK    2  A    between atoms: C2_3  and  C3_4 
REMARK    3  A    between atoms: C3_4  and  C4_5 
REMARK    4  A    between atoms: C4_5  and  N1_6 
REMARK    5  A    between atoms: N2_12  and  C10_14 
REMARK    6  A    between atoms: C10_14  and  C11_15 
ROOT
HETATM    1  C11 UNL     1      14.826  11.056   2.337  1.00  0.00     0.064 A 
HETATM    2  N3  UNL     1      15.859  11.728   2.915  1.00  0.00    -0.262 N 
ATOM      3  H3  UNL     1      15.819  12.151   3.842  1.00  0.00     0.194 HD
HETATM    4  O2  UNL     1      16.894  11.765   2.150  1.00  0.00    -0.229 OA
HETATM    5  C12 UNL     1      16.569  11.110   1.029  1.00  0.00     0.153 A 
HETATM    6  S1  UNL     1      17.117  10.596  -0.508  1.00  0.00    -0.066 SA
HETATM    7  C13 UNL     1      15.718   9.804  -1.044  1.00  0.00    -0.007 A 
HETATM    8  C14 UNL     1      14.837   9.957  -0.000  1.00  0.00    -0.029 A 
HETATM    9  C15 UNL     1      15.289  10.641   1.082  1.00  0.00     0.040 A 
HETATM   10  C16 UNL     1      13.439   9.360  -0.110  1.00  0.00     0.040 C 
HETATM   11  C17 UNL     1      12.730   9.937  -1.307  1.00  0.00     0.005 C 
HETATM   12  C18 UNL     1      13.636  10.766  -2.179  1.00  0.00     0.001 C 
HETATM   13  C19 UNL     1      14.384   9.805  -3.112  1.00  0.00     0.005 C 
HETATM   14  C20 UNL     1      15.512   9.109  -2.372  1.00  0.00     0.047 C 
ENDROOT
BRANCH   1  15
HETATM   15  C10 UNL     1      13.518  10.835   2.991  1.00  0.00     0.182 C 
BRANCH  15  16
HETATM   16  N2  UNL     1      13.557   9.645   3.834  1.00  0.00    -0.355 N 
HETATM   17  C1  UNL     1      14.014   9.657   5.165  1.00  0.00     0.217 C 
HETATM   18  O1  UNL     1      14.392  10.756   5.653  1.00  0.00    -0.274 OA
ATOM     19  H2  UNL     1      13.238   8.760   3.439  1.00  0.00     0.162 HD
BRANCH  17  20
HETATM   20  C2  UNL     1      14.081   8.470   6.024  1.00  0.00     0.104 C 
BRANCH  20  21
HETATM   21  C3  UNL     1      13.300   8.539   7.290  1.00  0.00     0.029 C 
BRANCH  21  22
HETATM   22  C4  UNL     1      14.078   8.762   8.535  1.00  0.00     0.127 C 
BRANCH  22  23
HETATM   23  N1  UNL     1      14.008  10.169   8.894  1.00  0.00    -0.374 N 
HETATM   24  C5  UNL     1      14.861  10.521   9.955  1.00  0.00     0.063 C 
HETATM   25  C6  UNL     1      14.408  11.432  11.019  1.00  0.00     0.045 C 
HETATM   26  C7  UNL     1      12.968  11.805  11.036  1.00  0.00     0.010 C 
HETATM   27  C8  UNL     1      12.436  11.943   9.623  1.00  0.00     0.045 C 
HETATM   28  C9  UNL     1      12.713  10.713   8.813  1.00  0.00     0.063 C 
ENDBRANCH  22  23
ENDBRANCH  21  22
ENDBRANCH  20  21
ENDBRANCH  17  20
ENDBRANCH  15  16
ENDBRANCH   1  15
TORSDOF 6
ENDMDL
MODEL 2
REMARK VINA RESULT: -8.625326498      0.953      1.340
REMARK  6 active torsions:
REMARK  status: ('A' for Active; 'I' for Inactive)
REMARK    1  A    between atoms: C1_2  and  C2_3 
REMARK       I    between atoms: C1_2  and  N2_12 
REMARK    2  A    between atoms: C2_3  and  C3_4 
REMARK    3  A    between atoms: C3_4  and  C4_5 
REMARK    4  A    between atoms: C4_5  and  N1_6 
REMARK    5  A    between atoms: N2_12  and  C10_14 
REMARK    6  A    between atoms: C10_14  and  C11_15 
ROOT
HETATM    1  C11 UNL     1      14.889  11.054   1.840  1.00  0.00     0.064 A 
HETATM    2  N3  UNL     1      15.926  11.745   2.387  1.00  0.00    -0.262 N 
ATOM      3  H3  UNL     1      15.914  12.147   3.324  1.00  0.00     0.194 HD
HETATM    4  O2  UNL     1      16.925  11.829   1.580  1.00  0.00    -0.229 OA
HETATM    5  C12 UNL     1      16.571  11.188   0.460  1.00  0.00     0.153 A 
HETATM    6  S1  UNL     1      17.066  10.723  -1.111  1.00  0.00    -0.066 SA
HETATM    7  C13 UNL     1      15.669   9.901  -1.604  1.00  0.00    -0.007 A 
HETATM    8  C14 UNL     1      14.830  10.005  -0.520  1.00  0.00    -0.029 A 
HETATM    9  C15 UNL     1      15.309  10.679   0.557  1.00  0.00     0.040 A 
HETATM   10  C16 UNL     1      13.446   9.369  -0.583  1.00  0.00     0.040 C 
HETATM   11  C17 UNL     1      12.669   9.950  -1.735  1.00  0.00     0.005 C 
HETATM   12  C18 UNL     1      13.512  10.823  -2.627  1.00  0.00     0.001 C 
HETATM   13  C19 UNL     1      14.246   9.905  -3.612  1.00  0.00     0.005 C 
HETATM   14  C20 UNL     1      15.425   9.227  -2.937  1.00  0.00     0.047 C 
ENDROOT
BRANCH   1  15
HETATM   15  C10 UNL     1      13.618  10.781   2.544  1.00  0.00     0.182 C 
BRANCH  15  16
HETATM   16  N2  UNL     1      13.866  10.420   3.936  1.00  0.00    -0.355 N 
HETATM   17  C1  UNL     1      13.782   9.101   4.418  1.00  0.00     0.217 C 
HETATM   18  O1  UNL     1      13.492   8.188   3.600  1.00  0.00    -0.274 OA
ATOM     19  H2  UNL     1      14.113  11.162   4.592  1.00  0.00     0.162 HD
BRANCH  17  20
HETATM   20  C2  UNL     1      14.008   8.719   5.816  1.00  0.00     0.104 C 
BRANCH  20  21
HETATM   21  C3  UNL     1      14.191   9.842   6.776  1.00  0.00     0.029 C 
BRANCH  21  22
HETATM   22  C4  UNL     1      14.948   9.534   8.017  1.00  0.00     0.127 C 
BRANCH  22  23
HETATM   23  N1  UNL     1      14.138   9.896   9.169  1.00  0.00    -0.374 N 
HETATM   24  C5  UNL     1      12.797  10.173   8.848  1.00  0.00     0.063 C 
HETATM   25  C6  UNL     1      12.090  11.306   9.467  1.00  0.00     0.045 C 
HETATM   26  C7  UNL     1      12.896  12.253  10.285  1.00  0.00     0.010 C 
HETATM   27  C8  UNL     1      13.983  11.514  11.041  1.00  0.00     0.045 C 
HETATM   28  C9  UNL     1      14.818  10.679  10.119  1.00  0.00     0.063 C 
ENDBRANCH  22  23
ENDBRANCH  21  22
ENDBRANCH  20  21
ENDBRANCH  17  20
ENDBRANCH  15  16
ENDBRANCH   1  15
TORSDOF 6
ENDMDL
MODEL 3
REMARK VINA RESULT: -8.592282760      4.772      7.035
REMARK  6 active torsions:
REMARK  status: ('A' for Active; 'I' for Inactive)
REMARK    1  A    between atoms: C1_2  and  C2_3 
REMARK       I    between atoms: C1_2  and  N2_12 
REMARK    2  A    between atoms: C2_3  and  C3_4 
REMARK    3  A    between atoms: C3_4  and  C4_5 
REMARK    4  A    between atoms: C4_5  and  N1_6 
REMARK    5  A    between atoms: N2_12  and  C10_14 
REMARK    6  A    between atoms: C10_14  and  C11_15 
ROOT
HETATM    1  C11 UNL     1      16.550  11.020  -0.446  1.00  0.00     0.064 A 
HETATM    2  N3  UNL     1      16.838  10.771  -1.752  1.00  0.00    -0.262 N 
ATOM      3  H3  UNL     1      17.483  11.329  -2.311  1.00  0.00     0.194 HD
HETATM    4  O2  UNL     1      16.199   9.747  -2.198  1.00  0.00    -0.229 OA
HETATM    5  C12 UNL     1      15.458   9.283  -1.184  1.00  0.00     0.153 A 
HETATM    6  S1  UNL     1      14.335   8.089  -0.694  1.00  0.00    -0.066 SA
HETATM    7  C13 UNL     1      14.114   8.568   0.916  1.00  0.00    -0.007 A 
HETATM    8  C14 UNL     1      14.931   9.666   1.044  1.00  0.00    -0.029 A 
HETATM    9  C15 UNL     1      15.632  10.035  -0.058  1.00  0.00     0.040 A 
HETATM   10  C16 UNL     1      15.007  10.387   2.385  1.00  0.00     0.040 C 
HETATM   11  C17 UNL     1      13.637  10.871   2.783  1.00  0.00     0.005 C 
HETATM   12  C18 UNL     1      12.548  10.345   1.886  1.00  0.00     0.001 C 
HETATM   13  C19 UNL     1      12.175   8.943   2.384  1.00  0.00     0.005 C 
HETATM   14  C20 UNL     1      13.212   7.925   1.947  1.00  0.00     0.047 C 
ENDROOT
BRANCH   1  15
HETATM   15  C10 UNL     1      17.153  12.120   0.337  1.00  0.00     0.182 C 
BRANCH  15  16
HETATM   16  N2  UNL     1      18.056  11.593   1.356  1.00  0.00    -0.355 N 
HETATM   17  C1  UNL     1      19.203  10.838   1.053  1.00  0.00     0.217 C 
HETATM   18  O1  UNL     1      19.469  10.622  -0.159  1.00  0.00    -0.274 OA
ATOM     19  H2  UNL     1      17.844  11.782   2.336  1.00  0.00     0.162 HD
BRANCH  17  20
HETATM   20  C2  UNL     1      20.114  10.282   2.061  1.00  0.00     0.104 C 
BRANCH  20  21
HETATM   21  C3  UNL     1      19.891   8.855   2.422  1.00  0.00     0.029 C 
BRANCH  21  22
HETATM   22  C4  UNL     1      21.060   7.950   2.289  1.00  0.00     0.127 C 
BRANCH  22  23
HETATM   23  N1  UNL     1      21.098   7.050   3.431  1.00  0.00    -0.374 N 
HETATM   24  C5  UNL     1      22.008   5.989   3.280  1.00  0.00     0.063 C 
HETATM   25  C6  UNL     1      21.654   4.624   3.701  1.00  0.00     0.045 C 
HETATM   26  C7  UNL     1      20.244   4.374   4.105  1.00  0.00     0.010 C 
HETATM   27  C8  UNL     1      19.676   5.579   4.830  1.00  0.00     0.045 C 
HETATM   28  C9  UNL     1      19.841   6.830   4.023  1.00  0.00     0.063 C 
ENDBRANCH  22  23
ENDBRANCH  21  22
ENDBRANCH  20  21
ENDBRANCH  17  20
ENDBRANCH  15  16
ENDBRANCH   1  15
TORSDOF 6
ENDMDL
MODEL 4
REMARK VINA RESULT: -8.440301991      4.772      7.322
REMARK  6 active torsions:
REMARK  status: ('A' for Active; 'I' for Inactive)
REMARK    1  A    between atoms: C1_2  and  C2_3 
REMARK       I    between atoms: C1_2  and  N2_12 
REMARK    2  A    between atoms: C2_3  and  C3_4 
REMARK    3  A    between atoms: C3_4  and  C4_5 
REMARK    4  A    between atoms: C4_5  and  N1_6 
REMARK    5  A    between atoms: N2_12  and  C10_14 
REMARK    6  A    between atoms: C10_14  and  C11_15 
ROOT
HETATM    1  C11 UNL     1      17.940  10.834   0.886  1.00  0.00     0.064 A 
HETATM    2  N3  UNL     1      18.409  11.452  -0.233  1.00  0.00    -0.262 N 
ATOM      3  H3  UNL     1      19.363  11.796  -0.338  1.00  0.00     0.194 HD
HETATM    4  O2  UNL     1      17.504  11.548  -1.142  1.00  0.00    -0.229 OA
HETATM    5  C12 UNL     1      16.394  10.989  -0.643  1.00  0.00     0.153 A 
HETATM    6  S1  UNL     1      14.755  10.604  -0.947  1.00  0.00    -0.066 SA
HETATM    7  C13 UNL     1      14.372   9.864   0.528  1.00  0.00    -0.007 A 
HETATM    8  C14 UNL     1      15.546   9.932   1.241  1.00  0.00    -0.029 A 
HETATM    9  C15 UNL     1      16.600  10.522   0.622  1.00  0.00     0.040 A 
HETATM   10  C16 UNL     1      15.598   9.352   2.649  1.00  0.00     0.040 C 
HETATM   11  C17 UNL     1      14.572  10.030   3.520  1.00  0.00     0.005 C 
HETATM   12  C18 UNL     1      13.644  10.924   2.740  1.00  0.00     0.001 C 
HETATM   13  C19 UNL     1      12.535  10.042   2.155  1.00  0.00     0.005 C 
HETATM   14  C20 UNL     1      13.038   9.282   0.942  1.00  0.00     0.047 C 
ENDROOT
BRANCH   1  15
HETATM   15  C10 UNL     1      18.762  10.564   2.085  1.00  0.00     0.182 C 
BRANCH  15  16
HETATM   16  N2  UNL     1      19.727   9.501   1.821  1.00  0.00    -0.355 N 
HETATM   17  C1  UNL     1      21.020   9.740   1.320  1.00  0.00     0.217 C 
HETATM   18  O1  UNL     1      21.362  10.933   1.105  1.00  0.00    -0.274 OA
ATOM     19  H2  UNL     1      19.450   8.538   2.009  1.00  0.00     0.162 HD
BRANCH  17  20
HETATM   20  C2  UNL     1      21.998   8.687   1.029  1.00  0.00     0.104 C 
BRANCH  20  21
HETATM   21  C3  UNL     1      21.704   7.348   1.610  1.00  0.00     0.029 C 
BRANCH  21  22
HETATM   22  C4  UNL     1      22.682   6.829   2.601  1.00  0.00     0.127 C 
BRANCH  22  23
HETATM   23  N1  UNL     1      21.960   6.234   3.714  1.00  0.00    -0.374 N 
HETATM   24  C5  UNL     1      21.920   4.829   3.670  1.00  0.00     0.063 C 
HETATM   25  C6  UNL     1      20.687   4.097   4.002  1.00  0.00     0.045 C 
HETATM   26  C7  UNL     1      19.445   4.895   4.192  1.00  0.00     0.010 C 
HETATM   27  C8  UNL     1      19.760   6.221   4.856  1.00  0.00     0.045 C 
HETATM   28  C9  UNL     1      20.827   6.966   4.113  1.00  0.00     0.063 C 
ENDBRANCH  22  23
ENDBRANCH  21  22
ENDBRANCH  20  21
ENDBRANCH  17  20
ENDBRANCH  15  16
ENDBRANCH   1  15
TORSDOF 6
ENDMDL
MODEL 5
REMARK VINA RESULT: -8.406609879      4.805      8.074
REMARK  6 active torsions:
REMARK  status: ('A' for Active; 'I' for Inactive)
REMARK    1  A    between atoms: C1_2  and  C2_3 
REMARK       I    between atoms: C1_2  and  N2_12 
REMARK    2  A    between atoms: C2_3  and  C3_4 
REMARK    3  A    between atoms: C3_4  and  C4_5 
REMARK    4  A    between atoms: C4_5  and  N1_6 
REMARK    5  A    between atoms: N2_12  and  C10_14 
REMARK    6  A    between atoms: C10_14  and  C11_15 
ROOT
HETATM    1  C11 UNL     1      16.412  11.047  -0.529  1.00  0.00     0.064 A 
HETATM    2  N3  UNL     1      16.711  10.739  -1.820  1.00  0.00    -0.262 N 
ATOM      3  H3  UNL     1      17.330  11.293  -2.412  1.00  0.00     0.194 HD
HETATM    4  O2  UNL     1      16.120   9.663  -2.205  1.00  0.00    -0.229 OA
HETATM    5  C12 UNL     1      15.402   9.223  -1.164  1.00  0.00     0.153 A 
HETATM    6  S1  UNL     1      14.335   8.008  -0.605  1.00  0.00    -0.066 SA
HETATM    7  C13 UNL     1      14.092   8.567   0.976  1.00  0.00    -0.007 A 
HETATM    8  C14 UNL     1      14.858   9.707   1.040  1.00  0.00    -0.029 A 
HETATM    9  C15 UNL     1      15.541  10.044  -0.084  1.00  0.00     0.040 A 
HETATM   10  C16 UNL     1      14.900  10.505   2.337  1.00  0.00     0.040 C 
HETATM   11  C17 UNL     1      13.509  10.948   2.711  1.00  0.00     0.005 C 
HETATM   12  C18 UNL     1      12.446  10.321   1.848  1.00  0.00     0.001 C 
HETATM   13  C19 UNL     1      12.138   8.934   2.426  1.00  0.00     0.005 C 
HETATM   14  C20 UNL     1      13.221   7.942   2.045  1.00  0.00     0.047 C 
ENDROOT
BRANCH   1  15
HETATM   15  C10 UNL     1      16.963  12.217   0.189  1.00  0.00     0.182 C 
BRANCH  15  16
HETATM   16  N2  UNL     1      17.916  11.793   1.210  1.00  0.00    -0.355 N 
HETATM   17  C1  UNL     1      19.072  11.044   0.923  1.00  0.00     0.217 C 
HETATM   18  O1  UNL     1      19.299  10.740  -0.278  1.00  0.00    -0.274 OA
ATOM     19  H2  UNL     1      17.734  12.053   2.180  1.00  0.00     0.162 HD
BRANCH  17  20
HETATM   20  C2  UNL     1      20.032  10.591   1.935  1.00  0.00     0.104 C 
BRANCH  20  21
HETATM   21  C3  UNL     1      21.006   9.555   1.490  1.00  0.00     0.029 C 
BRANCH  21  22
HETATM   22  C4  UNL     1      20.819   8.191   2.046  1.00  0.00     0.127 C 
BRANCH  22  23
HETATM   23  N1  UNL     1      21.894   7.334   1.574  1.00  0.00    -0.374 N 
HETATM   24  C5  UNL     1      22.399   6.470   2.562  1.00  0.00     0.063 C 
HETATM   25  C6  UNL     1      23.846   6.235   2.694  1.00  0.00     0.045 C 
HETATM   26  C7  UNL     1      24.756   7.086   1.880  1.00  0.00     0.010 C 
HETATM   27  C8  UNL     1      24.141   7.383   0.527  1.00  0.00     0.045 C 
HETATM   28  C9  UNL     1      22.766   7.962   0.666  1.00  0.00     0.063 C 
ENDBRANCH  22  23
ENDBRANCH  21  22
ENDBRANCH  20  21
ENDBRANCH  17  20
ENDBRANCH  15  16
ENDBRANCH   1  15
TORSDOF 6
ENDMDL
