MODEL 1
REMARK VINA RESULT: -8.359138564      0.000      0.000
REMARK  10 active torsions:
REMARK  status: ('A' for Active; 'I' for Inactive)
REMARK    1  A    between atoms: C2_2  and  O2_4 
REMARK    2  A    between atoms: O2_4  and  C3_5 
REMARK    3  A    between atoms: C3_5  and  C4_6 
REMARK    4  A    between atoms: C3_5  and  C12_14 
REMARK    5  A    between atoms: C4_6  and  C5_7 
REMARK    6  A    between atoms: C6_8  and  C8_10 
REMARK    7  A    between atoms: C12_14  and  C13_15 
REMARK    8  A    between atoms: C17_20  and  O4_21 
REMARK    9  A    between atoms: C19_24  and  O5_25 
REMARK   10  A    between atoms: O5_25  and  C20_26 
ROOT
HETATM    1  C13 UNL     1      14.520  10.534   2.447  1.00  0.00     0.080 C 
HETATM    2  O3  UNL     1      13.988  10.648   3.697  1.00  0.00    -0.340 OA
HETATM    3  C14 UNL     1      14.857  10.131   4.643  1.00  0.00     0.086 C 
HETATM    4  C15 UNL     1      14.102  10.255   5.977  1.00  0.00     0.049 C 
HETATM    5  C16 UNL     1      15.127   8.652   4.470  1.00  0.00     0.049 C 
HETATM    6  C17 UNL     1      16.156  10.891   4.706  1.00  0.00     0.158 C 
HETATM    7  C18 UNL     1      16.302  11.858   3.545  1.00  0.00     0.102 C 
HETATM    8  C19 UNL     1      15.806  11.225   2.257  1.00  0.00     0.088 C 
ENDROOT
BRANCH   1   9
HETATM    9  C12 UNL     1      13.523  10.559   1.339  1.00  0.00     0.100 C 
BRANCH   9  10
HETATM   10  C3  UNL     1      14.019   9.925   0.094  1.00  0.00     0.141 C 
BRANCH  10  11
HETATM   11  O2  UNL     1      13.463   8.695  -0.180  1.00  0.00    -0.316 OA
BRANCH  11  12
HETATM   12  C2  UNL     1      14.120   7.481   0.031  1.00  0.00     0.255 C 
HETATM   13  C1  UNL     1      13.991   6.793   1.332  1.00  0.00     0.126 C 
HETATM   14  O1  UNL     1      14.802   7.006  -0.899  1.00  0.00    -0.266 OA
ENDBRANCH  11  12
ENDBRANCH  10  11
BRANCH  10  15
HETATM   15  C4  UNL     1      13.735  10.908  -1.080  1.00  0.00     0.060 C 
BRANCH  15  16
HETATM   16  C5  UNL     1      12.759  10.386  -2.022  1.00  0.00    -0.021 C 
HETATM   17  C6  UNL     1      12.851   9.761  -3.149  1.00  0.00    -0.080 C 
HETATM   18  C7  UNL     1      11.481   9.413  -3.788  1.00  0.00     0.044 C 
BRANCH  17  19
HETATM   19  C8  UNL     1      13.983   9.313  -3.951  1.00  0.00    -0.029 C 
HETATM   20  C9  UNL     1      13.763   7.842  -4.392  1.00  0.00     0.019 C 
HETATM   21  C10 UNL     1      14.102  10.090  -5.259  1.00  0.00     0.019 C 
HETATM   22  C11 UNL     1      15.340   9.325  -3.319  1.00  0.00     0.019 C 
ENDBRANCH  17  19
ENDBRANCH  15  16
ENDBRANCH  10  15
ENDBRANCH   9  10
ENDBRANCH   1   9
BRANCH   8  23
HETATM   23  O5  UNL     1      15.978  11.995   1.115  1.00  0.00    -0.281 OA
BRANCH  23  24
HETATM   24  C20 UNL     1      17.059  11.981   0.253  1.00  0.00     0.259 C 
HETATM   25  C21 UNL     1      17.704  10.681  -0.098  1.00  0.00     0.126 C 
HETATM   26  O6  UNL     1      17.427  13.092  -0.181  1.00  0.00    -0.265 OA
ENDBRANCH  23  24
ENDBRANCH   8  23
BRANCH   6  27
HETATM   27  O4  UNL     1      17.226  10.001   4.738  1.00  0.00    -0.392 OA
ATOM     28  H4  UNL     1      18.034  10.472   4.902  1.00  0.00     0.210 HD
ENDBRANCH   6  27
TORSDOF 10
ENDMDL
MODEL 2
REMARK VINA RESULT: -8.071892356      2.916      7.279
REMARK  10 active torsions:
REMARK  status: ('A' for Active; 'I' for Inactive)
REMARK    1  A    between atoms: C2_2  and  O2_4 
REMARK    2  A    between atoms: O2_4  and  C3_5 
REMARK    3  A    between atoms: C3_5  and  C4_6 
REMARK    4  A    between atoms: C3_5  and  C12_14 
REMARK    5  A    between atoms: C4_6  and  C5_7 
REMARK    6  A    between atoms: C6_8  and  C8_10 
REMARK    7  A    between atoms: C12_14  and  C13_15 
REMARK    8  A    between atoms: C17_20  and  O4_21 
REMARK    9  A    between atoms: C19_24  and  O5_25 
REMARK   10  A    between atoms: O5_25  and  C20_26 
ROOT
HETATM    1  C13 UNL     1      16.005  10.046   2.828  1.00  0.00     0.080 C 
HETATM    2  O3  UNL     1      15.605   8.816   2.398  1.00  0.00    -0.340 OA
HETATM    3  C14 UNL     1      14.252   8.823   2.103  1.00  0.00     0.086 C 
HETATM    4  C15 UNL     1      13.930   7.371   1.711  1.00  0.00     0.049 C 
HETATM    5  C16 UNL     1      13.374   9.121   3.299  1.00  0.00     0.049 C 
HETATM    6  C17 UNL     1      13.916   9.756   0.969  1.00  0.00     0.158 C 
HETATM    7  C18 UNL     1      15.087  10.653   0.609  1.00  0.00     0.102 C 
HETATM    8  C19 UNL     1      15.793  11.137   1.863  1.00  0.00     0.088 C 
ENDROOT
BRANCH   1   9
HETATM    9  C12 UNL     1      17.251  10.047   3.646  1.00  0.00     0.100 C 
BRANCH   9  10
HETATM   10  C3  UNL     1      17.217   9.072   4.762  1.00  0.00     0.141 C 
BRANCH  10  11
HETATM   11  O2  UNL     1      18.438   8.840   5.356  1.00  0.00    -0.316 OA
BRANCH  11  12
HETATM   12  C2  UNL     1      19.195   7.684   5.151  1.00  0.00     0.255 C 
HETATM   13  C1  UNL     1      19.813   7.436   3.832  1.00  0.00     0.126 C 
HETATM   14  O1  UNL     1      19.329   6.886   6.100  1.00  0.00    -0.266 OA
ENDBRANCH  11  12
ENDBRANCH  10  11
BRANCH  10  15
HETATM   15  C4  UNL     1      16.207   9.605   5.821  1.00  0.00     0.060 C 
BRANCH  15  16
HETATM   16  C5  UNL     1      15.265   8.588   6.258  1.00  0.00    -0.021 C 
HETATM   17  C6  UNL     1      14.394   8.527   7.211  1.00  0.00    -0.080 C 
HETATM   18  C7  UNL     1      13.616   7.186   7.265  1.00  0.00     0.044 C 
BRANCH  17  19
HETATM   19  C8  UNL     1      13.989   9.462   8.252  1.00  0.00    -0.029 C 
HETATM   20  C9  UNL     1      13.443  10.762   7.606  1.00  0.00     0.019 C 
HETATM   21  C10 UNL     1      12.822   8.928   9.079  1.00  0.00     0.019 C 
HETATM   22  C11 UNL     1      15.028   9.924   9.225  1.00  0.00     0.019 C 
ENDBRANCH  17  19
ENDBRANCH  15  16
ENDBRANCH  10  15
ENDBRANCH   9  10
ENDBRANCH   1   9
BRANCH   8  23
HETATM   23  O5  UNL     1      16.826  12.039   1.650  1.00  0.00    -0.281 OA
BRANCH  23  24
HETATM   24  C20 UNL     1      17.650  12.119   0.541  1.00  0.00     0.259 C 
HETATM   25  C21 UNL     1      18.720  11.098   0.345  1.00  0.00     0.126 C 
HETATM   26  O6  UNL     1      17.429  13.070  -0.236  1.00  0.00    -0.265 OA
ENDBRANCH  23  24
ENDBRANCH   8  23
BRANCH   6  27
HETATM   27  O4  UNL     1      12.799  10.518   1.296  1.00  0.00    -0.392 OA
ATOM     28  H4  UNL     1      12.166   9.983   1.760  1.00  0.00     0.210 HD
ENDBRANCH   6  27
TORSDOF 10
ENDMDL
MODEL 3
REMARK VINA RESULT: -8.061711517      2.863      7.091
REMARK  10 active torsions:
REMARK  status: ('A' for Active; 'I' for Inactive)
REMARK    1  A    between atoms: C2_2  and  O2_4 
REMARK    2  A    between atoms: O2_4  and  C3_5 
REMARK    3  A    between atoms: C3_5  and  C4_6 
REMARK    4  A    between atoms: C3_5  and  C12_14 
REMARK    5  A    between atoms: C4_6  and  C5_7 
REMARK    6  A    between atoms: C6_8  and  C8_10 
REMARK    7  A    between atoms: C12_14  and  C13_15 
REMARK    8  A    between atoms: C17_20  and  O4_21 
REMARK    9  A    between atoms: C19_24  and  O5_25 
REMARK   10  A    between atoms: O5_25  and  C20_26 
ROOT
HETATM    1  C13 UNL     1      15.146  10.421   2.267  1.00  0.00     0.080 C 
HETATM    2  O3  UNL     1      14.764  10.937   1.065  1.00  0.00    -0.340 OA
HETATM    3  C14 UNL     1      13.948  10.045   0.391  1.00  0.00     0.086 C 
HETATM    4  C15 UNL     1      13.664  10.719  -0.961  1.00  0.00     0.049 C 
HETATM    5  C16 UNL     1      14.631   8.737   0.053  1.00  0.00     0.049 C 
HETATM    6  C17 UNL     1      12.658   9.781   1.124  1.00  0.00     0.158 C 
HETATM    7  C18 UNL     1      12.685  10.340   2.535  1.00  0.00     0.102 C 
HETATM    8  C19 UNL     1      14.038  10.097   3.180  1.00  0.00     0.088 C 
ENDROOT
BRANCH   1   9
HETATM    9  C12 UNL     1      16.391  11.012   2.835  1.00  0.00     0.100 C 
BRANCH   9  10
HETATM   10  C3  UNL     1      17.616  10.596   2.113  1.00  0.00     0.141 C 
BRANCH  10  11
HETATM   11  O2  UNL     1      18.185  11.583   1.338  1.00  0.00    -0.316 OA
BRANCH  11  12
HETATM   12  C2  UNL     1      17.754  11.904   0.049  1.00  0.00     0.255 C 
HETATM   13  C1  UNL     1      17.640  10.842  -0.972  1.00  0.00     0.126 C 
HETATM   14  O1  UNL     1      17.473  13.092  -0.205  1.00  0.00    -0.266 OA
ENDBRANCH  11  12
ENDBRANCH  10  11
BRANCH  10  15
HETATM   15  C4  UNL     1      18.642  10.099   3.174  1.00  0.00     0.060 C 
BRANCH  15  16
HETATM   16  C5  UNL     1      19.727   9.332   2.586  1.00  0.00    -0.021 C 
HETATM   17  C6  UNL     1      20.343   8.248   2.929  1.00  0.00    -0.080 C 
HETATM   18  C7  UNL     1      21.464   7.825   1.943  1.00  0.00     0.044 C 
BRANCH  17  19
HETATM   19  C8  UNL     1      20.204   7.337   4.057  1.00  0.00    -0.029 C 
HETATM   20  C9  UNL     1      21.212   6.167   3.914  1.00  0.00     0.019 C 
HETATM   21  C10 UNL     1      20.577   8.002   5.379  1.00  0.00     0.019 C 
HETATM   22  C11 UNL     1      18.877   6.677   4.268  1.00  0.00     0.019 C 
ENDBRANCH  17  19
ENDBRANCH  15  16
ENDBRANCH  10  15
ENDBRANCH   9  10
ENDBRANCH   1   9
BRANCH   8  23
HETATM   23  O5  UNL     1      14.139  10.490   4.507  1.00  0.00    -0.281 OA
BRANCH  23  24
HETATM   24  C20 UNL     1      14.107   9.677   5.625  1.00  0.00     0.259 C 
HETATM   25  C21 UNL     1      13.776  10.269   6.955  1.00  0.00     0.126 C 
HETATM   26  O6  UNL     1      14.365   8.471   5.433  1.00  0.00    -0.265 OA
ENDBRANCH  23  24
ENDBRANCH   8  23
BRANCH   6  27
HETATM   27  O4  UNL     1      12.395   8.415   1.145  1.00  0.00    -0.392 OA
ATOM     28  H4  UNL     1      11.458   8.265   1.103  1.00  0.00     0.210 HD
ENDBRANCH   6  27
TORSDOF 10
ENDMDL
MODEL 4
REMARK VINA RESULT: -8.013202468      2.896      6.567
REMARK  10 active torsions:
REMARK  status: ('A' for Active; 'I' for Inactive)
REMARK    1  A    between atoms: C2_2  and  O2_4 
REMARK    2  A    between atoms: O2_4  and  C3_5 
REMARK    3  A    between atoms: C3_5  and  C4_6 
REMARK    4  A    between atoms: C3_5  and  C12_14 
REMARK    5  A    between atoms: C4_6  and  C5_7 
REMARK    6  A    between atoms: C6_8  and  C8_10 
REMARK    7  A    between atoms: C12_14  and  C13_15 
REMARK    8  A    between atoms: C17_20  and  O4_21 
REMARK    9  A    between atoms: C19_24  and  O5_25 
REMARK   10  A    between atoms: O5_25  and  C20_26 
ROOT
HETATM    1  C13 UNL     1      17.455  10.380   3.422  1.00  0.00     0.080 C 
HETATM    2  O3  UNL     1      18.270  10.041   4.460  1.00  0.00    -0.340 OA
HETATM    3  C14 UNL     1      19.038   8.937   4.133  1.00  0.00     0.086 C 
HETATM    4  C15 UNL     1      19.841   8.627   5.408  1.00  0.00     0.049 C 
HETATM    5  C16 UNL     1      18.221   7.693   3.859  1.00  0.00     0.049 C 
HETATM    6  C17 UNL     1      19.972   9.207   2.982  1.00  0.00     0.158 C 
HETATM    7  C18 UNL     1      19.655  10.523   2.294  1.00  0.00     0.102 C 
HETATM    8  C19 UNL     1      18.153  10.713   2.170  1.00  0.00     0.088 C 
ENDROOT
BRANCH   1   9
HETATM    9  C12 UNL     1      16.254  11.177   3.805  1.00  0.00     0.100 C 
BRANCH   9  10
HETATM   10  C3  UNL     1      14.980  10.554   3.375  1.00  0.00     0.141 C 
BRANCH  10  11
HETATM   11  O2  UNL     1      15.026   9.956   2.135  1.00  0.00    -0.316 OA
BRANCH  11  12
HETATM   12  C2  UNL     1      14.046  10.125   1.154  1.00  0.00     0.255 C 
HETATM   13  C1  UNL     1      12.781   9.367   1.243  1.00  0.00     0.126 C 
HETATM   14  O1  UNL     1      14.270  10.921   0.221  1.00  0.00    -0.266 OA
ENDBRANCH  11  12
ENDBRANCH  10  11
BRANCH  10  15
HETATM   15  C4  UNL     1      14.582   9.503   4.454  1.00  0.00     0.060 C 
BRANCH  15  16
HETATM   16  C5  UNL     1      14.124  10.116   5.689  1.00  0.00    -0.021 C 
HETATM   17  C6  UNL     1      14.014   9.697   6.907  1.00  0.00    -0.080 C 
HETATM   18  C7  UNL     1      13.454  10.760   7.888  1.00  0.00     0.044 C 
BRANCH  17  19
HETATM   19  C8  UNL     1      14.308   8.425   7.554  1.00  0.00    -0.029 C 
HETATM   20  C9  UNL     1      15.794   8.048   7.320  1.00  0.00     0.019 C 
HETATM   21  C10 UNL     1      14.170   8.509   9.072  1.00  0.00     0.019 C 
HETATM   22  C11 UNL     1      13.533   7.220   7.119  1.00  0.00     0.019 C 
ENDBRANCH  17  19
ENDBRANCH  15  16
ENDBRANCH  10  15
ENDBRANCH   9  10
ENDBRANCH   1   9
BRANCH   8  23
HETATM   23  O5  UNL     1      17.756  11.846   1.474  1.00  0.00    -0.281 OA
BRANCH  23  24
HETATM   24  C20 UNL     1      17.574  11.967   0.108  1.00  0.00     0.259 C 
HETATM   25  C21 UNL     1      17.625  10.748  -0.751  1.00  0.00     0.126 C 
HETATM   26  O6  UNL     1      17.376  13.124  -0.316  1.00  0.00    -0.265 OA
ENDBRANCH  23  24
ENDBRANCH   8  23
BRANCH   6  27
HETATM   27  O4  UNL     1      19.920   8.156   2.072  1.00  0.00    -0.392 OA
ATOM     28  H4  UNL     1      20.737   8.105   1.589  1.00  0.00     0.210 HD
ENDBRANCH   6  27
TORSDOF 10
ENDMDL
MODEL 5
REMARK VINA RESULT: -8.010860948      1.716      3.881
REMARK  10 active torsions:
REMARK  status: ('A' for Active; 'I' for Inactive)
REMARK    1  A    between atoms: C2_2  and  O2_4 
REMARK    2  A    between atoms: O2_4  and  C3_5 
REMARK    3  A    between atoms: C3_5  and  C4_6 
REMARK    4  A    between atoms: C3_5  and  C12_14 
REMARK    5  A    between atoms: C4_6  and  C5_7 
REMARK    6  A    between atoms: C6_8  and  C8_10 
REMARK    7  A    between atoms: C12_14  and  C13_15 
REMARK    8  A    between atoms: C17_20  and  O4_21 
REMARK    9  A    between atoms: C19_24  and  O5_25 
REMARK   10  A    between atoms: O5_25  and  C20_26 
ROOT
HETATM    1  C13 UNL     1      15.622   9.857   1.827  1.00  0.00     0.080 C 
HETATM    2  O3  UNL     1      16.504   9.281   2.691  1.00  0.00    -0.340 OA
HETATM    3  C14 UNL     1      16.645  10.056   3.830  1.00  0.00     0.086 C 
HETATM    4  C15 UNL     1      17.714   9.332   4.666  1.00  0.00     0.049 C 
HETATM    5  C16 UNL     1      17.212  11.433   3.557  1.00  0.00     0.049 C 
HETATM    6  C17 UNL     1      15.361  10.170   4.609  1.00  0.00     0.158 C 
HETATM    7  C18 UNL     1      14.175   9.639   3.826  1.00  0.00     0.102 C 
HETATM    8  C19 UNL     1      14.267  10.056   2.368  1.00  0.00     0.088 C 
ENDROOT
BRANCH   1   9
HETATM    9  C12 UNL     1      15.769   9.431   0.407  1.00  0.00     0.100 C 
BRANCH   9  10
HETATM   10  C3  UNL     1      16.504  10.415  -0.424  1.00  0.00     0.141 C 
BRANCH  10  11
HETATM   11  O2  UNL     1      17.863  10.200  -0.495  1.00  0.00    -0.316 OA
BRANCH  11  12
HETATM   12  C2  UNL     1      18.804  10.934   0.229  1.00  0.00     0.255 C 
HETATM   13  C1  UNL     1      19.685  10.247   1.196  1.00  0.00     0.126 C 
HETATM   14  O1  UNL     1      18.876  12.164   0.035  1.00  0.00    -0.266 OA
ENDBRANCH  11  12
ENDBRANCH  10  11
BRANCH  10  15
HETATM   15  C4  UNL     1      15.887  10.378  -1.854  1.00  0.00     0.060 C 
BRANCH  15  16
HETATM   16  C5  UNL     1      14.435  10.327  -1.835  1.00  0.00    -0.021 C 
HETATM   17  C6  UNL     1      13.541  10.009  -2.713  1.00  0.00    -0.080 C 
HETATM   18  C7  UNL     1      12.084  10.124  -2.194  1.00  0.00     0.044 C 
BRANCH  17  19
HETATM   19  C8  UNL     1      13.618   9.562  -4.097  1.00  0.00    -0.029 C 
HETATM   20  C9  UNL     1      14.193   8.123  -4.153  1.00  0.00     0.019 C 
HETATM   21  C10 UNL     1      12.239   9.447  -4.740  1.00  0.00     0.019 C 
HETATM   22  C11 UNL     1      14.468  10.352  -5.044  1.00  0.00     0.019 C 
ENDBRANCH  17  19
ENDBRANCH  15  16
ENDBRANCH  10  15
ENDBRANCH   9  10
ENDBRANCH   1   9
BRANCH   8  23
HETATM   23  O5  UNL     1      13.183   9.697   1.580  1.00  0.00    -0.281 OA
BRANCH  23  24
HETATM   24  C20 UNL     1      12.238   8.724   1.852  1.00  0.00     0.259 C 
HETATM   25  C21 UNL     1      10.927   9.119   2.447  1.00  0.00     0.126 C 
HETATM   26  O6  UNL     1      12.562   7.553   1.570  1.00  0.00    -0.265 OA
ENDBRANCH  23  24
ENDBRANCH   8  23
BRANCH   6  27
HETATM   27  O4  UNL     1      15.148  11.494   4.981  1.00  0.00    -0.392 OA
ATOM     28  H4  UNL     1      14.904  11.538   5.898  1.00  0.00     0.210 HD
ENDBRANCH   6  27
TORSDOF 10
ENDMDL
