MODEL 1
REMARK VINA RESULT: -7.973583261      0.000      0.000
REMARK  6 active torsions:
REMARK  status: ('A' for Active; 'I' for Inactive)
REMARK    1  A    between atoms: S1_2  and  C2_3 
REMARK    2  A    between atoms: C2_3  and  C3_4 
REMARK    3  A    between atoms: C3_4  and  S2_5 
REMARK    4  A    between atoms: C3_4  and  C12_19 
REMARK    5  A    between atoms: S2_5  and  C4_6 
REMARK       I    between atoms: C12_19  and  N4_21 
REMARK    6  A    between atoms: N4_21  and  C13_23 
ROOT
HETATM    1  C3  UNL     1      15.149   9.345   3.342  1.00  0.00     0.156 C 
ENDROOT
BRANCH   1   2
HETATM    2  C2  UNL     1      13.931   9.432   4.218  1.00  0.00     0.098 C 
BRANCH   2   3
HETATM    3  S1  UNL     1      14.332  10.333   5.765  1.00  0.00    -0.172 SA
HETATM    4  C1  UNL     1      13.374   9.705   7.163  1.00  0.00     0.089 C 
ENDBRANCH   2   3
ENDBRANCH   1   2
BRANCH   1   5
HETATM    5  S2  UNL     1      16.525  10.190   4.114  1.00  0.00    -0.078 SA
BRANCH   5   6
HETATM    6  C4  UNL     1      18.069  10.012   3.256  1.00  0.00     0.153 A 
HETATM    7  N1  UNL     1      18.575  10.989   2.462  1.00  0.00    -0.340 N 
HETATM    8  C5  UNL     1      19.744  10.882   1.808  1.00  0.00     0.011 A 
ATOM      9  H1  UNL     1      18.039  11.851   2.355  1.00  0.00     0.167 HD
HETATM   10  C6  UNL     1      20.257  11.999   0.939  1.00  0.00     0.068 C 
HETATM   11  C7  UNL     1      20.442   9.706   1.975  1.00  0.00     0.073 A 
HETATM   12  C8  UNL     1      19.958   8.679   2.783  1.00  0.00     0.115 A 
HETATM   13  N2  UNL     1      20.454   7.464   3.097  1.00  0.00    -0.344 N 
HETATM   14  N3  UNL     1      18.765   8.876   3.405  1.00  0.00    -0.286 N 
HETATM   15  C9  UNL     1      19.595   6.851   3.928  1.00  0.00     0.023 A 
ATOM     16  H2  UNL     1      21.335   7.076   2.759  1.00  0.00     0.167 HD
HETATM   17  C10 UNL     1      19.692   5.507   4.548  1.00  0.00     0.069 C 
HETATM   18  C11 UNL     1      18.556   7.741   4.106  1.00  0.00     0.125 A 
ENDBRANCH   5   6
ENDBRANCH   1   5
BRANCH   1  19
HETATM   19  C12 UNL     1      14.931   9.936   2.008  1.00  0.00     0.233 C 
HETATM   20  O1  UNL     1      14.760  11.161   1.900  1.00  0.00    -0.272 OA
HETATM   21  N4  UNL     1      14.917   9.110   0.869  1.00  0.00    -0.355 N 
ATOM     22  H4  UNL     1      15.061   8.108   0.984  1.00  0.00     0.162 HD
BRANCH  21  23
HETATM   23  C13 UNL     1      14.708   9.638  -0.448  1.00  0.00     0.084 C 
HETATM   24  C14 UNL     1      15.446   8.796  -1.469  1.00  0.00     0.025 C 
HETATM   25  C15 UNL     1      15.308   9.381  -2.846  1.00  0.00     0.002 C 
HETATM   26  C16 UNL     1      13.900   9.740  -3.207  1.00  0.00     0.000 C 
HETATM   27  C17 UNL     1      13.161  10.480  -2.126  1.00  0.00     0.002 C 
HETATM   28  C18 UNL     1      13.249   9.683  -0.849  1.00  0.00     0.025 C 
ENDBRANCH  21  23
ENDBRANCH   1  19
TORSDOF 6
ENDMDL
MODEL 2
REMARK VINA RESULT: -7.927373893      2.779      7.108
REMARK  6 active torsions:
REMARK  status: ('A' for Active; 'I' for Inactive)
REMARK    1  A    between atoms: S1_2  and  C2_3 
REMARK    2  A    between atoms: C2_3  and  C3_4 
REMARK    3  A    between atoms: C3_4  and  S2_5 
REMARK    4  A    between atoms: C3_4  and  C12_19 
REMARK    5  A    between atoms: S2_5  and  C4_6 
REMARK       I    between atoms: C12_19  and  N4_21 
REMARK    6  A    between atoms: N4_21  and  C13_23 
ROOT
HETATM    1  C3  UNL     1      18.638  10.261   1.410  1.00  0.00     0.156 C 
ENDROOT
BRANCH   1   2
HETATM    2  C2  UNL     1      18.595  11.636   0.803  1.00  0.00     0.098 C 
BRANCH   2   3
HETATM    3  S1  UNL     1      17.013  11.879  -0.093  1.00  0.00    -0.172 SA
HETATM    4  C1  UNL     1      16.761  10.601  -1.347  1.00  0.00     0.089 C 
ENDBRANCH   2   3
ENDBRANCH   1   2
BRANCH   1   5
HETATM    5  S2  UNL     1      17.695  10.230   2.931  1.00  0.00    -0.078 SA
BRANCH   5   6
HETATM    6  C4  UNL     1      16.069   9.535   2.772  1.00  0.00     0.153 A 
HETATM    7  N1  UNL     1      15.659   8.901   1.644  1.00  0.00    -0.340 N 
HETATM    8  C5  UNL     1      14.437   8.360   1.501  1.00  0.00     0.011 A 
ATOM      9  H1  UNL     1      16.313   8.830   0.864  1.00  0.00     0.167 HD
HETATM   10  C6  UNL     1      14.035   7.667   0.226  1.00  0.00     0.068 C 
HETATM   11  C7  UNL     1      13.580   8.472   2.574  1.00  0.00     0.073 A 
HETATM   12  C8  UNL     1      13.963   9.115   3.749  1.00  0.00     0.115 A 
HETATM   13  N2  UNL     1      13.314   9.341   4.910  1.00  0.00    -0.344 N 
HETATM   14  N3  UNL     1      15.219   9.633   3.803  1.00  0.00    -0.286 N 
HETATM   15  C9  UNL     1      14.135  10.008   5.738  1.00  0.00     0.023 A 
ATOM     16  H2  UNL     1      12.358   9.054   5.123  1.00  0.00     0.167 HD
HETATM   17  C10 UNL     1      13.883  10.483   7.121  1.00  0.00     0.069 C 
HETATM   18  C11 UNL     1      15.309  10.179   5.035  1.00  0.00     0.125 A 
ENDBRANCH   5   6
ENDBRANCH   1   5
BRANCH   1  19
HETATM   19  C12 UNL     1      20.013   9.816   1.708  1.00  0.00     0.233 C 
HETATM   20  O1  UNL     1      20.901  10.660   1.910  1.00  0.00    -0.272 OA
HETATM   21  N4  UNL     1      20.308   8.442   1.759  1.00  0.00    -0.355 N 
ATOM     22  H4  UNL     1      19.562   7.769   1.589  1.00  0.00     0.162 HD
BRANCH  21  23
HETATM   23  C13 UNL     1      21.629   7.960   2.042  1.00  0.00     0.084 C 
HETATM   24  C14 UNL     1      21.553   6.686   2.859  1.00  0.00     0.025 C 
HETATM   25  C15 UNL     1      22.928   6.211   3.237  1.00  0.00     0.002 C 
HETATM   26  C16 UNL     1      23.890   6.183   2.092  1.00  0.00     0.000 C 
HETATM   27  C17 UNL     1      23.860   7.420   1.237  1.00  0.00     0.002 C 
HETATM   28  C18 UNL     1      22.440   7.668   0.798  1.00  0.00     0.025 C 
ENDBRANCH  21  23
ENDBRANCH   1  19
TORSDOF 6
ENDMDL
MODEL 3
REMARK VINA RESULT: -7.808051824      1.825      2.346
REMARK  6 active torsions:
REMARK  status: ('A' for Active; 'I' for Inactive)
REMARK    1  A    between atoms: S1_2  and  C2_3 
REMARK    2  A    between atoms: C2_3  and  C3_4 
REMARK    3  A    between atoms: C3_4  and  S2_5 
REMARK    4  A    between atoms: C3_4  and  C12_19 
REMARK    5  A    between atoms: S2_5  and  C4_6 
REMARK       I    between atoms: C12_19  and  N4_21 
REMARK    6  A    between atoms: N4_21  and  C13_23 
ROOT
HETATM    1  C3  UNL     1      17.362  10.180   1.896  1.00  0.00     0.156 C 
ENDROOT
BRANCH   1   2
HETATM    2  C2  UNL     1      16.755  10.412   3.251  1.00  0.00     0.098 C 
BRANCH   2   3
HETATM    3  S1  UNL     1      15.651   9.016   3.693  1.00  0.00    -0.172 SA
HETATM    4  C1  UNL     1      13.956   9.311   3.137  1.00  0.00     0.089 C 
ENDBRANCH   2   3
ENDBRANCH   1   2
BRANCH   1   5
HETATM    5  S2  UNL     1      18.953  10.993   1.787  1.00  0.00    -0.078 SA
BRANCH   5   6
HETATM    6  C4  UNL     1      20.319   9.896   1.502  1.00  0.00     0.153 A 
HETATM    7  N1  UNL     1      21.265  10.144   0.560  1.00  0.00    -0.340 N 
HETATM    8  C5  UNL     1      22.312   9.333   0.331  1.00  0.00     0.011 A 
ATOM      9  H1  UNL     1      21.176  10.990  -0.003  1.00  0.00     0.167 HD
HETATM   10  C6  UNL     1      23.331   9.657  -0.729  1.00  0.00     0.068 C 
HETATM   11  C7  UNL     1      22.401   8.200   1.110  1.00  0.00     0.073 A 
HETATM   12  C8  UNL     1      21.452   7.910   2.087  1.00  0.00     0.115 A 
HETATM   13  N2  UNL     1      21.333   6.886   2.958  1.00  0.00    -0.344 N 
HETATM   14  N3  UNL     1      20.426   8.788   2.249  1.00  0.00    -0.286 N 
HETATM   15  C9  UNL     1      20.230   7.080   3.700  1.00  0.00     0.023 A 
ATOM     16  H2  UNL     1      21.974   6.096   3.039  1.00  0.00     0.167 HD
HETATM   17  C10 UNL     1      19.674   6.236   4.786  1.00  0.00     0.069 C 
HETATM   18  C11 UNL     1      19.683   8.262   3.246  1.00  0.00     0.125 A 
ENDBRANCH   5   6
ENDBRANCH   1   5
BRANCH   1  19
HETATM   19  C12 UNL     1      16.510  10.680   0.799  1.00  0.00     0.233 C 
HETATM   20  O1  UNL     1      16.325  11.901   0.673  1.00  0.00    -0.272 OA
HETATM   21  N4  UNL     1      15.913   9.771  -0.093  1.00  0.00    -0.355 N 
ATOM     22  H4  UNL     1      16.081   8.773   0.031  1.00  0.00     0.162 HD
BRANCH  21  23
HETATM   23  C13 UNL     1      15.076  10.208  -1.173  1.00  0.00     0.084 C 
HETATM   24  C14 UNL     1      15.372   9.399  -2.419  1.00  0.00     0.025 C 
HETATM   25  C15 UNL     1      14.564   9.898  -3.585  1.00  0.00     0.002 C 
HETATM   26  C16 UNL     1      13.113  10.088  -3.271  1.00  0.00     0.000 C 
HETATM   27  C17 UNL     1      12.856  10.798  -1.971  1.00  0.00     0.002 C 
HETATM   28  C18 UNL     1      13.598  10.080  -0.874  1.00  0.00     0.025 C 
ENDBRANCH  21  23
ENDBRANCH   1  19
TORSDOF 6
ENDMDL
MODEL 4
REMARK VINA RESULT: -7.761391956      2.417      4.560
REMARK  6 active torsions:
REMARK  status: ('A' for Active; 'I' for Inactive)
REMARK    1  A    between atoms: S1_2  and  C2_3 
REMARK    2  A    between atoms: C2_3  and  C3_4 
REMARK    3  A    between atoms: C3_4  and  S2_5 
REMARK    4  A    between atoms: C3_4  and  C12_19 
REMARK    5  A    between atoms: S2_5  and  C4_6 
REMARK       I    between atoms: C12_19  and  N4_21 
REMARK    6  A    between atoms: N4_21  and  C13_23 
ROOT
HETATM    1  C3  UNL     1      13.296  10.031   1.850  1.00  0.00     0.156 C 
ENDROOT
BRANCH   1   2
HETATM    2  C2  UNL     1      14.429  10.984   2.108  1.00  0.00     0.098 C 
BRANCH   2   3
HETATM    3  S1  UNL     1      15.925  10.447   1.193  1.00  0.00    -0.172 SA
HETATM    4  C1  UNL     1      16.644  11.807   0.245  1.00  0.00     0.089 C 
ENDBRANCH   2   3
ENDBRANCH   1   2
BRANCH   1   5
HETATM    5  S2  UNL     1      13.286   8.736   3.087  1.00  0.00    -0.078 SA
BRANCH   5   6
HETATM    6  C4  UNL     1      14.114   9.162   4.598  1.00  0.00     0.153 A 
HETATM    7  N1  UNL     1      13.457   9.687   5.663  1.00  0.00    -0.340 N 
HETATM    8  C5  UNL     1      14.059  10.010   6.820  1.00  0.00     0.011 A 
ATOM      9  H1  UNL     1      12.452   9.845   5.580  1.00  0.00     0.167 HD
HETATM   10  C6  UNL     1      13.279  10.591   7.970  1.00  0.00     0.068 C 
HETATM   11  C7  UNL     1      15.416   9.783   6.897  1.00  0.00     0.073 A 
HETATM   12  C8  UNL     1      16.127   9.244   5.828  1.00  0.00     0.115 A 
HETATM   13  N2  UNL     1      17.431   8.935   5.672  1.00  0.00    -0.344 N 
HETATM   14  N3  UNL     1      15.434   8.949   4.695  1.00  0.00    -0.286 N 
HETATM   15  C9  UNL     1      17.608   8.432   4.439  1.00  0.00     0.023 A 
ATOM     16  H2  UNL     1      18.161   9.061   6.374  1.00  0.00     0.167 HD
HETATM   17  C10 UNL     1      18.856   7.949   3.797  1.00  0.00     0.069 C 
HETATM   18  C11 UNL     1      16.362   8.449   3.850  1.00  0.00     0.125 A 
ENDBRANCH   5   6
ENDBRANCH   1   5
BRANCH   1  19
HETATM   19  C12 UNL     1      13.378   9.399   0.519  1.00  0.00     0.233 C 
HETATM   20  O1  UNL     1      13.466   8.164   0.429  1.00  0.00    -0.272 OA
HETATM   21  N4  UNL     1      13.358  10.199  -0.638  1.00  0.00    -0.355 N 
ATOM     22  H4  UNL     1      13.285  11.211  -0.539  1.00  0.00     0.162 HD
BRANCH  21  23
HETATM   23  C13 UNL     1      13.437   9.632  -1.953  1.00  0.00     0.084 C 
HETATM   24  C14 UNL     1      12.212  10.014  -2.758  1.00  0.00     0.025 C 
HETATM   25  C15 UNL     1      12.236   9.360  -4.112  1.00  0.00     0.002 C 
HETATM   26  C16 UNL     1      13.543   9.506  -4.825  1.00  0.00     0.000 C 
HETATM   27  C17 UNL     1      14.744   9.226  -3.964  1.00  0.00     0.002 C 
HETATM   28  C18 UNL     1      14.659  10.080  -2.726  1.00  0.00     0.025 C 
ENDBRANCH  21  23
ENDBRANCH   1  19
TORSDOF 6
ENDMDL
MODEL 5
REMARK VINA RESULT: -7.707281138      1.756      3.206
REMARK  6 active torsions:
REMARK  status: ('A' for Active; 'I' for Inactive)
REMARK    1  A    between atoms: S1_2  and  C2_3 
REMARK    2  A    between atoms: C2_3  and  C3_4 
REMARK    3  A    between atoms: C3_4  and  S2_5 
REMARK    4  A    between atoms: C3_4  and  C12_19 
REMARK    5  A    between atoms: S2_5  and  C4_6 
REMARK       I    between atoms: C12_19  and  N4_21 
REMARK    6  A    between atoms: N4_21  and  C13_23 
ROOT
HETATM    1  C3  UNL     1      16.842   9.941   2.376  1.00  0.00     0.156 C 
ENDROOT
BRANCH   1   2
HETATM    2  C2  UNL     1      16.370  10.512   3.685  1.00  0.00     0.098 C 
BRANCH   2   3
HETATM    3  S1  UNL     1      14.740   9.799   4.131  1.00  0.00    -0.172 SA
HETATM    4  C1  UNL     1      14.215  10.330   5.777  1.00  0.00     0.089 C 
ENDBRANCH   2   3
ENDBRANCH   1   2
BRANCH   1   5
HETATM    5  S2  UNL     1      18.573  10.321   2.128  1.00  0.00    -0.078 SA
BRANCH   5   6
HETATM    6  C4  UNL     1      19.674   8.967   2.454  1.00  0.00     0.153 A 
HETATM    7  N1  UNL     1      19.386   7.999   3.360  1.00  0.00    -0.340 N 
HETATM    8  C5  UNL     1      20.198   6.961   3.619  1.00  0.00     0.011 A 
ATOM      9  H1  UNL     1      18.505   8.063   3.872  1.00  0.00     0.167 HD
HETATM   10  C6  UNL     1      19.827   5.915   4.636  1.00  0.00     0.068 C 
HETATM   11  C7  UNL     1      21.378   6.905   2.910  1.00  0.00     0.073 A 
HETATM   12  C8  UNL     1      21.711   7.878   1.970  1.00  0.00     0.115 A 
HETATM   13  N2  UNL     1      22.784   8.031   1.167  1.00  0.00    -0.344 N 
HETATM   14  N3  UNL     1      20.828   8.893   1.775  1.00  0.00    -0.286 N 
HETATM   15  C9  UNL     1      22.617   9.146   0.435  1.00  0.00     0.023 A 
ATOM     16  H2  UNL     1      23.589   7.405   1.122  1.00  0.00     0.167 HD
HETATM   17  C10 UNL     1      23.518   9.737  -0.585  1.00  0.00     0.069 C 
HETATM   18  C11 UNL     1      21.401   9.665   0.826  1.00  0.00     0.125 A 
ENDBRANCH   5   6
ENDBRANCH   1   5
BRANCH   1  19
HETATM   19  C12 UNL     1      16.082  10.463   1.224  1.00  0.00     0.233 C 
HETATM   20  O1  UNL     1      15.805  11.672   1.168  1.00  0.00    -0.272 OA
HETATM   21  N4  UNL     1      15.677   9.589   0.199  1.00  0.00    -0.355 N 
ATOM     22  H4  UNL     1      15.918   8.601   0.268  1.00  0.00     0.162 HD
BRANCH  21  23
HETATM   23  C13 UNL     1      14.937  10.048  -0.940  1.00  0.00     0.084 C 
HETATM   24  C14 UNL     1      15.379   9.303  -2.183  1.00  0.00     0.025 C 
HETATM   25  C15 UNL     1      14.674   9.828  -3.402  1.00  0.00     0.002 C 
HETATM   26  C16 UNL     1      13.194   9.963  -3.227  1.00  0.00     0.000 C 
HETATM   27  C17 UNL     1      12.787  10.608  -1.932  1.00  0.00     0.002 C 
HETATM   28  C18 UNL     1      13.441   9.865  -0.795  1.00  0.00     0.025 C 
ENDBRANCH  21  23
ENDBRANCH   1  19
TORSDOF 6
ENDMDL
