MODEL 1
REMARK VINA RESULT: -7.189111355      0.000      0.000
REMARK  9 active torsions:
REMARK  status: ('A' for Active; 'I' for Inactive)
REMARK    1  A    between atoms: C2_2  and  C3_3 
REMARK       I    between atoms: N1_5  and  C5_6 
REMARK    2  A    between atoms: C5_6  and  C6_8 
REMARK    3  A    between atoms: C7_9  and  O2_10 
REMARK    4  A    between atoms: O2_10  and  C8_11 
REMARK    5  A    between atoms: N3_16  and  C11_17 
REMARK    6  A    between atoms: C11_17  and  C12_18 
REMARK    7  A    between atoms: C12_18  and  O3_19 
REMARK    8  A    between atoms: C13_21  and  C14_22 
REMARK    9  A    between atoms: C22_30  and  O4_31 
ROOT
HETATM    1  C6  UNL     1       0.919 -10.874  36.963  1.00  0.00     0.112 A 
HETATM    2  C7  UNL     1       0.714  -9.812  37.866  1.00  0.00     0.176 A 
HETATM    3  N2  UNL     1       0.537  -8.765  37.103  1.00  0.00    -0.276 N 
ATOM      4  H2  UNL     1       0.364  -7.825  37.460  1.00  0.00     0.189 HD
HETATM    5  N3  UNL     1       0.609  -9.072  35.779  1.00  0.00    -0.287 N 
HETATM    6  C13 UNL     1       0.842 -10.355  35.656  1.00  0.00     0.073 A 
ENDROOT
BRANCH   1   7
HETATM    7  C5  UNL     1       1.103 -12.234  37.448  1.00  0.00     0.260 C 
HETATM    8  N1  UNL     1       2.368 -12.797  37.719  1.00  0.00    -0.345 N 
HETATM    9  C4  UNL     1       2.592 -14.144  38.203  1.00  0.00     0.133 C 
HETATM   10  C21 UNL     1       3.634 -12.115  37.555  1.00  0.00     0.158 C 
HETATM   11  C3  UNL     1       3.960 -14.423  37.655  1.00  0.00     0.034 C 
HETATM   12  C22 UNL     1       4.691 -13.125  37.975  1.00  0.00     0.142 C 
HETATM   13  O1  UNL     1       0.037 -12.916  37.626  1.00  0.00    -0.267 OA
BRANCH  11  14
HETATM   14  C2  UNL     1       4.618 -15.628  38.213  1.00  0.00     0.004 C 
HETATM   15  C1  UNL     1       5.147 -16.580  37.177  1.00  0.00     0.005 C 
ENDBRANCH  11  14
BRANCH  12  16
HETATM   16  O4  UNL     1       5.829 -13.010  37.185  1.00  0.00    -0.393 OA
ATOM     17  H4  UNL     1       5.700 -12.342  36.522  1.00  0.00     0.210 HD
ENDBRANCH  12  16
ENDBRANCH   1   7
BRANCH   2  18
HETATM   18  O2  UNL     1       0.717  -9.944  39.259  1.00  0.00    -0.329 OA
BRANCH  18  19
HETATM   19  C8  UNL     1      -0.512  -9.861  39.942  1.00  0.00     0.122 C 
HETATM   20  C9  UNL     1      -0.280 -10.206  41.410  1.00  0.00     0.040 C 
HETATM   21  C10 UNL     1      -1.095  -8.468  39.825  1.00  0.00     0.040 C 
ENDBRANCH  18  19
ENDBRANCH   2  18
BRANCH   6  22
HETATM   22  C14 UNL     1       1.029 -11.191  34.464  1.00  0.00    -0.050 C 
HETATM   23  C15 UNL     1       0.223 -10.984  33.250  1.00  0.00     0.036 C 
HETATM   24  C16 UNL     1       1.039 -10.823  31.952  1.00  0.00     0.004 C 
HETATM   25  C17 UNL     1       1.993  -9.703  31.939  1.00  0.00     0.000 C 
HETATM   26  C18 UNL     1       3.369 -10.160  32.315  1.00  0.00     0.000 C 
HETATM   27  C19 UNL     1       3.361 -10.386  33.840  1.00  0.00     0.004 C 
HETATM   28  C20 UNL     1       2.484 -11.505  34.140  1.00  0.00     0.036 C 
ENDBRANCH   6  22
BRANCH   5  29
HETATM   29  C11 UNL     1       0.377  -8.014  34.854  1.00  0.00     0.175 C 
BRANCH  29  30
HETATM   30  C12 UNL     1       1.701  -7.279  34.632  1.00  0.00     0.185 C 
BRANCH  30  31
HETATM   31  O3  UNL     1       2.257  -6.849  35.829  1.00  0.00    -0.399 OA
ATOM     32  H3  UNL     1       3.203  -6.933  35.827  1.00  0.00     0.209 HD
ENDBRANCH  30  31
ENDBRANCH  29  30
ENDBRANCH   5  29
TORSDOF 9
ENDMDL
MODEL 2
REMARK VINA RESULT: -7.056517580      2.405      5.265
REMARK  9 active torsions:
REMARK  status: ('A' for Active; 'I' for Inactive)
REMARK    1  A    between atoms: C2_2  and  C3_3 
REMARK       I    between atoms: N1_5  and  C5_6 
REMARK    2  A    between atoms: C5_6  and  C6_8 
REMARK    3  A    between atoms: C7_9  and  O2_10 
REMARK    4  A    between atoms: O2_10  and  C8_11 
REMARK    5  A    between atoms: N3_16  and  C11_17 
REMARK    6  A    between atoms: C11_17  and  C12_18 
REMARK    7  A    between atoms: C12_18  and  O3_19 
REMARK    8  A    between atoms: C13_21  and  C14_22 
REMARK    9  A    between atoms: C22_30  and  O4_31 
ROOT
HETATM    1  C6  UNL     1       1.195 -10.948  34.879  1.00  0.00     0.112 A 
HETATM    2  C7  UNL     1       1.907 -10.107  34.001  1.00  0.00     0.176 A 
HETATM    3  N2  UNL     1       2.131  -9.023  34.697  1.00  0.00    -0.276 N 
ATOM      4  H2  UNL     1       2.631  -8.210  34.337  1.00  0.00     0.189 HD
HETATM    5  N3  UNL     1       1.621  -9.103  35.956  1.00  0.00    -0.287 N 
HETATM    6  C13 UNL     1       1.040 -10.269  36.103  1.00  0.00     0.073 A 
ENDROOT
BRANCH   1   7
HETATM    7  C5  UNL     1       0.808 -12.290  34.469  1.00  0.00     0.260 C 
HETATM    8  N1  UNL     1       1.381 -13.462  35.005  1.00  0.00    -0.345 N 
HETATM    9  C4  UNL     1       1.022 -14.813  34.624  1.00  0.00     0.133 C 
HETATM   10  C21 UNL     1       2.416 -13.493  36.017  1.00  0.00     0.158 C 
HETATM   11  C3  UNL     1       2.304 -15.541  34.905  1.00  0.00     0.034 C 
HETATM   12  C22 UNL     1       2.693 -14.968  36.262  1.00  0.00     0.142 C 
HETATM   13  O1  UNL     1      -0.105 -12.363  33.577  1.00  0.00    -0.267 OA
BRANCH  11  14
HETATM   14  C2  UNL     1       2.192 -17.018  34.893  1.00  0.00     0.004 C 
HETATM   15  C1  UNL     1       0.821 -17.533  34.551  1.00  0.00     0.005 C 
ENDBRANCH  11  14
BRANCH  12  16
HETATM   16  O4  UNL     1       4.044 -15.186  36.503  1.00  0.00    -0.393 OA
ATOM     17  H4  UNL     1       4.496 -14.357  36.604  1.00  0.00     0.210 HD
ENDBRANCH  12  16
ENDBRANCH   1   7
BRANCH   2  18
HETATM   18  O2  UNL     1       2.254 -10.443  32.687  1.00  0.00    -0.329 OA
BRANCH  18  19
HETATM   19  C8  UNL     1       1.613  -9.768  31.632  1.00  0.00     0.122 C 
HETATM   20  C9  UNL     1       2.557  -8.698  31.091  1.00  0.00     0.040 C 
HETATM   21  C10 UNL     1       1.241 -10.734  30.527  1.00  0.00     0.040 C 
ENDBRANCH  18  19
ENDBRANCH   2  18
BRANCH   6  22
HETATM   22  C14 UNL     1       0.324 -10.852  37.243  1.00  0.00    -0.050 C 
HETATM   23  C15 UNL     1       0.991 -11.067  38.537  1.00  0.00     0.036 C 
HETATM   24  C16 UNL     1       0.253 -10.469  39.752  1.00  0.00     0.004 C 
HETATM   25  C17 UNL     1       0.030  -9.015  39.705  1.00  0.00     0.000 C 
HETATM   26  C18 UNL     1      -1.334  -8.694  39.179  1.00  0.00     0.000 C 
HETATM   27  C19 UNL     1      -1.291  -8.929  37.656  1.00  0.00     0.004 C 
HETATM   28  C20 UNL     1      -1.104 -10.350  37.410  1.00  0.00     0.036 C 
ENDBRANCH   6  22
BRANCH   5  29
HETATM   29  C11 UNL     1       1.854  -7.996  36.822  1.00  0.00     0.175 C 
BRANCH  29  30
HETATM   30  C12 UNL     1       2.928  -7.113  36.185  1.00  0.00     0.185 C 
BRANCH  30  31
HETATM   31  O3  UNL     1       2.374  -6.145  35.358  1.00  0.00    -0.399 OA
ATOM     32  H3  UNL     1       2.459  -5.275  35.730  1.00  0.00     0.209 HD
ENDBRANCH  30  31
ENDBRANCH  29  30
ENDBRANCH   5  29
TORSDOF 9
ENDMDL
MODEL 3
REMARK VINA RESULT: -6.829602655      1.983      5.062
REMARK  9 active torsions:
REMARK  status: ('A' for Active; 'I' for Inactive)
REMARK    1  A    between atoms: C2_2  and  C3_3 
REMARK       I    between atoms: N1_5  and  C5_6 
REMARK    2  A    between atoms: C5_6  and  C6_8 
REMARK    3  A    between atoms: C7_9  and  O2_10 
REMARK    4  A    between atoms: O2_10  and  C8_11 
REMARK    5  A    between atoms: N3_16  and  C11_17 
REMARK    6  A    between atoms: C11_17  and  C12_18 
REMARK    7  A    between atoms: C12_18  and  O3_19 
REMARK    8  A    between atoms: C13_21  and  C14_22 
REMARK    9  A    between atoms: C22_30  and  O4_31 
ROOT
HETATM    1  C6  UNL     1       1.567 -11.324  35.314  1.00  0.00     0.112 A 
HETATM    2  C7  UNL     1       2.160 -10.467  34.365  1.00  0.00     0.176 A 
HETATM    3  N2  UNL     1       2.140  -9.290  34.932  1.00  0.00    -0.276 N 
ATOM      4  H2  UNL     1       2.502  -8.442  34.494  1.00  0.00     0.189 HD
HETATM    5  N3  UNL     1       1.584  -9.322  36.174  1.00  0.00    -0.287 N 
HETATM    6  C13 UNL     1       1.221 -10.553  36.440  1.00  0.00     0.073 A 
ENDROOT
BRANCH   1   7
HETATM    7  C5  UNL     1       1.457 -12.752  35.056  1.00  0.00     0.260 C 
HETATM    8  N1  UNL     1       2.359 -13.706  35.571  1.00  0.00    -0.345 N 
HETATM    9  C4  UNL     1       2.283 -15.134  35.338  1.00  0.00     0.133 C 
HETATM   10  C21 UNL     1       3.499 -13.403  36.411  1.00  0.00     0.158 C 
HETATM   11  C3  UNL     1       3.727 -15.523  35.464  1.00  0.00     0.034 C 
HETATM   12  C22 UNL     1       4.149 -14.746  36.705  1.00  0.00     0.142 C 
HETATM   13  O1  UNL     1       0.476 -13.116  34.322  1.00  0.00    -0.267 OA
BRANCH  11  14
HETATM   14  C2  UNL     1       3.969 -16.982  35.565  1.00  0.00     0.004 C 
HETATM   15  C1  UNL     1       3.291 -17.797  34.499  1.00  0.00     0.005 C 
ENDBRANCH  11  14
BRANCH  12  16
HETATM   16  O4  UNL     1       5.533 -14.630  36.748  1.00  0.00    -0.393 OA
ATOM     17  H4  UNL     1       5.788 -14.002  37.415  1.00  0.00     0.210 HD
ENDBRANCH  12  16
ENDBRANCH   1   7
BRANCH   2  18
HETATM   18  O2  UNL     1       2.637 -10.877  33.115  1.00  0.00    -0.329 OA
BRANCH  18  19
HETATM   19  C8  UNL     1       2.275 -10.125  31.981  1.00  0.00     0.122 C 
HETATM   20  C9  UNL     1       3.538  -9.777  31.200  1.00  0.00     0.040 C 
HETATM   21  C10 UNL     1       1.324 -10.910  31.101  1.00  0.00     0.040 C 
ENDBRANCH  18  19
ENDBRANCH   2  18
BRANCH   6  22
HETATM   22  C14 UNL     1       0.561 -11.130  37.617  1.00  0.00    -0.050 C 
HETATM   23  C15 UNL     1       1.217 -11.140  38.935  1.00  0.00     0.036 C 
HETATM   24  C16 UNL     1       0.373 -10.548  40.081  1.00  0.00     0.004 C 
HETATM   25  C17 UNL     1      -0.044  -9.147  39.903  1.00  0.00     0.000 C 
HETATM   26  C18 UNL     1      -1.425  -9.063  39.331  1.00  0.00     0.000 C 
HETATM   27  C19 UNL     1      -1.311  -9.420  37.836  1.00  0.00     0.004 C 
HETATM   28  C20 UNL     1      -0.926 -10.817  37.719  1.00  0.00     0.036 C 
ENDBRANCH   6  22
BRANCH   5  29
HETATM   29  C11 UNL     1       1.559  -8.102  36.907  1.00  0.00     0.175 C 
BRANCH  29  30
HETATM   30  C12 UNL     1       2.683  -7.208  36.378  1.00  0.00     0.185 C 
BRANCH  30  31
HETATM   31  O3  UNL     1       2.239  -6.370  35.364  1.00  0.00    -0.399 OA
ATOM     32  H3  UNL     1       2.511  -6.679  34.508  1.00  0.00     0.209 HD
ENDBRANCH  30  31
ENDBRANCH  29  30
ENDBRANCH   5  29
TORSDOF 9
ENDMDL
MODEL 4
REMARK VINA RESULT: -6.764357550      2.258      6.325
REMARK  9 active torsions:
REMARK  status: ('A' for Active; 'I' for Inactive)
REMARK    1  A    between atoms: C2_2  and  C3_3 
REMARK       I    between atoms: N1_5  and  C5_6 
REMARK    2  A    between atoms: C5_6  and  C6_8 
REMARK    3  A    between atoms: C7_9  and  O2_10 
REMARK    4  A    between atoms: O2_10  and  C8_11 
REMARK    5  A    between atoms: N3_16  and  C11_17 
REMARK    6  A    between atoms: C11_17  and  C12_18 
REMARK    7  A    between atoms: C12_18  and  O3_19 
REMARK    8  A    between atoms: C13_21  and  C14_22 
REMARK    9  A    between atoms: C22_30  and  O4_31 
ROOT
HETATM    1  C6  UNL     1       0.951 -11.143  34.879  1.00  0.00     0.112 A 
HETATM    2  C7  UNL     1       0.301 -10.001  35.387  1.00  0.00     0.176 A 
HETATM    3  N2  UNL     1       0.671  -9.945  36.639  1.00  0.00    -0.276 N 
ATOM      4  H2  UNL     1       0.365  -9.221  37.290  1.00  0.00     0.189 HD
HETATM    5  N3  UNL     1       1.512 -10.961  36.977  1.00  0.00    -0.287 N 
HETATM    6  C13 UNL     1       1.705 -11.715  35.922  1.00  0.00     0.073 A 
ENDROOT
BRANCH   1   7
HETATM    7  C5  UNL     1       0.819 -11.509  33.477  1.00  0.00     0.260 C 
HETATM    8  N1  UNL     1       1.531 -10.874  32.438  1.00  0.00    -0.345 N 
HETATM    9  C4  UNL     1       1.428 -11.210  31.032  1.00  0.00     0.133 C 
HETATM   10  C21 UNL     1       2.473  -9.790  32.619  1.00  0.00     0.158 C 
HETATM   11  C3  UNL     1       1.769  -9.894  30.397  1.00  0.00     0.034 C 
HETATM   12  C22 UNL     1       2.973  -9.455  31.222  1.00  0.00     0.142 C 
HETATM   13  O1  UNL     1       0.007 -12.462  33.219  1.00  0.00    -0.267 OA
BRANCH  11  14
HETATM   14  C2  UNL     1       2.038  -9.960  28.941  1.00  0.00     0.004 C 
HETATM   15  C1  UNL     1       1.003 -10.716  28.155  1.00  0.00     0.005 C 
ENDBRANCH  11  14
BRANCH  12  16
HETATM   16  O4  UNL     1       3.177  -8.088  31.081  1.00  0.00    -0.393 OA
ATOM     17  H4  UNL     1       4.013  -7.924  30.660  1.00  0.00     0.210 HD
ENDBRANCH  12  16
ENDBRANCH   1   7
BRANCH   2  18
HETATM   18  O2  UNL     1      -0.539  -9.168  34.639  1.00  0.00    -0.329 OA
BRANCH  18  19
HETATM   19  C8  UNL     1      -0.262  -7.788  34.612  1.00  0.00     0.122 C 
HETATM   20  C9  UNL     1       1.246  -7.589  34.720  1.00  0.00     0.040 C 
HETATM   21  C10 UNL     1      -0.775  -7.165  33.330  1.00  0.00     0.040 C 
ENDBRANCH  18  19
ENDBRANCH   2  18
BRANCH   6  22
HETATM   22  C14 UNL     1       2.497 -12.937  35.744  1.00  0.00    -0.050 C 
HETATM   23  C15 UNL     1       3.930 -12.977  36.077  1.00  0.00     0.036 C 
HETATM   24  C16 UNL     1       4.343 -14.126  37.018  1.00  0.00     0.004 C 
HETATM   25  C17 UNL     1       3.674 -14.144  38.329  1.00  0.00     0.000 C 
HETATM   26  C18 UNL     1       2.492 -15.063  38.320  1.00  0.00     0.000 C 
HETATM   27  C19 UNL     1       1.372 -14.342  37.544  1.00  0.00     0.004 C 
HETATM   28  C20 UNL     1       1.777 -14.216  36.154  1.00  0.00     0.036 C 
ENDBRANCH   6  22
BRANCH   5  29
HETATM   29  C11 UNL     1       2.022 -10.967  38.306  1.00  0.00     0.175 C 
BRANCH  29  30
HETATM   30  C12 UNL     1       0.840 -11.114  39.267  1.00  0.00     0.185 C 
BRANCH  30  31
HETATM   31  O3  UNL     1       1.055 -12.122  40.197  1.00  0.00    -0.399 OA
ATOM     32  H3  UNL     1       0.792 -11.856  41.070  1.00  0.00     0.209 HD
ENDBRANCH  30  31
ENDBRANCH  29  30
ENDBRANCH   5  29
TORSDOF 9
ENDMDL
MODEL 5
REMARK VINA RESULT: -6.573525683      3.466      7.252
REMARK  9 active torsions:
REMARK  status: ('A' for Active; 'I' for Inactive)
REMARK    1  A    between atoms: C2_2  and  C3_3 
REMARK       I    between atoms: N1_5  and  C5_6 
REMARK    2  A    between atoms: C5_6  and  C6_8 
REMARK    3  A    between atoms: C7_9  and  O2_10 
REMARK    4  A    between atoms: O2_10  and  C8_11 
REMARK    5  A    between atoms: N3_16  and  C11_17 
REMARK    6  A    between atoms: C11_17  and  C12_18 
REMARK    7  A    between atoms: C12_18  and  O3_19 
REMARK    8  A    between atoms: C13_21  and  C14_22 
REMARK    9  A    between atoms: C22_30  and  O4_31 
ROOT
HETATM    1  C6  UNL     1       3.875 -15.272  36.223  1.00  0.00     0.112 A 
HETATM    2  C7  UNL     1       3.522 -16.336  35.369  1.00  0.00     0.176 A 
HETATM    3  N2  UNL     1       4.608 -16.577  34.683  1.00  0.00    -0.276 N 
ATOM      4  H2  UNL     1       4.679 -17.301  33.968  1.00  0.00     0.189 HD
HETATM    5  N3  UNL     1       5.634 -15.753  35.032  1.00  0.00    -0.287 N 
HETATM    6  C13 UNL     1       5.220 -14.940  35.973  1.00  0.00     0.073 A 
ENDROOT
BRANCH   1   7
HETATM    7  C5  UNL     1       2.921 -14.752  37.192  1.00  0.00     0.260 C 
HETATM    8  N1  UNL     1       2.207 -13.549  37.010  1.00  0.00    -0.345 N 
HETATM    9  C4  UNL     1       1.250 -13.000  37.949  1.00  0.00     0.133 C 
HETATM   10  C21 UNL     1       2.322 -12.680  35.858  1.00  0.00     0.158 C 
HETATM   11  C3  UNL     1       1.361 -11.534  37.648  1.00  0.00     0.034 C 
HETATM   12  C22 UNL     1       1.363 -11.531  36.124  1.00  0.00     0.142 C 
HETATM   13  O1  UNL     1       2.750 -15.455  38.246  1.00  0.00    -0.267 OA
BRANCH  11  14
HETATM   14  C2  UNL     1       0.293 -10.697  38.243  1.00  0.00     0.004 C 
HETATM   15  C1  UNL     1       0.375 -10.559  39.738  1.00  0.00     0.005 C 
ENDBRANCH  11  14
BRANCH  12  16
HETATM   16  O4  UNL     1       1.880 -10.332  35.649  1.00  0.00    -0.393 OA
ATOM     17  H4  UNL     1       1.265  -9.926  35.049  1.00  0.00     0.210 HD
ENDBRANCH  12  16
ENDBRANCH   1   7
BRANCH   2  18
HETATM   18  O2  UNL     1       2.260 -16.940  35.334  1.00  0.00    -0.329 OA
BRANCH  18  19
HETATM   19  C8  UNL     1       1.441 -16.714  34.211  1.00  0.00     0.122 C 
HETATM   20  C9  UNL     1       0.699 -18.005  33.879  1.00  0.00     0.040 C 
HETATM   21  C10 UNL     1       0.449 -15.604  34.488  1.00  0.00     0.040 C 
ENDBRANCH  18  19
ENDBRANCH   2  18
BRANCH   6  22
HETATM   22  C14 UNL     1       5.909 -13.854  36.680  1.00  0.00    -0.050 C 
HETATM   23  C15 UNL     1       7.270 -14.029  37.211  1.00  0.00     0.036 C 
HETATM   24  C16 UNL     1       8.277 -12.944  36.777  1.00  0.00     0.004 C 
HETATM   25  C17 UNL     1       8.477 -12.809  35.325  1.00  0.00     0.000 C 
HETATM   26  C18 UNL     1       7.618 -11.722  34.760  1.00  0.00     0.000 C 
HETATM   27  C19 UNL     1       6.180 -12.274  34.704  1.00  0.00     0.004 C 
HETATM   28  C20 UNL     1       5.706 -12.476  36.062  1.00  0.00     0.036 C 
ENDBRANCH   6  22
BRANCH   5  29
HETATM   29  C11 UNL     1       6.885 -15.963  34.384  1.00  0.00     0.175 C 
BRANCH  29  30
HETATM   30  C12 UNL     1       7.098 -17.472  34.243  1.00  0.00     0.185 C 
BRANCH  30  31
HETATM   31  O3  UNL     1       7.009 -18.120  35.467  1.00  0.00    -0.399 OA
ATOM     32  H3  UNL     1       7.800 -18.010  35.981  1.00  0.00     0.209 HD
ENDBRANCH  30  31
ENDBRANCH  29  30
ENDBRANCH   5  29
TORSDOF 9
ENDMDL
