MODEL 1
REMARK VINA RESULT: -8.752270947      0.000      0.000
REMARK  7 active torsions:
REMARK  status: ('A' for Active; 'I' for Inactive)
REMARK    1  A    between atoms: C2_2  and  C3_3 
REMARK    2  A    between atoms: C3_3  and  N1_4 
REMARK    3  A    between atoms: C6_12  and  C7_13 
REMARK    4  A    between atoms: C7_13  and  C8_14 
REMARK    5  A    between atoms: C8_14  and  C9_15 
REMARK    6  A    between atoms: C9_15  and  N4_16 
REMARK    7  A    between atoms: C13_20  and  C14_21 
ROOT
HETATM    1  N1  UNL     1       6.671 -12.816  35.876  1.00  0.00    -0.289 N 
HETATM    2  C4  UNL     1       5.686 -13.207  36.738  1.00  0.00     0.182 A 
HETATM    3  S1  UNL     1       6.028 -14.116  38.052  1.00  0.00    -0.040 SA
HETATM    4  N2  UNL     1       4.438 -12.808  36.452  1.00  0.00    -0.317 N 
ATOM      5  H2  UNL     1       3.683 -13.085  37.079  1.00  0.00     0.170 HD
HETATM    6  C5  UNL     1       4.136 -12.054  35.372  1.00  0.00     0.141 A 
HETATM    7  N3  UNL     1       2.868 -11.665  35.107  1.00  0.00    -0.339 N 
ATOM      8  H3  UNL     1       2.118 -11.947  35.738  1.00  0.00     0.167 HD
HETATM    9  C6  UNL     1       2.573 -10.914  34.030  1.00  0.00     0.079 A 
HETATM   10  C19 UNL     1       3.600 -10.534  33.175  1.00  0.00     0.268 A 
HETATM   11  O1  UNL     1       3.324  -9.832  32.169  1.00  0.00    -0.266 OA
HETATM   12  N5  UNL     1       4.878 -10.907  33.412  1.00  0.00    -0.314 N 
ATOM     13  H5  UNL     1       5.630 -10.627  32.784  1.00  0.00     0.169 HD
HETATM   14  C20 UNL     1       5.128 -11.658  34.499  1.00  0.00     0.148 A 
HETATM   15  C21 UNL     1       6.423 -12.072  34.793  1.00  0.00     0.280 A 
HETATM   16  O2  UNL     1       7.301 -11.699  33.986  1.00  0.00    -0.265 OA
ENDROOT
BRANCH   9  17
HETATM   17  C7  UNL     1       1.188 -10.467  33.703  1.00  0.00     0.064 C 
BRANCH  17  18
HETATM   18  C8  UNL     1       0.829  -9.267  34.572  1.00  0.00     0.025 C 
BRANCH  18  19
HETATM   19  C9  UNL     1      -0.398  -9.554  35.404  1.00  0.00     0.117 C 
BRANCH  19  20
HETATM   20  N4  UNL     1      -0.048  -9.577  36.781  1.00  0.00    -0.412 N 
HETATM   21  C10 UNL     1       0.064 -10.839  37.407  1.00  0.00     0.117 C 
HETATM   22  C11 UNL     1       1.059 -10.736  38.555  1.00  0.00     0.020 C 
HETATM   23  C12 UNL     1       0.317 -10.588  39.872  1.00  0.00     0.006 C 
HETATM   24  C13 UNL     1      -0.331  -9.225  39.940  1.00  0.00    -0.010 C 
HETATM   25  C17 UNL     1      -1.276  -8.951  38.815  1.00  0.00     0.024 C 
HETATM   26  C18 UNL     1      -0.549  -8.517  37.571  1.00  0.00     0.117 C 
BRANCH  24  27
HETATM   27  C14 UNL     1      -1.105  -9.122  41.246  1.00  0.00    -0.019 C 
HETATM   28  C15 UNL     1      -1.618  -7.700  41.459  1.00  0.00     0.010 C 
HETATM   29  C16 UNL     1      -0.225  -9.487  42.414  1.00  0.00     0.010 C 
ENDBRANCH  24  27
ENDBRANCH  19  20
ENDBRANCH  18  19
ENDBRANCH  17  18
ENDBRANCH   9  17
BRANCH   1  30
HETATM   30  C3  UNL     1       8.003 -13.251  36.181  1.00  0.00     0.134 C 
BRANCH  30  31
HETATM   31  C2  UNL     1       8.777 -12.363  37.093  1.00  0.00     0.016 C 
HETATM   32  C1  UNL     1       9.695 -11.394  36.417  1.00  0.00     0.006 C 
ENDBRANCH  30  31
ENDBRANCH   1  30
TORSDOF 7
ENDMDL
MODEL 2
REMARK VINA RESULT: -8.707455087      3.731      7.282
REMARK  7 active torsions:
REMARK  status: ('A' for Active; 'I' for Inactive)
REMARK    1  A    between atoms: C2_2  and  C3_3 
REMARK    2  A    between atoms: C3_3  and  N1_4 
REMARK    3  A    between atoms: C6_12  and  C7_13 
REMARK    4  A    between atoms: C7_13  and  C8_14 
REMARK    5  A    between atoms: C8_14  and  C9_15 
REMARK    6  A    between atoms: C9_15  and  N4_16 
REMARK    7  A    between atoms: C13_20  and  C14_21 
ROOT
HETATM    1  N1  UNL     1       5.747 -13.639  37.598  1.00  0.00    -0.289 N 
HETATM    2  C4  UNL     1       6.155 -13.108  36.407  1.00  0.00     0.182 A 
HETATM    3  S1  UNL     1       7.705 -13.246  35.908  1.00  0.00    -0.040 SA
HETATM    4  N2  UNL     1       5.224 -12.475  35.677  1.00  0.00    -0.317 N 
ATOM      5  H2  UNL     1       5.501 -12.069  34.784  1.00  0.00     0.170 HD
HETATM    6  C5  UNL     1       3.938 -12.352  36.072  1.00  0.00     0.141 A 
HETATM    7  N3  UNL     1       3.020 -11.709  35.315  1.00  0.00    -0.339 N 
ATOM      8  H3  UNL     1       3.304 -11.304  34.422  1.00  0.00     0.167 HD
HETATM    9  C6  UNL     1       1.739 -11.591  35.712  1.00  0.00     0.079 A 
HETATM   10  C19 UNL     1       1.361 -12.144  36.929  1.00  0.00     0.268 A 
HETATM   11  O1  UNL     1       0.164 -12.033  37.300  1.00  0.00    -0.266 OA
HETATM   12  N5  UNL     1       2.254 -12.793  37.708  1.00  0.00    -0.314 N 
ATOM     13  H5  UNL     1       1.974 -13.199  38.600  1.00  0.00     0.169 HD
HETATM   14  C20 UNL     1       3.523 -12.888  37.273  1.00  0.00     0.148 A 
HETATM   15  C21 UNL     1       4.487 -13.543  38.032  1.00  0.00     0.280 A 
HETATM   16  O2  UNL     1       4.083 -14.018  39.116  1.00  0.00    -0.265 OA
ENDROOT
BRANCH   9  17
HETATM   17  C7  UNL     1       0.698 -10.887  34.908  1.00  0.00     0.064 C 
BRANCH  17  18
HETATM   18  C8  UNL     1       1.052 -10.988  33.429  1.00  0.00     0.025 C 
BRANCH  18  19
HETATM   19  C9  UNL     1       1.525  -9.657  32.897  1.00  0.00     0.117 C 
BRANCH  19  20
HETATM   20  N4  UNL     1       2.051  -9.824  31.588  1.00  0.00    -0.412 N 
HETATM   21  C10 UNL     1       2.439  -8.662  30.884  1.00  0.00     0.117 C 
HETATM   22  C11 UNL     1       3.548  -9.023  29.904  1.00  0.00     0.020 C 
HETATM   23  C12 UNL     1       2.970  -9.196  28.510  1.00  0.00     0.006 C 
HETATM   24  C13 UNL     1       2.132 -10.452  28.460  1.00  0.00    -0.010 C 
HETATM   25  C17 UNL     1       1.017 -10.472  29.455  1.00  0.00     0.024 C 
HETATM   26  C18 UNL     1       1.499 -10.877  30.822  1.00  0.00     0.117 C 
BRANCH  24  27
HETATM   27  C14 UNL     1       1.528 -10.576  27.069  1.00  0.00    -0.019 C 
HETATM   28  C15 UNL     1       0.008 -10.700  27.147  1.00  0.00     0.010 C 
HETATM   29  C16 UNL     1       2.065 -11.796  26.365  1.00  0.00     0.010 C 
ENDBRANCH  24  27
ENDBRANCH  19  20
ENDBRANCH  18  19
ENDBRANCH  17  18
ENDBRANCH   9  17
BRANCH   1  30
HETATM   30  C3  UNL     1       6.746 -14.309  38.379  1.00  0.00     0.134 C 
BRANCH  30  31
HETATM   31  C2  UNL     1       7.285 -13.537  39.533  1.00  0.00     0.016 C 
HETATM   32  C1  UNL     1       7.468 -14.318  40.797  1.00  0.00     0.006 C 
ENDBRANCH  30  31
ENDBRANCH   1  30
TORSDOF 7
ENDMDL
MODEL 3
REMARK VINA RESULT: -8.706112931      2.333      2.914
REMARK  7 active torsions:
REMARK  status: ('A' for Active; 'I' for Inactive)
REMARK    1  A    between atoms: C2_2  and  C3_3 
REMARK    2  A    between atoms: C3_3  and  N1_4 
REMARK    3  A    between atoms: C6_12  and  C7_13 
REMARK    4  A    between atoms: C7_13  and  C8_14 
REMARK    5  A    between atoms: C8_14  and  C9_15 
REMARK    6  A    between atoms: C9_15  and  N4_16 
REMARK    7  A    between atoms: C13_20  and  C14_21 
ROOT
HETATM    1  N1  UNL     1       4.156 -14.705  36.983  1.00  0.00    -0.289 N 
HETATM    2  C4  UNL     1       4.911 -13.569  37.075  1.00  0.00     0.182 A 
HETATM    3  S1  UNL     1       6.288 -13.542  37.953  1.00  0.00    -0.040 SA
HETATM    4  N2  UNL     1       4.466 -12.492  36.413  1.00  0.00    -0.317 N 
ATOM      5  H2  UNL     1       5.009 -11.631  36.464  1.00  0.00     0.170 HD
HETATM    6  C5  UNL     1       3.330 -12.496  35.681  1.00  0.00     0.141 A 
HETATM    7  N3  UNL     1       2.904 -11.394  35.022  1.00  0.00    -0.339 N 
ATOM      8  H3  UNL     1       3.453 -10.536  35.078  1.00  0.00     0.167 HD
HETATM    9  C6  UNL     1       1.773 -11.404  34.293  1.00  0.00     0.079 A 
HETATM   10  C19 UNL     1       1.031 -12.576  34.221  1.00  0.00     0.268 A 
HETATM   11  O1  UNL     1      -0.026 -12.585  33.539  1.00  0.00    -0.266 OA
HETATM   12  N5  UNL     1       1.430 -13.694  34.868  1.00  0.00    -0.314 N 
ATOM     13  H5  UNL     1       0.884 -14.553  34.813  1.00  0.00     0.169 HD
HETATM   14  C20 UNL     1       2.566 -13.640  35.585  1.00  0.00     0.148 A 
HETATM   15  C21 UNL     1       3.025 -14.758  36.272  1.00  0.00     0.280 A 
HETATM   16  O2  UNL     1       2.313 -15.781  36.169  1.00  0.00    -0.265 OA
ENDROOT
BRANCH   9  17
HETATM   17  C7  UNL     1       1.269 -10.209  33.554  1.00  0.00     0.064 C 
BRANCH  17  18
HETATM   18  C8  UNL     1       0.887  -9.125  34.555  1.00  0.00     0.025 C 
BRANCH  18  19
HETATM   19  C9  UNL     1      -0.324  -9.537  35.358  1.00  0.00     0.117 C 
BRANCH  19  20
HETATM   20  N4  UNL     1       0.004  -9.559  36.740  1.00  0.00    -0.412 N 
HETATM   21  C10 UNL     1       0.114 -10.820  37.368  1.00  0.00     0.117 C 
HETATM   22  C11 UNL     1       1.090 -10.711  38.532  1.00  0.00     0.020 C 
HETATM   23  C12 UNL     1       0.325 -10.569  39.836  1.00  0.00     0.006 C 
HETATM   24  C13 UNL     1      -0.333  -9.211  39.894  1.00  0.00    -0.010 C 
HETATM   25  C17 UNL     1      -1.261  -8.942  38.754  1.00  0.00     0.024 C 
HETATM   26  C18 UNL     1      -0.517  -8.502  37.523  1.00  0.00     0.117 C 
BRANCH  24  27
HETATM   27  C14 UNL     1      -1.130  -9.114  41.187  1.00  0.00    -0.019 C 
HETATM   28  C15 UNL     1      -1.684  -7.704  41.377  1.00  0.00     0.010 C 
HETATM   29  C16 UNL     1      -0.257  -9.441  42.373  1.00  0.00     0.010 C 
ENDBRANCH  24  27
ENDBRANCH  19  20
ENDBRANCH  18  19
ENDBRANCH  17  18
ENDBRANCH   9  17
BRANCH   1  30
HETATM   30  C3  UNL     1       4.632 -15.853  37.698  1.00  0.00     0.134 C 
BRANCH  30  31
HETATM   31  C2  UNL     1       5.063 -17.004  36.856  1.00  0.00     0.016 C 
HETATM   32  C1  UNL     1       5.895 -16.648  35.664  1.00  0.00     0.006 C 
ENDBRANCH  30  31
ENDBRANCH   1  30
TORSDOF 7
ENDMDL
MODEL 4
REMARK VINA RESULT: -8.573075952      2.521      3.058
REMARK  7 active torsions:
REMARK  status: ('A' for Active; 'I' for Inactive)
REMARK    1  A    between atoms: C2_2  and  C3_3 
REMARK    2  A    between atoms: C3_3  and  N1_4 
REMARK    3  A    between atoms: C6_12  and  C7_13 
REMARK    4  A    between atoms: C7_13  and  C8_14 
REMARK    5  A    between atoms: C8_14  and  C9_15 
REMARK    6  A    between atoms: C9_15  and  N4_16 
REMARK    7  A    between atoms: C13_20  and  C14_21 
ROOT
HETATM    1  N1  UNL     1       6.423 -13.963  38.197  1.00  0.00    -0.289 N 
HETATM    2  C4  UNL     1       6.960 -13.059  37.325  1.00  0.00     0.182 A 
HETATM    3  S1  UNL     1       8.551 -12.690  37.365  1.00  0.00    -0.040 SA
HETATM    4  N2  UNL     1       6.120 -12.498  36.442  1.00  0.00    -0.317 N 
ATOM      5  H2  UNL     1       6.493 -11.819  35.779  1.00  0.00     0.170 HD
HETATM    6  C5  UNL     1       4.802 -12.791  36.392  1.00  0.00     0.141 A 
HETATM    7  N3  UNL     1       3.977 -12.210  35.491  1.00  0.00    -0.339 N 
ATOM      8  H3  UNL     1       4.358 -11.531  34.831  1.00  0.00     0.167 HD
HETATM    9  C6  UNL     1       2.665 -12.507  35.445  1.00  0.00     0.079 A 
HETATM   10  C19 UNL     1       2.154 -13.431  36.347  1.00  0.00     0.268 A 
HETATM   11  O1  UNL     1       0.928 -13.708  36.303  1.00  0.00    -0.266 OA
HETATM   12  N5  UNL     1       2.952 -14.029  37.260  1.00  0.00    -0.314 N 
ATOM     13  H5  UNL     1       2.575 -14.708  37.921  1.00  0.00     0.169 HD
HETATM   14  C20 UNL     1       4.257 -13.703  37.272  1.00  0.00     0.148 A 
HETATM   15  C21 UNL     1       5.125 -14.285  38.188  1.00  0.00     0.280 A 
HETATM   16  O2  UNL     1       4.604 -15.108  38.973  1.00  0.00    -0.265 OA
ENDROOT
BRANCH   9  17
HETATM   17  C7  UNL     1       1.723 -11.886  34.468  1.00  0.00     0.064 C 
BRANCH  17  18
HETATM   18  C8  UNL     1       1.513 -10.421  34.835  1.00  0.00     0.025 C 
BRANCH  18  19
HETATM   19  C9  UNL     1       0.154 -10.213  35.459  1.00  0.00     0.117 C 
BRANCH  19  20
HETATM   20  N4  UNL     1       0.298  -9.981  36.853  1.00  0.00    -0.412 N 
HETATM   21  C10 UNL     1       0.059 -11.066  37.726  1.00  0.00     0.117 C 
HETATM   22  C11 UNL     1       0.886 -10.876  38.991  1.00  0.00     0.020 C 
HETATM   23  C12 UNL     1       0.016 -10.306  40.097  1.00  0.00     0.006 C 
HETATM   24  C13 UNL     1      -0.340  -8.873  39.777  1.00  0.00    -0.010 C 
HETATM   25  C17 UNL     1      -1.043  -8.705  38.469  1.00  0.00     0.024 C 
HETATM   26  C18 UNL     1      -0.077  -8.698  37.315  1.00  0.00     0.117 C 
BRANCH  24  27
HETATM   27  C14 UNL     1      -1.249  -8.343  40.876  1.00  0.00    -0.019 C 
HETATM   28  C15 UNL     1      -1.028  -6.847  41.085  1.00  0.00     0.010 C 
HETATM   29  C16 UNL     1      -0.972  -9.048  42.179  1.00  0.00     0.010 C 
ENDBRANCH  24  27
ENDBRANCH  19  20
ENDBRANCH  18  19
ENDBRANCH  17  18
ENDBRANCH   9  17
BRANCH   1  30
HETATM   30  C3  UNL     1       7.322 -14.555  39.144  1.00  0.00     0.134 C 
BRANCH  30  31
HETATM   31  C2  UNL     1       7.432 -13.854  40.454  1.00  0.00     0.016 C 
HETATM   32  C1  UNL     1       7.061 -14.672  41.651  1.00  0.00     0.006 C 
ENDBRANCH  30  31
ENDBRANCH   1  30
TORSDOF 7
ENDMDL
MODEL 5
REMARK VINA RESULT: -8.365825766      1.988      2.487
REMARK  7 active torsions:
REMARK  status: ('A' for Active; 'I' for Inactive)
REMARK    1  A    between atoms: C2_2  and  C3_3 
REMARK    2  A    between atoms: C3_3  and  N1_4 
REMARK    3  A    between atoms: C6_12  and  C7_13 
REMARK    4  A    between atoms: C7_13  and  C8_14 
REMARK    5  A    between atoms: C8_14  and  C9_15 
REMARK    6  A    between atoms: C9_15  and  N4_16 
REMARK    7  A    between atoms: C13_20  and  C14_21 
ROOT
HETATM    1  N1  UNL     1       6.607 -13.271  36.542  1.00  0.00    -0.289 N 
HETATM    2  C4  UNL     1       6.872 -12.246  35.678  1.00  0.00     0.182 A 
HETATM    3  S1  UNL     1       8.405 -11.753  35.401  1.00  0.00    -0.040 SA
HETATM    4  N2  UNL     1       5.819 -11.675  35.075  1.00  0.00    -0.317 N 
ATOM      5  H2  UNL     1       5.988 -10.908  34.426  1.00  0.00     0.170 HD
HETATM    6  C5  UNL     1       4.545 -12.070  35.290  1.00  0.00     0.141 A 
HETATM    7  N3  UNL     1       3.501 -11.476  34.668  1.00  0.00    -0.339 N 
ATOM      8  H3  UNL     1       3.678 -10.708  34.020  1.00  0.00     0.167 HD
HETATM    9  C6  UNL     1       2.234 -11.875  34.885  1.00  0.00     0.079 A 
HETATM   10  C19 UNL     1       2.001 -12.920  35.770  1.00  0.00     0.268 A 
HETATM   11  O1  UNL     1       0.817 -13.292  35.972  1.00  0.00    -0.266 OA
HETATM   12  N5  UNL     1       3.023 -13.534  36.407  1.00  0.00    -0.314 N 
ATOM     13  H5  UNL     1       2.850 -14.302  37.055  1.00  0.00     0.169 HD
HETATM   14  C20 UNL     1       4.273 -13.104  36.162  1.00  0.00     0.148 A 
HETATM   15  C21 UNL     1       5.364 -13.697  36.788  1.00  0.00     0.280 A 
HETATM   16  O2  UNL     1       5.088 -14.631  37.573  1.00  0.00    -0.265 OA
ENDROOT
BRANCH   9  17
HETATM   17  C7  UNL     1       1.056 -11.243  34.221  1.00  0.00     0.064 C 
BRANCH  17  18
HETATM   18  C8  UNL     1       0.851  -9.843  34.788  1.00  0.00     0.025 C 
BRANCH  18  19
HETATM   19  C9  UNL     1      -0.380  -9.792  35.661  1.00  0.00     0.117 C 
BRANCH  19  20
HETATM   20  N4  UNL     1       0.004  -9.759  37.028  1.00  0.00    -0.412 N 
HETATM   21  C10 UNL     1      -0.241 -10.913  37.806  1.00  0.00     0.117 C 
HETATM   22  C11 UNL     1       0.787 -10.983  38.928  1.00  0.00     0.020 C 
HETATM   23  C12 UNL     1       0.178 -10.464  40.219  1.00  0.00     0.006 C 
HETATM   24  C13 UNL     1      -0.028  -8.971  40.120  1.00  0.00    -0.010 C 
HETATM   25  C17 UNL     1      -0.893  -8.557  38.974  1.00  0.00     0.024 C 
HETATM   26  C18 UNL     1      -0.122  -8.512  37.683  1.00  0.00     0.117 C 
BRANCH  24  27
HETATM   27  C14 UNL     1      -0.680  -8.486  41.407  1.00  0.00    -0.019 C 
HETATM   28  C15 UNL     1      -1.083  -9.666  42.288  1.00  0.00     0.010 C 
HETATM   29  C16 UNL     1      -1.917  -7.680  41.102  1.00  0.00     0.010 C 
ENDBRANCH  24  27
ENDBRANCH  19  20
ENDBRANCH  18  19
ENDBRANCH  17  18
ENDBRANCH   9  17
BRANCH   1  30
HETATM   30  C3  UNL     1       7.734 -13.875  37.190  1.00  0.00     0.134 C 
BRANCH  30  31
HETATM   31  C2  UNL     1       8.099 -13.301  38.516  1.00  0.00     0.016 C 
HETATM   32  C1  UNL     1       7.984 -14.241  39.674  1.00  0.00     0.006 C 
ENDBRANCH  30  31
ENDBRANCH   1  30
TORSDOF 7
ENDMDL
