MODEL 1
REMARK VINA RESULT: -9.002312188      0.000      0.000
REMARK  8 active torsions:
REMARK  status: ('A' for Active; 'I' for Inactive)
REMARK    1  A    between atoms: C2_2  and  C3_3 
REMARK       I    between atoms: C3_3  and  N1_5 
REMARK    2  A    between atoms: N1_5  and  C4_7 
REMARK    3  A    between atoms: C4_7  and  C5_8 
REMARK    4  A    between atoms: C5_8  and  C6_9 
REMARK    5  A    between atoms: C6_9  and  N2_10 
REMARK    6  A    between atoms: N2_10  and  C7_12 
REMARK    7  A    between atoms: N5_20  and  C11_21 
REMARK    8  A    between atoms: C16_26  and  N6_27 
ROOT
HETATM    1  C7  UNL     1       1.274  -9.184  35.515  1.00  0.00     0.685 A 
HETATM    2  N3  UNL     1       0.782  -8.943  36.745  1.00  0.00    -0.174 N 
ATOM      3  H3  UNL     1       0.377  -8.025  36.931  1.00  0.00     0.186 HD
HETATM    4  C8  UNL     1       0.796  -9.841  37.735  1.00  0.00     0.153 A 
HETATM    5  C9  UNL     1       1.345 -11.109  37.511  1.00  0.00     0.071 A 
HETATM    6  C10 UNL     1       1.200 -11.782  38.681  1.00  0.00     0.126 A 
HETATM    7  N4  UNL     1       0.594 -10.944  39.551  1.00  0.00    -0.307 N 
ATOM      8  H4  UNL     1       0.360 -11.188  40.513  1.00  0.00     0.186 HD
HETATM    9  N5  UNL     1       0.347  -9.797  39.016  1.00  0.00    -0.271 N 
HETATM   10  C16 UNL     1       1.857 -11.388  36.264  1.00  0.00     0.134 A 
HETATM   11  N7  UNL     1       1.791 -10.392  35.322  1.00  0.00    -0.175 N 
ATOM     12  H7  UNL     1       2.171 -10.596  34.398  1.00  0.00     0.186 HD
ENDROOT
BRANCH   1  13
HETATM   13  N2  UNL     1       1.230  -8.272  34.597  1.00  0.00    -0.205 N 
ATOM     14  H2  UNL     1       1.597  -7.361  34.871  1.00  0.00     0.183 HD
BRANCH  13  15
HETATM   15  C6  UNL     1       0.753  -8.355  33.280  1.00  0.00     0.080 C 
BRANCH  15  16
HETATM   16  C5  UNL     1       1.727  -8.720  32.212  1.00  0.00     0.065 C 
BRANCH  16  17
HETATM   17  C4  UNL     1       1.425  -9.995  31.493  1.00  0.00     0.128 C 
BRANCH  17  18
HETATM   18  N1  UNL     1       1.044  -9.883  30.127  1.00  0.00    -0.361 N 
HETATM   19  C3  UNL     1       2.101  -9.862  29.147  1.00  0.00     0.217 C 
HETATM   20  O1  UNL     1       3.317  -9.941  29.486  1.00  0.00    -0.274 OA
ATOM     21  H1  UNL     1       0.065  -9.820  29.852  1.00  0.00     0.162 HD
BRANCH  19  22
HETATM   22  C2  UNL     1       1.791  -9.747  27.707  1.00  0.00     0.098 C 
HETATM   23  C1  UNL     1       1.400 -11.080  27.138  1.00  0.00     0.014 C 
ENDBRANCH  19  22
ENDBRANCH  17  18
ENDBRANCH  16  17
ENDBRANCH  15  16
ENDBRANCH  13  15
ENDBRANCH   1  13
BRANCH  10  24
HETATM   24  N6  UNL     1       2.472 -12.604  35.975  1.00  0.00    -0.366 N 
HETATM   25  C17 UNL     1       3.793 -13.076  36.148  1.00  0.00     0.124 C 
HETATM   26  C18 UNL     1       3.795 -14.136  37.246  1.00  0.00     0.020 C 
HETATM   27  C19 UNL     1       2.627 -15.042  37.062  1.00  0.00     0.007 C 
HETATM   28  C20 UNL     1       2.126 -14.991  35.638  1.00  0.00    -0.001 C 
HETATM   29  C21 UNL     1       0.987 -15.977  35.424  1.00  0.00     0.011 C 
HETATM   30  C22 UNL     1       1.560 -13.626  35.387  1.00  0.00     0.128 C 
ENDBRANCH  10  24
BRANCH   9  31
HETATM   31  C11 UNL     1      -0.285  -8.657  39.635  1.00  0.00     0.110 C 
HETATM   32  C12 UNL     1      -0.695  -8.935  41.065  1.00  0.00     0.027 C 
HETATM   33  C13 UNL     1      -1.496  -7.659  41.366  1.00  0.00     0.002 C 
HETATM   34  C14 UNL     1      -2.104  -7.245  40.043  1.00  0.00     0.002 C 
HETATM   35  C15 UNL     1      -1.582  -8.259  39.013  1.00  0.00     0.027 C 
ENDBRANCH   9  31
TORSDOF 8
ENDMDL
MODEL 2
REMARK VINA RESULT: -8.875081052      0.932      1.679
REMARK  8 active torsions:
REMARK  status: ('A' for Active; 'I' for Inactive)
REMARK    1  A    between atoms: C2_2  and  C3_3 
REMARK       I    between atoms: C3_3  and  N1_5 
REMARK    2  A    between atoms: N1_5  and  C4_7 
REMARK    3  A    between atoms: C4_7  and  C5_8 
REMARK    4  A    between atoms: C5_8  and  C6_9 
REMARK    5  A    between atoms: C6_9  and  N2_10 
REMARK    6  A    between atoms: N2_10  and  C7_12 
REMARK    7  A    between atoms: N5_20  and  C11_21 
REMARK    8  A    between atoms: C16_26  and  N6_27 
ROOT
HETATM    1  C7  UNL     1       1.452 -10.099  36.023  1.00  0.00     0.685 A 
HETATM    2  N3  UNL     1       0.898  -9.591  37.141  1.00  0.00    -0.174 N 
ATOM      3  H3  UNL     1       0.485  -8.660  37.094  1.00  0.00     0.186 HD
HETATM    4  C8  UNL     1       0.860 -10.242  38.308  1.00  0.00     0.153 A 
HETATM    5  C9  UNL     1       1.419 -11.523  38.405  1.00  0.00     0.071 A 
HETATM    6  C10 UNL     1       1.213 -11.914  39.688  1.00  0.00     0.126 A 
HETATM    7  N4  UNL     1       0.564 -10.907  40.314  1.00  0.00    -0.307 N 
ATOM      8  H4  UNL     1       0.282 -10.931  41.293  1.00  0.00     0.186 HD
HETATM    9  N5  UNL     1       0.347  -9.914  39.521  1.00  0.00    -0.271 N 
HETATM   10  C16 UNL     1       1.994 -12.070  37.280  1.00  0.00     0.134 A 
HETATM   11  N7  UNL     1       1.977 -11.314  36.135  1.00  0.00    -0.175 N 
ATOM     12  H7  UNL     1       2.403 -11.718  35.301  1.00  0.00     0.186 HD
ENDROOT
BRANCH   1  13
HETATM   13  N2  UNL     1       1.456  -9.420  34.921  1.00  0.00    -0.205 N 
ATOM     14  H2  UNL     1       2.093  -8.623  34.904  1.00  0.00     0.183 HD
BRANCH  13  15
HETATM   15  C6  UNL     1       0.712  -9.618  33.748  1.00  0.00     0.080 C 
BRANCH  15  16
HETATM   16  C5  UNL     1       1.396  -9.374  32.446  1.00  0.00     0.065 C 
BRANCH  16  17
HETATM   17  C4  UNL     1       1.336 -10.515  31.481  1.00  0.00     0.128 C 
BRANCH  17  18
HETATM   18  N1  UNL     1       0.978 -10.198  30.141  1.00  0.00    -0.361 N 
HETATM   19  C3  UNL     1       2.052 -10.000  29.200  1.00  0.00     0.217 C 
HETATM   20  O1  UNL     1       3.263 -10.103  29.550  1.00  0.00    -0.274 OA
ATOM     21  H1  UNL     1       0.002 -10.115  29.857  1.00  0.00     0.162 HD
BRANCH  19  22
HETATM   22  C2  UNL     1       1.765  -9.668  27.789  1.00  0.00     0.098 C 
HETATM   23  C1  UNL     1       1.338 -10.891  27.030  1.00  0.00     0.014 C 
ENDBRANCH  19  22
ENDBRANCH  17  18
ENDBRANCH  16  17
ENDBRANCH  15  16
ENDBRANCH  13  15
ENDBRANCH   1  13
BRANCH  10  24
HETATM   24  N6  UNL     1       2.622 -13.314  37.305  1.00  0.00    -0.366 N 
HETATM   25  C17 UNL     1       2.167 -14.624  37.034  1.00  0.00     0.124 C 
HETATM   26  C18 UNL     1       2.810 -15.107  35.736  1.00  0.00     0.020 C 
HETATM   27  C19 UNL     1       4.251 -14.731  35.728  1.00  0.00     0.007 C 
HETATM   28  C20 UNL     1       4.751 -14.484  37.131  1.00  0.00    -0.001 C 
HETATM   29  C21 UNL     1       6.242 -14.181  37.134  1.00  0.00     0.011 C 
HETATM   30  C22 UNL     1       4.067 -13.261  37.665  1.00  0.00     0.128 C 
ENDBRANCH  10  24
BRANCH   9  31
HETATM   31  C11 UNL     1      -0.316  -8.671  39.834  1.00  0.00     0.110 C 
HETATM   32  C12 UNL     1      -0.820  -8.632  41.260  1.00  0.00     0.027 C 
HETATM   33  C13 UNL     1      -1.629  -7.326  41.223  1.00  0.00     0.002 C 
HETATM   34  C14 UNL     1      -2.146  -7.215  39.804  1.00  0.00     0.002 C 
HETATM   35  C15 UNL     1      -1.565  -8.426  39.056  1.00  0.00     0.027 C 
ENDBRANCH   9  31
TORSDOF 8
ENDMDL
MODEL 3
REMARK VINA RESULT: -8.853447115      3.309      8.084
REMARK  8 active torsions:
REMARK  status: ('A' for Active; 'I' for Inactive)
REMARK    1  A    between atoms: C2_2  and  C3_3 
REMARK       I    between atoms: C3_3  and  N1_5 
REMARK    2  A    between atoms: N1_5  and  C4_7 
REMARK    3  A    between atoms: C4_7  and  C5_8 
REMARK    4  A    between atoms: C5_8  and  C6_9 
REMARK    5  A    between atoms: C6_9  and  N2_10 
REMARK    6  A    between atoms: N2_10  and  C7_12 
REMARK    7  A    between atoms: N5_20  and  C11_21 
REMARK    8  A    between atoms: C16_26  and  N6_27 
ROOT
HETATM    1  C7  UNL     1       4.373 -11.070  34.277  1.00  0.00     0.685 A 
HETATM    2  N3  UNL     1       3.778 -10.747  33.113  1.00  0.00    -0.174 N 
ATOM      3  H3  UNL     1       4.368 -10.454  32.334  1.00  0.00     0.186 HD
HETATM    4  C8  UNL     1       2.455 -10.790  32.923  1.00  0.00     0.153 A 
HETATM    5  C9  UNL     1       1.618 -11.188  33.973  1.00  0.00     0.071 A 
HETATM    6  C10 UNL     1       0.358 -11.143  33.471  1.00  0.00     0.126 A 
HETATM    7  N4  UNL     1       0.453 -10.735  32.186  1.00  0.00    -0.307 N 
ATOM      8  H4  UNL     1      -0.345 -10.611  31.564  1.00  0.00     0.186 HD
HETATM    9  N5  UNL     1       1.678 -10.522  31.843  1.00  0.00    -0.271 N 
HETATM   10  C16 UNL     1       2.196 -11.524  35.176  1.00  0.00     0.134 A 
HETATM   11  N7  UNL     1       3.563 -11.444  35.260  1.00  0.00    -0.175 N 
ATOM     12  H7  UNL     1       3.992 -11.692  36.151  1.00  0.00     0.186 HD
ENDROOT
BRANCH   1  13
HETATM   13  N2  UNL     1       5.661 -11.009  34.398  1.00  0.00    -0.205 N 
ATOM     14  H2  UNL     1       6.047 -10.068  34.471  1.00  0.00     0.183 HD
BRANCH  13  15
HETATM   15  C6  UNL     1       6.602 -12.049  34.445  1.00  0.00     0.080 C 
BRANCH  15  16
HETATM   16  C5  UNL     1       7.901 -11.776  35.124  1.00  0.00     0.065 C 
BRANCH  16  17
HETATM   17  C4  UNL     1       8.323 -12.812  36.115  1.00  0.00     0.128 C 
BRANCH  17  18
HETATM   18  N1  UNL     1       8.056 -12.531  37.484  1.00  0.00    -0.361 N 
HETATM   19  C3  UNL     1       7.401 -13.559  38.253  1.00  0.00     0.217 C 
HETATM   20  O1  UNL     1       7.077 -14.666  37.734  1.00  0.00    -0.274 OA
ATOM     21  H1  UNL     1       8.318 -11.640  37.904  1.00  0.00     0.162 HD
BRANCH  19  22
HETATM   22  C2  UNL     1       7.088 -13.346  39.682  1.00  0.00     0.098 C 
HETATM   23  C1  UNL     1       7.796 -14.356  40.539  1.00  0.00     0.014 C 
ENDBRANCH  19  22
ENDBRANCH  17  18
ENDBRANCH  16  17
ENDBRANCH  15  16
ENDBRANCH  13  15
ENDBRANCH   1  13
BRANCH  10  24
HETATM   24  N6  UNL     1       1.432 -11.875  36.287  1.00  0.00    -0.366 N 
HETATM   25  C17 UNL     1       1.159 -13.113  36.912  1.00  0.00     0.124 C 
HETATM   26  C18 UNL     1       1.867 -13.147  38.263  1.00  0.00     0.020 C 
HETATM   27  C19 UNL     1       1.690 -11.837  38.948  1.00  0.00     0.007 C 
HETATM   28  C20 UNL     1       0.493 -11.099  38.396  1.00  0.00    -0.001 C 
HETATM   29  C21 UNL     1       0.258  -9.798  39.150  1.00  0.00     0.011 C 
HETATM   30  C22 UNL     1       0.788 -10.720  36.976  1.00  0.00     0.128 C 
ENDBRANCH  10  24
BRANCH   9  31
HETATM   31  C11 UNL     1       2.165 -10.080  30.558  1.00  0.00     0.110 C 
HETATM   32  C12 UNL     1       1.912  -8.606  30.325  1.00  0.00     0.027 C 
HETATM   33  C13 UNL     1       2.332  -8.492  28.852  1.00  0.00     0.002 C 
HETATM   34  C14 UNL     1       2.010  -9.839  28.237  1.00  0.00     0.002 C 
HETATM   35  C15 UNL     1       1.474 -10.702  29.391  1.00  0.00     0.027 C 
ENDBRANCH   9  31
TORSDOF 8
ENDMDL
MODEL 4
REMARK VINA RESULT: -8.809273555      3.123      8.491
REMARK  8 active torsions:
REMARK  status: ('A' for Active; 'I' for Inactive)
REMARK    1  A    between atoms: C2_2  and  C3_3 
REMARK       I    between atoms: C3_3  and  N1_5 
REMARK    2  A    between atoms: N1_5  and  C4_7 
REMARK    3  A    between atoms: C4_7  and  C5_8 
REMARK    4  A    between atoms: C5_8  and  C6_9 
REMARK    5  A    between atoms: C6_9  and  N2_10 
REMARK    6  A    between atoms: N2_10  and  C7_12 
REMARK    7  A    between atoms: N5_20  and  C11_21 
REMARK    8  A    between atoms: C16_26  and  N6_27 
ROOT
HETATM    1  C7  UNL     1       2.966 -11.625  35.098  1.00  0.00     0.685 A 
HETATM    2  N3  UNL     1       2.839 -11.113  33.860  1.00  0.00    -0.174 N 
ATOM      3  H3  UNL     1       3.395 -11.521  33.109  1.00  0.00     0.186 HD
HETATM    4  C8  UNL     1       2.022 -10.097  33.561  1.00  0.00     0.153 A 
HETATM    5  C9  UNL     1       1.244  -9.515  34.569  1.00  0.00     0.071 A 
HETATM    6  C10 UNL     1       0.525  -8.540  33.958  1.00  0.00     0.126 A 
HETATM    7  N4  UNL     1       0.867  -8.551  32.650  1.00  0.00    -0.307 N 
ATOM      8  H4  UNL     1       0.477  -7.919  31.952  1.00  0.00     0.186 HD
HETATM    9  N5  UNL     1       1.745  -9.459  32.395  1.00  0.00    -0.271 N 
HETATM   10  C16 UNL     1       1.352 -10.015  35.847  1.00  0.00     0.134 A 
HETATM   11  N7  UNL     1       2.222 -11.059  36.041  1.00  0.00    -0.175 N 
ATOM     12  H7  UNL     1       2.304 -11.430  36.987  1.00  0.00     0.186 HD
ENDROOT
BRANCH   1  13
HETATM   13  N2  UNL     1       3.775 -12.610  35.325  1.00  0.00    -0.205 N 
ATOM     14  H2  UNL     1       3.326 -13.507  35.514  1.00  0.00     0.183 HD
BRANCH  13  15
HETATM   15  C6  UNL     1       5.178 -12.625  35.347  1.00  0.00     0.080 C 
BRANCH  15  16
HETATM   16  C5  UNL     1       5.844 -13.405  36.429  1.00  0.00     0.065 C 
BRANCH  16  17
HETATM   17  C4  UNL     1       5.373 -13.090  37.813  1.00  0.00     0.128 C 
BRANCH  17  18
HETATM   18  N1  UNL     1       6.369 -13.025  38.827  1.00  0.00    -0.361 N 
HETATM   19  C3  UNL     1       6.615 -14.223  39.588  1.00  0.00     0.217 C 
HETATM   20  O1  UNL     1       5.974 -15.290  39.365  1.00  0.00    -0.274 OA
ATOM     21  H1  UNL     1       6.887 -12.166  39.007  1.00  0.00     0.162 HD
BRANCH  19  22
HETATM   22  C2  UNL     1       7.633 -14.239  40.660  1.00  0.00     0.098 C 
HETATM   23  C1  UNL     1       7.029 -14.675  41.963  1.00  0.00     0.014 C 
ENDBRANCH  19  22
ENDBRANCH  17  18
ENDBRANCH  16  17
ENDBRANCH  15  16
ENDBRANCH  13  15
ENDBRANCH   1  13
BRANCH  10  24
HETATM   24  N6  UNL     1       0.658  -9.456  36.918  1.00  0.00    -0.366 N 
HETATM   25  C17 UNL     1      -0.414  -8.538  36.992  1.00  0.00     0.124 C 
HETATM   26  C18 UNL     1      -1.659  -9.276  37.479  1.00  0.00     0.020 C 
HETATM   27  C19 UNL     1      -1.289 -10.184  38.600  1.00  0.00     0.007 C 
HETATM   28  C20 UNL     1       0.002  -9.743  39.246  1.00  0.00    -0.001 C 
HETATM   29  C21 UNL     1       0.339 -10.618  40.445  1.00  0.00     0.011 C 
HETATM   30  C22 UNL     1       1.112  -9.932  38.256  1.00  0.00     0.128 C 
ENDBRANCH  10  24
BRANCH   9  31
HETATM   31  C11 UNL     1       2.345  -9.765  31.118  1.00  0.00     0.110 C 
HETATM   32  C12 UNL     1       2.863  -8.529  30.416  1.00  0.00     0.027 C 
HETATM   33  C13 UNL     1       3.233  -9.131  29.052  1.00  0.00     0.002 C 
HETATM   34  C14 UNL     1       2.255 -10.267  28.836  1.00  0.00     0.002 C 
HETATM   35  C15 UNL     1       1.396 -10.320  30.110  1.00  0.00     0.027 C 
ENDBRANCH   9  31
TORSDOF 8
ENDMDL
MODEL 5
REMARK VINA RESULT: -8.796415834      1.344      5.735
REMARK  8 active torsions:
REMARK  status: ('A' for Active; 'I' for Inactive)
REMARK    1  A    between atoms: C2_2  and  C3_3 
REMARK       I    between atoms: C3_3  and  N1_5 
REMARK    2  A    between atoms: N1_5  and  C4_7 
REMARK    3  A    between atoms: C4_7  and  C5_8 
REMARK    4  A    between atoms: C5_8  and  C6_9 
REMARK    5  A    between atoms: C6_9  and  N2_10 
REMARK    6  A    between atoms: N2_10  and  C7_12 
REMARK    7  A    between atoms: N5_20  and  C11_21 
REMARK    8  A    between atoms: C16_26  and  N6_27 
ROOT
HETATM    1  C7  UNL     1       0.154  -9.995  36.182  1.00  0.00     0.685 A 
HETATM    2  N3  UNL     1       1.070 -10.977  36.277  1.00  0.00    -0.174 N 
ATOM      3  H3  UNL     1       1.512 -11.309  35.420  1.00  0.00     0.186 HD
HETATM    4  C8  UNL     1       1.431 -11.541  37.434  1.00  0.00     0.153 A 
HETATM    5  C9  UNL     1       0.842 -11.108  38.629  1.00  0.00     0.071 A 
HETATM    6  C10 UNL     1       1.419 -11.850  39.608  1.00  0.00     0.126 A 
HETATM    7  N4  UNL     1       2.304 -12.680  39.014  1.00  0.00    -0.307 N 
ATOM      8  H4  UNL     1       2.882 -13.354  39.515  1.00  0.00     0.186 HD
HETATM    9  N5  UNL     1       2.327 -12.515  37.735  1.00  0.00    -0.271 N 
HETATM   10  C16 UNL     1      -0.099 -10.106  38.566  1.00  0.00     0.134 A 
HETATM   11  N7  UNL     1      -0.394  -9.599  37.326  1.00  0.00    -0.175 N 
ATOM     12  H7  UNL     1      -1.092  -8.857  37.278  1.00  0.00     0.186 HD
ENDROOT
BRANCH   1  13
HETATM   13  N2  UNL     1      -0.154  -9.488  35.032  1.00  0.00    -0.205 N 
ATOM     14  H2  UNL     1      -0.917  -9.953  34.541  1.00  0.00     0.183 HD
BRANCH  13  15
HETATM   15  C6  UNL     1       0.410  -8.391  34.361  1.00  0.00     0.080 C 
BRANCH  15  16
HETATM   16  C5  UNL     1       1.425  -8.673  33.306  1.00  0.00     0.065 C 
BRANCH  16  17
HETATM   17  C4  UNL     1       1.347 -10.041  32.708  1.00  0.00     0.128 C 
BRANCH  17  18
HETATM   18  N1  UNL     1       0.804 -10.133  31.396  1.00  0.00    -0.361 N 
HETATM   19  C3  UNL     1       1.679 -10.598  30.350  1.00  0.00     0.217 C 
HETATM   20  O1  UNL     1       2.880 -10.913  30.586  1.00  0.00    -0.274 OA
ATOM     21  H1  UNL     1      -0.165  -9.880  31.204  1.00  0.00     0.162 HD
BRANCH  19  22
HETATM   22  C2  UNL     1       1.192 -10.723  28.960  1.00  0.00     0.098 C 
HETATM   23  C1  UNL     1       1.977  -9.836  28.039  1.00  0.00     0.014 C 
ENDBRANCH  19  22
ENDBRANCH  17  18
ENDBRANCH  16  17
ENDBRANCH  15  16
ENDBRANCH  13  15
ENDBRANCH   1  13
BRANCH  10  24
HETATM   24  N6  UNL     1      -0.773  -9.657  39.700  1.00  0.00    -0.366 N 
HETATM   25  C17 UNL     1      -0.792 -10.098  41.042  1.00  0.00     0.124 C 
HETATM   26  C18 UNL     1      -0.085  -9.059  41.909  1.00  0.00     0.020 C 
HETATM   27  C19 UNL     1      -0.517  -7.694  41.498  1.00  0.00     0.007 C 
HETATM   28  C20 UNL     1      -1.838  -7.745  40.768  1.00  0.00    -0.001 C 
HETATM   29  C21 UNL     1      -2.324  -6.346  40.420  1.00  0.00     0.011 C 
HETATM   30  C22 UNL     1      -1.630  -8.460  39.467  1.00  0.00     0.128 C 
ENDBRANCH  10  24
BRANCH   9  31
HETATM   31  C11 UNL     1       3.142 -13.220  36.775  1.00  0.00     0.110 C 
HETATM   32  C12 UNL     1       2.867 -14.708  36.770  1.00  0.00     0.027 C 
HETATM   33  C13 UNL     1       3.991 -15.186  35.838  1.00  0.00     0.002 C 
HETATM   34  C14 UNL     1       5.133 -14.215  36.057  1.00  0.00     0.002 C 
HETATM   35  C15 UNL     1       4.606 -13.176  37.060  1.00  0.00     0.027 C 
ENDBRANCH   9  31
TORSDOF 8
ENDMDL
