MODEL 1
REMARK VINA RESULT: -9.351200441      0.000      0.000
REMARK  7 active torsions:
REMARK  status: ('A' for Active; 'I' for Inactive)
REMARK       I    between atoms: C1_2  and  N1_3 
REMARK    1  A    between atoms: C1_2  and  C13_27 
REMARK    2  A    between atoms: N1_3  and  C2_5 
REMARK    3  A    between atoms: N2_8  and  C5_9 
REMARK    4  A    between atoms: C7_15  and  C8_16 
REMARK    5  A    between atoms: C13_27  and  C14_28 
REMARK    6  A    between atoms: C13_27  and  C20_34 
REMARK    7  A    between atoms: C14_28  and  C15_29 
ROOT
HETATM    1  C2  UNL     1       1.004  -9.874  35.198  1.00  0.00     0.087 C 
HETATM    2  C3  UNL     1       1.316  -8.476  34.738  1.00  0.00     0.045 C 
HETATM    3  C4  UNL     1       1.180  -8.280  33.263  1.00  0.00     0.143 C 
HETATM    4  N2  UNL     1       1.370  -9.454  32.476  1.00  0.00    -0.217 N 
HETATM    5  C11 UNL     1       1.024 -10.788  32.944  1.00  0.00     0.143 C 
HETATM    6  C12 UNL     1       1.618 -10.932  34.326  1.00  0.00     0.045 C 
ENDROOT
BRANCH   4   7
HETATM    7  C5  UNL     1       1.922  -9.334  31.176  1.00  0.00     0.682 A 
HETATM    8  N3  UNL     1       3.013  -8.605  30.953  1.00  0.00    -0.188 N 
HETATM    9  C6  UNL     1       3.517  -8.506  29.720  1.00  0.00     0.199 A 
ATOM     10  H3  UNL     1       3.468  -8.121  31.728  1.00  0.00     0.185 HD
HETATM   11  N4  UNL     1       2.916  -9.146  28.697  1.00  0.00    -0.337 N 
HETATM   12  C7  UNL     1       1.814  -9.889  28.890  1.00  0.00     0.135 A 
ATOM     13  H4  UNL     1       3.307  -9.065  27.758  1.00  0.00     0.168 HD
HETATM   14  N7  UNL     1       1.337  -9.966  30.140  1.00  0.00    -0.176 N 
ATOM     15  H7  UNL     1       0.500 -10.524  30.313  1.00  0.00     0.186 HD
BRANCH  12  16
HETATM   16  C8  UNL     1       1.179 -10.574  27.772  1.00  0.00     0.042 A 
HETATM   17  C9  UNL     1      -0.164 -10.753  27.522  1.00  0.00     0.123 A 
HETATM   18  N5  UNL     1      -0.344 -11.440  26.383  1.00  0.00    -0.311 N 
HETATM   19  N6  UNL     1       0.871 -11.707  25.894  1.00  0.00    -0.311 N 
ATOM     20  H5  UNL     1      -1.237 -11.707  25.970  1.00  0.00     0.186 HD
HETATM   21  C10 UNL     1       1.818 -11.196  26.712  1.00  0.00     0.123 A 
ATOM     22  H6  UNL     1       1.056 -12.220  25.031  1.00  0.00     0.186 HD
ENDBRANCH  12  16
ENDBRANCH   4   7
BRANCH   1  23
HETATM   23  N1  UNL     1       1.399 -10.016  36.567  1.00  0.00    -0.356 N 
HETATM   24  C1  UNL     1       0.638 -10.740  37.481  1.00  0.00     0.226 C 
HETATM   25  O1  UNL     1      -0.444 -11.298  37.077  1.00  0.00    -0.273 OA
ATOM     26  H1  UNL     1       2.263  -9.573  36.881  1.00  0.00     0.162 HD
BRANCH  24  27
HETATM   27  C13 UNL     1       0.932 -10.954  38.927  1.00  0.00     0.104 C 
BRANCH  27  28
HETATM   28  C14 UNL     1       0.584  -9.717  39.630  1.00  0.00    -0.010 C 
BRANCH  28  29
HETATM   29  C15 UNL     1      -0.765  -9.309  39.989  1.00  0.00    -0.083 C 
HETATM   30  C16 UNL     1      -1.013  -8.910  41.411  1.00  0.00     0.034 C 
HETATM   31  C17 UNL     1      -1.367  -7.417  41.266  1.00  0.00     0.005 C 
HETATM   32  C18 UNL     1      -2.004  -7.291  39.921  1.00  0.00     0.005 C 
HETATM   33  C19 UNL     1      -1.520  -8.407  39.072  1.00  0.00     0.034 C 
ENDBRANCH  28  29
ENDBRANCH  27  28
BRANCH  27  34
HETATM   34  C20 UNL     1       2.295 -11.490  39.040  1.00  0.00     0.002 A 
HETATM   35  C21 UNL     1       2.535 -12.923  39.558  1.00  0.00     0.006 A 
HETATM   36  C22 UNL     1       2.667 -12.663  38.113  1.00  0.00     0.006 A 
ENDBRANCH  27  34
ENDBRANCH  24  27
ENDBRANCH   1  23
TORSDOF 7
ENDMDL
MODEL 2
REMARK VINA RESULT: -9.190148317      0.762      3.397
REMARK  7 active torsions:
REMARK  status: ('A' for Active; 'I' for Inactive)
REMARK       I    between atoms: C1_2  and  N1_3 
REMARK    1  A    between atoms: C1_2  and  C13_27 
REMARK    2  A    between atoms: N1_3  and  C2_5 
REMARK    3  A    between atoms: N2_8  and  C5_9 
REMARK    4  A    between atoms: C7_15  and  C8_16 
REMARK    5  A    between atoms: C13_27  and  C14_28 
REMARK    6  A    between atoms: C13_27  and  C20_34 
REMARK    7  A    between atoms: C14_28  and  C15_29 
ROOT
HETATM    1  C2  UNL     1       0.957  -9.833  35.334  1.00  0.00     0.087 C 
HETATM    2  C3  UNL     1       1.165  -8.444  34.794  1.00  0.00     0.045 C 
HETATM    3  C4  UNL     1       1.055  -8.351  33.306  1.00  0.00     0.143 C 
HETATM    4  N2  UNL     1       1.364  -9.551  32.600  1.00  0.00    -0.217 N 
HETATM    5  C11 UNL     1       1.116 -10.878  33.143  1.00  0.00     0.143 C 
HETATM    6  C12 UNL     1       1.681 -10.886  34.545  1.00  0.00     0.045 C 
ENDROOT
BRANCH   4   7
HETATM    7  C5  UNL     1       1.941  -9.464  31.308  1.00  0.00     0.682 A 
HETATM    8  N3  UNL     1       3.104  -8.847  31.110  1.00  0.00    -0.188 N 
HETATM    9  C6  UNL     1       3.629  -8.777  29.884  1.00  0.00     0.199 A 
ATOM     10  H3  UNL     1       3.596  -8.426  31.899  1.00  0.00     0.185 HD
HETATM   11  N4  UNL     1       2.978  -9.334  28.843  1.00  0.00    -0.337 N 
HETATM   12  C7  UNL     1       1.803  -9.963  29.011  1.00  0.00     0.135 A 
ATOM     13  H4  UNL     1       3.386  -9.276  27.910  1.00  0.00     0.168 HD
HETATM   14  N7  UNL     1       1.306 -10.013  30.255  1.00  0.00    -0.176 N 
ATOM     15  H7  UNL     1       0.415 -10.485  30.408  1.00  0.00     0.186 HD
BRANCH  12  16
HETATM   16  C8  UNL     1       1.115 -10.559  27.873  1.00  0.00     0.042 A 
HETATM   17  C9  UNL     1      -0.234 -10.578  27.598  1.00  0.00     0.123 A 
HETATM   18  N5  UNL     1      -0.471 -11.228  26.447  1.00  0.00    -0.311 N 
HETATM   19  N6  UNL     1       0.714 -11.628  25.976  1.00  0.00    -0.311 N 
ATOM     20  H5  UNL     1      -1.381 -11.386  26.015  1.00  0.00     0.186 HD
HETATM   21  C10 UNL     1       1.698 -11.239  26.817  1.00  0.00     0.123 A 
ATOM     22  H6  UNL     1       0.855 -12.150  25.111  1.00  0.00     0.186 HD
ENDBRANCH  12  16
ENDBRANCH   4   7
BRANCH   1  23
HETATM   23  N1  UNL     1       1.323  -9.856  36.718  1.00  0.00    -0.356 N 
HETATM   24  C1  UNL     1       0.561 -10.530  37.669  1.00  0.00     0.226 C 
HETATM   25  O1  UNL     1      -0.495 -11.150  37.287  1.00  0.00    -0.273 OA
ATOM     26  H1  UNL     1       2.166  -9.365  37.015  1.00  0.00     0.162 HD
BRANCH  24  27
HETATM   27  C13 UNL     1       0.827 -10.622  39.134  1.00  0.00     0.104 C 
BRANCH  27  28
HETATM   28  C14 UNL     1       1.484 -11.909  39.376  1.00  0.00    -0.010 C 
BRANCH  28  29
HETATM   29  C15 UNL     1       2.344 -12.602  38.431  1.00  0.00    -0.083 C 
HETATM   30  C16 UNL     1       3.824 -12.435  38.590  1.00  0.00     0.034 C 
HETATM   31  C17 UNL     1       4.269 -13.866  38.950  1.00  0.00     0.005 C 
HETATM   32  C18 UNL     1       3.291 -14.767  38.269  1.00  0.00     0.005 C 
HETATM   33  C19 UNL     1       2.031 -14.013  38.063  1.00  0.00     0.034 C 
ENDBRANCH  28  29
ENDBRANCH  27  28
BRANCH  27  34
HETATM   34  C20 UNL     1      -0.419 -10.301  39.843  1.00  0.00     0.002 A 
HETATM   35  C21 UNL     1      -0.385  -9.526  41.176  1.00  0.00     0.006 A 
HETATM   36  C22 UNL     1      -0.799  -8.812  39.954  1.00  0.00     0.006 A 
ENDBRANCH  27  34
ENDBRANCH  24  27
ENDBRANCH   1  23
TORSDOF 7
ENDMDL
MODEL 3
REMARK VINA RESULT: -8.824446064      1.126      1.531
REMARK  7 active torsions:
REMARK  status: ('A' for Active; 'I' for Inactive)
REMARK       I    between atoms: C1_2  and  N1_3 
REMARK    1  A    between atoms: C1_2  and  C13_27 
REMARK    2  A    between atoms: N1_3  and  C2_5 
REMARK    3  A    between atoms: N2_8  and  C5_9 
REMARK    4  A    between atoms: C7_15  and  C8_16 
REMARK    5  A    between atoms: C13_27  and  C14_28 
REMARK    6  A    between atoms: C13_27  and  C20_34 
REMARK    7  A    between atoms: C14_28  and  C15_29 
ROOT
HETATM    1  C2  UNL     1       1.612 -10.130  34.725  1.00  0.00     0.087 C 
HETATM    2  C3  UNL     1       2.872 -10.826  34.290  1.00  0.00     0.045 C 
HETATM    3  C4  UNL     1       3.512 -10.221  33.084  1.00  0.00     0.143 C 
HETATM    4  N2  UNL     1       2.623  -9.532  32.207  1.00  0.00    -0.217 N 
HETATM    5  C11 UNL     1       1.430  -8.839  32.671  1.00  0.00     0.143 C 
HETATM    6  C12 UNL     1       0.697  -9.799  33.580  1.00  0.00     0.045 C 
ENDROOT
BRANCH   4   7
HETATM    7  C5  UNL     1       2.899  -9.512  30.817  1.00  0.00     0.682 A 
HETATM    8  N3  UNL     1       4.027  -8.988  30.344  1.00  0.00    -0.188 N 
HETATM    9  C6  UNL     1       4.268  -8.979  29.030  1.00  0.00     0.199 A 
ATOM     10  H3  UNL     1       4.712  -8.592  30.988  1.00  0.00     0.185 HD
HETATM   11  N4  UNL     1       3.362  -9.503  28.180  1.00  0.00    -0.337 N 
HETATM   12  C7  UNL     1       2.214 -10.039  28.627  1.00  0.00     0.135 A 
ATOM     13  H4  UNL     1       3.552  -9.493  27.177  1.00  0.00     0.168 HD
HETATM   14  N7  UNL     1       2.007 -10.030  29.951  1.00  0.00    -0.176 N 
ATOM     15  H7  UNL     1       1.142 -10.431  30.315  1.00  0.00     0.186 HD
BRANCH  12  16
HETATM   16  C8  UNL     1       1.248 -10.601  27.692  1.00  0.00     0.042 A 
HETATM   17  C9  UNL     1      -0.128 -10.570  27.754  1.00  0.00     0.123 A 
HETATM   18  N5  UNL     1      -0.661 -11.202  26.697  1.00  0.00    -0.311 N 
HETATM   19  N6  UNL     1       0.357 -11.640  25.951  1.00  0.00    -0.311 N 
ATOM     20  H5  UNL     1      -1.655 -11.324  26.500  1.00  0.00     0.186 HD
HETATM   21  C10 UNL     1       1.530 -11.293  26.526  1.00  0.00     0.123 A 
ATOM     22  H6  UNL     1       0.264 -12.160  25.078  1.00  0.00     0.186 HD
ENDBRANCH  12  16
ENDBRANCH   4   7
BRANCH   1  23
HETATM   23  N1  UNL     1       0.956 -10.925  35.719  1.00  0.00    -0.356 N 
HETATM   24  C1  UNL     1       0.900 -10.534  37.054  1.00  0.00     0.226 C 
HETATM   25  O1  UNL     1       1.447  -9.425  37.396  1.00  0.00    -0.273 OA
ATOM     26  H1  UNL     1       0.519 -11.803  35.441  1.00  0.00     0.162 HD
BRANCH  24  27
HETATM   27  C13 UNL     1       0.260 -11.271  38.182  1.00  0.00     0.104 C 
BRANCH  27  28
HETATM   28  C14 UNL     1      -0.614 -10.326  38.880  1.00  0.00    -0.010 C 
BRANCH  28  29
HETATM   29  C15 UNL     1      -0.236  -9.536  40.041  1.00  0.00    -0.083 C 
HETATM   30  C16 UNL     1      -0.616  -8.087  40.047  1.00  0.00     0.034 C 
HETATM   31  C17 UNL     1      -1.614  -8.024  41.219  1.00  0.00     0.005 C 
HETATM   32  C18 UNL     1      -1.175  -9.089  42.169  1.00  0.00     0.005 C 
HETATM   33  C19 UNL     1      -0.422 -10.113  41.403  1.00  0.00     0.034 C 
ENDBRANCH  28  29
ENDBRANCH  27  28
BRANCH  27  34
HETATM   34  C20 UNL     1       1.318 -11.965  38.928  1.00  0.00     0.002 A 
HETATM   35  C21 UNL     1       1.571 -13.472  38.713  1.00  0.00     0.006 A 
HETATM   36  C22 UNL     1       2.511 -12.505  38.118  1.00  0.00     0.006 A 
ENDBRANCH  27  34
ENDBRANCH  24  27
ENDBRANCH   1  23
TORSDOF 7
ENDMDL
MODEL 4
REMARK VINA RESULT: -8.730913413      2.876      9.723
REMARK  7 active torsions:
REMARK  status: ('A' for Active; 'I' for Inactive)
REMARK       I    between atoms: C1_2  and  N1_3 
REMARK    1  A    between atoms: C1_2  and  C13_27 
REMARK    2  A    between atoms: N1_3  and  C2_5 
REMARK    3  A    between atoms: N2_8  and  C5_9 
REMARK    4  A    between atoms: C7_15  and  C8_16 
REMARK    5  A    between atoms: C13_27  and  C14_28 
REMARK    6  A    between atoms: C13_27  and  C20_34 
REMARK    7  A    between atoms: C14_28  and  C15_29 
ROOT
HETATM    1  C2  UNL     1       0.696  -8.339  34.117  1.00  0.00     0.087 C 
HETATM    2  C3  UNL     1      -0.343  -9.390  34.401  1.00  0.00     0.045 C 
HETATM    3  C4  UNL     1      -0.544  -9.663  35.856  1.00  0.00     0.143 C 
HETATM    4  N2  UNL     1       0.585  -9.393  36.685  1.00  0.00    -0.217 N 
HETATM    5  C11 UNL     1       1.550  -8.343  36.394  1.00  0.00     0.143 C 
HETATM    6  C12 UNL     1       1.940  -8.501  34.942  1.00  0.00     0.045 C 
ENDROOT
BRANCH   4   7
HETATM    7  C5  UNL     1       0.791 -10.174  37.849  1.00  0.00     0.682 A 
HETATM    8  N3  UNL     1       0.175  -9.886  38.993  1.00  0.00    -0.188 N 
HETATM    9  C6  UNL     1       0.384 -10.636  40.079  1.00  0.00     0.199 A 
ATOM     10  H3  UNL     1      -0.461  -9.089  39.040  1.00  0.00     0.185 HD
HETATM   11  N4  UNL     1       1.223 -11.689  40.015  1.00  0.00    -0.337 N 
HETATM   12  C7  UNL     1       1.860 -12.004  38.875  1.00  0.00     0.135 A 
ATOM     13  H4  UNL     1       1.378 -12.257  40.848  1.00  0.00     0.168 HD
HETATM   14  N7  UNL     1       1.627 -11.230  37.806  1.00  0.00    -0.176 N 
ATOM     15  H7  UNL     1       2.099 -11.449  36.929  1.00  0.00     0.186 HD
BRANCH  12  16
HETATM   16  C8  UNL     1       2.764 -13.147  38.826  1.00  0.00     0.042 A 
HETATM   17  C9  UNL     1       2.494 -14.441  38.437  1.00  0.00     0.123 A 
HETATM   18  N5  UNL     1       3.596 -15.201  38.534  1.00  0.00    -0.311 N 
HETATM   19  N6  UNL     1       4.576 -14.410  38.980  1.00  0.00    -0.311 N 
ATOM     20  H5  UNL     1       3.671 -16.193  38.308  1.00  0.00     0.186 HD
HETATM   21  C10 UNL     1       4.105 -13.157  39.169  1.00  0.00     0.123 A 
ATOM     22  H6  UNL     1       5.537 -14.707  39.154  1.00  0.00     0.186 HD
ENDBRANCH  12  16
ENDBRANCH   4   7
BRANCH   1  23
HETATM   23  N1  UNL     1       0.983  -8.332  32.714  1.00  0.00    -0.356 N 
HETATM   24  C1  UNL     1       1.505  -9.449  32.065  1.00  0.00     0.226 C 
HETATM   25  O1  UNL     1       1.727 -10.511  32.748  1.00  0.00    -0.273 OA
ATOM     26  H1  UNL     1       0.800  -7.486  32.175  1.00  0.00     0.162 HD
BRANCH  24  27
HETATM   27  C13 UNL     1       1.855  -9.568  30.621  1.00  0.00     0.104 C 
BRANCH  27  28
HETATM   28  C14 UNL     1       1.320 -10.846  30.147  1.00  0.00    -0.010 C 
BRANCH  28  29
HETATM   29  C15 UNL     1       0.924 -11.133  28.778  1.00  0.00    -0.083 C 
HETATM   30  C16 UNL     1       0.404  -9.996  27.954  1.00  0.00     0.034 C 
HETATM   31  C17 UNL     1       1.483  -9.873  26.861  1.00  0.00     0.005 C 
HETATM   32  C18 UNL     1       2.022 -11.255  26.683  1.00  0.00     0.005 C 
HETATM   33  C19 UNL     1       1.792 -12.009  27.939  1.00  0.00     0.034 C 
ENDBRANCH  28  29
ENDBRANCH  27  28
BRANCH  27  34
HETATM   34  C20 UNL     1       3.290  -9.286  30.476  1.00  0.00     0.002 A 
HETATM   35  C21 UNL     1       3.879  -8.901  29.103  1.00  0.00     0.006 A 
HETATM   36  C22 UNL     1       3.688  -7.844  30.112  1.00  0.00     0.006 A 
ENDBRANCH  27  34
ENDBRANCH  24  27
ENDBRANCH   1  23
TORSDOF 7
ENDMDL
MODEL 5
REMARK VINA RESULT: -8.551056147      0.747      1.145
REMARK  7 active torsions:
REMARK  status: ('A' for Active; 'I' for Inactive)
REMARK       I    between atoms: C1_2  and  N1_3 
REMARK    1  A    between atoms: C1_2  and  C13_27 
REMARK    2  A    between atoms: N1_3  and  C2_5 
REMARK    3  A    between atoms: N2_8  and  C5_9 
REMARK    4  A    between atoms: C7_15  and  C8_16 
REMARK    5  A    between atoms: C13_27  and  C14_28 
REMARK    6  A    between atoms: C13_27  and  C20_34 
REMARK    7  A    between atoms: C14_28  and  C15_29 
ROOT
HETATM    1  C2  UNL     1       0.842 -10.429  35.356  1.00  0.00     0.087 C 
HETATM    2  C3  UNL     1       0.971  -8.975  34.993  1.00  0.00     0.045 C 
HETATM    3  C4  UNL     1       0.844  -8.704  33.529  1.00  0.00     0.143 C 
HETATM    4  N2  UNL     1       1.211  -9.789  32.678  1.00  0.00    -0.217 N 
HETATM    5  C11 UNL     1       1.038 -11.185  33.052  1.00  0.00     0.143 C 
HETATM    6  C12 UNL     1       1.614 -11.337  34.441  1.00  0.00     0.045 C 
ENDROOT
BRANCH   4   7
HETATM    7  C5  UNL     1       1.771  -9.512  31.406  1.00  0.00     0.682 A 
HETATM    8  N3  UNL     1       2.766  -8.639  31.264  1.00  0.00    -0.188 N 
HETATM    9  C6  UNL     1       3.280  -8.392  30.056  1.00  0.00     0.199 A 
ATOM     10  H3  UNL     1       3.138  -8.156  32.083  1.00  0.00     0.185 HD
HETATM   11  N4  UNL     1       2.787  -9.031  28.975  1.00  0.00    -0.337 N 
HETATM   12  C7  UNL     1       1.784  -9.917  29.087  1.00  0.00     0.135 A 
ATOM     13  H4  UNL     1       3.185  -8.838  28.056  1.00  0.00     0.168 HD
HETATM   14  N7  UNL     1       1.293 -10.139  30.314  1.00  0.00    -0.176 N 
ATOM     15  H7  UNL     1       0.530 -10.807  30.424  1.00  0.00     0.186 HD
BRANCH  12  16
HETATM   16  C8  UNL     1       1.266 -10.598  27.907  1.00  0.00     0.042 A 
HETATM   17  C9  UNL     1      -0.045 -10.761  27.514  1.00  0.00     0.123 A 
HETATM   18  N5  UNL     1      -0.109 -11.448  26.363  1.00  0.00    -0.311 N 
HETATM   19  N6  UNL     1       1.148 -11.731  26.008  1.00  0.00    -0.311 N 
ATOM     20  H5  UNL     1      -0.956 -11.706  25.856  1.00  0.00     0.186 HD
HETATM   21  C10 UNL     1       2.007 -11.229  26.923  1.00  0.00     0.123 A 
ATOM     22  H6  UNL     1       1.420 -12.248  25.171  1.00  0.00     0.186 HD
ENDBRANCH  12  16
ENDBRANCH   4   7
BRANCH   1  23
HETATM   23  N1  UNL     1       1.221 -10.605  36.726  1.00  0.00    -0.356 N 
HETATM   24  C1  UNL     1       0.951 -11.783  37.419  1.00  0.00     0.226 C 
HETATM   25  O1  UNL     1       0.350 -12.736  36.804  1.00  0.00    -0.273 OA
ATOM     26  H1  UNL     1       1.702  -9.846  37.208  1.00  0.00     0.162 HD
BRANCH  24  27
HETATM   27  C13 UNL     1       1.282 -12.086  38.840  1.00  0.00     0.104 C 
BRANCH  27  28
HETATM   28  C14 UNL     1       0.287 -11.406  39.673  1.00  0.00    -0.010 C 
BRANCH  28  29
HETATM   29  C15 UNL     1       0.395 -10.041  40.160  1.00  0.00    -0.083 C 
HETATM   30  C16 UNL     1      -0.061  -8.942  39.250  1.00  0.00     0.034 C 
HETATM   31  C17 UNL     1      -1.263  -8.366  40.024  1.00  0.00     0.005 C 
HETATM   32  C18 UNL     1      -0.948  -8.592  41.467  1.00  0.00     0.005 C 
HETATM   33  C19 UNL     1      -0.008  -9.735  41.563  1.00  0.00     0.034 C 
ENDBRANCH  28  29
ENDBRANCH  27  28
BRANCH  27  34
HETATM   34  C20 UNL     1       2.709 -11.807  39.044  1.00  0.00     0.002 A 
HETATM   35  C21 UNL     1       3.665 -12.917  39.530  1.00  0.00     0.006 A 
HETATM   36  C22 UNL     1       3.704 -12.521  38.111  1.00  0.00     0.006 A 
ENDBRANCH  27  34
ENDBRANCH  24  27
ENDBRANCH   1  23
TORSDOF 7
ENDMDL
