MODEL 1
REMARK VINA RESULT: -8.219689876      0.000      0.000
REMARK  10 active torsions:
REMARK  status: ('A' for Active; 'I' for Inactive)
REMARK    1  A    between atoms: C2_2  and  C4_4 
REMARK    2  A    between atoms: C4_4  and  C5_5 
REMARK    3  A    between atoms: C5_5  and  C6_6 
REMARK    4  A    between atoms: C6_6  and  O2_8 
REMARK    5  A    between atoms: O2_8  and  C7_9 
REMARK    6  A    between atoms: C9_11  and  O3_12 
REMARK    7  A    between atoms: C16_21  and  C17_22 
REMARK    8  A    between atoms: C17_22  and  O6_24 
REMARK    9  A    between atoms: O6_24  and  C18_25 
REMARK   10  A    between atoms: C21_28  and  O7_29 
ROOT
HETATM    1  C7  UNL     1      17.659  10.954   1.734  1.00  0.00     0.145 C 
HETATM    2  C8  UNL     1      17.330  11.536   0.398  1.00  0.00     0.066 C 
HETATM    3  C9  UNL     1      16.901  10.409  -0.501  1.00  0.00     0.128 C 
HETATM    4  C10 UNL     1      15.580   9.921   0.018  1.00  0.00    -0.017 C 
HETATM    5  C11 UNL     1      14.540  10.977  -0.295  1.00  0.00     0.018 C 
HETATM    6  C12 UNL     1      15.196   8.725  -0.872  1.00  0.00     0.018 C 
HETATM    7  C13 UNL     1      15.597   9.501   1.448  1.00  0.00     0.016 C 
HETATM    8  C14 UNL     1      14.132   9.548   1.919  1.00  0.00     0.085 C 
HETATM    9  C15 UNL     1      14.155   9.325   3.413  1.00  0.00     0.143 C 
HETATM   10  O4  UNL     1      13.727   8.341   3.945  1.00  0.00    -0.297 OA
HETATM   11  C16 UNL     1      14.773  10.481   4.147  1.00  0.00     0.184 C 
HETATM   12  C21 UNL     1      15.938  11.036   3.421  1.00  0.00     0.150 C 
HETATM   13  C22 UNL     1      16.539  10.141   2.359  1.00  0.00     0.015 C 
HETATM   14  C23 UNL     1      17.304   9.065   3.163  1.00  0.00     0.021 C 
ENDROOT
BRANCH   1  15
HETATM   15  O2  UNL     1      18.859  10.198   1.602  1.00  0.00    -0.315 OA
BRANCH  15  16
HETATM   16  C6  UNL     1      20.127  10.786   1.597  1.00  0.00     0.259 C 
HETATM   17  O1  UNL     1      20.258  11.774   2.356  1.00  0.00    -0.265 OA
BRANCH  16  18
HETATM   18  C5  UNL     1      21.226  10.272   0.756  1.00  0.00     0.111 C 
BRANCH  18  19
HETATM   19  C4  UNL     1      21.355   8.789   0.920  1.00  0.00     0.013 C 
BRANCH  19  20
HETATM   20  C2  UNL     1      22.768   8.328   0.904  1.00  0.00    -0.022 C 
HETATM   21  C1  UNL     1      23.230   8.394  -0.563  1.00  0.00     0.009 C 
HETATM   22  C3  UNL     1      22.910   6.886   1.367  1.00  0.00     0.009 C 
ENDBRANCH  19  20
ENDBRANCH  18  19
ENDBRANCH  16  18
ENDBRANCH  15  16
ENDBRANCH   1  15
BRANCH   3  23
HETATM   23  O3  UNL     1      17.863   9.427  -0.559  1.00  0.00    -0.395 OA
ATOM     24  H3  UNL     1      18.032   9.165  -1.456  1.00  0.00     0.210 HD
ENDBRANCH   3  23
BRANCH  12  25
HETATM   25  O7  UNL     1      15.713  12.342   2.931  1.00  0.00    -0.393 OA
ATOM     26  H7  UNL     1      16.333  12.599   2.259  1.00  0.00     0.210 HD
ENDBRANCH  12  25
BRANCH  11  27
HETATM   27  C17 UNL     1      15.062  10.148   5.565  1.00  0.00     0.273 C 
HETATM   28  O5  UNL     1      16.059   9.416   5.890  1.00  0.00    -0.264 OA
BRANCH  27  29
HETATM   29  O6  UNL     1      14.293  10.594   6.619  1.00  0.00    -0.316 OA
BRANCH  29  30
HETATM   30  C18 UNL     1      13.941   9.750   7.717  1.00  0.00     0.123 C 
HETATM   31  C19 UNL     1      13.387  10.678   8.806  1.00  0.00     0.040 C 
HETATM   32  C20 UNL     1      12.947   8.697   7.364  1.00  0.00     0.040 C 
ENDBRANCH  29  30
ENDBRANCH  27  29
ENDBRANCH  11  27
TORSDOF 10
ENDMDL
MODEL 2
REMARK VINA RESULT: -8.085447545      2.501      5.235
REMARK  10 active torsions:
REMARK  status: ('A' for Active; 'I' for Inactive)
REMARK    1  A    between atoms: C2_2  and  C4_4 
REMARK    2  A    between atoms: C4_4  and  C5_5 
REMARK    3  A    between atoms: C5_5  and  C6_6 
REMARK    4  A    between atoms: C6_6  and  O2_8 
REMARK    5  A    between atoms: O2_8  and  C7_9 
REMARK    6  A    between atoms: C9_11  and  O3_12 
REMARK    7  A    between atoms: C16_21  and  C17_22 
REMARK    8  A    between atoms: C17_22  and  O6_24 
REMARK    9  A    between atoms: O6_24  and  C18_25 
REMARK   10  A    between atoms: C21_28  and  O7_29 
ROOT
HETATM    1  C7  UNL     1      15.428   9.776   0.869  1.00  0.00     0.145 C 
HETATM    2  C8  UNL     1      16.764   9.769   0.200  1.00  0.00     0.066 C 
HETATM    3  C9  UNL     1      17.334  11.158   0.301  1.00  0.00     0.128 C 
HETATM    4  C10 UNL     1      17.654  11.390   1.749  1.00  0.00    -0.017 C 
HETATM    5  C11 UNL     1      18.855  10.537   2.101  1.00  0.00     0.018 C 
HETATM    6  C12 UNL     1      18.168  12.838   1.838  1.00  0.00     0.018 C 
HETATM    7  C13 UNL     1      16.498  11.208   2.672  1.00  0.00     0.016 C 
HETATM    8  C14 UNL     1      17.104  10.967   4.066  1.00  0.00     0.085 C 
HETATM    9  C15 UNL     1      15.959  10.578   4.971  1.00  0.00     0.143 C 
HETATM   10  O4  UNL     1      15.553  11.268   5.863  1.00  0.00    -0.297 OA
HETATM   11  C16 UNL     1      15.395   9.231   4.621  1.00  0.00     0.184 C 
HETATM   12  C21 UNL     1      15.342   9.019   3.157  1.00  0.00     0.150 C 
HETATM   13  C22 UNL     1      15.446  10.266   2.306  1.00  0.00     0.015 C 
HETATM   14  C23 UNL     1      14.064  10.940   2.456  1.00  0.00     0.021 C 
ENDROOT
BRANCH   1  15
HETATM   15  O2  UNL     1      14.533  10.531   0.058  1.00  0.00    -0.315 OA
BRANCH  15  16
HETATM   16  C6  UNL     1      13.651   9.939  -0.851  1.00  0.00     0.259 C 
HETATM   17  O1  UNL     1      12.805   9.166  -0.344  1.00  0.00    -0.265 OA
BRANCH  16  18
HETATM   18  C5  UNL     1      13.720  10.210  -2.300  1.00  0.00     0.111 C 
BRANCH  18  19
HETATM   19  C4  UNL     1      14.347   9.052  -3.015  1.00  0.00     0.013 C 
BRANCH  19  20
HETATM   20  C2  UNL     1      14.019   9.024  -4.464  1.00  0.00    -0.022 C 
HETATM   21  C1  UNL     1      14.972  10.023  -5.145  1.00  0.00     0.009 C 
HETATM   22  C3  UNL     1      12.596   9.483  -4.743  1.00  0.00     0.009 C 
ENDBRANCH  19  20
ENDBRANCH  18  19
ENDBRANCH  16  18
ENDBRANCH  15  16
ENDBRANCH   1  15
BRANCH   3  23
HETATM   23  O3  UNL     1      16.469  12.089  -0.225  1.00  0.00    -0.395 OA
ATOM     24  H3  UNL     1      16.718  12.327  -1.110  1.00  0.00     0.210 HD
ENDBRANCH   3  23
BRANCH  12  25
HETATM   25  O7  UNL     1      16.229   8.012   2.712  1.00  0.00    -0.393 OA
ATOM     26  H7  UNL     1      16.477   8.112   1.800  1.00  0.00     0.210 HD
ENDBRANCH  12  25
BRANCH  11  27
HETATM   27  C17 UNL     1      14.101   8.976   5.304  1.00  0.00     0.273 C 
HETATM   28  O5  UNL     1      13.167   8.308   4.741  1.00  0.00    -0.264 OA
BRANCH  27  29
HETATM   29  O6  UNL     1      13.814   9.431   6.574  1.00  0.00    -0.316 OA
BRANCH  29  30
HETATM   30  C18 UNL     1      13.467   8.546   7.641  1.00  0.00     0.123 C 
HETATM   31  C19 UNL     1      14.692   7.649   7.865  1.00  0.00     0.040 C 
HETATM   32  C20 UNL     1      13.089   9.249   8.899  1.00  0.00     0.040 C 
ENDBRANCH  29  30
ENDBRANCH  27  29
ENDBRANCH  11  27
TORSDOF 10
ENDMDL
MODEL 3
REMARK VINA RESULT: -8.050345686      1.282      1.678
REMARK  10 active torsions:
REMARK  status: ('A' for Active; 'I' for Inactive)
REMARK    1  A    between atoms: C2_2  and  C4_4 
REMARK    2  A    between atoms: C4_4  and  C5_5 
REMARK    3  A    between atoms: C5_5  and  C6_6 
REMARK    4  A    between atoms: C6_6  and  O2_8 
REMARK    5  A    between atoms: O2_8  and  C7_9 
REMARK    6  A    between atoms: C9_11  and  O3_12 
REMARK    7  A    between atoms: C16_21  and  C17_22 
REMARK    8  A    between atoms: C17_22  and  O6_24 
REMARK    9  A    between atoms: O6_24  and  C18_25 
REMARK   10  A    between atoms: C21_28  and  O7_29 
ROOT
HETATM    1  C7  UNL     1      17.170  10.932   1.835  1.00  0.00     0.145 C 
HETATM    2  C8  UNL     1      16.704  11.450   0.513  1.00  0.00     0.066 C 
HETATM    3  C9  UNL     1      16.295  10.269  -0.325  1.00  0.00     0.128 C 
HETATM    4  C10 UNL     1      15.054   9.703   0.301  1.00  0.00    -0.017 C 
HETATM    5  C11 UNL     1      13.920  10.673   0.041  1.00  0.00     0.018 C 
HETATM    6  C12 UNL     1      14.696   8.458  -0.529  1.00  0.00     0.018 C 
HETATM    7  C13 UNL     1      15.205   9.327   1.735  1.00  0.00     0.016 C 
HETATM    8  C14 UNL     1      13.778   9.283   2.313  1.00  0.00     0.085 C 
HETATM    9  C15 UNL     1      13.924   9.106   3.806  1.00  0.00     0.143 C 
HETATM   10  O4  UNL     1      13.609   8.109   4.390  1.00  0.00    -0.297 OA
HETATM   11  C16 UNL     1      14.507  10.323   4.464  1.00  0.00     0.184 C 
HETATM   12  C21 UNL     1      15.573  10.939   3.641  1.00  0.00     0.150 C 
HETATM   13  C22 UNL     1      16.160  10.059   2.559  1.00  0.00     0.015 C 
HETATM   14  C23 UNL     1      17.057   9.064   3.330  1.00  0.00     0.021 C 
ENDROOT
BRANCH   1  15
HETATM   15  O2  UNL     1      18.410  10.259   1.632  1.00  0.00    -0.315 OA
BRANCH  15  16
HETATM   16  C6  UNL     1      19.647  10.887   1.799  1.00  0.00     0.259 C 
HETATM   17  O1  UNL     1      19.596  12.129   1.955  1.00  0.00    -0.265 OA
BRANCH  16  18
HETATM   18  C5  UNL     1      20.916  10.133   1.791  1.00  0.00     0.111 C 
BRANCH  18  19
HETATM   19  C4  UNL     1      20.916   9.106   2.882  1.00  0.00     0.013 C 
BRANCH  19  20
HETATM   20  C2  UNL     1      20.913   9.708   4.240  1.00  0.00    -0.022 C 
HETATM   21  C1  UNL     1      22.389   9.896   4.635  1.00  0.00     0.009 C 
HETATM   22  C3  UNL     1      20.273   8.795   5.275  1.00  0.00     0.009 C 
ENDBRANCH  19  20
ENDBRANCH  18  19
ENDBRANCH  16  18
ENDBRANCH  15  16
ENDBRANCH   1  15
BRANCH   3  23
HETATM   23  O3  UNL     1      17.320   9.357  -0.430  1.00  0.00    -0.395 OA
ATOM     24  H3  UNL     1      17.064   8.614  -0.963  1.00  0.00     0.210 HD
ENDBRANCH   3  23
BRANCH  12  25
HETATM   25  O7  UNL     1      15.218  12.211   3.139  1.00  0.00    -0.393 OA
ATOM     26  H7  UNL     1      15.734  12.915   3.513  1.00  0.00     0.210 HD
ENDBRANCH  12  25
BRANCH  11  27
HETATM   27  C17 UNL     1      14.921  10.052   5.865  1.00  0.00     0.273 C 
HETATM   28  O5  UNL     1      15.943   9.332   6.133  1.00  0.00    -0.264 OA
BRANCH  27  29
HETATM   29  O6  UNL     1      14.249  10.549   6.962  1.00  0.00    -0.316 OA
BRANCH  29  30
HETATM   30  C18 UNL     1      13.872   9.721   8.064  1.00  0.00     0.123 C 
HETATM   31  C19 UNL     1      13.289  10.664   9.125  1.00  0.00     0.040 C 
HETATM   32  C20 UNL     1      12.890   8.660   7.703  1.00  0.00     0.040 C 
ENDBRANCH  29  30
ENDBRANCH  27  29
ENDBRANCH  11  27
TORSDOF 10
ENDMDL
MODEL 4
REMARK VINA RESULT: -7.886279142      2.486      3.442
REMARK  10 active torsions:
REMARK  status: ('A' for Active; 'I' for Inactive)
REMARK    1  A    between atoms: C2_2  and  C4_4 
REMARK    2  A    between atoms: C4_4  and  C5_5 
REMARK    3  A    between atoms: C5_5  and  C6_6 
REMARK    4  A    between atoms: C6_6  and  O2_8 
REMARK    5  A    between atoms: O2_8  and  C7_9 
REMARK    6  A    between atoms: C9_11  and  O3_12 
REMARK    7  A    between atoms: C16_21  and  C17_22 
REMARK    8  A    between atoms: C17_22  and  O6_24 
REMARK    9  A    between atoms: O6_24  and  C18_25 
REMARK   10  A    between atoms: C21_28  and  O7_29 
ROOT
HETATM    1  C7  UNL     1      19.139   9.528   3.676  1.00  0.00     0.145 C 
HETATM    2  C8  UNL     1      20.108  10.355   2.896  1.00  0.00     0.066 C 
HETATM    3  C9  UNL     1      19.898  10.055   1.437  1.00  0.00     0.128 C 
HETATM    4  C10 UNL     1      18.557  10.620   1.068  1.00  0.00    -0.017 C 
HETATM    5  C11 UNL     1      18.678  12.130   1.058  1.00  0.00     0.018 C 
HETATM    6  C12 UNL     1      18.333  10.240  -0.406  1.00  0.00     0.018 C 
HETATM    7  C13 UNL     1      17.426  10.114   1.896  1.00  0.00     0.016 C 
HETATM    8  C14 UNL     1      16.295  11.148   1.743  1.00  0.00     0.085 C 
HETATM    9  C15 UNL     1      15.222  10.760   2.733  1.00  0.00     0.143 C 
HETATM   10  O4  UNL     1      14.146  10.339   2.415  1.00  0.00    -0.297 OA
HETATM   11  C16 UNL     1      15.664  10.965   4.154  1.00  0.00     0.184 C 
HETATM   12  C21 UNL     1      17.082  10.589   4.350  1.00  0.00     0.150 C 
HETATM   13  C22 UNL     1      17.687   9.714   3.274  1.00  0.00     0.015 C 
HETATM   14  C23 UNL     1      17.076   8.319   3.538  1.00  0.00     0.021 C 
ENDROOT
BRANCH   1  15
HETATM   15  O2  UNL     1      19.549   8.166   3.584  1.00  0.00    -0.315 OA
BRANCH  15  16
HETATM   16  C6  UNL     1      20.279   7.526   4.590  1.00  0.00     0.259 C 
HETATM   17  O1  UNL     1      20.334   8.141   5.680  1.00  0.00    -0.265 OA
BRANCH  16  18
HETATM   18  C5  UNL     1      20.934   6.221   4.373  1.00  0.00     0.111 C 
BRANCH  18  19
HETATM   19  C4  UNL     1      19.906   5.135   4.271  1.00  0.00     0.013 C 
BRANCH  19  20
HETATM   20  C2  UNL     1      20.506   3.777   4.221  1.00  0.00    -0.022 C 
HETATM   21  C1  UNL     1      22.015   3.976   3.991  1.00  0.00     0.009 C 
HETATM   22  C3  UNL     1      19.969   2.951   3.062  1.00  0.00     0.009 C 
ENDBRANCH  19  20
ENDBRANCH  18  19
ENDBRANCH  16  18
ENDBRANCH  15  16
ENDBRANCH   1  15
BRANCH   3  23
HETATM   23  O3  UNL     1      20.011   8.707   1.187  1.00  0.00    -0.395 OA
ATOM     24  H3  UNL     1      19.244   8.377   0.734  1.00  0.00     0.210 HD
ENDBRANCH   3  23
BRANCH  12  25
HETATM   25  O7  UNL     1      17.911  11.695   4.645  1.00  0.00    -0.393 OA
ATOM     26  H7  UNL     1      17.528  12.526   4.388  1.00  0.00     0.210 HD
ENDBRANCH  12  25
BRANCH  11  27
HETATM   27  C17 UNL     1      14.740  10.319   5.121  1.00  0.00     0.273 C 
HETATM   28  O5  UNL     1      14.050   9.291   4.802  1.00  0.00    -0.264 OA
BRANCH  27  29
HETATM   29  O6  UNL     1      14.560  10.770   6.412  1.00  0.00    -0.316 OA
BRANCH  29  30
HETATM   30  C18 UNL     1      14.048   9.930   7.449  1.00  0.00     0.123 C 
HETATM   31  C19 UNL     1      15.257   9.181   8.025  1.00  0.00     0.040 C 
HETATM   32  C20 UNL     1      13.330  10.678   8.520  1.00  0.00     0.040 C 
ENDBRANCH  29  30
ENDBRANCH  27  29
ENDBRANCH  11  27
TORSDOF 10
ENDMDL
MODEL 5
REMARK VINA RESULT: -7.846297387      1.683      2.235
REMARK  10 active torsions:
REMARK  status: ('A' for Active; 'I' for Inactive)
REMARK    1  A    between atoms: C2_2  and  C4_4 
REMARK    2  A    between atoms: C4_4  and  C5_5 
REMARK    3  A    between atoms: C5_5  and  C6_6 
REMARK    4  A    between atoms: C6_6  and  O2_8 
REMARK    5  A    between atoms: O2_8  and  C7_9 
REMARK    6  A    between atoms: C9_11  and  O3_12 
REMARK    7  A    between atoms: C16_21  and  C17_22 
REMARK    8  A    between atoms: C17_22  and  O6_24 
REMARK    9  A    between atoms: O6_24  and  C18_25 
REMARK   10  A    between atoms: C21_28  and  O7_29 
ROOT
HETATM    1  C7  UNL     1      17.363  10.895   1.928  1.00  0.00     0.145 C 
HETATM    2  C8  UNL     1      17.116  11.528   0.598  1.00  0.00     0.066 C 
HETATM    3  C9  UNL     1      16.813  10.429  -0.384  1.00  0.00     0.128 C 
HETATM    4  C10 UNL     1      15.479   9.860   0.001  1.00  0.00    -0.017 C 
HETATM    5  C11 UNL     1      14.419  10.885  -0.347  1.00  0.00     0.018 C 
HETATM    6  C12 UNL     1      15.224   8.694  -0.971  1.00  0.00     0.018 C 
HETATM    7  C13 UNL     1      15.402   9.370   1.407  1.00  0.00     0.016 C 
HETATM    8  C14 UNL     1      13.903   9.330   1.758  1.00  0.00     0.085 C 
HETATM    9  C15 UNL     1      13.816   9.035   3.237  1.00  0.00     0.143 C 
HETATM   10  O4  UNL     1      13.394   8.008   3.685  1.00  0.00    -0.297 OA
HETATM   11  C16 UNL     1      14.319  10.178   4.071  1.00  0.00     0.184 C 
HETATM   12  C21 UNL     1      15.511  10.818   3.470  1.00  0.00     0.150 C 
HETATM   13  C22 UNL     1      16.237  10.004   2.420  1.00  0.00     0.015 C 
HETATM   14  C23 UNL     1      16.984   8.923   3.234  1.00  0.00     0.021 C 
ENDROOT
BRANCH   1  15
HETATM   15  O2  UNL     1      18.605  10.198   1.860  1.00  0.00    -0.315 OA
BRANCH  15  16
HETATM   16  C6  UNL     1      19.811  10.758   2.289  1.00  0.00     0.259 C 
HETATM   17  O1  UNL     1      20.021  11.930   1.899  1.00  0.00    -0.265 OA
BRANCH  16  18
HETATM   18  C5  UNL     1      20.762  10.015   3.139  1.00  0.00     0.111 C 
BRANCH  18  19
HETATM   19  C4  UNL     1      20.272   9.977   4.554  1.00  0.00     0.013 C 
BRANCH  19  20
HETATM   20  C2  UNL     1      20.269   8.606   5.126  1.00  0.00    -0.022 C 
HETATM   21  C1  UNL     1      21.538   8.494   5.991  1.00  0.00     0.009 C 
HETATM   22  C3  UNL     1      20.349   7.532   4.052  1.00  0.00     0.009 C 
ENDBRANCH  19  20
ENDBRANCH  18  19
ENDBRANCH  16  18
ENDBRANCH  15  16
ENDBRANCH   1  15
BRANCH   3  23
HETATM   23  O3  UNL     1      17.822   9.494  -0.408  1.00  0.00    -0.395 OA
ATOM     24  H3  UNL     1      17.827   8.976   0.388  1.00  0.00     0.210 HD
ENDBRANCH   3  23
BRANCH  12  25
HETATM   25  O7  UNL     1      15.265  12.136   3.025  1.00  0.00    -0.393 OA
ATOM     26  H7  UNL     1      15.365  12.236   2.085  1.00  0.00     0.210 HD
ENDBRANCH  12  25
BRANCH  11  27
HETATM   27  C17 UNL     1      14.510   9.787   5.492  1.00  0.00     0.273 C 
HETATM   28  O5  UNL     1      14.426  10.642   6.438  1.00  0.00    -0.264 OA
BRANCH  27  29
HETATM   29  O6  UNL     1      14.785   8.495   5.890  1.00  0.00    -0.316 OA
BRANCH  29  30
HETATM   30  C18 UNL     1      14.598   8.056   7.237  1.00  0.00     0.123 C 
HETATM   31  C19 UNL     1      13.662   6.843   7.163  1.00  0.00     0.040 C 
HETATM   32  C20 UNL     1      15.869   7.702   7.930  1.00  0.00     0.040 C 
ENDBRANCH  29  30
ENDBRANCH  27  29
ENDBRANCH  11  27
TORSDOF 10
ENDMDL
