MODEL 1
REMARK VINA RESULT: -8.065619920      0.000      0.000
REMARK  10 active torsions:
REMARK  status: ('A' for Active; 'I' for Inactive)
REMARK    1  A    between atoms: C2_2  and  C3_3 
REMARK    2  A    between atoms: C3_3  and  O1_4 
REMARK    3  A    between atoms: O1_4  and  C4_5 
REMARK    4  A    between atoms: C4_5  and  C5_7 
REMARK    5  A    between atoms: C5_7  and  C6_8 
REMARK    6  A    between atoms: C6_8  and  C7_9 
REMARK    7  A    between atoms: C7_9  and  O4_11 
REMARK    8  A    between atoms: O4_11  and  C8_12 
REMARK    9  A    between atoms: C20_25  and  O6_26 
REMARK   10  A    between atoms: C23_30  and  O7_32 
ROOT
HETATM    1  C8  UNL     1      17.004   9.699   2.070  1.00  0.00     0.146 C 
HETATM    2  C9  UNL     1      16.358   9.569   3.370  1.00  0.00     0.038 C 
HETATM    3  C10 UNL     1      15.195  10.351   3.800  1.00  0.00     0.036 C 
HETATM    4  C11 UNL     1      14.001   9.477   3.916  1.00  0.00    -0.085 C 
HETATM    5  C12 UNL     1      13.679   8.885   5.283  1.00  0.00     0.043 C 
HETATM    6  C13 UNL     1      13.220   9.189   2.922  1.00  0.00     0.010 C 
HETATM    7  C14 UNL     1      13.363   9.651   1.566  1.00  0.00     0.182 A 
HETATM    8  O5  UNL     1      14.133  10.741   1.299  1.00  0.00    -0.363 OA
HETATM    9  C15 UNL     1      15.028  10.045   0.445  1.00  0.00     0.110 A 
HETATM   10  C16 UNL     1      14.888  10.778  -0.905  1.00  0.00     0.020 C 
HETATM   11  C17 UNL     1      13.546  11.311  -1.206  1.00  0.00     0.013 C 
HETATM   12  C18 UNL     1      15.511   9.929  -1.990  1.00  0.00     0.010 C 
HETATM   13  C19 UNL     1      16.965   9.923  -1.642  1.00  0.00     0.033 C 
HETATM   14  C20 UNL     1      17.377   9.940  -0.258  1.00  0.00     0.132 C 
HETATM   15  C21 UNL     1      16.411  10.251   0.863  1.00  0.00     0.043 C 
HETATM   16  C22 UNL     1      16.533  11.792   1.044  1.00  0.00     0.024 C 
HETATM   17  C23 UNL     1      14.211   8.885   0.607  1.00  0.00     0.116 A 
HETATM   18  C24 UNL     1      14.624   7.511   0.876  1.00  0.00     0.052 C 
ENDROOT
BRANCH   1  19
HETATM   19  O4  UNL     1      18.199  10.479   2.350  1.00  0.00    -0.315 OA
BRANCH  19  20
HETATM   20  C7  UNL     1      19.259  10.031   3.075  1.00  0.00     0.259 C 
HETATM   21  O3  UNL     1      19.486  10.526   4.207  1.00  0.00    -0.265 OA
BRANCH  20  22
HETATM   22  C6  UNL     1      20.192   8.953   2.582  1.00  0.00     0.121 C 
BRANCH  22  23
HETATM   23  C5  UNL     1      21.473   9.635   2.201  1.00  0.00     0.121 C 
BRANCH  23  24
HETATM   24  C4  UNL     1      21.520  10.009   0.774  1.00  0.00     0.259 C 
HETATM   25  O2  UNL     1      21.222  11.187   0.457  1.00  0.00    -0.265 OA
BRANCH  24  26
HETATM   26  O1  UNL     1      21.874   9.141  -0.238  1.00  0.00    -0.318 OA
BRANCH  26  27
HETATM   27  C3  UNL     1      22.750   8.024  -0.013  1.00  0.00     0.205 C 
BRANCH  27  28
HETATM   28  C2  UNL     1      23.737   7.892  -1.103  1.00  0.00    -0.011 C 
HETATM   29  C1  UNL     1      23.705   8.657  -2.180  1.00  0.00     0.009 C 
ENDBRANCH  27  28
ENDBRANCH  26  27
ENDBRANCH  24  26
ENDBRANCH  23  24
ENDBRANCH  22  23
ENDBRANCH  20  22
ENDBRANCH  19  20
ENDBRANCH   1  19
BRANCH  14  30
HETATM   30  O6  UNL     1      18.480  10.855  -0.210  1.00  0.00    -0.395 OA
ATOM     31  H6  UNL     1      18.641  10.997   0.715  1.00  0.00     0.210 HD
ENDBRANCH  14  30
BRANCH  17  32
HETATM   32  O7  UNL     1      13.353   8.726  -0.553  1.00  0.00    -0.384 OA
ATOM     33  H7  UNL     1      13.794   8.059  -1.066  1.00  0.00     0.210 HD
ENDBRANCH  17  32
TORSDOF 10
ENDMDL
MODEL 2
REMARK VINA RESULT: -7.929132122      0.804      1.148
REMARK  10 active torsions:
REMARK  status: ('A' for Active; 'I' for Inactive)
REMARK    1  A    between atoms: C2_2  and  C3_3 
REMARK    2  A    between atoms: C3_3  and  O1_4 
REMARK    3  A    between atoms: O1_4  and  C4_5 
REMARK    4  A    between atoms: C4_5  and  C5_7 
REMARK    5  A    between atoms: C5_7  and  C6_8 
REMARK    6  A    between atoms: C6_8  and  C7_9 
REMARK    7  A    between atoms: C7_9  and  O4_11 
REMARK    8  A    between atoms: O4_11  and  C8_12 
REMARK    9  A    between atoms: C20_25  and  O6_26 
REMARK   10  A    between atoms: C23_30  and  O7_32 
ROOT
HETATM    1  C8  UNL     1      17.173   9.719   2.002  1.00  0.00     0.146 C 
HETATM    2  C9  UNL     1      16.565   9.636   3.323  1.00  0.00     0.038 C 
HETATM    3  C10 UNL     1      15.436  10.458   3.768  1.00  0.00     0.036 C 
HETATM    4  C11 UNL     1      14.224   9.618   3.942  1.00  0.00    -0.085 C 
HETATM    5  C12 UNL     1      13.930   9.067   5.332  1.00  0.00     0.043 C 
HETATM    6  C13 UNL     1      13.406   9.328   2.979  1.00  0.00     0.010 C 
HETATM    7  C14 UNL     1      13.519   9.754   1.609  1.00  0.00     0.182 A 
HETATM    8  O5  UNL     1      14.307  10.816   1.292  1.00  0.00    -0.363 OA
HETATM    9  C15 UNL     1      15.158  10.078   0.428  1.00  0.00     0.110 A 
HETATM   10  C16 UNL     1      14.995  10.782  -0.934  1.00  0.00     0.020 C 
HETATM   11  C17 UNL     1      13.659  11.344  -1.207  1.00  0.00     0.013 C 
HETATM   12  C18 UNL     1      15.563   9.893  -2.016  1.00  0.00     0.010 C 
HETATM   13  C19 UNL     1      17.026   9.856  -1.712  1.00  0.00     0.033 C 
HETATM   14  C20 UNL     1      17.480   9.895  -0.342  1.00  0.00     0.132 C 
HETATM   15  C21 UNL     1      16.558  10.258   0.799  1.00  0.00     0.043 C 
HETATM   16  C22 UNL     1      16.725  11.799   0.940  1.00  0.00     0.024 C 
HETATM   17  C23 UNL     1      14.317   8.944   0.643  1.00  0.00     0.116 A 
HETATM   18  C24 UNL     1      14.703   7.566   0.933  1.00  0.00     0.052 C 
ENDROOT
BRANCH   1  19
HETATM   19  O4  UNL     1      18.396  10.474   2.226  1.00  0.00    -0.315 OA
BRANCH  19  20
HETATM   20  C7  UNL     1      19.454  10.027   2.955  1.00  0.00     0.259 C 
HETATM   21  O3  UNL     1      19.722  10.576   4.053  1.00  0.00    -0.265 OA
BRANCH  20  22
HETATM   22  C6  UNL     1      20.337   8.889   2.507  1.00  0.00     0.121 C 
BRANCH  22  23
HETATM   23  C5  UNL     1      21.423   9.493   1.667  1.00  0.00     0.121 C 
BRANCH  23  24
HETATM   24  C4  UNL     1      21.548   8.851   0.344  1.00  0.00     0.259 C 
HETATM   25  O2  UNL     1      20.985   9.397  -0.638  1.00  0.00    -0.265 OA
BRANCH  24  26
HETATM   26  O1  UNL     1      22.247   7.684   0.117  1.00  0.00    -0.318 OA
BRANCH  26  27
HETATM   27  C3  UNL     1      23.682   7.657   0.050  1.00  0.00     0.205 C 
BRANCH  27  28
HETATM   28  C2  UNL     1      24.256   6.926   1.198  1.00  0.00    -0.011 C 
HETATM   29  C1  UNL     1      23.502   6.294   2.079  1.00  0.00     0.009 C 
ENDBRANCH  27  28
ENDBRANCH  26  27
ENDBRANCH  24  26
ENDBRANCH  23  24
ENDBRANCH  22  23
ENDBRANCH  20  22
ENDBRANCH  19  20
ENDBRANCH   1  19
BRANCH  14  30
HETATM   30  O6  UNL     1      18.608  10.782  -0.350  1.00  0.00    -0.395 OA
ATOM     31  H6  UNL     1      19.098  10.563   0.434  1.00  0.00     0.210 HD
ENDBRANCH  14  30
BRANCH  17  32
HETATM   32  O7  UNL     1      13.420   8.780  -0.486  1.00  0.00    -0.384 OA
ATOM     33  H7  UNL     1      13.638   9.512  -1.051  1.00  0.00     0.210 HD
ENDBRANCH  17  32
TORSDOF 10
ENDMDL
MODEL 3
REMARK VINA RESULT: -7.909986555      2.234      3.064
REMARK  10 active torsions:
REMARK  status: ('A' for Active; 'I' for Inactive)
REMARK    1  A    between atoms: C2_2  and  C3_3 
REMARK    2  A    between atoms: C3_3  and  O1_4 
REMARK    3  A    between atoms: O1_4  and  C4_5 
REMARK    4  A    between atoms: C4_5  and  C5_7 
REMARK    5  A    between atoms: C5_7  and  C6_8 
REMARK    6  A    between atoms: C6_8  and  C7_9 
REMARK    7  A    between atoms: C7_9  and  O4_11 
REMARK    8  A    between atoms: O4_11  and  C8_12 
REMARK    9  A    between atoms: C20_25  and  O6_26 
REMARK   10  A    between atoms: C23_30  and  O7_32 
ROOT
HETATM    1  C8  UNL     1      17.052   9.563   2.301  1.00  0.00     0.146 C 
HETATM    2  C9  UNL     1      16.322   9.428   3.555  1.00  0.00     0.038 C 
HETATM    3  C10 UNL     1      15.162  10.242   3.931  1.00  0.00     0.036 C 
HETATM    4  C11 UNL     1      13.933   9.409   3.953  1.00  0.00    -0.085 C 
HETATM    5  C12 UNL     1      13.507   8.799   5.282  1.00  0.00     0.043 C 
HETATM    6  C13 UNL     1      13.207   9.172   2.905  1.00  0.00     0.010 C 
HETATM    7  C14 UNL     1      13.451   9.657   1.572  1.00  0.00     0.182 A 
HETATM    8  O5  UNL     1      14.273  10.724   1.380  1.00  0.00    -0.363 OA
HETATM    9  C15 UNL     1      15.195  10.015   0.566  1.00  0.00     0.110 A 
HETATM   10  C16 UNL     1      15.166  10.782  -0.772  1.00  0.00     0.020 C 
HETATM   11  C17 UNL     1      13.865  11.370  -1.143  1.00  0.00     0.013 C 
HETATM   12  C18 UNL     1      15.825   9.935  -1.836  1.00  0.00     0.010 C 
HETATM   13  C19 UNL     1      17.254   9.868  -1.399  1.00  0.00     0.033 C 
HETATM   14  C20 UNL     1      17.578   9.840   0.008  1.00  0.00     0.132 C 
HETATM   15  C21 UNL     1      16.556  10.162   1.073  1.00  0.00     0.043 C 
HETATM   16  C22 UNL     1      16.720  11.693   1.298  1.00  0.00     0.024 C 
HETATM   17  C23 UNL     1      14.330   8.882   0.649  1.00  0.00     0.116 A 
HETATM   18  C24 UNL     1      14.677   7.489   0.911  1.00  0.00     0.052 C 
ENDROOT
BRANCH   1  19
HETATM   19  O4  UNL     1      18.254  10.293   2.673  1.00  0.00    -0.315 OA
BRANCH  19  20
HETATM   20  C7  UNL     1      19.271   9.775   3.413  1.00  0.00     0.259 C 
HETATM   21  O3  UNL     1      19.728  10.435   4.380  1.00  0.00    -0.265 OA
BRANCH  20  22
HETATM   22  C6  UNL     1      19.890   8.430   3.129  1.00  0.00     0.121 C 
BRANCH  22  23
HETATM   23  C5  UNL     1      19.440   7.510   4.226  1.00  0.00     0.121 C 
BRANCH  23  24
HETATM   24  C4  UNL     1      20.559   6.801   4.875  1.00  0.00     0.259 C 
HETATM   25  O2  UNL     1      21.488   7.485   5.374  1.00  0.00    -0.265 OA
BRANCH  24  26
HETATM   26  O1  UNL     1      20.650   5.428   4.970  1.00  0.00    -0.318 OA
BRANCH  26  27
HETATM   27  C3  UNL     1      19.762   4.555   4.253  1.00  0.00     0.205 C 
BRANCH  27  28
HETATM   28  C2  UNL     1      20.504   3.454   3.605  1.00  0.00    -0.011 C 
HETATM   29  C1  UNL     1      19.915   2.584   2.803  1.00  0.00     0.009 C 
ENDBRANCH  27  28
ENDBRANCH  26  27
ENDBRANCH  24  26
ENDBRANCH  23  24
ENDBRANCH  22  23
ENDBRANCH  20  22
ENDBRANCH  19  20
ENDBRANCH   1  19
BRANCH  14  30
HETATM   30  O6  UNL     1      18.708  10.713   0.145  1.00  0.00    -0.395 OA
ATOM     31  H6  UNL     1      18.341  11.550   0.406  1.00  0.00     0.210 HD
ENDBRANCH  14  30
BRANCH  17  32
HETATM   32  O7  UNL     1      13.541   8.779  -0.565  1.00  0.00    -0.384 OA
ATOM     33  H7  UNL     1      14.194   8.785  -1.255  1.00  0.00     0.210 HD
ENDBRANCH  17  32
TORSDOF 10
ENDMDL
MODEL 4
REMARK VINA RESULT: -7.712759018      2.994      6.818
REMARK  10 active torsions:
REMARK  status: ('A' for Active; 'I' for Inactive)
REMARK    1  A    between atoms: C2_2  and  C3_3 
REMARK    2  A    between atoms: C3_3  and  O1_4 
REMARK    3  A    between atoms: O1_4  and  C4_5 
REMARK    4  A    between atoms: C4_5  and  C5_7 
REMARK    5  A    between atoms: C5_7  and  C6_8 
REMARK    6  A    between atoms: C6_8  and  C7_9 
REMARK    7  A    between atoms: C7_9  and  O4_11 
REMARK    8  A    between atoms: O4_11  and  C8_12 
REMARK    9  A    between atoms: C20_25  and  O6_26 
REMARK   10  A    between atoms: C23_30  and  O7_32 
ROOT
HETATM    1  C8  UNL     1      15.270  10.098   1.883  1.00  0.00     0.146 C 
HETATM    2  C9  UNL     1      16.500  10.691   1.374  1.00  0.00     0.038 C 
HETATM    3  C10 UNL     1      17.254  11.748   2.054  1.00  0.00     0.036 C 
HETATM    4  C11 UNL     1      18.554  11.221   2.543  1.00  0.00    -0.085 C 
HETATM    5  C12 UNL     1      19.776  11.393   1.650  1.00  0.00     0.043 C 
HETATM    6  C13 UNL     1      18.704  10.622   3.683  1.00  0.00     0.010 C 
HETATM    7  C14 UNL     1      17.671  10.367   4.653  1.00  0.00     0.182 A 
HETATM    8  O5  UNL     1      16.511  11.075   4.609  1.00  0.00    -0.363 OA
HETATM    9  C15 UNL     1      15.685   9.935   4.426  1.00  0.00     0.110 A 
HETATM   10  C16 UNL     1      14.749   9.961   5.651  1.00  0.00     0.020 C 
HETATM   11  C17 UNL     1      15.341  10.486   6.896  1.00  0.00     0.013 C 
HETATM   12  C18 UNL     1      14.061   8.621   5.771  1.00  0.00     0.010 C 
HETATM   13  C19 UNL     1      13.192   8.559   4.556  1.00  0.00     0.033 C 
HETATM   14  C20 UNL     1      13.636   9.161   3.320  1.00  0.00     0.132 C 
HETATM   15  C21 UNL     1      14.817  10.102   3.264  1.00  0.00     0.043 C 
HETATM   16  C22 UNL     1      14.183  11.510   3.457  1.00  0.00     0.024 C 
HETATM   17  C23 UNL     1      16.853   9.123   4.557  1.00  0.00     0.116 A 
HETATM   18  C24 UNL     1      17.272   7.991   3.736  1.00  0.00     0.052 C 
ENDROOT
BRANCH   1  19
HETATM   19  O4  UNL     1      14.225  10.729   1.093  1.00  0.00    -0.315 OA
BRANCH  19  20
HETATM   20  C7  UNL     1      13.743  10.236  -0.080  1.00  0.00     0.259 C 
HETATM   21  O3  UNL     1      13.131   9.138  -0.083  1.00  0.00    -0.265 OA
BRANCH  20  22
HETATM   22  C6  UNL     1      13.907  10.949  -1.399  1.00  0.00     0.121 C 
BRANCH  22  23
HETATM   23  C5  UNL     1      15.220  10.500  -1.969  1.00  0.00     0.121 C 
BRANCH  23  24
HETATM   24  C4  UNL     1      15.064   9.653  -3.168  1.00  0.00     0.259 C 
HETATM   25  O2  UNL     1      15.796   9.888  -4.162  1.00  0.00    -0.265 OA
BRANCH  24  26
HETATM   26  O1  UNL     1      14.162   8.615  -3.265  1.00  0.00    -0.318 OA
BRANCH  26  27
HETATM   27  C3  UNL     1      13.366   8.404  -4.442  1.00  0.00     0.205 C 
BRANCH  27  28
HETATM   28  C2  UNL     1      12.474   9.553  -4.696  1.00  0.00    -0.011 C 
HETATM   29  C1  UNL     1      11.168   9.413  -4.841  1.00  0.00     0.009 C 
ENDBRANCH  27  28
ENDBRANCH  26  27
ENDBRANCH  24  26
ENDBRANCH  23  24
ENDBRANCH  22  23
ENDBRANCH  20  22
ENDBRANCH  19  20
ENDBRANCH   1  19
BRANCH  14  30
HETATM   30  O6  UNL     1      12.475   9.814   2.788  1.00  0.00    -0.395 OA
ATOM     31  H6  UNL     1      11.747   9.252   3.027  1.00  0.00     0.210 HD
ENDBRANCH  14  30
BRANCH  17  32
HETATM   32  O7  UNL     1      16.916   8.570   5.897  1.00  0.00    -0.384 OA
ATOM     33  H7  UNL     1      17.455   7.795   5.793  1.00  0.00     0.210 HD
ENDBRANCH  17  32
TORSDOF 10
ENDMDL
MODEL 5
REMARK VINA RESULT: -7.663934963      2.975      7.496
REMARK  10 active torsions:
REMARK  status: ('A' for Active; 'I' for Inactive)
REMARK    1  A    between atoms: C2_2  and  C3_3 
REMARK    2  A    between atoms: C3_3  and  O1_4 
REMARK    3  A    between atoms: O1_4  and  C4_5 
REMARK    4  A    between atoms: C4_5  and  C5_7 
REMARK    5  A    between atoms: C5_7  and  C6_8 
REMARK    6  A    between atoms: C6_8  and  C7_9 
REMARK    7  A    between atoms: C7_9  and  O4_11 
REMARK    8  A    between atoms: O4_11  and  C8_12 
REMARK    9  A    between atoms: C20_25  and  O6_26 
REMARK   10  A    between atoms: C23_30  and  O7_32 
ROOT
HETATM    1  C8  UNL     1      20.963   9.327   3.811  1.00  0.00     0.146 C 
HETATM    2  C9  UNL     1      20.916   9.391   5.265  1.00  0.00     0.038 C 
HETATM    3  C10 UNL     1      21.173   8.253   6.154  1.00  0.00     0.036 C 
HETATM    4  C11 UNL     1      22.442   8.457   6.898  1.00  0.00    -0.085 C 
HETATM    5  C12 UNL     1      22.365   9.085   8.284  1.00  0.00     0.043 C 
HETATM    6  C13 UNL     1      23.608   8.134   6.433  1.00  0.00     0.010 C 
HETATM    7  C14 UNL     1      23.878   7.536   5.152  1.00  0.00     0.182 A 
HETATM    8  O5  UNL     1      22.878   6.915   4.470  1.00  0.00    -0.363 OA
HETATM    9  C15 UNL     1      22.963   7.766   3.336  1.00  0.00     0.110 A 
HETATM   10  C16 UNL     1      23.299   6.803   2.180  1.00  0.00     0.020 C 
HETATM   11  C17 UNL     1      24.144   5.647   2.537  1.00  0.00     0.013 C 
HETATM   12  C18 UNL     1      23.766   7.609   0.991  1.00  0.00     0.010 C 
HETATM   13  C19 UNL     1      22.548   8.376   0.584  1.00  0.00     0.033 C 
HETATM   14  C20 UNL     1      21.615   8.834   1.586  1.00  0.00     0.132 C 
HETATM   15  C21 UNL     1      21.658   8.331   3.011  1.00  0.00     0.043 C 
HETATM   16  C22 UNL     1      20.698   7.106   3.004  1.00  0.00     0.024 C 
HETATM   17  C23 UNL     1      24.082   8.403   3.955  1.00  0.00     0.116 A 
HETATM   18  C24 UNL     1      24.361   9.831   4.082  1.00  0.00     0.052 C 
ENDROOT
BRANCH   1  19
HETATM   19  O4  UNL     1      19.563   9.283   3.418  1.00  0.00    -0.315 OA
BRANCH  19  20
HETATM   20  C7  UNL     1      18.730  10.360   3.413  1.00  0.00     0.259 C 
HETATM   21  O3  UNL     1      18.531  10.989   4.482  1.00  0.00    -0.265 OA
BRANCH  20  22
HETATM   22  C6  UNL     1      18.023  10.844   2.173  1.00  0.00     0.121 C 
BRANCH  22  23
HETATM   23  C5  UNL     1      18.826  11.994   1.642  1.00  0.00     0.121 C 
BRANCH  23  24
HETATM   24  C4  UNL     1      19.320  11.763   0.271  1.00  0.00     0.259 C 
HETATM   25  O2  UNL     1      20.559  11.641   0.097  1.00  0.00    -0.265 OA
BRANCH  24  26
HETATM   26  O1  UNL     1      18.504  11.673  -0.837  1.00  0.00    -0.318 OA
BRANCH  26  27
HETATM   27  C3  UNL     1      18.246  10.421  -1.493  1.00  0.00     0.205 C 
BRANCH  27  28
HETATM   28  C2  UNL     1      16.802  10.109  -1.500  1.00  0.00    -0.011 C 
HETATM   29  C1  UNL     1      16.130   9.908  -2.620  1.00  0.00     0.009 C 
ENDBRANCH  27  28
ENDBRANCH  26  27
ENDBRANCH  24  26
ENDBRANCH  23  24
ENDBRANCH  22  23
ENDBRANCH  20  22
ENDBRANCH  19  20
ENDBRANCH   1  19
BRANCH  14  30
HETATM   30  O6  UNL     1      20.318   8.585   1.027  1.00  0.00    -0.395 OA
ATOM     31  H6  UNL     1      19.830   8.156   1.720  1.00  0.00     0.210 HD
ENDBRANCH  14  30
BRANCH  17  32
HETATM   32  O7  UNL     1      25.313   7.900   3.376  1.00  0.00    -0.384 OA
ATOM     33  H7  UNL     1      25.218   6.956   3.436  1.00  0.00     0.210 HD
ENDBRANCH  17  32
TORSDOF 10
ENDMDL
