MODEL 1
REMARK VINA RESULT: -8.701716696      0.000      0.000
REMARK  10 active torsions:
REMARK  status: ('A' for Active; 'I' for Inactive)
REMARK    1  A    between atoms: C4_4  and  C5_5 
REMARK    2  A    between atoms: C5_5  and  C6_6 
REMARK    3  A    between atoms: C6_6  and  C7_7 
REMARK    4  A    between atoms: C7_7  and  O2_9 
REMARK    5  A    between atoms: O2_9  and  C8_10 
REMARK    6  A    between atoms: C15_19  and  O5_20 
REMARK    7  A    between atoms: C18_24  and  O6_25 
REMARK    8  A    between atoms: C18_24  and  C19_27 
REMARK    9  A    between atoms: C20_28  and  C21_29 
REMARK   10  A    between atoms: C21_29  and  O8_31 
ROOT
HETATM    1  C1  UNL     1      11.663   9.064   2.288  1.00  0.00     0.036 C 
HETATM    2  C2  UNL     1      13.080   8.648   2.433  1.00  0.00    -0.027 C 
HETATM    3  C3  UNL     1      14.061   9.136   1.719  1.00  0.00    -0.071 C 
HETATM    4  C4  UNL     1      14.205  10.139   0.633  1.00  0.00     0.024 C 
HETATM    5  C10 UNL     1      15.469   9.365   0.193  1.00  0.00    -0.026 C 
HETATM    6  C11 UNL     1      15.102   8.196  -0.737  1.00  0.00     0.016 C 
HETATM    7  C12 UNL     1      16.373  10.259  -0.489  1.00  0.00     0.013 C 
HETATM    8  C13 UNL     1      17.854  10.060  -0.214  1.00  0.00     0.042 C 
HETATM    9  C14 UNL     1      18.499  11.372   0.180  1.00  0.00     0.225 C 
HETATM   10  O3  UNL     1      19.800  11.527  -0.318  1.00  0.00    -0.227 OA
HETATM   11  O4  UNL     1      20.198  10.704   0.630  1.00  0.00    -0.197 OA
HETATM   12  C15 UNL     1      19.260  11.299   1.458  1.00  0.00     0.224 C 
HETATM   13  C16 UNL     1      18.631  10.411   2.489  1.00  0.00     0.077 C 
HETATM   14  C17 UNL     1      17.152  10.754   2.530  1.00  0.00     0.048 C 
HETATM   15  C18 UNL     1      16.305   9.544   2.650  1.00  0.00     0.084 C 
HETATM   16  C23 UNL     1      15.557   8.972   1.574  1.00  0.00     0.061 C 
ENDROOT
BRANCH  15  17
HETATM   17  O6  UNL     1      17.178   8.561   3.213  1.00  0.00    -0.385 OA
ATOM     18  H6  UNL     1      16.796   7.732   2.947  1.00  0.00     0.211 HD
ENDBRANCH  15  17
BRANCH  15  19
HETATM   19  C19 UNL     1      15.343   9.821   3.777  1.00  0.00     0.017 C 
HETATM   20  C20 UNL     1      15.473   9.367   4.996  1.00  0.00     0.081 C 
BRANCH  20  21
HETATM   21  C21 UNL     1      14.525   9.659   6.046  1.00  0.00     0.282 C 
HETATM   22  O7  UNL     1      14.571  10.768   6.613  1.00  0.00    -0.260 OA
BRANCH  21  23
HETATM   23  O8  UNL     1      13.568   8.751   6.443  1.00  0.00    -0.323 OA
HETATM   24  C22 UNL     1      13.949   7.586   7.184  1.00  0.00     0.213 C 
ENDBRANCH  21  23
ENDBRANCH  20  21
ENDBRANCH  15  19
BRANCH  12  25
HETATM   25  O5  UNL     1      19.569  12.536   1.958  1.00  0.00    -0.361 OA
ATOM     26  H5  UNL     1      20.447  12.815   1.723  1.00  0.00     0.213 HD
ENDBRANCH  12  25
BRANCH   4  27
HETATM   27  C5  UNL     1      13.098  10.242  -0.327  1.00  0.00     0.019 C 
BRANCH  27  28
HETATM   28  C6  UNL     1      13.421  11.209  -1.426  1.00  0.00     0.112 C 
BRANCH  28  29
HETATM   29  C7  UNL     1      13.476  10.489  -2.757  1.00  0.00     0.258 C 
HETATM   30  O1  UNL     1      14.497  10.489  -3.460  1.00  0.00    -0.265 OA
BRANCH  29  31
HETATM   31  O2  UNL     1      12.354   9.829  -3.167  1.00  0.00    -0.322 OA
BRANCH  31  32
HETATM   32  C8  UNL     1      12.322   9.247  -4.465  1.00  0.00     0.174 C 
HETATM   33  C9  UNL     1      11.005   9.567  -5.111  1.00  0.00     0.034 C 
ENDBRANCH  31  32
ENDBRANCH  29  31
ENDBRANCH  28  29
ENDBRANCH  27  28
ENDBRANCH   4  27
TORSDOF 10
ENDMDL
MODEL 2
REMARK VINA RESULT: -8.227220361      6.372      9.252
REMARK  10 active torsions:
REMARK  status: ('A' for Active; 'I' for Inactive)
REMARK    1  A    between atoms: C4_4  and  C5_5 
REMARK    2  A    between atoms: C5_5  and  C6_6 
REMARK    3  A    between atoms: C6_6  and  C7_7 
REMARK    4  A    between atoms: C7_7  and  O2_9 
REMARK    5  A    between atoms: O2_9  and  C8_10 
REMARK    6  A    between atoms: C15_19  and  O5_20 
REMARK    7  A    between atoms: C18_24  and  O6_25 
REMARK    8  A    between atoms: C18_24  and  C19_27 
REMARK    9  A    between atoms: C20_28  and  C21_29 
REMARK   10  A    between atoms: C21_29  and  O8_31 
ROOT
HETATM    1  C1  UNL     1      24.893   4.927   5.358  1.00  0.00     0.036 C 
HETATM    2  C2  UNL     1      25.027   6.284   4.772  1.00  0.00    -0.027 C 
HETATM    3  C3  UNL     1      24.235   6.762   3.847  1.00  0.00    -0.071 C 
HETATM    4  C4  UNL     1      23.056   6.277   3.086  1.00  0.00     0.024 C 
HETATM    5  C10 UNL     1      23.468   7.264   1.971  1.00  0.00    -0.026 C 
HETATM    6  C11 UNL     1      24.514   6.632   1.036  1.00  0.00     0.016 C 
HETATM    7  C12 UNL     1      22.305   7.646   1.206  1.00  0.00     0.013 C 
HETATM    8  C13 UNL     1      22.239   9.097   0.759  1.00  0.00     0.042 C 
HETATM    9  C14 UNL     1      20.908   9.708   1.142  1.00  0.00     0.225 C 
HETATM   10  O3  UNL     1      20.408  10.602   0.186  1.00  0.00    -0.227 OA
HETATM   11  O4  UNL     1      21.279  11.481   0.638  1.00  0.00    -0.197 OA
HETATM   12  C15 UNL     1      21.038  10.979   1.907  1.00  0.00     0.224 C 
HETATM   13  C16 UNL     1      22.197  11.001   2.857  1.00  0.00     0.077 C 
HETATM   14  C17 UNL     1      22.176   9.684   3.614  1.00  0.00     0.048 C 
HETATM   15  C18 UNL     1      23.537   9.124   3.788  1.00  0.00     0.084 C 
HETATM   16  C23 UNL     1      24.061   8.026   3.037  1.00  0.00     0.061 C 
ENDROOT
BRANCH  15  17
HETATM   17  O6  UNL     1      24.400  10.257   3.662  1.00  0.00    -0.385 OA
ATOM     18  H6  UNL     1      24.636  10.267   2.741  1.00  0.00     0.211 HD
ENDBRANCH  15  17
BRANCH  15  19
HETATM   19  C19 UNL     1      23.657   8.774   5.250  1.00  0.00     0.017 C 
HETATM   20  C20 UNL     1      22.773   9.077   6.164  1.00  0.00     0.081 C 
BRANCH  20  21
HETATM   21  C21 UNL     1      22.932   8.721   7.555  1.00  0.00     0.282 C 
HETATM   22  O7  UNL     1      22.207   9.271   8.407  1.00  0.00    -0.260 OA
BRANCH  21  23
HETATM   23  O8  UNL     1      23.858   7.790   7.973  1.00  0.00    -0.323 OA
HETATM   24  C22 UNL     1      25.149   8.216   8.421  1.00  0.00     0.213 C 
ENDBRANCH  21  23
ENDBRANCH  20  21
ENDBRANCH  15  19
BRANCH  12  25
HETATM   25  O5  UNL     1      19.865  11.353   2.509  1.00  0.00    -0.361 OA
ATOM     26  H5  UNL     1      19.999  11.976   3.213  1.00  0.00     0.213 HD
ENDBRANCH  12  25
BRANCH   4  27
HETATM   27  C5  UNL     1      23.022   4.846   2.755  1.00  0.00     0.019 C 
BRANCH  27  28
HETATM   28  C6  UNL     1      21.639   4.287   2.903  1.00  0.00     0.112 C 
BRANCH  28  29
HETATM   29  C7  UNL     1      21.368   3.939   4.352  1.00  0.00     0.258 C 
HETATM   30  O1  UNL     1      22.103   3.168   4.988  1.00  0.00    -0.265 OA
BRANCH  29  31
HETATM   31  O2  UNL     1      20.279   4.504   4.947  1.00  0.00    -0.322 OA
BRANCH  31  32
HETATM   32  C8  UNL     1      19.710   5.683   4.387  1.00  0.00     0.174 C 
HETATM   33  C9  UNL     1      20.098   6.861   5.234  1.00  0.00     0.034 C 
ENDBRANCH  31  32
ENDBRANCH  29  31
ENDBRANCH  28  29
ENDBRANCH  27  28
ENDBRANCH   4  27
TORSDOF 10
ENDMDL
MODEL 3
REMARK VINA RESULT: -8.157047690      4.609      7.908
REMARK  10 active torsions:
REMARK  status: ('A' for Active; 'I' for Inactive)
REMARK    1  A    between atoms: C4_4  and  C5_5 
REMARK    2  A    between atoms: C5_5  and  C6_6 
REMARK    3  A    between atoms: C6_6  and  C7_7 
REMARK    4  A    between atoms: C7_7  and  O2_9 
REMARK    5  A    between atoms: O2_9  and  C8_10 
REMARK    6  A    between atoms: C15_19  and  O5_20 
REMARK    7  A    between atoms: C18_24  and  O6_25 
REMARK    8  A    between atoms: C18_24  and  C19_27 
REMARK    9  A    between atoms: C20_28  and  C21_29 
REMARK   10  A    between atoms: C21_29  and  O8_31 
ROOT
HETATM    1  C1  UNL     1      17.616   8.565   5.181  1.00  0.00     0.036 C 
HETATM    2  C2  UNL     1      18.708   9.315   4.514  1.00  0.00    -0.027 C 
HETATM    3  C3  UNL     1      19.779   8.756   4.013  1.00  0.00    -0.071 C 
HETATM    4  C4  UNL     1      20.316   7.377   3.894  1.00  0.00     0.024 C 
HETATM    5  C10 UNL     1      21.723   8.013   3.845  1.00  0.00    -0.026 C 
HETATM    6  C11 UNL     1      22.267   8.258   5.263  1.00  0.00     0.016 C 
HETATM    7  C12 UNL     1      22.625   7.143   3.127  1.00  0.00     0.013 C 
HETATM    8  C13 UNL     1      23.639   7.823   2.222  1.00  0.00     0.042 C 
HETATM    9  C14 UNL     1      23.599   7.215   0.836  1.00  0.00     0.225 C 
HETATM   10  O3  UNL     1      24.861   7.118   0.233  1.00  0.00    -0.227 OA
HETATM   11  O4  UNL     1      24.782   8.411  -0.007  1.00  0.00    -0.197 OA
HETATM   12  C15 UNL     1      23.430   8.222  -0.248  1.00  0.00     0.224 C 
HETATM   13  C16 UNL     1      22.529   9.363   0.118  1.00  0.00     0.077 C 
HETATM   14  C17 UNL     1      21.294   8.764   0.767  1.00  0.00     0.048 C 
HETATM   15  C18 UNL     1      20.846   9.551   1.939  1.00  0.00     0.084 C 
HETATM   16  C23 UNL     1      21.050   9.161   3.300  1.00  0.00     0.061 C 
ENDROOT
BRANCH  15  17
HETATM   17  O6  UNL     1      21.399  10.851   1.719  1.00  0.00    -0.385 OA
ATOM     18  H6  UNL     1      21.890  11.032   2.512  1.00  0.00     0.211 HD
ENDBRANCH  15  17
BRANCH  15  19
HETATM   19  C19 UNL     1      19.369   9.779   1.747  1.00  0.00     0.017 C 
HETATM   20  C20 UNL     1      18.851  10.703   0.981  1.00  0.00     0.081 C 
BRANCH  20  21
HETATM   21  C21 UNL     1      17.426  10.886   0.827  1.00  0.00     0.282 C 
HETATM   22  O7  UNL     1      17.009  11.832   0.132  1.00  0.00    -0.260 OA
BRANCH  21  23
HETATM   23  O8  UNL     1      16.511  10.046   1.422  1.00  0.00    -0.323 OA
HETATM   24  C22 UNL     1      15.544  10.572   2.338  1.00  0.00     0.213 C 
ENDBRANCH  21  23
ENDBRANCH  20  21
ENDBRANCH  15  19
BRANCH  12  25
HETATM   25  O5  UNL     1      23.087   7.653  -1.446  1.00  0.00    -0.361 OA
ATOM     26  H5  UNL     1      22.468   8.181  -1.937  1.00  0.00     0.213 HD
ENDBRANCH  12  25
BRANCH   4  27
HETATM   27  C5  UNL     1      20.022   6.452   4.998  1.00  0.00     0.019 C 
BRANCH  27  28
HETATM   28  C6  UNL     1      19.600   5.110   4.482  1.00  0.00     0.112 C 
BRANCH  28  29
HETATM   29  C7  UNL     1      20.816   4.268   4.158  1.00  0.00     0.258 C 
HETATM   30  O1  UNL     1      21.838   4.294   4.861  1.00  0.00    -0.265 OA
BRANCH  29  31
HETATM   31  O2  UNL     1      20.756   3.467   3.055  1.00  0.00    -0.322 OA
BRANCH  31  32
HETATM   32  C8  UNL     1      19.726   2.491   2.956  1.00  0.00     0.174 C 
HETATM   33  C9  UNL     1      19.819   1.817   1.617  1.00  0.00     0.034 C 
ENDBRANCH  31  32
ENDBRANCH  29  31
ENDBRANCH  28  29
ENDBRANCH  27  28
ENDBRANCH   4  27
TORSDOF 10
ENDMDL
MODEL 4
REMARK VINA RESULT: -8.144555875      3.244      6.315
REMARK  10 active torsions:
REMARK  status: ('A' for Active; 'I' for Inactive)
REMARK    1  A    between atoms: C4_4  and  C5_5 
REMARK    2  A    between atoms: C5_5  and  C6_6 
REMARK    3  A    between atoms: C6_6  and  C7_7 
REMARK    4  A    between atoms: C7_7  and  O2_9 
REMARK    5  A    between atoms: O2_9  and  C8_10 
REMARK    6  A    between atoms: C15_19  and  O5_20 
REMARK    7  A    between atoms: C18_24  and  O6_25 
REMARK    8  A    between atoms: C18_24  and  C19_27 
REMARK    9  A    between atoms: C20_28  and  C21_29 
REMARK   10  A    between atoms: C21_29  and  O8_31 
ROOT
HETATM    1  C1  UNL     1      22.397   7.607   0.965  1.00  0.00     0.036 C 
HETATM    2  C2  UNL     1      21.862   8.032   2.282  1.00  0.00    -0.027 C 
HETATM    3  C3  UNL     1      20.789   8.766   2.432  1.00  0.00    -0.071 C 
HETATM    4  C4  UNL     1      19.789   9.403   1.539  1.00  0.00     0.024 C 
HETATM    5  C10 UNL     1      19.555  10.434   2.666  1.00  0.00    -0.026 C 
HETATM    6  C11 UNL     1      20.577  11.582   2.582  1.00  0.00     0.016 C 
HETATM    7  C12 UNL     1      18.218  10.969   2.565  1.00  0.00     0.013 C 
HETATM    8  C13 UNL     1      17.492  11.218   3.876  1.00  0.00     0.042 C 
HETATM    9  C14 UNL     1      16.123  10.573   3.851  1.00  0.00     0.225 C 
HETATM   10  O3  UNL     1      15.137  11.328   4.503  1.00  0.00    -0.227 OA
HETATM   11  O4  UNL     1      15.646  10.901   5.641  1.00  0.00    -0.197 OA
HETATM   12  C15 UNL     1      15.865   9.683   5.016  1.00  0.00     0.224 C 
HETATM   13  C16 UNL     1      17.069   8.914   5.472  1.00  0.00     0.077 C 
HETATM   14  C17 UNL     1      17.721   8.333   4.229  1.00  0.00     0.048 C 
HETATM   15  C18 UNL     1      19.199   8.428   4.283  1.00  0.00     0.084 C 
HETATM   16  C23 UNL     1      19.975   9.378   3.548  1.00  0.00     0.061 C 
ENDROOT
BRANCH  15  17
HETATM   17  O6  UNL     1      19.492   8.535   5.678  1.00  0.00    -0.385 OA
ATOM     18  H6  UNL     1      19.647   9.464   5.812  1.00  0.00     0.211 HD
ENDBRANCH  15  17
BRANCH  15  19
HETATM   19  C19 UNL     1      19.716   7.054   3.939  1.00  0.00     0.017 C 
HETATM   20  C20 UNL     1      19.816   6.062   4.784  1.00  0.00     0.081 C 
BRANCH  20  21
HETATM   21  C21 UNL     1      20.318   4.761   4.408  1.00  0.00     0.282 C 
HETATM   22  O7  UNL     1      21.506   4.477   4.653  1.00  0.00    -0.260 OA
BRANCH  21  23
HETATM   23  O8  UNL     1      19.525   3.819   3.789  1.00  0.00    -0.323 OA
HETATM   24  C22 UNL     1      20.119   2.818   2.956  1.00  0.00     0.213 C 
ENDBRANCH  21  23
ENDBRANCH  20  21
ENDBRANCH  15  19
BRANCH  12  25
HETATM   25  O5  UNL     1      14.773   8.876   4.831  1.00  0.00    -0.361 OA
ATOM     26  H5  UNL     1      14.876   8.024   5.240  1.00  0.00     0.213 HD
ENDBRANCH  12  25
BRANCH   4  27
HETATM   27  C5  UNL     1      20.276   9.902   0.245  1.00  0.00     0.019 C 
BRANCH  27  28
HETATM   28  C6  UNL     1      19.257   9.695  -0.834  1.00  0.00     0.112 C 
BRANCH  28  29
HETATM   29  C7  UNL     1      18.435  10.951  -1.025  1.00  0.00     0.258 C 
HETATM   30  O1  UNL     1      18.836  12.062  -0.645  1.00  0.00    -0.265 OA
BRANCH  29  31
HETATM   31  O2  UNL     1      17.222  10.827  -1.637  1.00  0.00    -0.322 OA
BRANCH  31  32
HETATM   32  C8  UNL     1      16.295   9.859  -1.160  1.00  0.00     0.174 C 
HETATM   33  C9  UNL     1      15.544  10.435   0.006  1.00  0.00     0.034 C 
ENDBRANCH  31  32
ENDBRANCH  29  31
ENDBRANCH  28  29
ENDBRANCH  27  28
ENDBRANCH   4  27
TORSDOF 10
ENDMDL
MODEL 5
REMARK VINA RESULT: -8.121356408      2.190      5.903
REMARK  10 active torsions:
REMARK  status: ('A' for Active; 'I' for Inactive)
REMARK    1  A    between atoms: C4_4  and  C5_5 
REMARK    2  A    between atoms: C5_5  and  C6_6 
REMARK    3  A    between atoms: C6_6  and  C7_7 
REMARK    4  A    between atoms: C7_7  and  O2_9 
REMARK    5  A    between atoms: O2_9  and  C8_10 
REMARK    6  A    between atoms: C15_19  and  O5_20 
REMARK    7  A    between atoms: C18_24  and  O6_25 
REMARK    8  A    between atoms: C18_24  and  C19_27 
REMARK    9  A    between atoms: C20_28  and  C21_29 
REMARK   10  A    between atoms: C21_29  and  O8_31 
ROOT
HETATM    1  C1  UNL     1      18.753   9.969   5.472  1.00  0.00     0.036 C 
HETATM    2  C2  UNL     1      17.592  10.591   4.789  1.00  0.00    -0.027 C 
HETATM    3  C3  UNL     1      17.425  10.595   3.491  1.00  0.00    -0.071 C 
HETATM    4  C4  UNL     1      18.165  10.084   2.310  1.00  0.00     0.024 C 
HETATM    5  C10 UNL     1      17.482  11.205   1.495  1.00  0.00    -0.026 C 
HETATM    6  C11 UNL     1      18.271  12.522   1.601  1.00  0.00     0.016 C 
HETATM    7  C12 UNL     1      17.388  10.810   0.109  1.00  0.00     0.013 C 
HETATM    8  C13 UNL     1      16.113  11.202  -0.618  1.00  0.00     0.042 C 
HETATM    9  C14 UNL     1      15.507   9.998  -1.307  1.00  0.00     0.225 C 
HETATM   10  O3  UNL     1      14.928  10.298  -2.548  1.00  0.00    -0.227 OA
HETATM   11  O4  UNL     1      13.909  10.805  -1.885  1.00  0.00    -0.197 OA
HETATM   12  C15 UNL     1      14.074   9.780  -0.967  1.00  0.00     0.224 C 
HETATM   13  C16 UNL     1      13.731  10.105   0.455  1.00  0.00     0.077 C 
HETATM   14  C17 UNL     1      14.801   9.471   1.327  1.00  0.00     0.048 C 
HETATM   15  C18 UNL     1      15.210  10.362   2.438  1.00  0.00     0.084 C 
HETATM   16  C23 UNL     1      16.431  11.104   2.471  1.00  0.00     0.061 C 
ENDROOT
BRANCH  15  17
HETATM   17  O6  UNL     1      14.098  11.247   2.604  1.00  0.00    -0.385 OA
ATOM     18  H6  UNL     1      14.242  11.643   3.456  1.00  0.00     0.211 HD
ENDBRANCH  15  17
BRANCH  15  19
HETATM   19  C19 UNL     1      15.154   9.519   3.688  1.00  0.00     0.017 C 
HETATM   20  C20 UNL     1      14.226   9.605   4.604  1.00  0.00     0.081 C 
BRANCH  20  21
HETATM   21  C21 UNL     1      14.213   8.776   5.786  1.00  0.00     0.282 C 
HETATM   22  O7  UNL     1      13.128   8.550   6.356  1.00  0.00    -0.260 OA
BRANCH  21  23
HETATM   23  O8  UNL     1      15.363   8.222   6.306  1.00  0.00    -0.323 OA
HETATM   24  C22 UNL     1      15.883   8.691   7.555  1.00  0.00     0.213 C 
ENDBRANCH  21  23
ENDBRANCH  20  21
ENDBRANCH  15  19
BRANCH  12  25
HETATM   25  O5  UNL     1      13.629   8.538  -1.338  1.00  0.00    -0.361 OA
ATOM     26  H5  UNL     1      12.811   8.572  -1.820  1.00  0.00     0.213 HD
ENDBRANCH  12  25
BRANCH   4  27
HETATM   27  C5  UNL     1      19.632  10.093   2.391  1.00  0.00     0.019 C 
BRANCH  27  28
HETATM   28  C6  UNL     1      20.236   9.153   1.392  1.00  0.00     0.112 C 
BRANCH  28  29
HETATM   29  C7  UNL     1      21.065   9.921   0.385  1.00  0.00     0.258 C 
HETATM   30  O1  UNL     1      21.155  11.158   0.417  1.00  0.00    -0.265 OA
BRANCH  29  31
HETATM   31  O2  UNL     1      21.720   9.206  -0.574  1.00  0.00    -0.322 OA
BRANCH  31  32
HETATM   32  C8  UNL     1      22.889   8.474  -0.223  1.00  0.00     0.174 C 
HETATM   33  C9  UNL     1      23.701   8.226  -1.462  1.00  0.00     0.034 C 
ENDBRANCH  31  32
ENDBRANCH  29  31
ENDBRANCH  28  29
ENDBRANCH  27  28
ENDBRANCH   4  27
TORSDOF 10
ENDMDL
