MODEL 1
REMARK VINA RESULT: -7.870495716      0.000      0.000
REMARK  9 active torsions:
REMARK  status: ('A' for Active; 'I' for Inactive)
REMARK    1  A    between atoms: C2_2  and  O2_4 
REMARK    2  A    between atoms: O2_4  and  C3_5 
REMARK    3  A    between atoms: C4_6  and  O3_7 
REMARK    4  A    between atoms: O3_7  and  C5_8 
REMARK    5  A    between atoms: C5_8  and  C6_9 
REMARK    6  A    between atoms: C6_9  and  C7_10 
REMARK    7  A    between atoms: C7_10  and  C8_11 
REMARK    8  A    between atoms: C8_11  and  N1_12 
REMARK    9  A    between atoms: C9_16  and  O4_17 
ROOT
HETATM    1  C3  UNL     1      20.676  10.922   2.710  1.00  0.00     0.089 C 
HETATM    2  C4  UNL     1      20.119  10.428   3.844  1.00  0.00     0.105 C 
HETATM    3  C9  UNL     1      20.964   9.413   4.526  1.00  0.00     0.182 C 
HETATM    4  C10 UNL     1      21.251   8.330   3.503  1.00  0.00     0.038 C 
HETATM    5  C11 UNL     1      22.111   8.898   2.420  1.00  0.00    -0.031 C 
HETATM    6  C12 UNL     1      21.601   8.369   1.066  1.00  0.00     0.016 C 
HETATM    7  C13 UNL     1      23.577   8.655   2.574  1.00  0.00     0.010 C 
HETATM    8  C14 UNL     1      23.958   7.649   3.608  1.00  0.00     0.007 C 
HETATM    9  C15 UNL     1      22.948   6.551   3.548  1.00  0.00     0.010 C 
HETATM   10  C16 UNL     1      23.484   5.256   3.959  1.00  0.00     0.120 C 
HETATM   11  C17 UNL     1      23.994   4.989   5.288  1.00  0.00     0.266 C 
HETATM   12  O5  UNL     1      24.751   5.469   6.156  1.00  0.00    -0.265 OA
HETATM   13  O6  UNL     1      23.220   3.807   5.270  1.00  0.00    -0.315 OA
HETATM   14  C18 UNL     1      22.476   4.166   4.093  1.00  0.00     0.145 C 
HETATM   15  C19 UNL     1      21.075   4.593   4.303  1.00  0.00     0.034 C 
HETATM   16  C20 UNL     1      20.685   5.887   3.636  1.00  0.00     0.012 C 
HETATM   17  C21 UNL     1      21.647   7.017   4.078  1.00  0.00    -0.032 C 
HETATM   18  C22 UNL     1      21.472   7.071   5.562  1.00  0.00     0.016 C 
HETATM   19  C23 UNL     1      21.974  10.416   2.326  1.00  0.00     0.077 C 
ENDROOT
BRANCH   2  20
HETATM   20  O3  UNL     1      18.900  10.892   4.218  1.00  0.00    -0.350 OA
BRANCH  20  21
HETATM   21  C5  UNL     1      17.696  10.251   4.344  1.00  0.00     0.175 C 
BRANCH  21  22
HETATM   22  C6  UNL     1      17.483   9.413   5.552  1.00  0.00     0.028 C 
BRANCH  22  23
HETATM   23  C7  UNL     1      16.033   9.215   5.936  1.00  0.00     0.029 C 
BRANCH  23  24
HETATM   24  C8  UNL     1      15.882   8.945   7.418  1.00  0.00     0.230 C 
BRANCH  24  25
HETATM   25  N1  UNL     1      16.325   7.588   7.661  1.00  0.00    -0.079 N 
ATOM     26  H13 UNL     1      16.473   7.390   8.651  1.00  0.00     0.274 HD
ATOM     27  H12 UNL     1      15.594   6.895   7.495  1.00  0.00     0.274 HD
ATOM     28  H11 UNL     1      17.157   7.431   7.094  1.00  0.00     0.274 HD
ENDBRANCH  24  25
ENDBRANCH  23  24
ENDBRANCH  22  23
ENDBRANCH  21  22
ENDBRANCH  20  21
ENDBRANCH   2  20
BRANCH   1  29
HETATM   29  O2  UNL     1      19.950  11.866   2.024  1.00  0.00    -0.281 OA
BRANCH  29  30
HETATM   30  C2  UNL     1      19.399  11.538   0.804  1.00  0.00     0.259 C 
HETATM   31  C1  UNL     1      18.071  10.908   0.622  1.00  0.00     0.126 C 
HETATM   32  O1  UNL     1      20.087  11.800  -0.206  1.00  0.00    -0.265 OA
ENDBRANCH  29  30
ENDBRANCH   1  29
BRANCH   3  33
HETATM   33  O4  UNL     1      22.099  10.080   4.960  1.00  0.00    -0.388 OA
ATOM     34  H4  UNL     1      21.935  10.329   5.862  1.00  0.00     0.210 HD
ENDBRANCH   3  33
TORSDOF 9
ENDMDL
MODEL 2
REMARK VINA RESULT: -7.701690832      2.183      2.621
REMARK  9 active torsions:
REMARK  status: ('A' for Active; 'I' for Inactive)
REMARK    1  A    between atoms: C2_2  and  O2_4 
REMARK    2  A    between atoms: O2_4  and  C3_5 
REMARK    3  A    between atoms: C4_6  and  O3_7 
REMARK    4  A    between atoms: O3_7  and  C5_8 
REMARK    5  A    between atoms: C5_8  and  C6_9 
REMARK    6  A    between atoms: C6_9  and  C7_10 
REMARK    7  A    between atoms: C7_10  and  C8_11 
REMARK    8  A    between atoms: C8_11  and  N1_12 
REMARK    9  A    between atoms: C9_16  and  O4_17 
ROOT
HETATM    1  C3  UNL     1      19.429  10.336   1.837  1.00  0.00     0.089 C 
HETATM    2  C4  UNL     1      18.869   9.652   2.867  1.00  0.00     0.105 C 
HETATM    3  C9  UNL     1      19.857   9.181   3.872  1.00  0.00     0.182 C 
HETATM    4  C10 UNL     1      20.881   8.353   3.118  1.00  0.00     0.038 C 
HETATM    5  C11 UNL     1      21.648   9.248   2.198  1.00  0.00    -0.031 C 
HETATM    6  C12 UNL     1      21.838   8.517   0.854  1.00  0.00     0.016 C 
HETATM    7  C13 UNL     1      22.953   9.743   2.729  1.00  0.00     0.010 C 
HETATM    8  C14 UNL     1      23.448   9.061   3.961  1.00  0.00     0.007 C 
HETATM    9  C15 UNL     1      23.115   7.611   3.825  1.00  0.00     0.010 C 
HETATM   10  C16 UNL     1      24.046   6.740   4.538  1.00  0.00     0.120 C 
HETATM   11  C17 UNL     1      24.228   6.773   5.975  1.00  0.00     0.266 C 
HETATM   12  O5  UNL     1      24.405   7.572   6.917  1.00  0.00    -0.265 OA
HETATM   13  O6  UNL     1      24.122   5.365   5.949  1.00  0.00    -0.315 OA
HETATM   14  C18 UNL     1      23.657   5.302   4.589  1.00  0.00     0.145 C 
HETATM   15  C19 UNL     1      22.221   5.006   4.396  1.00  0.00     0.034 C 
HETATM   16  C20 UNL     1      21.485   5.942   3.472  1.00  0.00     0.012 C 
HETATM   17  C21 UNL     1      21.656   7.402   3.957  1.00  0.00    -0.032 C 
HETATM   18  C22 UNL     1      21.069   7.389   5.333  1.00  0.00     0.016 C 
HETATM   19  C23 UNL     1      20.863  10.511   1.851  1.00  0.00     0.077 C 
ENDROOT
BRANCH   2  20
HETATM   20  O3  UNL     1      17.523   9.479   2.868  1.00  0.00    -0.350 OA
BRANCH  20  21
HETATM   21  C5  UNL     1      16.543  10.075   3.618  1.00  0.00     0.175 C 
BRANCH  21  22
HETATM   22  C6  UNL     1      15.445  10.766   2.895  1.00  0.00     0.028 C 
BRANCH  22  23
HETATM   23  C7  UNL     1      14.728   9.914   1.872  1.00  0.00     0.029 C 
BRANCH  23  24
HETATM   24  C8  UNL     1      15.090  10.318   0.458  1.00  0.00     0.230 C 
BRANCH  24  25
HETATM   25  N1  UNL     1      16.143   9.432   0.008  1.00  0.00    -0.079 N 
ATOM     26  H13 UNL     1      15.844   8.458  -0.053  1.00  0.00     0.274 HD
ATOM     27  H12 UNL     1      16.378   9.562  -0.976  1.00  0.00     0.274 HD
ATOM     28  H11 UNL     1      16.942   9.564   0.628  1.00  0.00     0.274 HD
ENDBRANCH  24  25
ENDBRANCH  23  24
ENDBRANCH  22  23
ENDBRANCH  21  22
ENDBRANCH  20  21
ENDBRANCH   2  20
BRANCH   1  29
HETATM   29  O2  UNL     1      18.574  10.803   0.866  1.00  0.00    -0.281 OA
BRANCH  29  30
HETATM   30  C2  UNL     1      18.443  12.162   0.682  1.00  0.00     0.259 C 
HETATM   31  C1  UNL     1      18.090  13.127   1.748  1.00  0.00     0.126 C 
HETATM   32  O1  UNL     1      18.641  12.588  -0.477  1.00  0.00    -0.265 OA
ENDBRANCH  29  30
ENDBRANCH   1  29
BRANCH   3  33
HETATM   33  O4  UNL     1      20.388  10.319   4.460  1.00  0.00    -0.388 OA
ATOM     34  H4  UNL     1      19.714  10.663   5.034  1.00  0.00     0.210 HD
ENDBRANCH   3  33
TORSDOF 9
ENDMDL
MODEL 3
REMARK VINA RESULT: -7.679923357      2.364      2.905
REMARK  9 active torsions:
REMARK  status: ('A' for Active; 'I' for Inactive)
REMARK    1  A    between atoms: C2_2  and  O2_4 
REMARK    2  A    between atoms: O2_4  and  C3_5 
REMARK    3  A    between atoms: C4_6  and  O3_7 
REMARK    4  A    between atoms: O3_7  and  C5_8 
REMARK    5  A    between atoms: C5_8  and  C6_9 
REMARK    6  A    between atoms: C6_9  and  C7_10 
REMARK    7  A    between atoms: C7_10  and  C8_11 
REMARK    8  A    between atoms: C8_11  and  N1_12 
REMARK    9  A    between atoms: C9_16  and  O4_17 
ROOT
HETATM    1  C3  UNL     1      18.837  10.491   1.974  1.00  0.00     0.089 C 
HETATM    2  C4  UNL     1      18.390   9.668   2.956  1.00  0.00     0.105 C 
HETATM    3  C9  UNL     1      19.419   9.358   3.983  1.00  0.00     0.182 C 
HETATM    4  C10 UNL     1      20.611   8.781   3.243  1.00  0.00     0.038 C 
HETATM    5  C11 UNL     1      21.216   9.847   2.386  1.00  0.00    -0.031 C 
HETATM    6  C12 UNL     1      21.589   9.225   1.026  1.00  0.00     0.016 C 
HETATM    7  C13 UNL     1      22.379  10.566   2.986  1.00  0.00     0.010 C 
HETATM    8  C14 UNL     1      22.958   9.943   4.213  1.00  0.00     0.007 C 
HETATM    9  C15 UNL     1      22.923   8.464   4.013  1.00  0.00     0.010 C 
HETATM   10  C16 UNL     1      23.985   7.764   4.732  1.00  0.00     0.120 C 
HETATM   11  C17 UNL     1      24.110   7.771   6.176  1.00  0.00     0.266 C 
HETATM   12  O5  UNL     1      24.094   8.549   7.151  1.00  0.00    -0.265 OA
HETATM   13  O6  UNL     1      24.286   6.372   6.096  1.00  0.00    -0.315 OA
HETATM   14  C18 UNL     1      23.887   6.277   4.718  1.00  0.00     0.145 C 
HETATM   15  C19 UNL     1      22.546   5.712   4.456  1.00  0.00     0.034 C 
HETATM   16  C20 UNL     1      21.669   6.523   3.537  1.00  0.00     0.012 C 
HETATM   17  C21 UNL     1      21.531   7.966   4.079  1.00  0.00    -0.032 C 
HETATM   18  C22 UNL     1      20.914   7.780   5.429  1.00  0.00     0.016 C 
HETATM   19  C23 UNL     1      20.207  10.944   2.052  1.00  0.00     0.077 C 
ENDROOT
BRANCH   2  20
HETATM   20  O3  UNL     1      17.106   9.234   2.897  1.00  0.00    -0.350 OA
BRANCH  20  21
HETATM   21  C5  UNL     1      16.069   9.382   3.779  1.00  0.00     0.175 C 
BRANCH  21  22
HETATM   22  C6  UNL     1      14.693   9.436   3.224  1.00  0.00     0.028 C 
BRANCH  22  23
HETATM   23  C7  UNL     1      14.543  10.300   1.991  1.00  0.00     0.029 C 
BRANCH  23  24
HETATM   24  C8  UNL     1      14.270   9.466   0.757  1.00  0.00     0.230 C 
BRANCH  24  25
HETATM   25  N1  UNL     1      15.549   9.059   0.215  1.00  0.00    -0.079 N 
ATOM     26  H13 UNL     1      16.325   9.233   0.853  1.00  0.00     0.274 HD
ATOM     27  H12 UNL     1      15.650   8.046   0.154  1.00  0.00     0.274 HD
ATOM     28  H11 UNL     1      15.663   9.524  -0.686  1.00  0.00     0.274 HD
ENDBRANCH  24  25
ENDBRANCH  23  24
ENDBRANCH  22  23
ENDBRANCH  21  22
ENDBRANCH  20  21
ENDBRANCH   2  20
BRANCH   1  29
HETATM   29  O2  UNL     1      17.939  10.822   0.987  1.00  0.00    -0.281 OA
BRANCH  29  30
HETATM   30  C2  UNL     1      18.408  11.172  -0.261  1.00  0.00     0.259 C 
HETATM   31  C1  UNL     1      18.796  10.208  -1.316  1.00  0.00     0.126 C 
HETATM   32  O1  UNL     1      18.502  12.396  -0.497  1.00  0.00    -0.265 OA
ENDBRANCH  29  30
ENDBRANCH   1  29
BRANCH   3  33
HETATM   33  O4  UNL     1      19.695  10.553   4.631  1.00  0.00    -0.388 OA
ATOM     34  H4  UNL     1      19.466  10.421   5.543  1.00  0.00     0.210 HD
ENDBRANCH   3  33
TORSDOF 9
ENDMDL
MODEL 4
REMARK VINA RESULT: -7.626620933      2.528      3.522
REMARK  9 active torsions:
REMARK  status: ('A' for Active; 'I' for Inactive)
REMARK    1  A    between atoms: C2_2  and  O2_4 
REMARK    2  A    between atoms: O2_4  and  C3_5 
REMARK    3  A    between atoms: C4_6  and  O3_7 
REMARK    4  A    between atoms: O3_7  and  C5_8 
REMARK    5  A    between atoms: C5_8  and  C6_9 
REMARK    6  A    between atoms: C6_9  and  C7_10 
REMARK    7  A    between atoms: C7_10  and  C8_11 
REMARK    8  A    between atoms: C8_11  and  N1_12 
REMARK    9  A    between atoms: C9_16  and  O4_17 
ROOT
HETATM    1  C3  UNL     1      17.655  10.101   1.917  1.00  0.00     0.089 C 
HETATM    2  C4  UNL     1      17.578   9.469   3.115  1.00  0.00     0.105 C 
HETATM    3  C9  UNL     1      18.822   9.573   3.922  1.00  0.00     0.182 C 
HETATM    4  C10 UNL     1      19.946   9.036   3.056  1.00  0.00     0.038 C 
HETATM    5  C11 UNL     1      20.149   9.956   1.894  1.00  0.00    -0.031 C 
HETATM    6  C12 UNL     1      20.381   9.102   0.633  1.00  0.00     0.016 C 
HETATM    7  C13 UNL     1      21.232  10.970   2.064  1.00  0.00     0.010 C 
HETATM    8  C14 UNL     1      22.146  10.750   3.223  1.00  0.00     0.007 C 
HETATM    9  C15 UNL     1      22.378   9.278   3.327  1.00  0.00     0.010 C 
HETATM   10  C16 UNL     1      23.675   8.942   3.908  1.00  0.00     0.120 C 
HETATM   11  C17 UNL     1      24.064   9.304   5.256  1.00  0.00     0.266 C 
HETATM   12  O5  UNL     1      24.073  10.275   6.040  1.00  0.00    -0.265 OA
HETATM   13  O6  UNL     1      24.504   7.971   5.411  1.00  0.00    -0.315 OA
HETATM   14  C18 UNL     1      23.882   7.496   4.205  1.00  0.00     0.145 C 
HETATM   15  C19 UNL     1      22.660   6.680   4.369  1.00  0.00     0.034 C 
HETATM   16  C20 UNL     1      21.480   7.106   3.534  1.00  0.00     0.012 C 
HETATM   17  C21 UNL     1      21.154   8.595   3.803  1.00  0.00    -0.032 C 
HETATM   18  C22 UNL     1      20.852   8.632   5.267  1.00  0.00     0.016 C 
HETATM   19  C23 UNL     1      18.894  10.771   1.592  1.00  0.00     0.077 C 
ENDROOT
BRANCH   2  20
HETATM   20  O3  UNL     1      16.422   8.834   3.435  1.00  0.00    -0.350 OA
BRANCH  20  21
HETATM   21  C5  UNL     1      15.393   9.208   4.259  1.00  0.00     0.175 C 
BRANCH  21  22
HETATM   22  C6  UNL     1      14.125   9.647   3.624  1.00  0.00     0.028 C 
BRANCH  22  23
HETATM   23  C7  UNL     1      13.347   8.545   2.938  1.00  0.00     0.029 C 
BRANCH  23  24
HETATM   24  C8  UNL     1      13.528   8.590   1.435  1.00  0.00     0.230 C 
BRANCH  24  25
HETATM   25  N1  UNL     1      14.626   7.707   1.102  1.00  0.00    -0.079 N 
ATOM     26  H13 UNL     1      15.414   7.793   1.744  1.00  0.00     0.274 HD
ATOM     27  H12 UNL     1      14.415   6.725   1.280  1.00  0.00     0.274 HD
ATOM     28  H11 UNL     1      14.882   7.888   0.132  1.00  0.00     0.274 HD
ENDBRANCH  24  25
ENDBRANCH  23  24
ENDBRANCH  22  23
ENDBRANCH  21  22
ENDBRANCH  20  21
ENDBRANCH   2  20
BRANCH   1  29
HETATM   29  O2  UNL     1      16.540  10.046   1.115  1.00  0.00    -0.281 OA
BRANCH  29  30
HETATM   30  C2  UNL     1      16.609  10.538  -0.171  1.00  0.00     0.259 C 
HETATM   31  C1  UNL     1      17.134   9.785  -1.333  1.00  0.00     0.126 C 
HETATM   32  O1  UNL     1      16.194  11.704  -0.344  1.00  0.00    -0.265 OA
ENDBRANCH  29  30
ENDBRANCH   1  29
BRANCH   3  33
HETATM   33  O4  UNL     1      18.965  10.914   4.246  1.00  0.00    -0.388 OA
ATOM     34  H4  UNL     1      18.320  11.096   4.919  1.00  0.00     0.210 HD
ENDBRANCH   3  33
TORSDOF 9
ENDMDL
MODEL 5
REMARK VINA RESULT: -7.543822705      1.574      2.005
REMARK  9 active torsions:
REMARK  status: ('A' for Active; 'I' for Inactive)
REMARK    1  A    between atoms: C2_2  and  O2_4 
REMARK    2  A    between atoms: O2_4  and  C3_5 
REMARK    3  A    between atoms: C4_6  and  O3_7 
REMARK    4  A    between atoms: O3_7  and  C5_8 
REMARK    5  A    between atoms: C5_8  and  C6_9 
REMARK    6  A    between atoms: C6_9  and  C7_10 
REMARK    7  A    between atoms: C7_10  and  C8_11 
REMARK    8  A    between atoms: C8_11  and  N1_12 
REMARK    9  A    between atoms: C9_16  and  O4_17 
ROOT
HETATM    1  C3  UNL     1      18.810  10.475   1.949  1.00  0.00     0.089 C 
HETATM    2  C4  UNL     1      18.359   9.679   2.952  1.00  0.00     0.105 C 
HETATM    3  C9  UNL     1      19.392   9.373   3.976  1.00  0.00     0.182 C 
HETATM    4  C10 UNL     1      20.567   8.760   3.237  1.00  0.00     0.038 C 
HETATM    5  C11 UNL     1      21.181   9.798   2.353  1.00  0.00    -0.031 C 
HETATM    6  C12 UNL     1      21.532   9.143   1.004  1.00  0.00     0.016 C 
HETATM    7  C13 UNL     1      22.362  10.510   2.928  1.00  0.00     0.010 C 
HETATM    8  C14 UNL     1      22.942   9.903   4.162  1.00  0.00     0.007 C 
HETATM    9  C15 UNL     1      22.881   8.420   3.993  1.00  0.00     0.010 C 
HETATM   10  C16 UNL     1      23.937   7.717   4.717  1.00  0.00     0.120 C 
HETATM   11  C17 UNL     1      24.076   7.752   6.159  1.00  0.00     0.266 C 
HETATM   12  O5  UNL     1      24.082   8.549   7.119  1.00  0.00    -0.265 OA
HETATM   13  O6  UNL     1      24.227   6.348   6.107  1.00  0.00    -0.315 OA
HETATM   14  C18 UNL     1      23.815   6.232   4.734  1.00  0.00     0.145 C 
HETATM   15  C19 UNL     1      22.461   5.685   4.496  1.00  0.00     0.034 C 
HETATM   16  C20 UNL     1      21.590   6.491   3.568  1.00  0.00     0.012 C 
HETATM   17  C21 UNL     1      21.481   7.948   4.082  1.00  0.00    -0.032 C 
HETATM   18  C22 UNL     1      20.874   7.799   5.440  1.00  0.00     0.016 C 
HETATM   19  C23 UNL     1      20.188  10.906   2.006  1.00  0.00     0.077 C 
ENDROOT
BRANCH   2  20
HETATM   20  O3  UNL     1      17.067   9.265   2.914  1.00  0.00    -0.350 OA
BRANCH  20  21
HETATM   21  C5  UNL     1      15.953   9.746   3.549  1.00  0.00     0.175 C 
BRANCH  21  22
HETATM   22  C6  UNL     1      16.096  10.180   4.961  1.00  0.00     0.028 C 
BRANCH  22  23
HETATM   23  C7  UNL     1      15.234   9.420   5.946  1.00  0.00     0.029 C 
BRANCH  23  24
HETATM   24  C8  UNL     1      16.037   8.949   7.141  1.00  0.00     0.230 C 
BRANCH  24  25
HETATM   25  N1  UNL     1      17.252   8.344   6.638  1.00  0.00    -0.079 N 
ATOM     26  H13 UNL     1      17.386   7.388   6.967  1.00  0.00     0.274 HD
ATOM     27  H12 UNL     1      17.209   8.136   5.640  1.00  0.00     0.274 HD
ATOM     28  H11 UNL     1      18.026   8.961   6.882  1.00  0.00     0.274 HD
ENDBRANCH  24  25
ENDBRANCH  23  24
ENDBRANCH  22  23
ENDBRANCH  21  22
ENDBRANCH  20  21
ENDBRANCH   2  20
BRANCH   1  29
HETATM   29  O2  UNL     1      17.909  10.800   0.964  1.00  0.00    -0.281 OA
BRANCH  29  30
HETATM   30  C2  UNL     1      18.374  11.178  -0.277  1.00  0.00     0.259 C 
HETATM   31  C1  UNL     1      18.724  10.239  -1.367  1.00  0.00     0.126 C 
HETATM   32  O1  UNL     1      18.502  12.406  -0.473  1.00  0.00    -0.265 OA
ENDBRANCH  29  30
ENDBRANCH   1  29
BRANCH   3  33
HETATM   33  O4  UNL     1      19.693  10.575   4.597  1.00  0.00    -0.388 OA
ATOM     34  H4  UNL     1      18.997  10.735   5.223  1.00  0.00     0.210 HD
ENDBRANCH   3  33
TORSDOF 9
ENDMDL
