MODEL 1
REMARK VINA RESULT: -8.984328861      0.000      0.000
REMARK  7 active torsions:
REMARK  status: ('A' for Active; 'I' for Inactive)
REMARK    1  A    between atoms: C2_2  and  C3_4 
REMARK    2  A    between atoms: C3_4  and  N1_5 
REMARK    3  A    between atoms: C3_4  and  C4_9 
REMARK    4  A    between atoms: C4_9  and  C5_10 
REMARK    5  A    between atoms: C19_27  and  C20_28 
REMARK    6  A    between atoms: C20_28  and  O5_29 
REMARK    7  A    between atoms: O5_29  and  C21_30 
ROOT
HETATM    1  C5  UNL     1      18.570   9.473   2.836  1.00  0.00     0.129 C 
HETATM    2  C6  UNL     1      17.660  10.656   2.879  1.00  0.00     0.069 C 
HETATM    3  C7  UNL     1      16.918  10.929   1.629  1.00  0.00     0.183 C 
HETATM    4  O2  UNL     1      16.350   9.785   1.053  1.00  0.00    -0.344 OA
HETATM    5  C8  UNL     1      15.926  10.288  -0.151  1.00  0.00     0.172 C 
HETATM    6  C9  UNL     1      14.516  10.889  -0.020  1.00  0.00     0.073 C 
HETATM    7  C10 UNL     1      13.645  10.031  -0.972  1.00  0.00    -0.009 C 
HETATM    8  C11 UNL     1      13.531  10.675  -2.244  1.00  0.00     0.010 C 
HETATM    9  C12 UNL     1      13.827  10.078  -3.548  1.00  0.00    -0.010 A 
HETATM   10  C13 UNL     1      14.044   8.719  -3.945  1.00  0.00     0.010 A 
HETATM   11  C14 UNL     1      15.227   9.488  -3.698  1.00  0.00    -0.010 A 
HETATM   12  C15 UNL     1      16.006   9.748  -2.492  1.00  0.00     0.015 C 
HETATM   13  C16 UNL     1      15.739   9.157  -1.196  1.00  0.00     0.049 C 
HETATM   14  C17 UNL     1      14.380   8.761  -0.781  1.00  0.00     0.014 C 
HETATM   15  O3  UNL     1      16.830  11.225  -0.587  1.00  0.00    -0.322 OA
HETATM   16  C18 UNL     1      17.707  11.479   0.497  1.00  0.00     0.295 C 
HETATM   17  O4  UNL     1      18.873  10.816   0.207  1.00  0.00    -0.327 OA
HETATM   18  C19 UNL     1      19.754  10.684   1.251  1.00  0.00     0.287 C 
HETATM   19  O6  UNL     1      19.531   9.494   1.880  1.00  0.00    -0.354 OA
ENDROOT
BRANCH   1  20
HETATM   20  C4  UNL     1      19.225   9.275   4.182  1.00  0.00     0.072 C 
BRANCH  20  21
HETATM   21  C3  UNL     1      19.140   7.882   4.698  1.00  0.00     0.254 C 
BRANCH  21  22
HETATM   22  C2  UNL     1      20.560   7.397   4.866  1.00  0.00     0.153 C 
HETATM   23  C1  UNL     1      21.713   8.301   4.687  1.00  0.00     0.093 C 
HETATM   24  O1  UNL     1      20.776   6.229   5.160  1.00  0.00    -0.296 OA
ENDBRANCH  21  22
BRANCH  21  25
HETATM   25  N1  UNL     1      18.461   7.053   3.753  1.00  0.00    -0.068 N 
ATOM     26  H13 UNL     1      17.996   7.598   3.026  1.00  0.00     0.275 HD
ATOM     27  H12 UNL     1      19.108   6.537   3.157  1.00  0.00     0.275 HD
ATOM     28  H11 UNL     1      17.814   6.435   4.243  1.00  0.00     0.275 HD
ENDBRANCH  21  25
ENDBRANCH  20  21
ENDBRANCH   1  20
BRANCH  18  29
HETATM   29  C20 UNL     1      21.209  10.663   0.755  1.00  0.00     0.228 C 
BRANCH  29  30
HETATM   30  O5  UNL     1      21.388   9.509  -0.038  1.00  0.00    -0.382 OA
BRANCH  30  31
HETATM   31  C21 UNL     1      22.598   8.933   0.239  1.00  0.00     0.113 C 
HETATM   32  C22 UNL     1      23.340   8.523  -1.031  1.00  0.00     0.039 C 
HETATM   33  C23 UNL     1      22.328   7.642   1.017  1.00  0.00     0.039 C 
ENDBRANCH  30  31
ENDBRANCH  29  30
ENDBRANCH  18  29
TORSDOF 7
ENDMDL
MODEL 2
REMARK VINA RESULT: -8.817507558      0.887      1.032
REMARK  7 active torsions:
REMARK  status: ('A' for Active; 'I' for Inactive)
REMARK    1  A    between atoms: C2_2  and  C3_4 
REMARK    2  A    between atoms: C3_4  and  N1_5 
REMARK    3  A    between atoms: C3_4  and  C4_9 
REMARK    4  A    between atoms: C4_9  and  C5_10 
REMARK    5  A    between atoms: C19_27  and  C20_28 
REMARK    6  A    between atoms: C20_28  and  O5_29 
REMARK    7  A    between atoms: O5_29  and  C21_30 
ROOT
HETATM    1  C5  UNL     1      18.709   9.094   2.666  1.00  0.00     0.129 C 
HETATM    2  C6  UNL     1      17.816  10.282   2.815  1.00  0.00     0.069 C 
HETATM    3  C7  UNL     1      17.068  10.667   1.598  1.00  0.00     0.183 C 
HETATM    4  O2  UNL     1      16.478   9.582   0.936  1.00  0.00    -0.344 OA
HETATM    5  C8  UNL     1      16.051  10.187  -0.219  1.00  0.00     0.172 C 
HETATM    6  C9  UNL     1      14.652  10.796  -0.025  1.00  0.00     0.073 C 
HETATM    7  C10 UNL     1      13.760  10.031  -1.035  1.00  0.00    -0.009 C 
HETATM    8  C11 UNL     1      13.645  10.778  -2.249  1.00  0.00     0.010 C 
HETATM    9  C12 UNL     1      13.920  10.285  -3.600  1.00  0.00    -0.010 A 
HETATM   10  C13 UNL     1      14.113   8.959  -4.108  1.00  0.00     0.010 A 
HETATM   11  C14 UNL     1      15.310   9.689  -3.812  1.00  0.00    -0.010 A 
HETATM   12  C15 UNL     1      16.103   9.839  -2.596  1.00  0.00     0.015 C 
HETATM   13  C16 UNL     1      15.838   9.147  -1.350  1.00  0.00     0.049 C 
HETATM   14  C17 UNL     1      14.477   8.739  -0.955  1.00  0.00     0.014 C 
HETATM   15  O3  UNL     1      16.965  11.143  -0.586  1.00  0.00    -0.322 OA
HETATM   16  C18 UNL     1      17.856  11.296   0.506  1.00  0.00     0.295 C 
HETATM   17  O4  UNL     1      19.009  10.642   0.152  1.00  0.00    -0.327 OA
HETATM   18  C19 UNL     1      19.897  10.413   1.173  1.00  0.00     0.287 C 
HETATM   19  O6  UNL     1      19.662   9.179   1.706  1.00  0.00    -0.354 OA
ENDROOT
BRANCH   1  20
HETATM   20  C4  UNL     1      19.372   8.778   3.985  1.00  0.00     0.072 C 
BRANCH  20  21
HETATM   21  C3  UNL     1      20.489   7.800   3.882  1.00  0.00     0.254 C 
BRANCH  21  22
HETATM   22  C2  UNL     1      20.164   6.672   4.832  1.00  0.00     0.153 C 
HETATM   23  C1  UNL     1      20.054   5.275   4.368  1.00  0.00     0.093 C 
HETATM   24  O1  UNL     1      19.985   6.906   6.019  1.00  0.00    -0.296 OA
ENDBRANCH  21  22
BRANCH  21  25
HETATM   25  N1  UNL     1      21.716   8.417   4.275  1.00  0.00    -0.068 N 
ATOM     26  H13 UNL     1      21.610   8.983   5.117  1.00  0.00     0.275 HD
ATOM     27  H12 UNL     1      22.389   7.742   4.636  1.00  0.00     0.275 HD
ATOM     28  H11 UNL     1      22.092   8.956   3.495  1.00  0.00     0.275 HD
ENDBRANCH  21  25
ENDBRANCH  20  21
ENDBRANCH   1  20
BRANCH  18  29
HETATM   29  C20 UNL     1      21.347  10.411   0.663  1.00  0.00     0.228 C 
BRANCH  29  30
HETATM   30  O5  UNL     1      21.513   9.298  -0.190  1.00  0.00    -0.382 OA
BRANCH  30  31
HETATM   31  C21 UNL     1      22.737   8.723   0.023  1.00  0.00     0.113 C 
HETATM   32  C22 UNL     1      23.469   8.437  -1.285  1.00  0.00     0.039 C 
HETATM   33  C23 UNL     1      22.499   7.366   0.692  1.00  0.00     0.039 C 
ENDBRANCH  30  31
ENDBRANCH  29  30
ENDBRANCH  18  29
TORSDOF 7
ENDMDL
MODEL 3
REMARK VINA RESULT: -8.785232867      1.161      1.494
REMARK  7 active torsions:
REMARK  status: ('A' for Active; 'I' for Inactive)
REMARK    1  A    between atoms: C2_2  and  C3_4 
REMARK    2  A    between atoms: C3_4  and  N1_5 
REMARK    3  A    between atoms: C3_4  and  C4_9 
REMARK    4  A    between atoms: C4_9  and  C5_10 
REMARK    5  A    between atoms: C19_27  and  C20_28 
REMARK    6  A    between atoms: C20_28  and  O5_29 
REMARK    7  A    between atoms: O5_29  and  C21_30 
ROOT
HETATM    1  C5  UNL     1      18.089   9.555   3.096  1.00  0.00     0.129 C 
HETATM    2  C6  UNL     1      17.081  10.656   3.086  1.00  0.00     0.069 C 
HETATM    3  C7  UNL     1      16.460  10.933   1.771  1.00  0.00     0.183 C 
HETATM    4  O2  UNL     1      16.060   9.778   1.087  1.00  0.00    -0.344 OA
HETATM    5  C8  UNL     1      15.730  10.307  -0.136  1.00  0.00     0.172 C 
HETATM    6  C9  UNL     1      14.267  10.784  -0.141  1.00  0.00     0.073 C 
HETATM    7  C10 UNL     1      13.584   9.909  -1.221  1.00  0.00    -0.009 C 
HETATM    8  C11 UNL     1      13.555  10.606  -2.469  1.00  0.00     0.010 C 
HETATM    9  C12 UNL     1      14.043  10.103  -3.755  1.00  0.00    -0.010 A 
HETATM   10  C13 UNL     1      14.419   8.788  -4.181  1.00  0.00     0.010 A 
HETATM   11  C14 UNL     1      15.497   9.637  -3.770  1.00  0.00    -0.010 A 
HETATM   12  C15 UNL     1      16.113   9.897  -2.473  1.00  0.00     0.015 C 
HETATM   13  C16 UNL     1      15.757   9.219  -1.241  1.00  0.00     0.049 C 
HETATM   14  C17 UNL     1      14.399   8.694  -1.002  1.00  0.00     0.014 C 
HETATM   15  O3  UNL     1      16.592  11.334  -0.425  1.00  0.00    -0.322 OA
HETATM   16  C18 UNL     1      17.319  11.603   0.761  1.00  0.00     0.295 C 
HETATM   17  O4  UNL     1      18.562  11.052   0.578  1.00  0.00    -0.327 OA
HETATM   18  C19 UNL     1      19.331  10.938   1.709  1.00  0.00     0.287 C 
HETATM   19  O6  UNL     1      19.144   9.703   2.258  1.00  0.00    -0.354 OA
ENDROOT
BRANCH   1  20
HETATM   20  C4  UNL     1      18.607   9.341   4.498  1.00  0.00     0.072 C 
BRANCH  20  21
HETATM   21  C3  UNL     1      18.857   7.915   4.841  1.00  0.00     0.254 C 
BRANCH  21  22
HETATM   22  C2  UNL     1      20.335   7.794   5.128  1.00  0.00     0.153 C 
HETATM   23  C1  UNL     1      21.181   6.806   4.429  1.00  0.00     0.093 C 
HETATM   24  O1  UNL     1      20.859   8.525   5.956  1.00  0.00    -0.296 OA
ENDBRANCH  21  22
BRANCH  21  25
HETATM   25  N1  UNL     1      18.516   7.080   3.732  1.00  0.00    -0.068 N 
ATOM     26  H13 UNL     1      19.267   7.026   3.045  1.00  0.00     0.275 HD
ATOM     27  H12 UNL     1      18.480   6.094   3.990  1.00  0.00     0.275 HD
ATOM     28  H11 UNL     1      17.640   7.402   3.320  1.00  0.00     0.275 HD
ENDBRANCH  21  25
ENDBRANCH  20  21
ENDBRANCH   1  20
BRANCH  18  29
HETATM   29  C20 UNL     1      20.828  11.060   1.382  1.00  0.00     0.228 C 
BRANCH  29  30
HETATM   30  O5  UNL     1      21.516  11.370   2.577  1.00  0.00    -0.382 OA
BRANCH  30  31
HETATM   31  C21 UNL     1      22.095  10.242   3.090  1.00  0.00     0.113 C 
HETATM   32  C22 UNL     1      23.293  10.568   3.978  1.00  0.00     0.039 C 
HETATM   33  C23 UNL     1      22.638   9.424   1.915  1.00  0.00     0.039 C 
ENDBRANCH  30  31
ENDBRANCH  29  30
ENDBRANCH  18  29
TORSDOF 7
ENDMDL
MODEL 4
REMARK VINA RESULT: -8.774653377      1.695      2.330
REMARK  7 active torsions:
REMARK  status: ('A' for Active; 'I' for Inactive)
REMARK    1  A    between atoms: C2_2  and  C3_4 
REMARK    2  A    between atoms: C3_4  and  N1_5 
REMARK    3  A    between atoms: C3_4  and  C4_9 
REMARK    4  A    between atoms: C4_9  and  C5_10 
REMARK    5  A    between atoms: C19_27  and  C20_28 
REMARK    6  A    between atoms: C20_28  and  O5_29 
REMARK    7  A    between atoms: O5_29  and  C21_30 
ROOT
HETATM    1  C5  UNL     1      17.681   9.771   3.033  1.00  0.00     0.129 C 
HETATM    2  C6  UNL     1      16.722  10.905   2.881  1.00  0.00     0.069 C 
HETATM    3  C7  UNL     1      16.204  11.115   1.511  1.00  0.00     0.183 C 
HETATM    4  O2  UNL     1      15.803   9.933   0.875  1.00  0.00    -0.344 OA
HETATM    5  C8  UNL     1      15.579  10.390  -0.399  1.00  0.00     0.172 C 
HETATM    6  C9  UNL     1      14.142  10.919  -0.538  1.00  0.00     0.073 C 
HETATM    7  C10 UNL     1      13.497   9.999  -1.605  1.00  0.00    -0.009 C 
HETATM    8  C11 UNL     1      13.583  10.612  -2.894  1.00  0.00     0.010 C 
HETATM    9  C12 UNL     1      14.136  10.006  -4.107  1.00  0.00    -0.010 A 
HETATM   10  C13 UNL     1      14.485   8.652  -4.421  1.00  0.00     0.010 A 
HETATM   11  C14 UNL     1      15.566   9.487  -3.989  1.00  0.00    -0.010 A 
HETATM   12  C15 UNL     1      16.103   9.810  -2.672  1.00  0.00     0.015 C 
HETATM   13  C16 UNL     1      15.636   9.230  -1.427  1.00  0.00     0.049 C 
HETATM   14  C17 UNL     1      14.245   8.773  -1.251  1.00  0.00     0.014 C 
HETATM   15  O3  UNL     1      16.501  11.363  -0.692  1.00  0.00    -0.322 OA
HETATM   16  C18 UNL     1      17.156  11.684   0.522  1.00  0.00     0.295 C 
HETATM   17  O4  UNL     1      18.385  11.077   0.464  1.00  0.00    -0.327 OA
HETATM   18  C19 UNL     1      19.070  11.011   1.651  1.00  0.00     0.287 C 
HETATM   19  O6  UNL     1      18.795   9.823   2.264  1.00  0.00    -0.354 OA
ENDROOT
BRANCH   1  20
HETATM   20  C4  UNL     1      18.092   9.633   4.479  1.00  0.00     0.072 C 
BRANCH  20  21
HETATM   21  C3  UNL     1      17.615   8.382   5.128  1.00  0.00     0.254 C 
BRANCH  21  22
HETATM   22  C2  UNL     1      16.317   8.725   5.822  1.00  0.00     0.153 C 
HETATM   23  C1  UNL     1      16.273   9.063   7.258  1.00  0.00     0.093 C 
HETATM   24  O1  UNL     1      15.269   8.727   5.192  1.00  0.00    -0.296 OA
ENDBRANCH  21  22
BRANCH  21  25
HETATM   25  N1  UNL     1      18.570   7.938   6.094  1.00  0.00    -0.068 N 
ATOM     26  H13 UNL     1      19.395   8.536   6.122  1.00  0.00     0.275 HD
ATOM     27  H12 UNL     1      18.248   8.087   7.050  1.00  0.00     0.275 HD
ATOM     28  H11 UNL     1      18.808   6.963   5.915  1.00  0.00     0.275 HD
ENDBRANCH  21  25
ENDBRANCH  20  21
ENDBRANCH   1  20
BRANCH  18  29
HETATM   29  C20 UNL     1      20.590  11.056   1.423  1.00  0.00     0.228 C 
BRANCH  29  30
HETATM   30  O5  UNL     1      21.199  11.521   2.610  1.00  0.00    -0.382 OA
BRANCH  30  31
HETATM   31  C21 UNL     1      22.200  10.668   2.987  1.00  0.00     0.113 C 
HETATM   32  C22 UNL     1      22.405   9.545   1.975  1.00  0.00     0.039 C 
HETATM   33  C23 UNL     1      21.769   9.998   4.295  1.00  0.00     0.039 C 
ENDBRANCH  30  31
ENDBRANCH  29  30
ENDBRANCH  18  29
TORSDOF 7
ENDMDL
MODEL 5
REMARK VINA RESULT: -8.629210768      2.658      7.944
REMARK  7 active torsions:
REMARK  status: ('A' for Active; 'I' for Inactive)
REMARK    1  A    between atoms: C2_2  and  C3_4 
REMARK    2  A    between atoms: C3_4  and  N1_5 
REMARK    3  A    between atoms: C3_4  and  C4_9 
REMARK    4  A    between atoms: C4_9  and  C5_10 
REMARK    5  A    between atoms: C19_27  and  C20_28 
REMARK    6  A    between atoms: C20_28  and  O5_29 
REMARK    7  A    between atoms: O5_29  and  C21_30 
ROOT
HETATM    1  C5  UNL     1      15.963   9.124  -1.376  1.00  0.00     0.129 C 
HETATM    2  C6  UNL     1      16.757  10.352  -1.680  1.00  0.00     0.069 C 
HETATM    3  C7  UNL     1      17.712  10.763  -0.628  1.00  0.00     0.183 C 
HETATM    4  O2  UNL     1      18.467   9.703  -0.110  1.00  0.00    -0.344 OA
HETATM    5  C8  UNL     1      19.086  10.320   0.947  1.00  0.00     0.172 C 
HETATM    6  C9  UNL     1      20.392  10.992   0.492  1.00  0.00     0.073 C 
HETATM    7  C10 UNL     1      21.497  10.263   1.296  1.00  0.00    -0.009 C 
HETATM    8  C11 UNL     1      21.816  11.008   2.474  1.00  0.00     0.010 C 
HETATM    9  C12 UNL     1      21.833  10.496   3.846  1.00  0.00    -0.010 A 
HETATM   10  C13 UNL     1      21.801   9.160   4.364  1.00  0.00     0.010 A 
HETATM   11  C14 UNL     1      20.539   9.837   4.318  1.00  0.00    -0.010 A 
HETATM   12  C15 UNL     1      19.517   9.957   3.283  1.00  0.00     0.015 C 
HETATM   13  C16 UNL     1      19.561   9.285   2.000  1.00  0.00     0.049 C 
HETATM   14  C17 UNL     1      20.835   8.940   1.340  1.00  0.00     0.014 C 
HETATM   15  O3  UNL     1      18.221  11.232   1.499  1.00  0.00    -0.322 OA
HETATM   16  C18 UNL     1      17.128  11.350   0.605  1.00  0.00     0.295 C 
HETATM   17  O4  UNL     1      16.096  10.644   1.169  1.00  0.00    -0.327 OA
HETATM   18  C19 UNL     1      15.036  10.380   0.339  1.00  0.00     0.287 C 
HETATM   19  O6  UNL     1      15.215   9.161  -0.247  1.00  0.00    -0.354 OA
ENDROOT
BRANCH   1  20
HETATM   20  C4  UNL     1      15.068   8.785  -2.544  1.00  0.00     0.072 C 
BRANCH  20  21
HETATM   21  C3  UNL     1      14.611   9.970  -3.321  1.00  0.00     0.254 C 
BRANCH  21  22
HETATM   22  C2  UNL     1      13.101   9.951  -3.288  1.00  0.00     0.153 C 
HETATM   23  C1  UNL     1      12.306   9.554  -4.467  1.00  0.00     0.093 C 
HETATM   24  O1  UNL     1      12.508  10.268  -2.267  1.00  0.00    -0.296 OA
ENDBRANCH  21  22
BRANCH  21  25
HETATM   25  N1  UNL     1      15.061   9.868  -4.673  1.00  0.00    -0.068 N 
ATOM     26  H13 UNL     1      15.296   8.910  -4.930  1.00  0.00     0.275 HD
ATOM     27  H12 UNL     1      14.307  10.019  -5.342  1.00  0.00     0.275 HD
ATOM     28  H11 UNL     1      15.841  10.508  -4.822  1.00  0.00     0.275 HD
ENDBRANCH  21  25
ENDBRANCH  20  21
ENDBRANCH   1  20
BRANCH  18  29
HETATM   29  C20 UNL     1      13.715  10.311   1.122  1.00  0.00     0.228 C 
BRANCH  29  30
HETATM   30  O5  UNL     1      13.079   9.090   0.807  1.00  0.00    -0.382 OA
BRANCH  30  31
HETATM   31  C21 UNL     1      12.732   8.432   1.956  1.00  0.00     0.113 C 
HETATM   32  C22 UNL     1      13.270   9.134   3.200  1.00  0.00     0.039 C 
HETATM   33  C23 UNL     1      13.396   7.052   1.917  1.00  0.00     0.039 C 
ENDBRANCH  30  31
ENDBRANCH  29  30
ENDBRANCH  18  29
TORSDOF 7
ENDMDL
