MODEL 1
REMARK VINA RESULT: -7.671367899      0.000      0.000
REMARK  10 active torsions:
REMARK  status: ('A' for Active; 'I' for Inactive)
REMARK    1  A    between atoms: C2_2  and  C4_4 
REMARK    2  A    between atoms: C4_4  and  C5_6 
REMARK    3  A    between atoms: C6_7  and  C7_8 
REMARK    4  A    between atoms: C7_8  and  O2_9 
REMARK    5  A    between atoms: O2_9  and  C8_10 
REMARK    6  A    between atoms: C8_10  and  C9_12 
REMARK    7  A    between atoms: C18_21  and  C19_22 
REMARK    8  A    between atoms: C20_26  and  C21_27 
REMARK    9  A    between atoms: C21_27  and  O5_28 
REMARK   10  A    between atoms: C22_30  and  O6_31 
ROOT
HETATM    1  C9  UNL     1      24.325   6.791   5.283  1.00  0.00     0.049 C 
HETATM    2  C10 UNL     1      24.184   5.324   5.721  1.00  0.00     0.026 C 
HETATM    3  C11 UNL     1      25.197   7.438   6.370  1.00  0.00     0.020 C 
HETATM    4  C12 UNL     1      24.302   7.923   7.481  1.00  0.00     0.002 C 
HETATM    5  C13 UNL     1      23.483   9.127   7.050  1.00  0.00     0.010 C 
HETATM    6  C14 UNL     1      22.949   8.866   5.662  1.00  0.00    -0.035 C 
HETATM    7  C15 UNL     1      23.617   9.743   4.674  1.00  0.00     0.016 C 
HETATM    8  C16 UNL     1      21.433   9.117   5.582  1.00  0.00     0.043 C 
HETATM    9  C17 UNL     1      20.932   8.083   4.662  1.00  0.00    -0.077 C 
HETATM   10  C18 UNL     1      19.726   7.817   4.323  1.00  0.00     0.032 C 
HETATM   11  C23 UNL     1      22.130   7.309   4.142  1.00  0.00     0.041 C 
HETATM   12  C24 UNL     1      22.997   7.408   5.370  1.00  0.00     0.016 C 
ENDROOT
BRANCH   1  13
HETATM   13  C8  UNL     1      25.005   6.868   3.991  1.00  0.00     0.268 C 
HETATM   14  O3  UNL     1      25.954   7.670   3.830  1.00  0.00    -0.264 OA
BRANCH  13  15
HETATM   15  O2  UNL     1      24.647   6.084   2.919  1.00  0.00    -0.317 OA
BRANCH  15  16
HETATM   16  C7  UNL     1      24.774   6.403   1.561  1.00  0.00     0.206 C 
BRANCH  16  17
HETATM   17  C6  UNL     1      23.650   7.146   0.967  1.00  0.00     0.004 C 
HETATM   18  C5  UNL     1      23.392   8.420   1.067  1.00  0.00     0.053 C 
BRANCH  18  19
HETATM   19  C4  UNL     1      22.251   9.067   0.444  1.00  0.00     0.176 C 
HETATM   20  O1  UNL     1      22.194   9.021  -0.835  1.00  0.00    -0.288 OA
BRANCH  19  21
HETATM   21  C2  UNL     1      21.190   9.751   1.141  1.00  0.00    -0.021 C 
HETATM   22  C1  UNL     1      19.940   9.417   0.916  1.00  0.00     0.022 C 
HETATM   23  C3  UNL     1      21.477  10.831   2.111  1.00  0.00     0.051 C 
ENDBRANCH  19  21
ENDBRANCH  18  19
ENDBRANCH  16  17
ENDBRANCH  15  16
ENDBRANCH  13  15
ENDBRANCH   1  13
BRANCH  10  24
HETATM   24  C19 UNL     1      18.515   8.508   4.794  1.00  0.00     0.063 C 
HETATM   25  N1  UNL     1      17.955   8.253   5.954  1.00  0.00    -0.268 N 
HETATM   26  O4  UNL     1      16.850   9.006   6.178  1.00  0.00    -0.270 OA
ATOM     27  H1  UNL     1      18.313   7.562   6.615  1.00  0.00     0.194 HD
HETATM   28  C20 UNL     1      16.363   9.464   4.905  1.00  0.00     0.210 C 
HETATM   29  C22 UNL     1      17.712   9.569   4.164  1.00  0.00     0.203 C 
BRANCH  28  30
HETATM   30  C21 UNL     1      15.705  10.800   5.014  1.00  0.00     0.201 C 
BRANCH  30  31
HETATM   31  O5  UNL     1      15.431  11.237   3.707  1.00  0.00    -0.398 OA
ATOM     32  H5  UNL     1      14.703  10.720   3.385  1.00  0.00     0.209 HD
ENDBRANCH  30  31
ENDBRANCH  28  30
BRANCH  29  33
HETATM   33  O6  UNL     1      18.184  10.854   4.543  1.00  0.00    -0.387 OA
ATOM     34  H6  UNL     1      17.465  11.471   4.613  1.00  0.00     0.210 HD
ENDBRANCH  29  33
ENDBRANCH  10  24
TORSDOF 10
ENDMDL
MODEL 2
REMARK VINA RESULT: -7.445573909      2.117      3.219
REMARK  10 active torsions:
REMARK  status: ('A' for Active; 'I' for Inactive)
REMARK    1  A    between atoms: C2_2  and  C4_4 
REMARK    2  A    between atoms: C4_4  and  C5_6 
REMARK    3  A    between atoms: C6_7  and  C7_8 
REMARK    4  A    between atoms: C7_8  and  O2_9 
REMARK    5  A    between atoms: O2_9  and  C8_10 
REMARK    6  A    between atoms: C8_10  and  C9_12 
REMARK    7  A    between atoms: C18_21  and  C19_22 
REMARK    8  A    between atoms: C20_26  and  C21_27 
REMARK    9  A    between atoms: C21_27  and  O5_28 
REMARK   10  A    between atoms: C22_30  and  O6_31 
ROOT
HETATM    1  C9  UNL     1      24.325   8.430   6.673  1.00  0.00     0.049 C 
HETATM    2  C10 UNL     1      23.753   8.397   8.100  1.00  0.00     0.026 C 
HETATM    3  C11 UNL     1      25.555   9.346   6.770  1.00  0.00     0.020 C 
HETATM    4  C12 UNL     1      25.113  10.772   6.556  1.00  0.00     0.002 C 
HETATM    5  C13 UNL     1      24.714  11.019   5.112  1.00  0.00     0.010 C 
HETATM    6  C14 UNL     1      23.877   9.853   4.644  1.00  0.00    -0.035 C 
HETATM    7  C15 UNL     1      24.620   9.044   3.652  1.00  0.00     0.016 C 
HETATM    8  C16 UNL     1      22.563  10.325   3.995  1.00  0.00     0.043 C 
HETATM    9  C17 UNL     1      21.566   9.322   4.402  1.00  0.00    -0.077 C 
HETATM   10  C18 UNL     1      20.304   9.300   4.183  1.00  0.00     0.032 C 
HETATM   11  C23 UNL     1      22.290   8.242   5.186  1.00  0.00     0.041 C 
HETATM   12  C24 UNL     1      23.345   9.112   5.819  1.00  0.00     0.016 C 
ENDROOT
BRANCH   1  13
HETATM   13  C8  UNL     1      24.737   7.089   6.265  1.00  0.00     0.268 C 
HETATM   14  O3  UNL     1      25.954   6.796   6.214  1.00  0.00    -0.264 OA
BRANCH  13  15
HETATM   15  O2  UNL     1      23.833   6.108   5.926  1.00  0.00    -0.317 OA
BRANCH  15  16
HETATM   16  C7  UNL     1      23.928   5.205   4.859  1.00  0.00     0.206 C 
BRANCH  16  17
HETATM   17  C6  UNL     1      24.362   5.774   3.573  1.00  0.00     0.004 C 
HETATM   18  C5  UNL     1      23.644   5.975   2.503  1.00  0.00     0.053 C 
BRANCH  18  19
HETATM   19  C4  UNL     1      24.163   6.542   1.272  1.00  0.00     0.176 C 
HETATM   20  O1  UNL     1      25.337   6.167   0.920  1.00  0.00    -0.288 OA
BRANCH  19  21
HETATM   21  C2  UNL     1      23.473   7.481   0.423  1.00  0.00    -0.021 C 
HETATM   22  C1  UNL     1      23.931   7.732  -0.781  1.00  0.00     0.022 C 
HETATM   23  C3  UNL     1      22.250   8.177   0.881  1.00  0.00     0.051 C 
ENDBRANCH  19  21
ENDBRANCH  18  19
ENDBRANCH  16  17
ENDBRANCH  15  16
ENDBRANCH  13  15
ENDBRANCH   1  13
BRANCH  10  24
HETATM   24  C19 UNL     1      19.529  10.313   3.449  1.00  0.00     0.063 C 
HETATM   25  N1  UNL     1      18.541  10.987   3.994  1.00  0.00    -0.268 N 
HETATM   26  O4  UNL     1      17.970  11.863   3.132  1.00  0.00    -0.270 OA
ATOM     27  H1  UNL     1      18.237  10.863   4.960  1.00  0.00     0.194 HD
HETATM   28  C20 UNL     1      18.276  11.432   1.795  1.00  0.00     0.210 C 
HETATM   29  C22 UNL     1      19.657  10.800   2.066  1.00  0.00     0.203 C 
BRANCH  28  30
HETATM   30  C21 UNL     1      18.390  12.587   0.855  1.00  0.00     0.201 C 
BRANCH  30  31
HETATM   31  O5  UNL     1      18.833  12.079  -0.377  1.00  0.00    -0.398 OA
ATOM     32  H5  UNL     1      19.778  12.171  -0.397  1.00  0.00     0.209 HD
ENDBRANCH  30  31
ENDBRANCH  28  30
BRANCH  29  33
HETATM   33  O6  UNL     1      20.535  11.914   2.001  1.00  0.00    -0.387 OA
ATOM     34  H6  UNL     1      20.133  12.636   1.531  1.00  0.00     0.210 HD
ENDBRANCH  29  33
ENDBRANCH  10  24
TORSDOF 10
ENDMDL
MODEL 3
REMARK VINA RESULT: -7.437411616      4.448      7.228
REMARK  10 active torsions:
REMARK  status: ('A' for Active; 'I' for Inactive)
REMARK    1  A    between atoms: C2_2  and  C4_4 
REMARK    2  A    between atoms: C4_4  and  C5_6 
REMARK    3  A    between atoms: C6_7  and  C7_8 
REMARK    4  A    between atoms: C7_8  and  O2_9 
REMARK    5  A    between atoms: O2_9  and  C8_10 
REMARK    6  A    between atoms: C8_10  and  C9_12 
REMARK    7  A    between atoms: C18_21  and  C19_22 
REMARK    8  A    between atoms: C20_26  and  C21_27 
REMARK    9  A    between atoms: C21_27  and  O5_28 
REMARK   10  A    between atoms: C22_30  and  O6_31 
ROOT
HETATM    1  C9  UNL     1      19.335  10.020   2.658  1.00  0.00     0.049 C 
HETATM    2  C10 UNL     1      19.388   8.535   3.050  1.00  0.00     0.026 C 
HETATM    3  C11 UNL     1      18.717  10.721   3.878  1.00  0.00     0.020 C 
HETATM    4  C12 UNL     1      17.216  10.698   3.740  1.00  0.00     0.002 C 
HETATM    5  C13 UNL     1      16.746  11.629   2.636  1.00  0.00     0.010 C 
HETATM    6  C14 UNL     1      17.653  11.447   1.442  1.00  0.00    -0.035 C 
HETATM    7  C15 UNL     1      18.498  12.646   1.245  1.00  0.00     0.016 C 
HETATM    8  C16 UNL     1      16.848  11.206   0.153  1.00  0.00     0.043 C 
HETATM    9  C17 UNL     1      17.650  10.236  -0.611  1.00  0.00    -0.077 C 
HETATM   10  C18 UNL     1      17.380   9.657  -1.721  1.00  0.00     0.032 C 
HETATM   11  C23 UNL     1      18.933   9.989   0.163  1.00  0.00     0.041 C 
HETATM   12  C24 UNL     1      18.378  10.153   1.554  1.00  0.00     0.016 C 
ENDROOT
BRANCH   1  13
HETATM   13  C8  UNL     1      20.685  10.528   2.426  1.00  0.00     0.268 C 
HETATM   14  O3  UNL     1      20.961  11.720   2.695  1.00  0.00    -0.264 OA
BRANCH  13  15
HETATM   15  O2  UNL     1      21.693   9.743   1.915  1.00  0.00    -0.317 OA
BRANCH  15  16
HETATM   16  C7  UNL     1      22.984   9.583   2.434  1.00  0.00     0.206 C 
BRANCH  16  17
HETATM   17  C6  UNL     1      23.099   8.709   3.613  1.00  0.00     0.004 C 
HETATM   18  C5  UNL     1      23.230   9.060   4.861  1.00  0.00     0.053 C 
BRANCH  18  19
HETATM   19  C4  UNL     1      23.339   8.120   5.962  1.00  0.00     0.176 C 
HETATM   20  O1  UNL     1      23.314   6.876   5.657  1.00  0.00    -0.288 OA
BRANCH  19  21
HETATM   21  C2  UNL     1      23.473   8.469   7.355  1.00  0.00    -0.021 C 
HETATM   22  C1  UNL     1      22.449   8.975   8.002  1.00  0.00     0.022 C 
HETATM   23  C3  UNL     1      24.747   8.269   8.079  1.00  0.00     0.051 C 
ENDBRANCH  19  21
ENDBRANCH  18  19
ENDBRANCH  16  17
ENDBRANCH  15  16
ENDBRANCH  13  15
ENDBRANCH   1  13
BRANCH  10  24
HETATM   24  C19 UNL     1      16.156   9.832  -2.520  1.00  0.00     0.063 C 
HETATM   25  N1  UNL     1      16.166  10.318  -3.740  1.00  0.00    -0.268 N 
HETATM   26  O4  UNL     1      14.926  10.391  -4.282  1.00  0.00    -0.270 OA
ATOM     27  H1  UNL     1      17.014  10.609  -4.226  1.00  0.00     0.194 HD
HETATM   28  C20 UNL     1      13.972  10.393  -3.206  1.00  0.00     0.210 C 
HETATM   29  C22 UNL     1      14.753   9.521  -2.202  1.00  0.00     0.203 C 
BRANCH  28  30
HETATM   30  C21 UNL     1      12.690   9.738  -3.603  1.00  0.00     0.201 C 
BRANCH  30  31
HETATM   31  O5  UNL     1      12.771   9.462  -4.978  1.00  0.00    -0.398 OA
ATOM     32  H5  UNL     1      12.156  10.037  -5.417  1.00  0.00     0.209 HD
ENDBRANCH  30  31
ENDBRANCH  28  30
BRANCH  29  33
HETATM   33  O6  UNL     1      14.424   8.199  -2.606  1.00  0.00    -0.387 OA
ATOM     34  H6  UNL     1      13.618   8.190  -3.110  1.00  0.00     0.210 HD
ENDBRANCH  29  33
ENDBRANCH  10  24
TORSDOF 10
ENDMDL
MODEL 4
REMARK VINA RESULT: -7.393063729      5.027      8.654
REMARK  10 active torsions:
REMARK  status: ('A' for Active; 'I' for Inactive)
REMARK    1  A    between atoms: C2_2  and  C4_4 
REMARK    2  A    between atoms: C4_4  and  C5_6 
REMARK    3  A    between atoms: C6_7  and  C7_8 
REMARK    4  A    between atoms: C7_8  and  O2_9 
REMARK    5  A    between atoms: O2_9  and  C8_10 
REMARK    6  A    between atoms: C8_10  and  C9_12 
REMARK    7  A    between atoms: C18_21  and  C19_22 
REMARK    8  A    between atoms: C20_26  and  C21_27 
REMARK    9  A    between atoms: C21_27  and  O5_28 
REMARK   10  A    between atoms: C22_30  and  O6_31 
ROOT
HETATM    1  C9  UNL     1      15.746   9.795   3.530  1.00  0.00     0.049 C 
HETATM    2  C10 UNL     1      16.936   8.826   3.624  1.00  0.00     0.026 C 
HETATM    3  C11 UNL     1      14.716   9.243   4.528  1.00  0.00     0.020 C 
HETATM    4  C12 UNL     1      13.859   8.223   3.823  1.00  0.00     0.002 C 
HETATM    5  C13 UNL     1      12.926   8.879   2.820  1.00  0.00     0.010 C 
HETATM    6  C14 UNL     1      13.708   9.919   2.054  1.00  0.00    -0.035 C 
HETATM    7  C15 UNL     1      13.264  11.281   2.425  1.00  0.00     0.016 C 
HETATM    8  C16 UNL     1      13.534   9.752   0.534  1.00  0.00     0.043 C 
HETATM    9  C17 UNL     1      14.850  10.091  -0.031  1.00  0.00    -0.077 C 
HETATM   10  C18 UNL     1      15.247  10.035  -1.247  1.00  0.00     0.032 C 
HETATM   11  C23 UNL     1      15.743  10.537   1.113  1.00  0.00     0.041 C 
HETATM   12  C24 UNL     1      15.166   9.653   2.189  1.00  0.00     0.016 C 
ENDROOT
BRANCH   1  13
HETATM   13  C8  UNL     1      16.156  11.138   3.933  1.00  0.00     0.268 C 
HETATM   14  O3  UNL     1      15.373  11.862   4.591  1.00  0.00    -0.264 OA
BRANCH  13  15
HETATM   15  O2  UNL     1      17.391  11.660   3.619  1.00  0.00    -0.317 OA
BRANCH  15  16
HETATM   16  C7  UNL     1      17.711  12.468   2.521  1.00  0.00     0.206 C 
BRANCH  16  17
HETATM   17  C6  UNL     1      18.865  12.034   1.718  1.00  0.00     0.004 C 
HETATM   18  C5  UNL     1      19.584  10.957   1.866  1.00  0.00     0.053 C 
BRANCH  18  19
HETATM   19  C4  UNL     1      20.712  10.612   1.021  1.00  0.00     0.176 C 
HETATM   20  O1  UNL     1      21.092  11.502   0.181  1.00  0.00    -0.288 OA
BRANCH  19  21
HETATM   21  C2  UNL     1      21.433   9.363   1.049  1.00  0.00    -0.021 C 
HETATM   22  C1  UNL     1      22.191   9.023   0.033  1.00  0.00     0.022 C 
HETATM   23  C3  UNL     1      21.338   8.447   2.208  1.00  0.00     0.051 C 
ENDBRANCH  19  21
ENDBRANCH  18  19
ENDBRANCH  16  17
ENDBRANCH  15  16
ENDBRANCH  13  15
ENDBRANCH   1  13
BRANCH  10  24
HETATM   24  C19 UNL     1      14.451   9.601  -2.406  1.00  0.00     0.063 C 
HETATM   25  N1  UNL     1      14.518   8.386  -2.901  1.00  0.00    -0.268 N 
HETATM   26  O4  UNL     1      13.699   8.211  -3.967  1.00  0.00    -0.270 OA
ATOM     27  H1  UNL     1      15.121   7.654  -2.525  1.00  0.00     0.194 HD
HETATM   28  C20 UNL     1      13.407   9.507  -4.517  1.00  0.00     0.210 C 
HETATM   29  C22 UNL     1      13.460  10.330  -3.214  1.00  0.00     0.203 C 
BRANCH  28  30
HETATM   30  C21 UNL     1      12.044   9.554  -5.127  1.00  0.00     0.201 C 
BRANCH  30  31
HETATM   31  O5  UNL     1      11.384   8.368  -4.764  1.00  0.00    -0.398 OA
ATOM     32  H5  UNL     1      11.596   7.716  -5.421  1.00  0.00     0.209 HD
ENDBRANCH  30  31
ENDBRANCH  28  30
BRANCH  29  33
HETATM   33  O6  UNL     1      12.153  10.167  -2.682  1.00  0.00    -0.387 OA
ATOM     34  H6  UNL     1      11.835  10.982  -2.310  1.00  0.00     0.210 HD
ENDBRANCH  29  33
ENDBRANCH  10  24
TORSDOF 10
ENDMDL
MODEL 5
REMARK VINA RESULT: -7.347127324      5.717      9.557
REMARK  10 active torsions:
REMARK  status: ('A' for Active; 'I' for Inactive)
REMARK    1  A    between atoms: C2_2  and  C4_4 
REMARK    2  A    between atoms: C4_4  and  C5_6 
REMARK    3  A    between atoms: C6_7  and  C7_8 
REMARK    4  A    between atoms: C7_8  and  O2_9 
REMARK    5  A    between atoms: O2_9  and  C8_10 
REMARK    6  A    between atoms: C8_10  and  C9_12 
REMARK    7  A    between atoms: C18_21  and  C19_22 
REMARK    8  A    between atoms: C20_26  and  C21_27 
REMARK    9  A    between atoms: C21_27  and  O5_28 
REMARK   10  A    between atoms: C22_30  and  O6_31 
ROOT
HETATM    1  C9  UNL     1      16.013  10.461   4.214  1.00  0.00     0.049 C 
HETATM    2  C10 UNL     1      14.665  10.891   4.817  1.00  0.00     0.026 C 
HETATM    3  C11 UNL     1      16.970  11.618   4.539  1.00  0.00     0.020 C 
HETATM    4  C12 UNL     1      16.879  12.644   3.438  1.00  0.00     0.002 C 
HETATM    5  C13 UNL     1      17.507  12.137   2.152  1.00  0.00     0.010 C 
HETATM    6  C14 UNL     1      17.067  10.708   1.940  1.00  0.00    -0.035 C 
HETATM    7  C15 UNL     1      18.203   9.779   2.134  1.00  0.00     0.016 C 
HETATM    8  C16 UNL     1      16.505  10.494   0.523  1.00  0.00     0.043 C 
HETATM    9  C17 UNL     1      15.400   9.537   0.701  1.00  0.00    -0.077 C 
HETATM   10  C18 UNL     1      14.566   9.094  -0.164  1.00  0.00     0.032 C 
HETATM   11  C23 UNL     1      15.375   9.128   2.163  1.00  0.00     0.041 C 
HETATM   12  C24 UNL     1      15.854  10.428   2.755  1.00  0.00     0.016 C 
ENDROOT
BRANCH   1  13
HETATM   13  C8  UNL     1      16.482   9.234   4.855  1.00  0.00     0.268 C 
HETATM   14  O3  UNL     1      17.608   8.768   4.566  1.00  0.00    -0.264 OA
BRANCH  13  15
HETATM   15  O2  UNL     1      15.731   8.550   5.783  1.00  0.00    -0.317 OA
BRANCH  15  16
HETATM   16  C7  UNL     1      16.100   8.228   7.095  1.00  0.00     0.206 C 
BRANCH  16  17
HETATM   17  C6  UNL     1      15.174   8.670   8.151  1.00  0.00     0.004 C 
HETATM   18  C5  UNL     1      14.520   9.795   8.222  1.00  0.00     0.053 C 
BRANCH  18  19
HETATM   19  C4  UNL     1      13.625  10.145   9.310  1.00  0.00     0.176 C 
HETATM   20  O1  UNL     1      12.613   9.380   9.489  1.00  0.00    -0.288 OA
BRANCH  19  21
HETATM   21  C2  UNL     1      13.781  11.272  10.197  1.00  0.00    -0.021 C 
HETATM   22  C1  UNL     1      14.812  11.328  11.007  1.00  0.00     0.022 C 
HETATM   23  C3  UNL     1      12.798  12.379  10.215  1.00  0.00     0.051 C 
ENDBRANCH  19  21
ENDBRANCH  18  19
ENDBRANCH  16  17
ENDBRANCH  15  16
ENDBRANCH  13  15
ENDBRANCH   1  13
BRANCH  10  24
HETATM   24  C19 UNL     1      14.516   9.453  -1.590  1.00  0.00     0.063 C 
HETATM   25  N1  UNL     1      13.580  10.223  -2.098  1.00  0.00    -0.268 N 
HETATM   26  O4  UNL     1      13.731  10.417  -3.431  1.00  0.00    -0.270 OA
ATOM     27  H1  UNL     1      12.822  10.629  -1.549  1.00  0.00     0.194 HD
HETATM   28  C20 UNL     1      14.541   9.346  -3.945  1.00  0.00     0.210 C 
HETATM   29  C22 UNL     1      15.416   9.099  -2.699  1.00  0.00     0.203 C 
BRANCH  28  30
HETATM   30  C21 UNL     1      15.371   9.789  -5.105  1.00  0.00     0.201 C 
BRANCH  30  31
HETATM   31  O5  UNL     1      14.533  10.525  -5.959  1.00  0.00    -0.398 OA
ATOM     32  H5  UNL     1      14.589  10.128  -6.820  1.00  0.00     0.209 HD
ENDBRANCH  30  31
ENDBRANCH  28  30
BRANCH  29  33
HETATM   33  O6  UNL     1      16.449  10.063  -2.840  1.00  0.00    -0.387 OA
ATOM     34  H6  UNL     1      16.708  10.409  -1.994  1.00  0.00     0.210 HD
ENDBRANCH  29  33
ENDBRANCH  10  24
TORSDOF 10
ENDMDL
