MODEL 1
REMARK VINA RESULT: -8.728888812      0.000      0.000
REMARK  14 active torsions:
REMARK  status: ('A' for Active; 'I' for Inactive)
REMARK    1  A    between atoms: C2_2  and  C3_3 
REMARK    2  A    between atoms: C3_3  and  C4_4 
REMARK    3  A    between atoms: C4_4  and  O1_5 
REMARK    4  A    between atoms: O1_5  and  C5_6 
REMARK    5  A    between atoms: C8_10  and  O3_11 
REMARK    6  A    between atoms: C9_13  and  O4_14 
REMARK    7  A    between atoms: C10_16  and  O5_17 
REMARK    8  A    between atoms: O5_17  and  C11_18 
REMARK    9  A    between atoms: C11_18  and  C12_19 
REMARK   10  A    between atoms: C11_18  and  O6_39 
REMARK   11  A    between atoms: C12_19  and  C13_20 
REMARK   12  A    between atoms: C14_21  and  C16_23 
REMARK   13  A    between atoms: C19_26  and  C20_27 
REMARK   14  A    between atoms: C19_26  and  C24_31 
ROOT
HETATM    1  C11 UNL     1      20.576   5.135 -22.599  1.00  0.00     0.263 C 
ENDROOT
BRANCH   1   2
HETATM    2  O5  UNL     1      20.182   4.702 -23.859  1.00  0.00    -0.353 OA
BRANCH   2   3
HETATM    3  C10 UNL     1      18.795   4.519 -23.950  1.00  0.00     0.157 C 
HETATM    4  C9  UNL     1      18.067   5.100 -22.787  1.00  0.00     0.176 C 
HETATM    5  C8  UNL     1      18.034   4.257 -21.556  1.00  0.00     0.150 C 
HETATM    6  C7  UNL     1      18.087   2.793 -21.781  1.00  0.00     0.050 C 
HETATM    7  C3  UNL     1      17.812   2.330 -23.172  1.00  0.00     0.004 C 
HETATM    8  C30 UNL     1      18.526   3.084 -24.240  1.00  0.00     0.050 C 
BRANCH   4   9
HETATM    9  O4  UNL     1      16.752   5.416 -23.156  1.00  0.00    -0.390 OA
ATOM     10  H4  UNL     1      16.765   6.186 -23.713  1.00  0.00     0.210 HD
ENDBRANCH   4   9
BRANCH   5  11
HETATM   11  O3  UNL     1      16.863   4.595 -20.861  1.00  0.00    -0.393 OA
ATOM     12  H3  UNL     1      16.561   5.455 -21.129  1.00  0.00     0.210 HD
ENDBRANCH   5  11
BRANCH   7  13
HETATM   13  C2  UNL     1      16.342   2.390 -23.446  1.00  0.00    -0.025 C 
HETATM   14  C1  UNL     1      15.483   2.020 -22.511  1.00  0.00     0.008 C 
ENDBRANCH   7  13
BRANCH   7  15
HETATM   15  C4  UNL     1      18.238   0.855 -23.328  1.00  0.00     0.192 C 
BRANCH  15  16
HETATM   16  O1  UNL     1      18.920   0.805 -24.580  1.00  0.00    -0.321 OA
BRANCH  16  17
HETATM   17  C5  UNL     1      19.643  -0.334 -24.942  1.00  0.00     0.254 C 
HETATM   18  C6  UNL     1      19.229  -1.705 -24.485  1.00  0.00     0.126 C 
HETATM   19  O2  UNL     1      20.649  -0.160 -25.663  1.00  0.00    -0.266 OA
ENDBRANCH  16  17
ENDBRANCH  15  16
ENDBRANCH   7  15
ENDBRANCH   2   3
ENDBRANCH   1   2
BRANCH   1  20
HETATM   20  C12 UNL     1      21.826   4.370 -22.202  1.00  0.00     0.088 C 
BRANCH  20  21
HETATM   21  C13 UNL     1      21.541   3.288 -21.264  1.00  0.00    -0.015 C 
HETATM   22  C14 UNL     1      21.578   2.027 -21.588  1.00  0.00    -0.059 C 
HETATM   23  C15 UNL     1      21.911   1.552 -22.968  1.00  0.00     0.048 C 
BRANCH  22  24
HETATM   24  C16 UNL     1      21.316   0.997 -20.599  1.00  0.00    -0.048 C 
HETATM   25  C17 UNL     1      22.213   0.071 -20.278  1.00  0.00     0.015 C 
HETATM   26  C18 UNL     1      21.894  -0.968 -19.267  1.00  0.00    -0.046 C 
HETATM   27  C19 UNL     1      22.134  -2.239 -19.474  1.00  0.00     0.039 C 
HETATM   28  C25 UNL     1      21.163  -0.472 -18.065  1.00  0.00     0.040 C 
HETATM   29  C26 UNL     1      20.505   0.850 -18.348  1.00  0.00     0.014 C 
HETATM   30  C27 UNL     1      20.057   0.929 -19.793  1.00  0.00     0.015 C 
HETATM   31  C28 UNL     1      19.139  -0.168 -20.181  1.00  0.00     0.015 C 
BRANCH  27  32
HETATM   32  C20 UNL     1      21.845  -3.282 -18.461  1.00  0.00    -0.019 C 
HETATM   33  C21 UNL     1      21.023  -2.790 -17.311  1.00  0.00     0.019 C 
HETATM   34  C22 UNL     1      20.960  -4.380 -19.171  1.00  0.00     0.019 C 
HETATM   35  C23 UNL     1      23.012  -4.072 -18.009  1.00  0.00     0.019 C 
ENDBRANCH  27  32
BRANCH  27  36
HETATM   36  C24 UNL     1      22.543  -2.724 -20.840  1.00  0.00     0.415 C 
HETATM   37  F1  UNL     1      22.522  -4.068 -20.964  1.00  0.00    -0.166 F 
HETATM   38  F2  UNL     1      23.882  -2.360 -21.067  1.00  0.00    -0.166 F 
HETATM   39  F3  UNL     1      21.770  -2.198 -21.843  1.00  0.00    -0.166 F 
ENDBRANCH  27  36
ENDBRANCH  22  24
ENDBRANCH  20  21
ENDBRANCH   1  20
BRANCH   1  40
HETATM   40  O6  UNL     1      20.901   6.493 -22.609  1.00  0.00    -0.366 OA
HETATM   41  C29 UNL     1      21.078   6.983 -23.899  1.00  0.00     0.204 C 
ENDBRANCH   1  40
TORSDOF 14
ENDMDL
MODEL 2
REMARK VINA RESULT: -8.548710833      1.888      3.706
REMARK  14 active torsions:
REMARK  status: ('A' for Active; 'I' for Inactive)
REMARK    1  A    between atoms: C2_2  and  C3_3 
REMARK    2  A    between atoms: C3_3  and  C4_4 
REMARK    3  A    between atoms: C4_4  and  O1_5 
REMARK    4  A    between atoms: O1_5  and  C5_6 
REMARK    5  A    between atoms: C8_10  and  O3_11 
REMARK    6  A    between atoms: C9_13  and  O4_14 
REMARK    7  A    between atoms: C10_16  and  O5_17 
REMARK    8  A    between atoms: O5_17  and  C11_18 
REMARK    9  A    between atoms: C11_18  and  C12_19 
REMARK   10  A    between atoms: C11_18  and  O6_39 
REMARK   11  A    between atoms: C12_19  and  C13_20 
REMARK   12  A    between atoms: C14_21  and  C16_23 
REMARK   13  A    between atoms: C19_26  and  C20_27 
REMARK   14  A    between atoms: C19_26  and  C24_31 
ROOT
HETATM    1  C11 UNL     1      17.731   2.572 -22.629  1.00  0.00     0.263 C 
ENDROOT
BRANCH   1   2
HETATM    2  O5  UNL     1      17.184   3.425 -21.677  1.00  0.00    -0.353 OA
BRANCH   2   3
HETATM    3  C10 UNL     1      17.974   4.562 -21.465  1.00  0.00     0.157 C 
HETATM    4  C9  UNL     1      17.460   5.758 -22.191  1.00  0.00     0.176 C 
HETATM    5  C8  UNL     1      17.828   5.848 -23.634  1.00  0.00     0.150 C 
HETATM    6  C7  UNL     1      19.114   5.212 -24.007  1.00  0.00     0.050 C 
HETATM    7  C3  UNL     1      20.036   4.882 -22.882  1.00  0.00     0.004 C 
HETATM    8  C30 UNL     1      19.396   4.203 -21.721  1.00  0.00     0.050 C 
BRANCH   4   9
HETATM    9  O4  UNL     1      17.877   6.928 -21.542  1.00  0.00    -0.390 OA
ATOM     10  H4  UNL     1      18.052   6.728 -20.629  1.00  0.00     0.210 HD
ENDBRANCH   4   9
BRANCH   5  11
HETATM   11  O3  UNL     1      17.851   7.211 -23.965  1.00  0.00    -0.393 OA
ATOM     12  H3  UNL     1      17.005   7.479 -24.304  1.00  0.00     0.210 HD
ENDBRANCH   5  11
BRANCH   7  13
HETATM   13  C2  UNL     1      20.712   6.126 -22.397  1.00  0.00    -0.025 C 
HETATM   14  C1  UNL     1      21.175   7.006 -23.268  1.00  0.00     0.008 C 
ENDBRANCH   7  13
BRANCH   7  15
HETATM   15  C4  UNL     1      21.148   3.932 -23.378  1.00  0.00     0.192 C 
BRANCH  15  16
HETATM   16  O1  UNL     1      20.702   3.492 -24.660  1.00  0.00    -0.321 OA
BRANCH  16  17
HETATM   17  C5  UNL     1      21.022   2.211 -25.113  1.00  0.00     0.254 C 
HETATM   18  C6  UNL     1      21.204   1.063 -24.160  1.00  0.00     0.126 C 
HETATM   19  O2  UNL     1      21.148   2.062 -26.348  1.00  0.00    -0.266 OA
ENDBRANCH  16  17
ENDBRANCH  15  16
ENDBRANCH   7  15
ENDBRANCH   2   3
ENDBRANCH   1   2
BRANCH   1  20
HETATM   20  C12 UNL     1      17.540   1.143 -22.153  1.00  0.00     0.088 C 
BRANCH  20  21
HETATM   21  C13 UNL     1      18.810   0.464 -21.912  1.00  0.00    -0.015 C 
HETATM   22  C14 UNL     1      19.371   0.382 -20.740  1.00  0.00    -0.059 C 
HETATM   23  C15 UNL     1      18.771   0.986 -19.509  1.00  0.00     0.048 C 
BRANCH  22  24
HETATM   24  C16 UNL     1      20.620  -0.336 -20.562  1.00  0.00    -0.048 C 
HETATM   25  C17 UNL     1      20.732  -1.641 -20.794  1.00  0.00     0.015 C 
HETATM   26  C18 UNL     1      22.029  -2.332 -20.588  1.00  0.00    -0.046 C 
HETATM   27  C19 UNL     1      22.120  -3.459 -19.926  1.00  0.00     0.039 C 
HETATM   28  C25 UNL     1      23.226  -1.583 -21.070  1.00  0.00     0.040 C 
HETATM   29  C26 UNL     1      22.913  -0.120 -21.225  1.00  0.00     0.014 C 
HETATM   30  C27 UNL     1      21.906   0.327 -20.185  1.00  0.00     0.015 C 
HETATM   31  C28 UNL     1      22.348   0.065 -18.795  1.00  0.00     0.015 C 
BRANCH  27  32
HETATM   32  C20 UNL     1      23.406  -4.173 -19.737  1.00  0.00    -0.019 C 
HETATM   33  C21 UNL     1      23.656  -4.597 -18.324  1.00  0.00     0.019 C 
HETATM   34  C22 UNL     1      23.315  -5.512 -20.569  1.00  0.00     0.019 C 
HETATM   35  C23 UNL     1      24.592  -3.519 -20.336  1.00  0.00     0.019 C 
ENDBRANCH  27  32
BRANCH  27  36
HETATM   36  C24 UNL     1      20.938  -3.988 -19.157  1.00  0.00     0.415 C 
HETATM   37  F1  UNL     1      19.764  -3.431 -19.521  1.00  0.00    -0.166 F 
HETATM   38  F2  UNL     1      21.093  -3.652 -17.801  1.00  0.00    -0.166 F 
HETATM   39  F3  UNL     1      20.806  -5.349 -19.259  1.00  0.00    -0.166 F 
ENDBRANCH  27  36
ENDBRANCH  22  24
ENDBRANCH  20  21
ENDBRANCH   1  20
BRANCH   1  40
HETATM   40  O6  UNL     1      17.076   2.696 -23.856  1.00  0.00    -0.366 OA
HETATM   41  C29 UNL     1      17.727   2.004 -24.873  1.00  0.00     0.204 C 
ENDBRANCH   1  40
TORSDOF 14
ENDMDL
MODEL 3
REMARK VINA RESULT: -8.491250172      1.816      3.714
REMARK  14 active torsions:
REMARK  status: ('A' for Active; 'I' for Inactive)
REMARK    1  A    between atoms: C2_2  and  C3_3 
REMARK    2  A    between atoms: C3_3  and  C4_4 
REMARK    3  A    between atoms: C4_4  and  O1_5 
REMARK    4  A    between atoms: O1_5  and  C5_6 
REMARK    5  A    between atoms: C8_10  and  O3_11 
REMARK    6  A    between atoms: C9_13  and  O4_14 
REMARK    7  A    between atoms: C10_16  and  O5_17 
REMARK    8  A    between atoms: O5_17  and  C11_18 
REMARK    9  A    between atoms: C11_18  and  C12_19 
REMARK   10  A    between atoms: C11_18  and  O6_39 
REMARK   11  A    between atoms: C12_19  and  C13_20 
REMARK   12  A    between atoms: C14_21  and  C16_23 
REMARK   13  A    between atoms: C19_26  and  C20_27 
REMARK   14  A    between atoms: C19_26  and  C24_31 
ROOT
HETATM    1  C11 UNL     1      17.872   3.108 -21.444  1.00  0.00     0.263 C 
ENDROOT
BRANCH   1   2
HETATM    2  O5  UNL     1      19.177   3.359 -21.039  1.00  0.00    -0.353 OA
BRANCH   2   3
HETATM    3  C10 UNL     1      19.676   4.557 -21.568  1.00  0.00     0.157 C 
HETATM    4  C9  UNL     1      18.625   5.360 -22.255  1.00  0.00     0.176 C 
HETATM    5  C8  UNL     1      18.306   4.948 -23.653  1.00  0.00     0.150 C 
HETATM    6  C7  UNL     1      19.421   4.329 -24.408  1.00  0.00     0.050 C 
HETATM    7  C3  UNL     1      20.785   4.508 -23.833  1.00  0.00     0.004 C 
HETATM    8  C30 UNL     1      20.892   4.248 -22.370  1.00  0.00     0.050 C 
BRANCH   4   9
HETATM    9  O4  UNL     1      18.979   6.716 -22.250  1.00  0.00    -0.390 OA
ATOM     10  H4  UNL     1      19.920   6.789 -22.354  1.00  0.00     0.210 HD
ENDBRANCH   4   9
BRANCH   5  11
HETATM   11  O3  UNL     1      17.850   6.095 -24.321  1.00  0.00    -0.393 OA
ATOM     12  H3  UNL     1      17.569   6.749 -23.693  1.00  0.00     0.210 HD
ENDBRANCH   5  11
BRANCH   7  13
HETATM   13  C2  UNL     1      21.275   5.894 -24.110  1.00  0.00    -0.025 C 
HETATM   14  C1  UNL     1      21.676   6.219 -25.327  1.00  0.00     0.008 C 
ENDBRANCH   7  13
BRANCH   7  15
HETATM   15  C4  UNL     1      21.773   3.538 -24.516  1.00  0.00     0.192 C 
BRANCH  15  16
HETATM   16  O1  UNL     1      21.405   2.247 -24.032  1.00  0.00    -0.321 OA
BRANCH  16  17
HETATM   17  C5  UNL     1      21.058   1.233 -24.928  1.00  0.00     0.254 C 
HETATM   18  C6  UNL     1      20.837  -0.181 -24.467  1.00  0.00     0.126 C 
HETATM   19  O2  UNL     1      20.940   1.555 -26.129  1.00  0.00    -0.266 OA
ENDBRANCH  16  17
ENDBRANCH  15  16
ENDBRANCH   7  15
ENDBRANCH   2   3
ENDBRANCH   1   2
BRANCH   1  20
HETATM   20  C12 UNL     1      17.802   1.685 -21.970  1.00  0.00     0.088 C 
BRANCH  20  21
HETATM   21  C13 UNL     1      19.057   0.964 -21.790  1.00  0.00    -0.015 C 
HETATM   22  C14 UNL     1      19.398   0.379 -20.678  1.00  0.00    -0.059 C 
HETATM   23  C15 UNL     1      18.534   0.393 -19.455  1.00  0.00     0.048 C 
BRANCH  22  24
HETATM   24  C16 UNL     1      20.649  -0.350 -20.573  1.00  0.00    -0.048 C 
HETATM   25  C17 UNL     1      20.734  -1.657 -20.805  1.00  0.00     0.015 C 
HETATM   26  C18 UNL     1      22.035  -2.360 -20.676  1.00  0.00    -0.046 C 
HETATM   27  C19 UNL     1      22.156  -3.485 -20.015  1.00  0.00     0.039 C 
HETATM   28  C25 UNL     1      23.207  -1.625 -21.235  1.00  0.00     0.040 C 
HETATM   29  C26 UNL     1      22.898  -0.160 -21.378  1.00  0.00     0.014 C 
HETATM   30  C27 UNL     1      21.963   0.302 -20.280  1.00  0.00     0.015 C 
HETATM   31  C28 UNL     1      22.487   0.042 -18.918  1.00  0.00     0.015 C 
BRANCH  27  32
HETATM   32  C20 UNL     1      23.444  -4.210 -19.903  1.00  0.00    -0.019 C 
HETATM   33  C21 UNL     1      23.792  -4.602 -18.501  1.00  0.00     0.019 C 
HETATM   34  C22 UNL     1      23.277  -5.568 -20.690  1.00  0.00     0.019 C 
HETATM   35  C23 UNL     1      24.590  -3.587 -20.603  1.00  0.00     0.019 C 
ENDBRANCH  27  32
BRANCH  27  36
HETATM   36  C24 UNL     1      21.019  -3.999 -19.172  1.00  0.00     0.415 C 
HETATM   37  F1  UNL     1      19.860  -3.334 -19.365  1.00  0.00    -0.166 F 
HETATM   38  F2  UNL     1      21.332  -3.794 -17.816  1.00  0.00    -0.166 F 
HETATM   39  F3  UNL     1      20.775  -5.334 -19.368  1.00  0.00    -0.166 F 
ENDBRANCH  27  36
ENDBRANCH  22  24
ENDBRANCH  20  21
ENDBRANCH   1  20
BRANCH   1  40
HETATM   40  O6  UNL     1      16.981   3.202 -20.372  1.00  0.00    -0.366 OA
HETATM   41  C29 UNL     1      15.720   3.632 -20.771  1.00  0.00     0.204 C 
ENDBRANCH   1  40
TORSDOF 14
ENDMDL
MODEL 4
REMARK VINA RESULT: -8.379054990      1.976      4.968
REMARK  14 active torsions:
REMARK  status: ('A' for Active; 'I' for Inactive)
REMARK    1  A    between atoms: C2_2  and  C3_3 
REMARK    2  A    between atoms: C3_3  and  C4_4 
REMARK    3  A    between atoms: C4_4  and  O1_5 
REMARK    4  A    between atoms: O1_5  and  C5_6 
REMARK    5  A    between atoms: C8_10  and  O3_11 
REMARK    6  A    between atoms: C9_13  and  O4_14 
REMARK    7  A    between atoms: C10_16  and  O5_17 
REMARK    8  A    between atoms: O5_17  and  C11_18 
REMARK    9  A    between atoms: C11_18  and  C12_19 
REMARK   10  A    between atoms: C11_18  and  O6_39 
REMARK   11  A    between atoms: C12_19  and  C13_20 
REMARK   12  A    between atoms: C14_21  and  C16_23 
REMARK   13  A    between atoms: C19_26  and  C20_27 
REMARK   14  A    between atoms: C19_26  and  C24_31 
ROOT
HETATM    1  C11 UNL     1      17.604   2.409 -23.283  1.00  0.00     0.263 C 
ENDROOT
BRANCH   1   2
HETATM    2  O5  UNL     1      18.818   2.991 -22.940  1.00  0.00    -0.353 OA
BRANCH   2   3
HETATM    3  C10 UNL     1      19.485   3.525 -24.052  1.00  0.00     0.157 C 
HETATM    4  C9  UNL     1      20.780   2.839 -24.323  1.00  0.00     0.176 C 
HETATM    5  C8  UNL     1      21.936   3.286 -23.492  1.00  0.00     0.150 C 
HETATM    6  C7  UNL     1      21.890   4.696 -23.036  1.00  0.00     0.050 C 
HETATM    7  C3  UNL     1      20.911   5.581 -23.731  1.00  0.00     0.004 C 
HETATM    8  C30 UNL     1      19.548   5.005 -23.899  1.00  0.00     0.050 C 
BRANCH   4   9
HETATM    9  O4  UNL     1      21.116   2.970 -25.677  1.00  0.00    -0.390 OA
ATOM     10  H4  UNL     1      20.609   2.344 -26.182  1.00  0.00     0.210 HD
ENDBRANCH   4   9
BRANCH   5  11
HETATM   11  O3  UNL     1      23.094   3.064 -24.252  1.00  0.00    -0.393 OA
ATOM     12  H3  UNL     1      23.116   2.165 -24.559  1.00  0.00     0.210 HD
ENDBRANCH   5  11
BRANCH   7  13
HETATM   13  C2  UNL     1      21.438   5.961 -25.079  1.00  0.00    -0.025 C 
HETATM   14  C1  UNL     1      21.465   7.233 -25.441  1.00  0.00     0.008 C 
ENDBRANCH   7  13
BRANCH   7  15
HETATM   15  C4  UNL     1      20.731   6.890 -22.934  1.00  0.00     0.192 C 
BRANCH  15  16
HETATM   16  O1  UNL     1      19.349   6.911 -22.580  1.00  0.00    -0.321 OA
BRANCH  16  17
HETATM   17  C5  UNL     1      18.656   8.122 -22.522  1.00  0.00     0.254 C 
HETATM   18  C6  UNL     1      18.466   8.978 -23.743  1.00  0.00     0.126 C 
HETATM   19  O2  UNL     1      18.200   8.461 -21.408  1.00  0.00    -0.266 OA
ENDBRANCH  16  17
ENDBRANCH  15  16
ENDBRANCH   7  15
ENDBRANCH   2   3
ENDBRANCH   1   2
BRANCH   1  20
HETATM   20  C12 UNL     1      17.435   1.143 -22.461  1.00  0.00     0.088 C 
BRANCH  20  21
HETATM   21  C13 UNL     1      18.708   0.485 -22.186  1.00  0.00    -0.015 C 
HETATM   22  C14 UNL     1      19.246   0.426 -21.001  1.00  0.00    -0.059 C 
HETATM   23  C15 UNL     1      18.613   1.039 -19.791  1.00  0.00     0.048 C 
BRANCH  22  24
HETATM   24  C16 UNL     1      20.500  -0.273 -20.787  1.00  0.00    -0.048 C 
HETATM   25  C17 UNL     1      20.622  -1.587 -20.950  1.00  0.00     0.015 C 
HETATM   26  C18 UNL     1      21.924  -2.256 -20.710  1.00  0.00    -0.046 C 
HETATM   27  C19 UNL     1      22.025  -3.346 -19.989  1.00  0.00     0.039 C 
HETATM   28  C25 UNL     1      23.114  -1.526 -21.234  1.00  0.00     0.040 C 
HETATM   29  C26 UNL     1      22.790  -0.076 -21.467  1.00  0.00     0.014 C 
HETATM   30  C27 UNL     1      21.783   0.420 -20.451  1.00  0.00     0.015 C 
HETATM   31  C28 UNL     1      22.229   0.236 -19.049  1.00  0.00     0.015 C 
BRANCH  27  32
HETATM   32  C20 UNL     1      23.316  -4.039 -19.765  1.00  0.00    -0.019 C 
HETATM   33  C21 UNL     1      23.586  -4.357 -18.328  1.00  0.00     0.019 C 
HETATM   34  C22 UNL     1      23.220  -5.436 -20.494  1.00  0.00     0.019 C 
HETATM   35  C23 UNL     1      24.491  -3.427 -20.426  1.00  0.00     0.019 C 
ENDBRANCH  27  32
BRANCH  27  36
HETATM   36  C24 UNL     1      20.848  -3.842 -19.190  1.00  0.00     0.415 C 
HETATM   37  F1  UNL     1      19.680  -3.257 -19.530  1.00  0.00    -0.166 F 
HETATM   38  F2  UNL     1      21.043  -3.501 -17.839  1.00  0.00    -0.166 F 
HETATM   39  F3  UNL     1      20.680  -5.199 -19.280  1.00  0.00    -0.166 F 
ENDBRANCH  27  36
ENDBRANCH  22  24
ENDBRANCH  20  21
ENDBRANCH   1  20
BRANCH   1  40
HETATM   40  O6  UNL     1      16.533   3.252 -22.980  1.00  0.00    -0.366 OA
HETATM   41  C29 UNL     1      16.567   3.693 -21.660  1.00  0.00     0.204 C 
ENDBRANCH   1  40
TORSDOF 14
ENDMDL
MODEL 5
REMARK VINA RESULT: -8.279573589      1.308      3.661
REMARK  14 active torsions:
REMARK  status: ('A' for Active; 'I' for Inactive)
REMARK    1  A    between atoms: C2_2  and  C3_3 
REMARK    2  A    between atoms: C3_3  and  C4_4 
REMARK    3  A    between atoms: C4_4  and  O1_5 
REMARK    4  A    between atoms: O1_5  and  C5_6 
REMARK    5  A    between atoms: C8_10  and  O3_11 
REMARK    6  A    between atoms: C9_13  and  O4_14 
REMARK    7  A    between atoms: C10_16  and  O5_17 
REMARK    8  A    between atoms: O5_17  and  C11_18 
REMARK    9  A    between atoms: C11_18  and  C12_19 
REMARK   10  A    between atoms: C11_18  and  O6_39 
REMARK   11  A    between atoms: C12_19  and  C13_20 
REMARK   12  A    between atoms: C14_21  and  C16_23 
REMARK   13  A    between atoms: C19_26  and  C20_27 
REMARK   14  A    between atoms: C19_26  and  C24_31 
ROOT
HETATM    1  C11 UNL     1      20.712   2.868 -24.724  1.00  0.00     0.263 C 
ENDROOT
BRANCH   1   2
HETATM    2  O5  UNL     1      19.811   3.517 -23.888  1.00  0.00    -0.353 OA
BRANCH   2   3
HETATM    3  C10 UNL     1      19.533   4.822 -24.316  1.00  0.00     0.157 C 
HETATM    4  C9  UNL     1      20.637   5.773 -24.001  1.00  0.00     0.176 C 
HETATM    5  C8  UNL     1      20.660   6.302 -22.606  1.00  0.00     0.150 C 
HETATM    6  C7  UNL     1      19.340   6.403 -21.939  1.00  0.00     0.050 C 
HETATM    7  C3  UNL     1      18.145   6.311 -22.826  1.00  0.00     0.004 C 
HETATM    8  C30 UNL     1      18.181   5.203 -23.821  1.00  0.00     0.050 C 
BRANCH   4   9
HETATM    9  O4  UNL     1      20.609   6.851 -24.895  1.00  0.00    -0.390 OA
ATOM     10  H4  UNL     1      20.059   6.623 -25.636  1.00  0.00     0.210 HD
ENDBRANCH   4   9
BRANCH   5  11
HETATM   11  O3  UNL     1      21.271   7.563 -22.658  1.00  0.00    -0.393 OA
ATOM     12  H3  UNL     1      21.270   7.962 -21.796  1.00  0.00     0.210 HD
ENDBRANCH   5  11
BRANCH   7  13
HETATM   13  C2  UNL     1      17.953   7.603 -23.556  1.00  0.00    -0.025 C 
HETATM   14  C1  UNL     1      17.916   8.740 -22.882  1.00  0.00     0.008 C 
ENDBRANCH   7  13
BRANCH   7  15
HETATM   15  C4  UNL     1      16.877   6.084 -21.975  1.00  0.00     0.192 C 
BRANCH  15  16
HETATM   16  O1  UNL     1      16.530   4.719 -22.201  1.00  0.00    -0.321 OA
BRANCH  16  17
HETATM   17  C5  UNL     1      16.616   3.791 -21.161  1.00  0.00     0.254 C 
HETATM   18  C6  UNL     1      17.794   2.867 -21.027  1.00  0.00     0.126 C 
HETATM   19  O2  UNL     1      15.668   3.764 -20.346  1.00  0.00    -0.266 OA
ENDBRANCH  16  17
ENDBRANCH  15  16
ENDBRANCH   7  15
ENDBRANCH   2   3
ENDBRANCH   1   2
BRANCH   1  20
HETATM   20  C12 UNL     1      21.946   2.517 -23.912  1.00  0.00     0.088 C 
BRANCH  20  21
HETATM   21  C13 UNL     1      21.688   1.465 -22.935  1.00  0.00    -0.015 C 
HETATM   22  C14 UNL     1      21.515   1.691 -21.664  1.00  0.00    -0.059 C 
HETATM   23  C15 UNL     1      21.569   3.063 -21.068  1.00  0.00     0.048 C 
BRANCH  22  24
HETATM   24  C16 UNL     1      21.230   0.602 -20.747  1.00  0.00    -0.048 C 
HETATM   25  C17 UNL     1      22.173  -0.224 -20.304  1.00  0.00     0.015 C 
HETATM   26  C18 UNL     1      21.829  -1.328 -19.374  1.00  0.00    -0.046 C 
HETATM   27  C19 UNL     1      22.251  -2.554 -19.562  1.00  0.00     0.039 C 
HETATM   28  C25 UNL     1      20.866  -0.965 -18.294  1.00  0.00     0.040 C 
HETATM   29  C26 UNL     1      20.104   0.280 -18.655  1.00  0.00     0.014 C 
HETATM   30  C27 UNL     1      19.880   0.358 -20.151  1.00  0.00     0.015 C 
HETATM   31  C28 UNL     1      19.173  -0.825 -20.697  1.00  0.00     0.015 C 
BRANCH  27  32
HETATM   32  C20 UNL     1      21.937  -3.659 -18.626  1.00  0.00    -0.019 C 
HETATM   33  C21 UNL     1      21.079  -4.729 -19.225  1.00  0.00     0.019 C 
HETATM   34  C22 UNL     1      23.304  -4.364 -18.272  1.00  0.00     0.019 C 
HETATM   35  C23 UNL     1      21.451  -3.244 -17.291  1.00  0.00     0.019 C 
ENDBRANCH  27  32
BRANCH  27  36
HETATM   36  C24 UNL     1      22.922  -2.938 -20.855  1.00  0.00     0.415 C 
HETATM   37  F1  UNL     1      24.202  -2.519 -20.943  1.00  0.00    -0.166 F 
HETATM   38  F2  UNL     1      22.258  -2.299 -21.917  1.00  0.00    -0.166 F 
HETATM   39  F3  UNL     1      22.907  -4.291 -21.078  1.00  0.00    -0.166 F 
ENDBRANCH  27  36
ENDBRANCH  22  24
ENDBRANCH  20  21
ENDBRANCH   1  20
BRANCH   1  40
HETATM   40  O6  UNL     1      20.179   1.674 -25.214  1.00  0.00    -0.366 OA
HETATM   41  C29 UNL     1      18.858   1.485 -24.818  1.00  0.00     0.204 C 
ENDBRANCH   1  40
TORSDOF 14
ENDMDL
