MODEL 1
REMARK VINA RESULT: -9.852718424      0.000      0.000
REMARK  9 active torsions:
REMARK  status: ('A' for Active; 'I' for Inactive)
REMARK    1  A    between atoms: N1_5  and  C5_6 
REMARK    2  A    between atoms: N2_9  and  C8_10 
REMARK    3  A    between atoms: C9_11  and  C10_12 
REMARK    4  A    between atoms: C10_12  and  O1_13 
REMARK    5  A    between atoms: C10_12  and  C11_15 
REMARK    6  A    between atoms: C10_12  and  C17_24 
REMARK    7  A    between atoms: N3_29  and  C22_30 
REMARK    8  A    between atoms: C22_30  and  C23_31 
REMARK    9  A    between atoms: C31_39  and  N4_40 
ROOT
HETATM    1  C10 UNL     1      20.041   0.520 -21.017  1.00  0.00     0.131 C 
ENDROOT
BRANCH   1   2
HETATM    2  C9  UNL     1      19.002   1.380 -20.422  1.00  0.00     0.035 C 
HETATM    3  C8  UNL     1      18.084   2.306 -20.998  1.00  0.00     0.089 C 
BRANCH   3   4
HETATM    4  N2  UNL     1      18.405   3.497 -21.647  1.00  0.00    -0.370 N 
HETATM    5  C7  UNL     1      17.763   3.886 -22.824  1.00  0.00     0.065 C 
HETATM    6  C6  UNL     1      18.798   3.972 -23.939  1.00  0.00     0.071 C 
HETATM    7  C5  UNL     1      19.526   5.298 -23.685  1.00  0.00     0.113 C 
HETATM    8  C30 UNL     1      19.921   5.287 -22.247  1.00  0.00     0.047 C 
HETATM    9  C29 UNL     1      19.778   3.921 -21.604  1.00  0.00     0.129 C 
BRANCH   7  10
HETATM   10  N1  UNL     1      20.583   5.534 -24.624  1.00  0.00    -0.189 N 
HETATM   11  C4  UNL     1      21.381   4.601 -25.127  1.00  0.00     0.111 A 
HETATM   12  C3  UNL     1      22.368   4.947 -26.024  1.00  0.00     0.043 A 
HETATM   13  C2  UNL     1      22.553   6.244 -26.420  1.00  0.00     0.024 A 
HETATM   14  C1  UNL     1      23.620   6.643 -27.393  1.00  0.00     0.068 C 
HETATM   15  N5  UNL     1      21.731   7.166 -25.895  1.00  0.00    -0.196 N 
HETATM   16  C31 UNL     1      20.773   6.830 -25.023  1.00  0.00     0.678 A 
ATOM     17  H5  UNL     1      21.839   8.144 -26.167  1.00  0.00     0.184 HD
BRANCH  16  18
HETATM   18  N4  UNL     1      20.011   7.768 -24.553  1.00  0.00    -0.234 N 
ATOM     19  H42 UNL     1      19.259   7.507 -23.914  1.00  0.00     0.174 HD
ATOM     20  H41 UNL     1      20.173   8.737 -24.825  1.00  0.00     0.174 HD
ENDBRANCH  16  18
ENDBRANCH   7  10
ENDBRANCH   3   4
ENDBRANCH   1   2
BRANCH   1  21
HETATM   21  O1  UNL     1      21.190   1.403 -20.838  1.00  0.00    -0.378 OA
ATOM     22  H1  UNL     1      21.401   1.556 -21.751  1.00  0.00     0.211 HD
ENDBRANCH   1  21
BRANCH   1  23
HETATM   23  C11 UNL     1      20.093   0.356 -22.482  1.00  0.00     0.062 A 
HETATM   24  C12 UNL     1      20.982   1.006 -23.325  1.00  0.00     0.129 A 
HETATM   25  F1  UNL     1      21.756   1.972 -22.804  1.00  0.00    -0.205 F 
HETATM   26  C13 UNL     1      21.079   0.796 -24.676  1.00  0.00     0.046 A 
HETATM   27  C14 UNL     1      20.272  -0.098 -25.304  1.00  0.00     0.048 A 
HETATM   28  C15 UNL     1      19.359  -0.780 -24.536  1.00  0.00     0.155 A 
HETATM   29  F2  UNL     1      18.550  -1.673 -25.151  1.00  0.00    -0.203 F 
HETATM   30  C16 UNL     1      19.288  -0.549 -23.180  1.00  0.00     0.167 A 
HETATM   31  F3  UNL     1      18.335  -1.284 -22.516  1.00  0.00    -0.202 F 
ENDBRANCH   1  23
BRANCH   1  32
HETATM   32  C17 UNL     1      20.488  -0.677 -20.232  1.00  0.00     0.131 C 
HETATM   33  C18 UNL     1      19.865  -0.782 -18.868  1.00  0.00     0.030 C 
HETATM   34  C19 UNL     1      20.476   0.115 -17.837  1.00  0.00     0.007 C 
HETATM   35  C20 UNL     1      21.974   0.171 -17.867  1.00  0.00     0.045 C 
HETATM   36  C21 UNL     1      22.608  -0.181 -19.172  1.00  0.00     0.063 C 
HETATM   37  N3  UNL     1      21.865  -0.899 -20.109  1.00  0.00    -0.365 N 
BRANCH  37  38
HETATM   38  C22 UNL     1      22.503  -2.012 -20.645  1.00  0.00     0.068 C 
BRANCH  38  39
HETATM   39  C23 UNL     1      23.383  -2.877 -19.829  1.00  0.00     0.024 C 
HETATM   40  C24 UNL     1      22.512  -3.975 -19.210  1.00  0.00     0.010 C 
HETATM   41  C25 UNL     1      22.069  -5.003 -20.192  1.00  0.00     0.001 C 
HETATM   42  C26 UNL     1      23.339  -5.744 -20.635  1.00  0.00     0.000 C 
HETATM   43  C27 UNL     1      24.125  -4.708 -21.409  1.00  0.00     0.001 C 
HETATM   44  C28 UNL     1      24.498  -3.566 -20.536  1.00  0.00     0.010 C 
ENDBRANCH  38  39
ENDBRANCH  37  38
ENDBRANCH   1  32
TORSDOF 9
ENDMDL
MODEL 2
REMARK VINA RESULT: -9.830362751      0.448      1.493
REMARK  9 active torsions:
REMARK  status: ('A' for Active; 'I' for Inactive)
REMARK    1  A    between atoms: N1_5  and  C5_6 
REMARK    2  A    between atoms: N2_9  and  C8_10 
REMARK    3  A    between atoms: C9_11  and  C10_12 
REMARK    4  A    between atoms: C10_12  and  O1_13 
REMARK    5  A    between atoms: C10_12  and  C11_15 
REMARK    6  A    between atoms: C10_12  and  C17_24 
REMARK    7  A    between atoms: N3_29  and  C22_30 
REMARK    8  A    between atoms: C22_30  and  C23_31 
REMARK    9  A    between atoms: C31_39  and  N4_40 
ROOT
HETATM    1  C10 UNL     1      20.070   0.491 -21.079  1.00  0.00     0.131 C 
ENDROOT
BRANCH   1   2
HETATM    2  C9  UNL     1      19.039   1.346 -20.463  1.00  0.00     0.035 C 
HETATM    3  C8  UNL     1      18.141   2.305 -21.012  1.00  0.00     0.089 C 
BRANCH   3   4
HETATM    4  N2  UNL     1      18.485   3.514 -21.616  1.00  0.00    -0.370 N 
HETATM    5  C7  UNL     1      17.807   3.991 -22.738  1.00  0.00     0.065 C 
HETATM    6  C6  UNL     1      18.792   4.090 -23.897  1.00  0.00     0.071 C 
HETATM    7  C5  UNL     1      19.591   5.368 -23.613  1.00  0.00     0.113 C 
HETATM    8  C30 UNL     1      20.052   5.265 -22.199  1.00  0.00     0.047 C 
HETATM    9  C29 UNL     1      19.877   3.875 -21.618  1.00  0.00     0.129 C 
BRANCH   7  10
HETATM   10  N1  UNL     1      20.613   5.607 -24.590  1.00  0.00    -0.189 N 
HETATM   11  C4  UNL     1      21.398   4.676 -25.118  1.00  0.00     0.111 A 
HETATM   12  C3  UNL     1      22.349   5.024 -26.051  1.00  0.00     0.043 A 
HETATM   13  C2  UNL     1      22.514   6.321 -26.457  1.00  0.00     0.024 A 
HETATM   14  C1  UNL     1      23.544   6.722 -27.468  1.00  0.00     0.068 C 
HETATM   15  N5  UNL     1      21.707   7.241 -25.906  1.00  0.00    -0.196 N 
HETATM   16  C31 UNL     1      20.782   6.902 -24.999  1.00  0.00     0.678 A 
ATOM     17  H5  UNL     1      21.800   8.218 -26.183  1.00  0.00     0.184 HD
BRANCH  16  18
HETATM   18  N4  UNL     1      20.032   7.838 -24.505  1.00  0.00    -0.234 N 
ATOM     19  H42 UNL     1      19.033   7.656 -24.405  1.00  0.00     0.174 HD
ATOM     20  H41 UNL     1      20.448   8.727 -24.227  1.00  0.00     0.174 HD
ENDBRANCH  16  18
ENDBRANCH   7  10
ENDBRANCH   3   4
ENDBRANCH   1   2
BRANCH   1  21
HETATM   21  O1  UNL     1      21.220   1.375 -20.914  1.00  0.00    -0.378 OA
ATOM     22  H1  UNL     1      21.902   0.717 -20.855  1.00  0.00     0.211 HD
ENDBRANCH   1  21
BRANCH   1  23
HETATM   23  C11 UNL     1      20.097   0.336 -22.547  1.00  0.00     0.062 A 
HETATM   24  C12 UNL     1      19.199  -0.424 -23.283  1.00  0.00     0.129 A 
HETATM   25  F1  UNL     1      18.333  -1.202 -22.615  1.00  0.00    -0.205 F 
HETATM   26  C13 UNL     1      19.180  -0.507 -24.651  1.00  0.00     0.046 A 
HETATM   27  C14 UNL     1      20.079   0.176 -25.406  1.00  0.00     0.048 A 
HETATM   28  C15 UNL     1      21.005   0.949 -24.748  1.00  0.00     0.155 A 
HETATM   29  F2  UNL     1      21.906   1.633 -25.490  1.00  0.00    -0.203 F 
HETATM   30  C16 UNL     1      20.998   1.014 -23.372  1.00  0.00     0.167 A 
HETATM   31  F3  UNL     1      21.972   1.814 -22.824  1.00  0.00    -0.202 F 
ENDBRANCH   1  23
BRANCH   1  32
HETATM   32  C17 UNL     1      20.531  -0.710 -20.309  1.00  0.00     0.131 C 
HETATM   33  C18 UNL     1      19.883  -0.859 -18.961  1.00  0.00     0.030 C 
HETATM   34  C19 UNL     1      20.449   0.033 -17.900  1.00  0.00     0.007 C 
HETATM   35  C20 UNL     1      21.945   0.128 -17.896  1.00  0.00     0.045 C 
HETATM   36  C21 UNL     1      22.615  -0.180 -19.195  1.00  0.00     0.063 C 
HETATM   37  N3  UNL     1      21.912  -0.898 -20.162  1.00  0.00    -0.365 N 
BRANCH  37  38
HETATM   38  C22 UNL     1      22.590  -1.983 -20.705  1.00  0.00     0.068 C 
BRANCH  38  39
HETATM   39  C23 UNL     1      23.445  -2.864 -19.881  1.00  0.00     0.024 C 
HETATM   40  C24 UNL     1      22.545  -3.937 -19.259  1.00  0.00     0.010 C 
HETATM   41  C25 UNL     1      22.082  -4.960 -20.237  1.00  0.00     0.001 C 
HETATM   42  C26 UNL     1      23.336  -5.734 -20.669  1.00  0.00     0.000 C 
HETATM   43  C27 UNL     1      24.150  -4.722 -21.446  1.00  0.00     0.001 C 
HETATM   44  C28 UNL     1      24.547  -3.584 -20.578  1.00  0.00     0.010 C 
ENDBRANCH  38  39
ENDBRANCH  37  38
ENDBRANCH   1  32
TORSDOF 9
ENDMDL
MODEL 3
REMARK VINA RESULT: -9.590891594      1.908      2.887
REMARK  9 active torsions:
REMARK  status: ('A' for Active; 'I' for Inactive)
REMARK    1  A    between atoms: N1_5  and  C5_6 
REMARK    2  A    between atoms: N2_9  and  C8_10 
REMARK    3  A    between atoms: C9_11  and  C10_12 
REMARK    4  A    between atoms: C10_12  and  O1_13 
REMARK    5  A    between atoms: C10_12  and  C11_15 
REMARK    6  A    between atoms: C10_12  and  C17_24 
REMARK    7  A    between atoms: N3_29  and  C22_30 
REMARK    8  A    between atoms: C22_30  and  C23_31 
REMARK    9  A    between atoms: C31_39  and  N4_40 
ROOT
HETATM    1  C10 UNL     1      20.115   0.630 -21.090  1.00  0.00     0.131 C 
ENDROOT
BRANCH   1   2
HETATM    2  C9  UNL     1      19.140   1.568 -20.506  1.00  0.00     0.035 C 
HETATM    3  C8  UNL     1      18.107   2.357 -21.090  1.00  0.00     0.089 C 
BRANCH   3   4
HETATM    4  N2  UNL     1      18.275   3.413 -21.985  1.00  0.00    -0.370 N 
HETATM    5  C7  UNL     1      19.434   4.191 -21.991  1.00  0.00     0.065 C 
HETATM    6  C6  UNL     1      19.057   5.630 -21.658  1.00  0.00     0.071 C 
HETATM    7  C5  UNL     1      18.463   6.181 -22.960  1.00  0.00     0.113 C 
HETATM    8  C30 UNL     1      17.445   5.187 -23.407  1.00  0.00     0.047 C 
HETATM    9  C29 UNL     1      17.103   4.168 -22.338  1.00  0.00     0.129 C 
BRANCH   7  10
HETATM   10  N1  UNL     1      18.003   7.532 -22.827  1.00  0.00    -0.189 N 
HETATM   11  C4  UNL     1      17.102   7.950 -21.947  1.00  0.00     0.111 A 
HETATM   12  C3  UNL     1      16.735   9.277 -21.911  1.00  0.00     0.043 A 
HETATM   13  C2  UNL     1      17.280  10.195 -22.768  1.00  0.00     0.024 A 
HETATM   14  C1  UNL     1      16.894  11.642 -22.748  1.00  0.00     0.068 C 
HETATM   15  N5  UNL     1      18.189   9.745 -23.647  1.00  0.00    -0.196 N 
HETATM   16  C31 UNL     1      18.545   8.454 -23.682  1.00  0.00     0.678 A 
ATOM     17  H5  UNL     1      18.617  10.399 -24.302  1.00  0.00     0.184 HD
BRANCH  16  18
HETATM   18  N4  UNL     1      19.429   8.083 -24.554  1.00  0.00    -0.234 N 
ATOM     19  H42 UNL     1      19.819   7.143 -24.479  1.00  0.00     0.174 HD
ATOM     20  H41 UNL     1      19.717   8.727 -25.291  1.00  0.00     0.174 HD
ENDBRANCH  16  18
ENDBRANCH   7  10
ENDBRANCH   3   4
ENDBRANCH   1   2
BRANCH   1  21
HETATM   21  O1  UNL     1      21.322   1.438 -20.937  1.00  0.00    -0.378 OA
ATOM     22  H1  UNL     1      20.914   2.284 -20.798  1.00  0.00     0.211 HD
ENDBRANCH   1  21
BRANCH   1  23
HETATM   23  C11 UNL     1      20.144   0.433 -22.553  1.00  0.00     0.062 A 
HETATM   24  C12 UNL     1      20.984   1.103 -23.429  1.00  0.00     0.129 A 
HETATM   25  F1  UNL     1      21.722   2.117 -22.947  1.00  0.00    -0.205 F 
HETATM   26  C13 UNL     1      21.062   0.866 -24.777  1.00  0.00     0.046 A 
HETATM   27  C14 UNL     1      20.285  -0.079 -25.367  1.00  0.00     0.048 A 
HETATM   28  C15 UNL     1      19.422  -0.785 -24.563  1.00  0.00     0.155 A 
HETATM   29  F2  UNL     1      18.643  -1.728 -25.140  1.00  0.00    -0.203 F 
HETATM   30  C16 UNL     1      19.368  -0.524 -23.212  1.00  0.00     0.167 A 
HETATM   31  F3  UNL     1      18.465  -1.287 -22.510  1.00  0.00    -0.202 F 
ENDBRANCH   1  23
BRANCH   1  32
HETATM   32  C17 UNL     1      20.488  -0.579 -20.284  1.00  0.00     0.131 C 
HETATM   33  C18 UNL     1      19.825  -0.644 -18.936  1.00  0.00     0.030 C 
HETATM   34  C19 UNL     1      20.448   0.235 -17.897  1.00  0.00     0.007 C 
HETATM   35  C20 UNL     1      21.948   0.224 -17.888  1.00  0.00     0.045 C 
HETATM   36  C21 UNL     1      22.600  -0.167 -19.173  1.00  0.00     0.063 C 
HETATM   37  N3  UNL     1      21.851  -0.860 -20.124  1.00  0.00    -0.365 N 
BRANCH  37  38
HETATM   38  C22 UNL     1      22.452  -2.005 -20.633  1.00  0.00     0.068 C 
BRANCH  38  39
HETATM   39  C23 UNL     1      23.342  -2.854 -19.810  1.00  0.00     0.024 C 
HETATM   40  C24 UNL     1      22.484  -3.962 -19.190  1.00  0.00     0.010 C 
HETATM   41  C25 UNL     1      22.060  -5.001 -20.169  1.00  0.00     0.001 C 
HETATM   42  C26 UNL     1      23.343  -5.724 -20.603  1.00  0.00     0.000 C 
HETATM   43  C27 UNL     1      24.117  -4.680 -21.379  1.00  0.00     0.001 C 
HETATM   44  C28 UNL     1      24.470  -3.529 -20.509  1.00  0.00     0.010 C 
ENDBRANCH  38  39
ENDBRANCH  37  38
ENDBRANCH   1  32
TORSDOF 9
ENDMDL
MODEL 4
REMARK VINA RESULT: -9.589135391      2.038      3.348
REMARK  9 active torsions:
REMARK  status: ('A' for Active; 'I' for Inactive)
REMARK    1  A    between atoms: N1_5  and  C5_6 
REMARK    2  A    between atoms: N2_9  and  C8_10 
REMARK    3  A    between atoms: C9_11  and  C10_12 
REMARK    4  A    between atoms: C10_12  and  O1_13 
REMARK    5  A    between atoms: C10_12  and  C11_15 
REMARK    6  A    between atoms: C10_12  and  C17_24 
REMARK    7  A    between atoms: N3_29  and  C22_30 
REMARK    8  A    between atoms: C22_30  and  C23_31 
REMARK    9  A    between atoms: C31_39  and  N4_40 
ROOT
HETATM    1  C10 UNL     1      20.237   0.656 -21.166  1.00  0.00     0.131 C 
ENDROOT
BRANCH   1   2
HETATM    2  C9  UNL     1      19.265   1.561 -20.527  1.00  0.00     0.035 C 
HETATM    3  C8  UNL     1      18.182   2.324 -21.052  1.00  0.00     0.089 C 
BRANCH   3   4
HETATM    4  N2  UNL     1      18.275   3.391 -21.945  1.00  0.00    -0.370 N 
HETATM    5  C7  UNL     1      19.408   4.204 -21.999  1.00  0.00     0.065 C 
HETATM    6  C6  UNL     1      19.003   5.628 -21.636  1.00  0.00     0.071 C 
HETATM    7  C5  UNL     1      18.331   6.170 -22.905  1.00  0.00     0.113 C 
HETATM    8  C30 UNL     1      17.325   5.148 -23.312  1.00  0.00     0.047 C 
HETATM    9  C29 UNL     1      17.065   4.111 -22.237  1.00  0.00     0.129 C 
BRANCH   7  10
HETATM   10  N1  UNL     1      17.837   7.505 -22.738  1.00  0.00    -0.189 N 
HETATM   11  C4  UNL     1      16.963   7.888 -21.816  1.00  0.00     0.111 A 
HETATM   12  C3  UNL     1      16.557   9.202 -21.751  1.00  0.00     0.043 A 
HETATM   13  C2  UNL     1      17.035  10.143 -22.623  1.00  0.00     0.024 A 
HETATM   14  C1  UNL     1      16.607  11.578 -22.572  1.00  0.00     0.068 C 
HETATM   15  N5  UNL     1      17.918   9.728 -23.545  1.00  0.00    -0.196 N 
HETATM   16  C31 UNL     1      18.312   8.450 -23.608  1.00  0.00     0.678 A 
ATOM     17  H5  UNL     1      18.296  10.401 -24.213  1.00  0.00     0.184 HD
BRANCH  16  18
HETATM   18  N4  UNL     1      19.168   8.113 -24.522  1.00  0.00    -0.234 N 
ATOM     19  H42 UNL     1      19.604   7.193 -24.461  1.00  0.00     0.174 HD
ATOM     20  H41 UNL     1      19.387   8.764 -25.275  1.00  0.00     0.174 HD
ENDBRANCH  16  18
ENDBRANCH   7  10
ENDBRANCH   3   4
ENDBRANCH   1   2
BRANCH   1  21
HETATM   21  O1  UNL     1      21.456   1.415 -20.903  1.00  0.00    -0.378 OA
ATOM     22  H1  UNL     1      21.257   2.192 -21.413  1.00  0.00     0.211 HD
ENDBRANCH   1  21
BRANCH   1  23
HETATM   23  C11 UNL     1      20.307   0.594 -22.639  1.00  0.00     0.062 A 
HETATM   24  C12 UNL     1      19.535  -0.235 -23.438  1.00  0.00     0.129 A 
HETATM   25  F1  UNL     1      18.773  -1.164 -22.837  1.00  0.00    -0.205 F 
HETATM   26  C13 UNL     1      19.547  -0.238 -24.809  1.00  0.00     0.046 A 
HETATM   27  C14 UNL     1      20.355   0.606 -25.502  1.00  0.00     0.048 A 
HETATM   28  C15 UNL     1      21.155   1.458 -24.779  1.00  0.00     0.155 A 
HETATM   29  F2  UNL     1      21.964   2.302 -25.459  1.00  0.00    -0.203 F 
HETATM   30  C16 UNL     1      21.118   1.438 -23.403  1.00  0.00     0.167 A 
HETATM   31  F3  UNL     1      21.965   2.329 -22.787  1.00  0.00    -0.202 F 
ENDBRANCH   1  23
BRANCH   1  32
HETATM   32  C17 UNL     1      20.556  -0.631 -20.465  1.00  0.00     0.131 C 
HETATM   33  C18 UNL     1      19.740  -0.872 -19.225  1.00  0.00     0.030 C 
HETATM   34  C19 UNL     1      20.200  -0.108 -18.023  1.00  0.00     0.007 C 
HETATM   35  C20 UNL     1      21.687  -0.084 -17.830  1.00  0.00     0.045 C 
HETATM   36  C21 UNL     1      22.503  -0.304 -19.062  1.00  0.00     0.063 C 
HETATM   37  N3  UNL     1      21.899  -0.897 -20.171  1.00  0.00    -0.365 N 
BRANCH  37  38
HETATM   38  C22 UNL     1      22.600  -1.958 -20.731  1.00  0.00     0.068 C 
BRANCH  38  39
HETATM   39  C23 UNL     1      23.470  -2.838 -19.918  1.00  0.00     0.024 C 
HETATM   40  C24 UNL     1      22.580  -3.910 -19.280  1.00  0.00     0.010 C 
HETATM   41  C25 UNL     1      22.102  -4.935 -20.248  1.00  0.00     0.001 C 
HETATM   42  C26 UNL     1      23.349  -5.709 -20.699  1.00  0.00     0.000 C 
HETATM   43  C27 UNL     1      24.150  -4.699 -21.491  1.00  0.00     0.001 C 
HETATM   44  C28 UNL     1      24.560  -3.559 -20.632  1.00  0.00     0.010 C 
ENDBRANCH  38  39
ENDBRANCH  37  38
ENDBRANCH   1  32
TORSDOF 9
ENDMDL
MODEL 5
REMARK VINA RESULT: -9.573021752      1.366      2.211
REMARK  9 active torsions:
REMARK  status: ('A' for Active; 'I' for Inactive)
REMARK    1  A    between atoms: N1_5  and  C5_6 
REMARK    2  A    between atoms: N2_9  and  C8_10 
REMARK    3  A    between atoms: C9_11  and  C10_12 
REMARK    4  A    between atoms: C10_12  and  O1_13 
REMARK    5  A    between atoms: C10_12  and  C11_15 
REMARK    6  A    between atoms: C10_12  and  C17_24 
REMARK    7  A    between atoms: N3_29  and  C22_30 
REMARK    8  A    between atoms: C22_30  and  C23_31 
REMARK    9  A    between atoms: C31_39  and  N4_40 
ROOT
HETATM    1  C10 UNL     1      19.888   0.363 -21.234  1.00  0.00     0.131 C 
ENDROOT
BRANCH   1   2
HETATM    2  C9  UNL     1      18.475   0.582 -20.875  1.00  0.00     0.035 C 
HETATM    3  C8  UNL     1      17.384   1.147 -21.597  1.00  0.00     0.089 C 
BRANCH   3   4
HETATM    4  N2  UNL     1      17.265   2.469 -22.021  1.00  0.00    -0.370 N 
HETATM    5  C7  UNL     1      17.009   2.790 -23.355  1.00  0.00     0.065 C 
HETATM    6  C6  UNL     1      18.183   3.597 -23.897  1.00  0.00     0.071 C 
HETATM    7  C5  UNL     1      17.974   5.007 -23.330  1.00  0.00     0.113 C 
HETATM    8  C30 UNL     1      17.748   4.836 -21.865  1.00  0.00     0.047 C 
HETATM    9  C29 UNL     1      18.095   3.446 -21.370  1.00  0.00     0.129 C 
BRANCH   7  10
HETATM   10  N1  UNL     1      19.021   5.911 -23.701  1.00  0.00    -0.189 N 
HETATM   11  C4  UNL     1      20.281   5.566 -23.940  1.00  0.00     0.111 A 
HETATM   12  C3  UNL     1      21.205   6.525 -24.290  1.00  0.00     0.043 A 
HETATM   13  C2  UNL     1      20.861   7.845 -24.402  1.00  0.00     0.024 A 
HETATM   14  C1  UNL     1      21.850   8.904 -24.780  1.00  0.00     0.068 C 
HETATM   15  N5  UNL     1      19.581   8.165 -24.155  1.00  0.00    -0.196 N 
HETATM   16  C31 UNL     1      18.682   7.232 -23.815  1.00  0.00     0.678 A 
ATOM     17  H5  UNL     1      19.286   9.139 -24.228  1.00  0.00     0.184 HD
BRANCH  16  18
HETATM   18  N4  UNL     1      17.461   7.606 -23.590  1.00  0.00    -0.234 N 
ATOM     19  H42 UNL     1      16.849   7.769 -24.391  1.00  0.00     0.174 HD
ATOM     20  H41 UNL     1      17.137   7.730 -22.632  1.00  0.00     0.174 HD
ENDBRANCH  16  18
ENDBRANCH   7  10
ENDBRANCH   3   4
ENDBRANCH   1   2
BRANCH   1  21
HETATM   21  O1  UNL     1      20.476   1.496 -20.524  1.00  0.00    -0.378 OA
ATOM     22  H1  UNL     1      21.394   1.294 -20.665  1.00  0.00     0.211 HD
ENDBRANCH   1  21
BRANCH   1  23
HETATM   23  C11 UNL     1      20.344   0.675 -22.602  1.00  0.00     0.062 A 
HETATM   24  C12 UNL     1      19.912   0.029 -23.751  1.00  0.00     0.129 A 
HETATM   25  F1  UNL     1      19.142  -1.062 -23.612  1.00  0.00    -0.205 F 
HETATM   26  C13 UNL     1      20.279   0.370 -25.027  1.00  0.00     0.046 A 
HETATM   27  C14 UNL     1      21.128   1.405 -25.258  1.00  0.00     0.048 A 
HETATM   28  C15 UNL     1      21.603   2.093 -24.167  1.00  0.00     0.155 A 
HETATM   29  F2  UNL     1      22.450   3.125 -24.385  1.00  0.00    -0.203 F 
HETATM   30  C16 UNL     1      21.214   1.728 -22.898  1.00  0.00     0.167 A 
HETATM   31  F3  UNL     1      21.756   2.484 -21.886  1.00  0.00    -0.202 F 
ENDBRANCH   1  23
BRANCH   1  32
HETATM   32  C17 UNL     1      20.605  -0.778 -20.575  1.00  0.00     0.131 C 
HETATM   33  C18 UNL     1      20.043  -1.162 -19.234  1.00  0.00     0.030 C 
HETATM   34  C19 UNL     1      20.454  -0.261 -18.111  1.00  0.00     0.007 C 
HETATM   35  C20 UNL     1      21.900   0.133 -18.123  1.00  0.00     0.045 C 
HETATM   36  C21 UNL     1      22.576   0.070 -19.454  1.00  0.00     0.063 C 
HETATM   37  N3  UNL     1      21.999  -0.695 -20.466  1.00  0.00    -0.365 N 
BRANCH  37  38
HETATM   38  C22 UNL     1      22.861  -1.575 -21.110  1.00  0.00     0.068 C 
BRANCH  38  39
HETATM   39  C23 UNL     1      23.854  -2.382 -20.368  1.00  0.00     0.024 C 
HETATM   40  C24 UNL     1      23.093  -3.226 -19.341  1.00  0.00     0.010 C 
HETATM   41  C25 UNL     1      22.330  -4.352 -19.949  1.00  0.00     0.001 C 
HETATM   42  C26 UNL     1      23.379  -5.318 -20.518  1.00  0.00     0.000 C 
HETATM   43  C27 UNL     1      24.013  -4.551 -21.659  1.00  0.00     0.001 C 
HETATM   44  C28 UNL     1      24.689  -3.326 -21.161  1.00  0.00     0.010 C 
ENDBRANCH  38  39
ENDBRANCH  37  38
ENDBRANCH   1  32
TORSDOF 9
ENDMDL
