MODEL 1
REMARK VINA RESULT: -8.462265217      0.000      0.000
REMARK  11 active torsions:
REMARK  status: ('A' for Active; 'I' for Inactive)
REMARK    1  A    between atoms: C2_2  and  C3_3 
REMARK    2  A    between atoms: C3_3  and  N1_4 
REMARK    3  A    between atoms: C3_3  and  C14_27 
REMARK    4  A    between atoms: N1_4  and  C4_6 
REMARK    5  A    between atoms: C5_9  and  C6_10 
REMARK    6  A    between atoms: C6_10  and  C7_11 
REMARK    7  A    between atoms: C7_11  and  C8_12 
REMARK    8  A    between atoms: C7_11  and  N3_14 
REMARK    9  A    between atoms: N3_14  and  C9_16 
REMARK   10  A    between atoms: C17_30  and  C18_31 
REMARK   11  A    between atoms: N7_37  and  C21_38 
ROOT
HETATM    1  N1  UNL     1      21.024   4.172 -22.168  1.00  0.00    -0.217 N 
ATOM      2  H1  UNL     1      21.488   4.511 -21.326  1.00  0.00     0.178 HD
ENDROOT
BRANCH   1   3
HETATM    3  C3  UNL     1      20.149   3.080 -22.025  1.00  0.00     0.132 C 
BRANCH   3   4
HETATM    4  C2  UNL     1      18.979   3.243 -21.108  1.00  0.00     0.026 C 
HETATM    5  C1  UNL     1      17.752   2.480 -21.539  1.00  0.00     0.007 C 
ENDBRANCH   3   4
BRANCH   3   6
HETATM    6  C14 UNL     1      20.848   1.810 -21.660  1.00  0.00    -0.032 A 
HETATM    7  C15 UNL     1      21.148   0.891 -22.633  1.00  0.00     0.010 A 
HETATM    8  C16 UNL     1      21.787  -0.285 -22.356  1.00  0.00     0.017 A 
HETATM    9  C17 UNL     1      22.181  -0.625 -21.033  1.00  0.00     0.031 A 
HETATM   10  C24 UNL     1      21.878   0.300 -20.092  1.00  0.00     0.129 A 
HETATM   11  F1  UNL     1      22.314   0.151 -18.811  1.00  0.00    -0.205 F 
HETATM   12  C25 UNL     1      21.215   1.516 -20.381  1.00  0.00     0.052 A 
BRANCH   9  13
HETATM   13  C18 UNL     1      22.947  -1.846 -20.870  1.00  0.00     0.066 A 
HETATM   14  C19 UNL     1      24.216  -1.966 -21.497  1.00  0.00     0.121 A 
HETATM   15  N6  UNL     1      24.688  -3.168 -21.276  1.00  0.00    -0.340 N 
HETATM   16  C20 UNL     1      23.787  -3.875 -20.521  1.00  0.00     0.182 A 
ATOM     17  H6  UNL     1      25.584  -3.523 -21.612  1.00  0.00     0.167 HD
HETATM   18 CL2  UNL     1      24.088  -5.517 -19.990  1.00  0.00    -0.045 Cl
HETATM   19  N7  UNL     1      22.742  -3.042 -20.300  1.00  0.00    -0.317 N 
BRANCH  19  20
HETATM   20  C21 UNL     1      21.520  -3.424 -19.656  1.00  0.00     0.084 C 
HETATM   21  C22 UNL     1      21.620  -3.111 -18.149  1.00  0.00     0.032 C 
HETATM   22  C23 UNL     1      21.336  -4.944 -19.673  1.00  0.00     0.032 C 
ENDBRANCH  19  20
ENDBRANCH   9  13
ENDBRANCH   3   6
ENDBRANCH   1   3
BRANCH   1  23
HETATM   23  C4  UNL     1      21.285   4.769 -23.254  1.00  0.00     0.678 A 
HETATM   24  N2  UNL     1      21.137   6.062 -23.515  1.00  0.00    -0.194 N 
HETATM   25  C5  UNL     1      21.432   6.668 -24.709  1.00  0.00     0.052 A 
ATOM     26  H2  UNL     1      20.775   6.652 -22.768  1.00  0.00     0.184 HD
HETATM   27  C12 UNL     1      21.920   5.917 -25.732  1.00  0.00     0.073 A 
HETATM   28 CL1  UNL     1      22.398   6.567 -27.287  1.00  0.00    -0.081 Cl
HETATM   29  C13 UNL     1      22.083   4.547 -25.481  1.00  0.00     0.132 A 
HETATM   30  N5  UNL     1      21.775   4.020 -24.293  1.00  0.00    -0.200 N 
ATOM     31  H5  UNL     1      21.909   3.019 -24.154  1.00  0.00     0.183 HD
BRANCH  25  32
HETATM   32  C6  UNL     1      21.141   8.085 -24.780  1.00  0.00     0.091 C 
BRANCH  32  33
HETATM   33  C7  UNL     1      20.292   8.692 -23.710  1.00  0.00     0.150 C 
BRANCH  33  34
HETATM   34  C8  UNL     1      20.525  10.073 -23.332  1.00  0.00     0.256 C 
HETATM   35  O1  UNL     1      20.246  10.531 -22.210  1.00  0.00    -0.305 OA
ENDBRANCH  33  34
BRANCH  33  36
HETATM   36  N3  UNL     1      18.874   8.631 -24.132  1.00  0.00    -0.359 N 
ATOM     37  H3  UNL     1      18.504   9.219 -24.878  1.00  0.00     0.162 HD
BRANCH  36  38
HETATM   38  C9  UNL     1      18.131   7.773 -23.486  1.00  0.00     0.144 A 
HETATM   39  N4  UNL     1      17.754   6.537 -23.802  1.00  0.00    -0.346 N 
HETATM   40  C10 UNL     1      16.997   5.875 -22.975  1.00  0.00     0.097 A 
ATOM     41  H4  UNL     1      18.055   6.114 -24.680  1.00  0.00     0.167 HD
HETATM   42  C11 UNL     1      16.618   6.481 -21.812  1.00  0.00     0.070 A 
HETATM   43  S1  UNL     1      17.372   8.002 -21.945  1.00  0.00    -0.065 SA
ENDBRANCH  36  38
ENDBRANCH  33  36
ENDBRANCH  32  33
ENDBRANCH  25  32
ENDBRANCH   1  23
TORSDOF 11
ENDMDL
MODEL 2
REMARK VINA RESULT: -8.343976110      1.313      2.010
REMARK  11 active torsions:
REMARK  status: ('A' for Active; 'I' for Inactive)
REMARK    1  A    between atoms: C2_2  and  C3_3 
REMARK    2  A    between atoms: C3_3  and  N1_4 
REMARK    3  A    between atoms: C3_3  and  C14_27 
REMARK    4  A    between atoms: N1_4  and  C4_6 
REMARK    5  A    between atoms: C5_9  and  C6_10 
REMARK    6  A    between atoms: C6_10  and  C7_11 
REMARK    7  A    between atoms: C7_11  and  C8_12 
REMARK    8  A    between atoms: C7_11  and  N3_14 
REMARK    9  A    between atoms: N3_14  and  C9_16 
REMARK   10  A    between atoms: C17_30  and  C18_31 
REMARK   11  A    between atoms: N7_37  and  C21_38 
ROOT
HETATM    1  N1  UNL     1      19.887   3.870 -22.135  1.00  0.00    -0.217 N 
ATOM      2  H1  UNL     1      20.051   4.289 -21.220  1.00  0.00     0.178 HD
ENDROOT
BRANCH   1   3
HETATM    3  C3  UNL     1      19.042   2.748 -22.188  1.00  0.00     0.132 C 
BRANCH   3   4
HETATM    4  C2  UNL     1      17.588   2.961 -21.903  1.00  0.00     0.026 C 
HETATM    5  C1  UNL     1      16.696   2.774 -23.105  1.00  0.00     0.007 C 
ENDBRANCH   3   4
BRANCH   3   6
HETATM    6  C14 UNL     1      19.516   1.613 -21.338  1.00  0.00    -0.032 A 
HETATM    7  C15 UNL     1      19.023   0.351 -21.548  1.00  0.00     0.010 A 
HETATM    8  C16 UNL     1      19.423  -0.723 -20.804  1.00  0.00     0.017 A 
HETATM    9  C17 UNL     1      20.380  -0.592 -19.761  1.00  0.00     0.031 A 
HETATM   10  C24 UNL     1      20.855   0.662 -19.577  1.00  0.00     0.129 A 
HETATM   11  F1  UNL     1      21.868   0.896 -18.697  1.00  0.00    -0.205 F 
HETATM   12  C25 UNL     1      20.438   1.773 -20.348  1.00  0.00     0.052 A 
BRANCH   9  13
HETATM   13  C18 UNL     1      20.811  -1.814 -19.108  1.00  0.00     0.066 A 
HETATM   14  C19 UNL     1      20.390  -2.084 -17.779  1.00  0.00     0.121 A 
HETATM   15  N6  UNL     1      20.955  -3.194 -17.370  1.00  0.00    -0.340 N 
HETATM   16  C20 UNL     1      21.748  -3.692 -18.372  1.00  0.00     0.182 A 
ATOM     17  H6  UNL     1      20.825  -3.621 -16.453  1.00  0.00     0.167 HD
HETATM   18 CL2  UNL     1      22.640  -5.191 -18.211  1.00  0.00    -0.045 Cl
HETATM   19  N7  UNL     1      21.640  -2.824 -19.407  1.00  0.00    -0.317 N 
BRANCH  19  20
HETATM   20  C21 UNL     1      22.407  -2.900 -20.616  1.00  0.00     0.084 C 
HETATM   21  C22 UNL     1      23.022  -4.309 -20.740  1.00  0.00     0.032 C 
HETATM   22  C23 UNL     1      23.643  -1.998 -20.546  1.00  0.00     0.032 C 
ENDBRANCH  19  20
ENDBRANCH   9  13
ENDBRANCH   3   6
ENDBRANCH   1   3
BRANCH   1  23
HETATM   23  C4  UNL     1      20.463   4.405 -23.128  1.00  0.00     0.678 A 
HETATM   24  N2  UNL     1      20.570   5.701 -23.393  1.00  0.00    -0.194 N 
HETATM   25  C5  UNL     1      21.203   6.238 -24.484  1.00  0.00     0.052 A 
ATOM     26  H2  UNL     1      20.146   6.351 -22.732  1.00  0.00     0.184 HD
HETATM   27  C12 UNL     1      21.784   5.407 -25.390  1.00  0.00     0.073 A 
HETATM   28 CL1  UNL     1      22.679   5.954 -26.793  1.00  0.00    -0.081 Cl
HETATM   29  C13 UNL     1      21.683   4.032 -25.133  1.00  0.00     0.132 A 
HETATM   30  N5  UNL     1      21.050   3.576 -24.050  1.00  0.00    -0.200 N 
ATOM     31  H5  UNL     1      21.000   2.567 -23.902  1.00  0.00     0.183 HD
BRANCH  25  32
HETATM   32  C6  UNL     1      21.148   7.681 -24.592  1.00  0.00     0.091 C 
BRANCH  32  33
HETATM   33  C7  UNL     1      20.321   8.438 -23.604  1.00  0.00     0.150 C 
BRANCH  33  34
HETATM   34  C8  UNL     1      20.684   9.808 -23.292  1.00  0.00     0.256 C 
HETATM   35  O1  UNL     1      20.525  10.318 -22.170  1.00  0.00    -0.305 OA
ENDBRANCH  33  34
BRANCH  33  36
HETATM   36  N3  UNL     1      18.926   8.501 -24.097  1.00  0.00    -0.359 N 
ATOM     37  H3  UNL     1      18.688   8.903 -25.003  1.00  0.00     0.162 HD
BRANCH  36  38
HETATM   38  C9  UNL     1      18.023   8.007 -23.293  1.00  0.00     0.144 A 
HETATM   39  N4  UNL     1      17.470   6.798 -23.246  1.00  0.00    -0.346 N 
HETATM   40  C10 UNL     1      16.574   6.547 -22.334  1.00  0.00     0.097 A 
ATOM     41  H4  UNL     1      17.743   6.077 -23.914  1.00  0.00     0.167 HD
HETATM   42  C11 UNL     1      16.238   7.542 -21.460  1.00  0.00     0.070 A 
HETATM   43  S1  UNL     1      17.232   8.821 -21.984  1.00  0.00    -0.065 SA
ENDBRANCH  36  38
ENDBRANCH  33  36
ENDBRANCH  32  33
ENDBRANCH  25  32
ENDBRANCH   1  23
TORSDOF 11
ENDMDL
MODEL 3
REMARK VINA RESULT: -8.318929515      3.046      4.392
REMARK  11 active torsions:
REMARK  status: ('A' for Active; 'I' for Inactive)
REMARK    1  A    between atoms: C2_2  and  C3_3 
REMARK    2  A    between atoms: C3_3  and  N1_4 
REMARK    3  A    between atoms: C3_3  and  C14_27 
REMARK    4  A    between atoms: N1_4  and  C4_6 
REMARK    5  A    between atoms: C5_9  and  C6_10 
REMARK    6  A    between atoms: C6_10  and  C7_11 
REMARK    7  A    between atoms: C7_11  and  C8_12 
REMARK    8  A    between atoms: C7_11  and  N3_14 
REMARK    9  A    between atoms: N3_14  and  C9_16 
REMARK   10  A    between atoms: C17_30  and  C18_31 
REMARK   11  A    between atoms: N7_37  and  C21_38 
ROOT
HETATM    1  N1  UNL     1      19.603   4.817 -24.359  1.00  0.00    -0.217 N 
ATOM      2  H1  UNL     1      19.208   4.365 -25.183  1.00  0.00     0.178 HD
ENDROOT
BRANCH   1   3
HETATM    3  C3  UNL     1      20.964   4.588 -24.090  1.00  0.00     0.132 C 
BRANCH   3   4
HETATM    4  C2  UNL     1      21.908   4.563 -25.251  1.00  0.00     0.026 C 
HETATM    5  C1  UNL     1      22.041   5.888 -25.959  1.00  0.00     0.007 C 
ENDBRANCH   3   4
BRANCH   3   6
HETATM    6  C14 UNL     1      21.203   3.357 -23.276  1.00  0.00    -0.032 A 
HETATM    7  C15 UNL     1      21.359   3.456 -21.917  1.00  0.00     0.010 A 
HETATM    8  C16 UNL     1      21.577   2.365 -21.123  1.00  0.00     0.017 A 
HETATM    9  C17 UNL     1      21.656   1.054 -21.666  1.00  0.00     0.031 A 
HETATM   10  C24 UNL     1      21.494   0.981 -23.008  1.00  0.00     0.129 A 
HETATM   11  F1  UNL     1      21.421  -0.227 -23.632  1.00  0.00    -0.205 F 
HETATM   12  C25 UNL     1      21.270   2.113 -23.828  1.00  0.00     0.052 A 
BRANCH   9  13
HETATM   13  C18 UNL     1      21.782  -0.041 -20.723  1.00  0.00     0.066 A 
HETATM   14  C19 UNL     1      23.047  -0.658 -20.532  1.00  0.00     0.121 A 
HETATM   15  N6  UNL     1      22.909  -1.661 -19.698  1.00  0.00    -0.340 N 
HETATM   16  C20 UNL     1      21.596  -1.752 -19.314  1.00  0.00     0.182 A 
ATOM     17  H6  UNL     1      23.660  -2.276 -19.384  1.00  0.00     0.167 HD
HETATM   18 CL2  UNL     1      21.030  -2.952 -18.170  1.00  0.00    -0.045 Cl
HETATM   19  N7  UNL     1      20.943  -0.756 -19.961  1.00  0.00    -0.317 N 
BRANCH  19  20
HETATM   20  C21 UNL     1      19.521  -0.569 -19.940  1.00  0.00     0.084 C 
HETATM   21  C22 UNL     1      18.991  -0.539 -21.388  1.00  0.00     0.032 C 
HETATM   22  C23 UNL     1      19.154   0.823 -19.418  1.00  0.00     0.032 C 
ENDBRANCH  19  20
ENDBRANCH   9  13
ENDBRANCH   3   6
ENDBRANCH   1   3
BRANCH   1  23
HETATM   23  C4  UNL     1      18.828   5.538 -23.665  1.00  0.00     0.678 A 
HETATM   24  N2  UNL     1      18.887   6.854 -23.500  1.00  0.00    -0.194 N 
HETATM   25  C5  UNL     1      18.024   7.598 -22.738  1.00  0.00     0.052 A 
ATOM     26  H2  UNL     1      19.635   7.353 -23.981  1.00  0.00     0.184 HD
HETATM   27  C12 UNL     1      17.011   6.972 -22.081  1.00  0.00     0.073 A 
HETATM   28 CL1  UNL     1      15.800   7.800 -21.125  1.00  0.00    -0.081 Cl
HETATM   29  C13 UNL     1      16.928   5.581 -22.239  1.00  0.00     0.132 A 
HETATM   30  N5  UNL     1      17.804   4.917 -22.997  1.00  0.00    -0.200 N 
ATOM     31  H5  UNL     1      17.707   3.905 -23.083  1.00  0.00     0.183 HD
BRANCH  25  32
HETATM   32  C6  UNL     1      18.315   9.014 -22.664  1.00  0.00     0.091 C 
BRANCH  32  33
HETATM   33  C7  UNL     1      17.380   9.969 -23.334  1.00  0.00     0.150 C 
BRANCH  33  34
HETATM   34  C8  UNL     1      16.861  11.089 -22.572  1.00  0.00     0.256 C 
HETATM   35  O1  UNL     1      15.674  11.456 -22.619  1.00  0.00    -0.305 OA
ENDBRANCH  33  34
BRANCH  33  36
HETATM   36  N3  UNL     1      18.063  10.567 -24.502  1.00  0.00    -0.359 N 
ATOM     37  H3  UNL     1      18.956  11.053 -24.420  1.00  0.00     0.162 HD
BRANCH  36  38
HETATM   38  C9  UNL     1      17.446  10.431 -25.645  1.00  0.00     0.144 A 
HETATM   39  N4  UNL     1      17.341   9.382 -26.457  1.00  0.00    -0.346 N 
HETATM   40  C10 UNL     1      16.659   9.501 -27.561  1.00  0.00     0.097 A 
ATOM     41  H4  UNL     1      17.788   8.497 -26.219  1.00  0.00     0.167 HD
HETATM   42  C11 UNL     1      16.077  10.705 -27.840  1.00  0.00     0.070 A 
HETATM   43  S1  UNL     1      16.535  11.639 -26.491  1.00  0.00    -0.065 SA
ENDBRANCH  36  38
ENDBRANCH  33  36
ENDBRANCH  32  33
ENDBRANCH  25  32
ENDBRANCH   1  23
TORSDOF 11
ENDMDL
MODEL 4
REMARK VINA RESULT: -8.257173261      2.518      4.011
REMARK  11 active torsions:
REMARK  status: ('A' for Active; 'I' for Inactive)
REMARK    1  A    between atoms: C2_2  and  C3_3 
REMARK    2  A    between atoms: C3_3  and  N1_4 
REMARK    3  A    between atoms: C3_3  and  C14_27 
REMARK    4  A    between atoms: N1_4  and  C4_6 
REMARK    5  A    between atoms: C5_9  and  C6_10 
REMARK    6  A    between atoms: C6_10  and  C7_11 
REMARK    7  A    between atoms: C7_11  and  C8_12 
REMARK    8  A    between atoms: C7_11  and  N3_14 
REMARK    9  A    between atoms: N3_14  and  C9_16 
REMARK   10  A    between atoms: C17_30  and  C18_31 
REMARK   11  A    between atoms: N7_37  and  C21_38 
ROOT
HETATM    1  N1  UNL     1      18.625   2.442 -23.626  1.00  0.00    -0.217 N 
ATOM      2  H1  UNL     1      17.970   1.748 -23.985  1.00  0.00     0.178 HD
ENDROOT
BRANCH   1   3
HETATM    3  C3  UNL     1      19.989   2.101 -23.626  1.00  0.00     0.132 C 
BRANCH   3   4
HETATM    4  C2  UNL     1      20.597   1.671 -24.924  1.00  0.00     0.026 C 
HETATM    5  C1  UNL     1      20.411   0.207 -25.232  1.00  0.00     0.007 C 
ENDBRANCH   3   4
BRANCH   3   6
HETATM    6  C14 UNL     1      20.341   1.080 -22.592  1.00  0.00    -0.032 A 
HETATM    7  C15 UNL     1      19.375   0.231 -22.115  1.00  0.00     0.010 A 
HETATM    8  C16 UNL     1      19.640  -0.722 -21.172  1.00  0.00     0.017 A 
HETATM    9  C17 UNL     1      20.942  -0.889 -20.628  1.00  0.00     0.031 A 
HETATM   10  C24 UNL     1      21.878  -0.044 -21.119  1.00  0.00     0.129 A 
HETATM   11  F1  UNL     1      23.188  -0.186 -20.773  1.00  0.00    -0.205 F 
HETATM   12  C25 UNL     1      21.601   0.944 -22.094  1.00  0.00     0.052 A 
BRANCH   9  13
HETATM   13  C18 UNL     1      21.135  -2.001 -19.715  1.00  0.00     0.066 A 
HETATM   14  C19 UNL     1      20.505  -1.978 -18.443  1.00  0.00     0.121 A 
HETATM   15  N6  UNL     1      20.876  -3.038 -17.765  1.00  0.00    -0.340 N 
HETATM   16  C20 UNL     1      21.738  -3.783 -18.529  1.00  0.00     0.182 A 
ATOM     17  H6  UNL     1      20.572  -3.272 -16.820  1.00  0.00     0.167 HD
HETATM   18 CL2  UNL     1      22.418  -5.298 -17.974  1.00  0.00    -0.045 Cl
HETATM   19  N7  UNL     1      21.874  -3.118 -19.702  1.00  0.00    -0.317 N 
BRANCH  19  20
HETATM   20  C21 UNL     1      22.788  -3.487 -20.744  1.00  0.00     0.084 C 
HETATM   21  C22 UNL     1      22.634  -4.992 -21.046  1.00  0.00     0.032 C 
HETATM   22  C23 UNL     1      24.240  -3.385 -20.269  1.00  0.00     0.032 C 
ENDBRANCH  19  20
ENDBRANCH   9  13
ENDBRANCH   3   6
ENDBRANCH   1   3
BRANCH   1  23
HETATM   23  C4  UNL     1      18.141   3.538 -23.216  1.00  0.00     0.678 A 
HETATM   24  N2  UNL     1      18.369   4.750 -23.707  1.00  0.00    -0.194 N 
HETATM   25  C5  UNL     1      17.823   5.914 -23.231  1.00  0.00     0.052 A 
ATOM     26  H2  UNL     1      19.003   4.822 -24.502  1.00  0.00     0.184 HD
HETATM   27  C12 UNL     1      16.971   5.863 -22.172  1.00  0.00     0.073 A 
HETATM   28 CL1  UNL     1      16.152   7.259 -21.502  1.00  0.00    -0.081 Cl
HETATM   29  C13 UNL     1      16.715   4.593 -21.636  1.00  0.00     0.132 A 
HETATM   30  N5  UNL     1      17.283   3.498 -22.148  1.00  0.00    -0.200 N 
ATOM     31  H5  UNL     1      17.069   2.595 -21.726  1.00  0.00     0.183 HD
BRANCH  25  32
HETATM   32  C6  UNL     1      18.258   7.126 -23.893  1.00  0.00     0.091 C 
BRANCH  32  33
HETATM   33  C7  UNL     1      19.510   7.788 -23.415  1.00  0.00     0.150 C 
BRANCH  33  34
HETATM   34  C8  UNL     1      19.562   8.285 -22.053  1.00  0.00     0.256 C 
HETATM   35  O1  UNL     1      18.914   9.270 -21.660  1.00  0.00    -0.305 OA
ENDBRANCH  33  34
BRANCH  33  36
HETATM   36  N3  UNL     1      20.632   6.830 -23.530  1.00  0.00    -0.359 N 
ATOM     37  H3  UNL     1      20.929   6.244 -22.751  1.00  0.00     0.162 HD
BRANCH  36  38
HETATM   38  C9  UNL     1      21.216   6.785 -24.698  1.00  0.00     0.144 A 
HETATM   39  N4  UNL     1      21.394   7.730 -25.618  1.00  0.00    -0.346 N 
HETATM   40  C10 UNL     1      22.018   7.430 -26.721  1.00  0.00     0.097 A 
ATOM     41  H4  UNL     1      21.047   8.676 -25.461  1.00  0.00     0.167 HD
HETATM   42  C11 UNL     1      22.465   6.150 -26.889  1.00  0.00     0.070 A 
HETATM   43  S1  UNL     1      21.968   5.410 -25.438  1.00  0.00    -0.065 SA
ENDBRANCH  36  38
ENDBRANCH  33  36
ENDBRANCH  32  33
ENDBRANCH  25  32
ENDBRANCH   1  23
TORSDOF 11
ENDMDL
MODEL 5
REMARK VINA RESULT: -8.255093582      2.174      2.883
REMARK  11 active torsions:
REMARK  status: ('A' for Active; 'I' for Inactive)
REMARK    1  A    between atoms: C2_2  and  C3_3 
REMARK    2  A    between atoms: C3_3  and  N1_4 
REMARK    3  A    between atoms: C3_3  and  C14_27 
REMARK    4  A    between atoms: N1_4  and  C4_6 
REMARK    5  A    between atoms: C5_9  and  C6_10 
REMARK    6  A    between atoms: C6_10  and  C7_11 
REMARK    7  A    between atoms: C7_11  and  C8_12 
REMARK    8  A    between atoms: C7_11  and  N3_14 
REMARK    9  A    between atoms: N3_14  and  C9_16 
REMARK   10  A    between atoms: C17_30  and  C18_31 
REMARK   11  A    between atoms: N7_37  and  C21_38 
ROOT
HETATM    1  N1  UNL     1      21.521   2.905 -23.996  1.00  0.00    -0.217 N 
ATOM      2  H1  UNL     1      22.468   2.532 -23.933  1.00  0.00     0.178 HD
ENDROOT
BRANCH   1   3
HETATM    3  C3  UNL     1      20.459   1.996 -23.836  1.00  0.00     0.132 C 
BRANCH   3   4
HETATM    4  C2  UNL     1      19.089   2.559 -23.630  1.00  0.00     0.026 C 
HETATM    5  C1  UNL     1      18.183   2.420 -24.828  1.00  0.00     0.007 C 
ENDBRANCH   3   4
BRANCH   3   6
HETATM    6  C14 UNL     1      20.708   0.983 -22.766  1.00  0.00    -0.032 A 
HETATM    7  C15 UNL     1      19.715   0.104 -22.414  1.00  0.00     0.010 A 
HETATM    8  C16 UNL     1      19.887  -0.843 -21.445  1.00  0.00     0.017 A 
HETATM    9  C17 UNL     1      21.115  -0.973 -20.739  1.00  0.00     0.031 A 
HETATM   10  C24 UNL     1      22.079  -0.097 -21.107  1.00  0.00     0.129 A 
HETATM   11  F1  UNL     1      23.338  -0.200 -20.598  1.00  0.00    -0.205 F 
HETATM   12  C25 UNL     1      21.898   0.884 -22.110  1.00  0.00     0.052 A 
BRANCH   9  13
HETATM   13  C18 UNL     1      21.224  -2.081 -19.808  1.00  0.00     0.066 A 
HETATM   14  C19 UNL     1      20.541  -2.019 -18.565  1.00  0.00     0.121 A 
HETATM   15  N6  UNL     1      20.840  -3.085 -17.862  1.00  0.00    -0.340 N 
HETATM   16  C20 UNL     1      21.704  -3.872 -18.581  1.00  0.00     0.182 A 
ATOM     17  H6  UNL     1      20.486  -3.297 -16.929  1.00  0.00     0.167 HD
HETATM   18 CL2  UNL     1      22.299  -5.406 -17.982  1.00  0.00    -0.045 Cl
HETATM   19  N7  UNL     1      21.917  -3.226 -19.753  1.00  0.00    -0.317 N 
BRANCH  19  20
HETATM   20  C21 UNL     1      22.860  -3.642 -20.750  1.00  0.00     0.084 C 
HETATM   21  C22 UNL     1      22.669  -5.146 -21.034  1.00  0.00     0.032 C 
HETATM   22  C23 UNL     1      24.294  -3.577 -20.218  1.00  0.00     0.032 C 
ENDBRANCH  19  20
ENDBRANCH   9  13
ENDBRANCH   3   6
ENDBRANCH   1   3
BRANCH   1  23
HETATM   23  C4  UNL     1      21.401   4.147 -24.210  1.00  0.00     0.678 A 
HETATM   24  N2  UNL     1      20.790   5.040 -23.441  1.00  0.00    -0.194 N 
HETATM   25  C5  UNL     1      20.682   6.379 -23.712  1.00  0.00     0.052 A 
ATOM     26  H2  UNL     1      20.367   4.702 -22.577  1.00  0.00     0.184 HD
HETATM   27  C12 UNL     1      21.234   6.871 -24.853  1.00  0.00     0.073 A 
HETATM   28 CL1  UNL     1      21.228   8.566 -25.296  1.00  0.00    -0.081 Cl
HETATM   29  C13 UNL     1      21.884   5.947 -25.684  1.00  0.00     0.132 A 
HETATM   30  N5  UNL     1      21.951   4.653 -25.359  1.00  0.00    -0.200 N 
ATOM     31  H5  UNL     1      22.433   4.016 -25.993  1.00  0.00     0.183 HD
BRANCH  25  32
HETATM   32  C6  UNL     1      19.925   7.154 -22.751  1.00  0.00     0.091 C 
BRANCH  32  33
HETATM   33  C7  UNL     1      18.437   7.195 -22.884  1.00  0.00     0.150 C 
BRANCH  33  34
HETATM   34  C8  UNL     1      17.758   6.070 -23.499  1.00  0.00     0.256 C 
HETATM   35  O1  UNL     1      16.728   5.554 -23.031  1.00  0.00    -0.305 OA
ENDBRANCH  33  34
BRANCH  33  36
HETATM   36  N3  UNL     1      17.841   7.328 -21.535  1.00  0.00    -0.359 N 
ATOM     37  H3  UNL     1      18.123   6.735 -20.755  1.00  0.00     0.162 HD
BRANCH  36  38
HETATM   38  C9  UNL     1      16.928   8.255 -21.413  1.00  0.00     0.144 A 
HETATM   39  N4  UNL     1      15.606   8.163 -21.297  1.00  0.00    -0.346 N 
HETATM   40  C10 UNL     1      14.903   9.254 -21.187  1.00  0.00     0.097 A 
ATOM     41  H4  UNL     1      15.149   7.251 -21.295  1.00  0.00     0.167 HD
HETATM   42  C11 UNL     1      15.557  10.453 -21.196  1.00  0.00     0.070 A 
HETATM   43  S1  UNL     1      17.180   9.968 -21.363  1.00  0.00    -0.065 SA
ENDBRANCH  36  38
ENDBRANCH  33  36
ENDBRANCH  32  33
ENDBRANCH  25  32
ENDBRANCH   1  23
TORSDOF 11
ENDMDL
