MODEL 1
REMARK VINA RESULT: -8.527099268      0.000      0.000
REMARK  9 active torsions:
REMARK  status: ('A' for Active; 'I' for Inactive)
REMARK    1  A    between atoms: C4_4  and  C5_5 
REMARK    2  A    between atoms: C5_5  and  N1_6 
REMARK    3  A    between atoms: N1_6  and  C6_8 
REMARK    4  A    between atoms: C10_14  and  C11_15 
REMARK    5  A    between atoms: C14_21  and  C15_22 
REMARK    6  A    between atoms: C15_22  and  C16_24 
REMARK    7  A    between atoms: C19_27  and  N4_28 
REMARK    8  A    between atoms: N4_28  and  C20_30 
REMARK    9  A    between atoms: C20_30  and  C21_31 
ROOT
HETATM    1  C11 UNL     1      20.429   4.117 -23.346  1.00  0.00     0.066 A 
HETATM    2  C12 UNL     1      20.891   4.326 -24.611  1.00  0.00     0.148 A 
HETATM    3  N2  UNL     1      21.119   5.674 -24.746  1.00  0.00    -0.247 N 
HETATM    4  N3  UNL     1      21.564   6.382 -25.768  1.00  0.00    -0.303 N 
ATOM      5  H3  UNL     1      21.793   5.888 -26.630  1.00  0.00     0.186 HD
HETATM    6  C13 UNL     1      21.730   7.690 -25.739  1.00  0.00     0.125 A 
HETATM    7  C14 UNL     1      21.433   8.428 -24.578  1.00  0.00     0.058 A 
HETATM    8  C19 UNL     1      20.961   7.682 -23.498  1.00  0.00     0.093 A 
HETATM    9  C27 UNL     1      20.811   6.297 -23.600  1.00  0.00     0.155 A 
HETATM   10  N6  UNL     1      20.397   5.327 -22.772  1.00  0.00    -0.337 N 
ATOM     11  H6  UNL     1      20.090   5.492 -21.813  1.00  0.00     0.167 HD
ENDROOT
BRANCH   1  12
HETATM   12  C10 UNL     1      20.051   2.835 -22.745  1.00  0.00     0.055 A 
HETATM   13  C9  UNL     1      18.922   2.171 -23.181  1.00  0.00     0.052 A 
HETATM   14  C8  UNL     1      18.559   0.962 -22.620  1.00  0.00     0.069 A 
HETATM   15 CL1  UNL     1      17.902   2.828 -24.455  1.00  0.00    -0.083 Cl
HETATM   16  C7  UNL     1      19.323   0.408 -21.620  1.00  0.00     0.147 A 
HETATM   17  C6  UNL     1      20.444   1.094 -21.209  1.00  0.00     0.107 A 
HETATM   18  F1  UNL     1      18.950  -0.784 -21.081  1.00  0.00    -0.204 F 
HETATM   19  C28 UNL     1      20.839   2.306 -21.745  1.00  0.00     0.160 A 
HETATM   20  F2  UNL     1      21.964   2.932 -21.287  1.00  0.00    -0.203 F 
BRANCH  17  21
HETATM   21  N1  UNL     1      21.237   0.513 -20.168  1.00  0.00    -0.382 N 
ATOM     22  H1  UNL     1      20.907   0.509 -19.203  1.00  0.00     0.160 HD
BRANCH  21  23
HETATM   23  C5  UNL     1      22.501  -0.060 -20.511  1.00  0.00     0.147 C 
BRANCH  23  24
HETATM   24  C4  UNL     1      22.520  -1.525 -20.294  1.00  0.00    -0.005 C 
HETATM   25  C2  UNL     1      23.480  -2.299 -20.783  1.00  0.00    -0.090 C 
HETATM   26  C1  UNL     1      24.586  -1.699 -21.582  1.00  0.00     0.042 C 
HETATM   27  C3  UNL     1      23.463  -3.769 -20.544  1.00  0.00     0.042 C 
ENDBRANCH  23  24
ENDBRANCH  21  23
ENDBRANCH  17  21
ENDBRANCH   1  12
BRANCH   8  28
HETATM   28  N4  UNL     1      20.651   8.298 -22.458  1.00  0.00    -0.365 N 
ATOM     29  H4  UNL     1      21.441   8.403 -21.821  1.00  0.00     0.165 HD
BRANCH  28  30
HETATM   30  C20 UNL     1      19.503   8.869 -21.965  1.00  0.00     0.066 C 
BRANCH  30  31
HETATM   31  C21 UNL     1      18.199   8.548 -22.696  1.00  0.00     0.027 C 
HETATM   32  C22 UNL     1      17.486   7.360 -22.162  1.00  0.00     0.040 C 
HETATM   33  C23 UNL     1      16.175   7.639 -21.492  1.00  0.00     0.272 C 
HETATM   34  N5  UNL     1      16.159   8.929 -20.829  1.00  0.00     0.084 N 
HETATM   35  C24 UNL     1      14.817   9.113 -20.303  1.00  0.00     0.309 C 
HETATM   36  C25 UNL     1      16.441  10.011 -21.720  1.00  0.00     0.272 C 
HETATM   37  C26 UNL     1      17.294   9.698 -22.894  1.00  0.00     0.040 C 
ENDBRANCH  30  31
ENDBRANCH  28  30
ENDBRANCH   8  28
BRANCH   7  38
HETATM   38  C15 UNL     1      21.654   9.830 -24.554  1.00  0.00     0.167 C 
HETATM   39  O1  UNL     1      22.576  10.262 -23.751  1.00  0.00    -0.292 OA
BRANCH  38  40
HETATM   40  C16 UNL     1      20.980  10.880 -25.310  1.00  0.00     0.061 A 
HETATM   41  C17 UNL     1      19.535  10.724 -25.674  1.00  0.00     0.013 A 
HETATM   42  C18 UNL     1      19.888  11.627 -24.548  1.00  0.00     0.013 A 
ENDBRANCH  38  40
ENDBRANCH   7  38
TORSDOF 9
ENDMDL
MODEL 2
REMARK VINA RESULT: -8.307980715      1.186      1.330
REMARK  9 active torsions:
REMARK  status: ('A' for Active; 'I' for Inactive)
REMARK    1  A    between atoms: C4_4  and  C5_5 
REMARK    2  A    between atoms: C5_5  and  N1_6 
REMARK    3  A    between atoms: N1_6  and  C6_8 
REMARK    4  A    between atoms: C10_14  and  C11_15 
REMARK    5  A    between atoms: C14_21  and  C15_22 
REMARK    6  A    between atoms: C15_22  and  C16_24 
REMARK    7  A    between atoms: C19_27  and  N4_28 
REMARK    8  A    between atoms: N4_28  and  C20_30 
REMARK    9  A    between atoms: C20_30  and  C21_31 
ROOT
HETATM    1  C11 UNL     1      20.166   4.769 -22.802  1.00  0.00     0.066 A 
HETATM    2  C12 UNL     1      20.633   4.637 -24.074  1.00  0.00     0.148 A 
HETATM    3  N2  UNL     1      20.992   5.889 -24.512  1.00  0.00    -0.247 N 
HETATM    4  N3  UNL     1      21.495   6.297 -25.662  1.00  0.00    -0.303 N 
ATOM      5  H3  UNL     1      21.665   5.599 -26.386  1.00  0.00     0.186 HD
HETATM    6  C13 UNL     1      21.790   7.554 -25.931  1.00  0.00     0.125 A 
HETATM    7  C14 UNL     1      21.578   8.564 -24.974  1.00  0.00     0.058 A 
HETATM    8  C19 UNL     1      21.046   8.135 -23.758  1.00  0.00     0.093 A 
HETATM    9  C27 UNL     1      20.758   6.785 -23.542  1.00  0.00     0.155 A 
HETATM   10  N6  UNL     1      20.259   6.076 -22.520  1.00  0.00    -0.337 N 
ATOM     11  H6  UNL     1      19.980   6.485 -21.629  1.00  0.00     0.167 HD
ENDROOT
BRANCH   1  12
HETATM   12  C10 UNL     1      19.669   3.702 -21.929  1.00  0.00     0.055 A 
HETATM   13  C9  UNL     1      18.312   3.534 -21.744  1.00  0.00     0.052 A 
HETATM   14  C8  UNL     1      17.835   2.530 -20.923  1.00  0.00     0.069 A 
HETATM   15 CL1  UNL     1      17.137   4.578 -22.535  1.00  0.00    -0.083 Cl
HETATM   16  C7  UNL     1      18.713   1.688 -20.282  1.00  0.00     0.147 A 
HETATM   17  C6  UNL     1      20.061   1.882 -20.488  1.00  0.00     0.107 A 
HETATM   18  F1  UNL     1      18.225   0.705 -19.477  1.00  0.00    -0.204 F 
HETATM   19  C28 UNL     1      20.575   2.875 -21.301  1.00  0.00     0.160 A 
HETATM   20  F2  UNL     1      21.926   3.009 -21.459  1.00  0.00    -0.203 F 
BRANCH  17  21
HETATM   21  N1  UNL     1      20.971   1.003 -19.818  1.00  0.00    -0.382 N 
ATOM     22  H1  UNL     1      21.445   1.295 -18.964  1.00  0.00     0.160 HD
BRANCH  21  23
HETATM   23  C5  UNL     1      21.200  -0.295 -20.374  1.00  0.00     0.147 C 
BRANCH  23  24
HETATM   24  C4  UNL     1      22.495  -0.368 -21.089  1.00  0.00    -0.005 C 
HETATM   25  C2  UNL     1      23.348  -1.367 -20.905  1.00  0.00    -0.090 C 
HETATM   26  C1  UNL     1      23.015  -2.464 -19.953  1.00  0.00     0.042 C 
HETATM   27  C3  UNL     1      24.642  -1.405 -21.641  1.00  0.00     0.042 C 
ENDBRANCH  23  24
ENDBRANCH  21  23
ENDBRANCH  17  21
ENDBRANCH   1  12
BRANCH   8  28
HETATM   28  N4  UNL     1      20.808   9.000 -22.891  1.00  0.00    -0.365 N 
ATOM     29  H4  UNL     1      21.656   9.324 -22.426  1.00  0.00     0.165 HD
BRANCH  28  30
HETATM   30  C20 UNL     1      19.681   9.621 -22.412  1.00  0.00     0.066 C 
BRANCH  30  31
HETATM   31  C21 UNL     1      18.338   9.149 -22.971  1.00  0.00     0.027 C 
HETATM   32  C22 UNL     1      17.588   8.251 -22.058  1.00  0.00     0.040 C 
HETATM   33  C23 UNL     1      16.315   8.811 -21.498  1.00  0.00     0.272 C 
HETATM   34  N5  UNL     1      16.385  10.247 -21.307  1.00  0.00     0.084 N 
HETATM   35  C24 UNL     1      15.073  10.673 -20.850  1.00  0.00     0.309 C 
HETATM   36  C25 UNL     1      16.688  10.952 -22.513  1.00  0.00     0.272 C 
HETATM   37  C26 UNL     1      17.483  10.217 -23.528  1.00  0.00     0.040 C 
ENDBRANCH  30  31
ENDBRANCH  28  30
ENDBRANCH   8  28
BRANCH   7  38
HETATM   38  C15 UNL     1      21.937   9.905 -25.268  1.00  0.00     0.167 C 
HETATM   39  O1  UNL     1      22.994  10.370 -24.677  1.00  0.00    -0.292 OA
BRANCH  38  40
HETATM   40  C16 UNL     1      21.277  10.862 -26.151  1.00  0.00     0.061 A 
HETATM   41  C17 UNL     1      19.820  10.703 -26.462  1.00  0.00     0.013 A 
HETATM   42  C18 UNL     1      20.226  11.743 -25.480  1.00  0.00     0.013 A 
ENDBRANCH  38  40
ENDBRANCH   7  38
TORSDOF 9
ENDMDL
MODEL 3
REMARK VINA RESULT: -8.239500792      1.395      1.745
REMARK  9 active torsions:
REMARK  status: ('A' for Active; 'I' for Inactive)
REMARK    1  A    between atoms: C4_4  and  C5_5 
REMARK    2  A    between atoms: C5_5  and  N1_6 
REMARK    3  A    between atoms: N1_6  and  C6_8 
REMARK    4  A    between atoms: C10_14  and  C11_15 
REMARK    5  A    between atoms: C14_21  and  C15_22 
REMARK    6  A    between atoms: C15_22  and  C16_24 
REMARK    7  A    between atoms: C19_27  and  N4_28 
REMARK    8  A    between atoms: N4_28  and  C20_30 
REMARK    9  A    between atoms: C20_30  and  C21_31 
ROOT
HETATM    1  C11 UNL     1      20.671   3.368 -23.428  1.00  0.00     0.066 A 
HETATM    2  C12 UNL     1      21.525   3.365 -24.490  1.00  0.00     0.148 A 
HETATM    3  N2  UNL     1      21.615   4.658 -24.947  1.00  0.00    -0.247 N 
HETATM    4  N3  UNL     1      22.304   5.182 -25.944  1.00  0.00    -0.303 N 
ATOM      5  H3  UNL     1      22.886   4.559 -26.503  1.00  0.00     0.186 HD
HETATM    6  C13 UNL     1      22.283   6.462 -26.260  1.00  0.00     0.125 A 
HETATM    7  C14 UNL     1      21.499   7.372 -25.526  1.00  0.00     0.058 A 
HETATM    8  C19 UNL     1      20.770   6.820 -24.472  1.00  0.00     0.093 A 
HETATM    9  C27 UNL     1      20.841   5.453 -24.194  1.00  0.00     0.155 A 
HETATM   10  N6  UNL     1      20.283   4.642 -23.284  1.00  0.00    -0.337 N 
ATOM     11  H6  UNL     1      19.636   4.960 -22.563  1.00  0.00     0.167 HD
ENDROOT
BRANCH   1  12
HETATM   12  C10 UNL     1      20.267   2.216 -22.618  1.00  0.00     0.055 A 
HETATM   13  C9  UNL     1      19.309   1.340 -23.087  1.00  0.00     0.052 A 
HETATM   14  C8  UNL     1      18.923   0.251 -22.330  1.00  0.00     0.069 A 
HETATM   15 CL1  UNL     1      18.542   1.566 -24.655  1.00  0.00    -0.083 Cl
HETATM   16  C7  UNL     1      19.493   0.031 -21.098  1.00  0.00     0.147 A 
HETATM   17  C6  UNL     1      20.446   0.923 -20.658  1.00  0.00     0.107 A 
HETATM   18  F1  UNL     1      19.100  -1.047 -20.366  1.00  0.00    -0.204 F 
HETATM   19  C28 UNL     1      20.857   2.023 -21.387  1.00  0.00     0.160 A 
HETATM   20  F2  UNL     1      21.809   2.868 -20.888  1.00  0.00    -0.203 F 
BRANCH  17  21
HETATM   21  N1  UNL     1      21.036   0.690 -19.375  1.00  0.00    -0.382 N 
ATOM     22  H1  UNL     1      20.905   1.354 -18.613  1.00  0.00     0.160 HD
BRANCH  21  23
HETATM   23  C5  UNL     1      21.813  -0.496 -19.186  1.00  0.00     0.147 C 
BRANCH  23  24
HETATM   24  C4  UNL     1      23.016  -0.511 -20.050  1.00  0.00    -0.005 C 
HETATM   25  C2  UNL     1      23.343  -1.565 -20.786  1.00  0.00    -0.090 C 
HETATM   26  C1  UNL     1      22.490  -2.787 -20.758  1.00  0.00     0.042 C 
HETATM   27  C3  UNL     1      24.562  -1.542 -21.641  1.00  0.00     0.042 C 
ENDBRANCH  23  24
ENDBRANCH  21  23
ENDBRANCH  17  21
ENDBRANCH   1  12
BRANCH   8  28
HETATM   28  N4  UNL     1      20.033   7.582 -23.815  1.00  0.00    -0.365 N 
ATOM     29  H4  UNL     1      19.184   7.832 -24.322  1.00  0.00     0.165 HD
BRANCH  28  30
HETATM   30  C20 UNL     1      20.089   8.167 -22.573  1.00  0.00     0.066 C 
BRANCH  30  31
HETATM   31  C21 UNL     1      19.619   9.617 -22.466  1.00  0.00     0.027 C 
HETATM   32  C22 UNL     1      18.580   9.987 -23.460  1.00  0.00     0.040 C 
HETATM   33  C23 UNL     1      17.222  10.286 -22.898  1.00  0.00     0.272 C 
HETATM   34  N5  UNL     1      16.933   9.500 -21.714  1.00  0.00     0.084 N 
HETATM   35  C24 UNL     1      15.640   9.945 -21.222  1.00  0.00     0.309 C 
HETATM   36  C25 UNL     1      17.895   9.692 -20.675  1.00  0.00     0.272 C 
HETATM   37  C26 UNL     1      19.268  10.063 -21.102  1.00  0.00     0.040 C 
ENDBRANCH  30  31
ENDBRANCH  28  30
ENDBRANCH   8  28
BRANCH   7  38
HETATM   38  C15 UNL     1      21.519   8.752 -25.857  1.00  0.00     0.167 C 
HETATM   39  O1  UNL     1      20.450   9.236 -26.408  1.00  0.00    -0.292 OA
BRANCH  38  40
HETATM   40  C16 UNL     1      22.589   9.727 -25.671  1.00  0.00     0.061 A 
HETATM   41  C17 UNL     1      22.249  11.164 -25.421  1.00  0.00     0.013 A 
HETATM   42  C18 UNL     1      22.681  10.328 -24.271  1.00  0.00     0.013 A 
ENDBRANCH  38  40
ENDBRANCH   7  38
TORSDOF 9
ENDMDL
MODEL 4
REMARK VINA RESULT: -8.238392326      1.478      2.085
REMARK  9 active torsions:
REMARK  status: ('A' for Active; 'I' for Inactive)
REMARK    1  A    between atoms: C4_4  and  C5_5 
REMARK    2  A    between atoms: C5_5  and  N1_6 
REMARK    3  A    between atoms: N1_6  and  C6_8 
REMARK    4  A    between atoms: C10_14  and  C11_15 
REMARK    5  A    between atoms: C14_21  and  C15_22 
REMARK    6  A    between atoms: C15_22  and  C16_24 
REMARK    7  A    between atoms: C19_27  and  N4_28 
REMARK    8  A    between atoms: N4_28  and  C20_30 
REMARK    9  A    between atoms: C20_30  and  C21_31 
ROOT
HETATM    1  C11 UNL     1      20.537   3.101 -23.070  1.00  0.00     0.066 A 
HETATM    2  C12 UNL     1      21.300   3.180 -24.196  1.00  0.00     0.148 A 
HETATM    3  N2  UNL     1      21.358   4.504 -24.559  1.00  0.00    -0.247 N 
HETATM    4  N3  UNL     1      21.964   5.104 -25.567  1.00  0.00    -0.303 N 
ATOM      5  H3  UNL     1      22.495   4.527 -26.219  1.00  0.00     0.186 HD
HETATM    6  C13 UNL     1      21.923   6.405 -25.781  1.00  0.00     0.125 A 
HETATM    7  C14 UNL     1      21.208   7.254 -24.916  1.00  0.00     0.058 A 
HETATM    8  C19 UNL     1      20.566   6.622 -23.850  1.00  0.00     0.093 A 
HETATM    9  C27 UNL     1      20.653   5.239 -23.686  1.00  0.00     0.155 A 
HETATM   10  N6  UNL     1      20.169   4.359 -22.797  1.00  0.00    -0.337 N 
ATOM     11  H6  UNL     1      19.586   4.619 -22.002  1.00  0.00     0.167 HD
ENDROOT
BRANCH   1  12
HETATM   12  C10 UNL     1      20.197   1.889 -22.319  1.00  0.00     0.055 A 
HETATM   13  C9  UNL     1      19.316   0.968 -22.851  1.00  0.00     0.052 A 
HETATM   14  C8  UNL     1      18.990  -0.177 -22.151  1.00  0.00     0.069 A 
HETATM   15 CL1  UNL     1      18.575   1.207 -24.429  1.00  0.00    -0.083 Cl
HETATM   16  C7  UNL     1      19.543  -0.409 -20.913  1.00  0.00     0.147 A 
HETATM   17  C6  UNL     1      20.418   0.529 -20.410  1.00  0.00     0.107 A 
HETATM   18  F1  UNL     1      19.209  -1.542 -20.238  1.00  0.00    -0.204 F 
HETATM   19  C28 UNL     1      20.768   1.686 -21.082  1.00  0.00     0.160 A 
HETATM   20  F2  UNL     1      21.644   2.573 -20.521  1.00  0.00    -0.203 F 
BRANCH  17  21
HETATM   21  N1  UNL     1      20.990   0.283 -19.122  1.00  0.00    -0.382 N 
ATOM     22  H1  UNL     1      20.747   0.867 -18.323  1.00  0.00     0.160 HD
BRANCH  21  23
HETATM   23  C5  UNL     1      21.912  -0.802 -18.980  1.00  0.00     0.147 C 
BRANCH  23  24
HETATM   24  C4  UNL     1      23.045  -0.691 -19.927  1.00  0.00    -0.005 C 
HETATM   25  C2  UNL     1      23.394  -1.687 -20.730  1.00  0.00    -0.090 C 
HETATM   26  C1  UNL     1      22.638  -2.972 -20.695  1.00  0.00     0.042 C 
HETATM   27  C3  UNL     1      24.540  -1.538 -21.669  1.00  0.00     0.042 C 
ENDBRANCH  23  24
ENDBRANCH  21  23
ENDBRANCH  17  21
ENDBRANCH   1  12
BRANCH   8  28
HETATM   28  N4  UNL     1      19.891   7.331 -23.078  1.00  0.00    -0.365 N 
ATOM     29  H4  UNL     1      20.468   7.981 -22.544  1.00  0.00     0.165 HD
BRANCH  28  30
HETATM   30  C20 UNL     1      18.557   7.448 -22.772  1.00  0.00     0.066 C 
BRANCH  30  31
HETATM   31  C21 UNL     1      18.165   8.546 -21.783  1.00  0.00     0.027 C 
HETATM   32  C22 UNL     1      19.310   9.358 -21.300  1.00  0.00     0.040 C 
HETATM   33  C23 UNL     1      19.322  10.790 -21.742  1.00  0.00     0.272 C 
HETATM   34  N5  UNL     1      18.734  10.964 -23.056  1.00  0.00     0.084 N 
HETATM   35  C24 UNL     1      18.725  12.392 -23.325  1.00  0.00     0.309 C 
HETATM   36  C25 UNL     1      17.388  10.489 -23.127  1.00  0.00     0.272 C 
HETATM   37  C26 UNL     1      17.024   9.386 -22.202  1.00  0.00     0.040 C 
ENDBRANCH  30  31
ENDBRANCH  28  30
ENDBRANCH   8  28
BRANCH   7  38
HETATM   38  C15 UNL     1      21.207   8.656 -25.141  1.00  0.00     0.167 C 
HETATM   39  O1  UNL     1      20.076   9.192 -25.479  1.00  0.00    -0.292 OA
BRANCH  38  40
HETATM   40  C16 UNL     1      22.314   9.602 -25.052  1.00  0.00     0.061 A 
HETATM   41  C17 UNL     1      22.033  11.072 -24.994  1.00  0.00     0.013 A 
HETATM   42  C18 UNL     1      22.405  10.371 -23.737  1.00  0.00     0.013 A 
ENDBRANCH  38  40
ENDBRANCH   7  38
TORSDOF 9
ENDMDL
MODEL 5
REMARK VINA RESULT: -8.217710998      1.400      1.854
REMARK  9 active torsions:
REMARK  status: ('A' for Active; 'I' for Inactive)
REMARK    1  A    between atoms: C4_4  and  C5_5 
REMARK    2  A    between atoms: C5_5  and  N1_6 
REMARK    3  A    between atoms: N1_6  and  C6_8 
REMARK    4  A    between atoms: C10_14  and  C11_15 
REMARK    5  A    between atoms: C14_21  and  C15_22 
REMARK    6  A    between atoms: C15_22  and  C16_24 
REMARK    7  A    between atoms: C19_27  and  N4_28 
REMARK    8  A    between atoms: N4_28  and  C20_30 
REMARK    9  A    between atoms: C20_30  and  C21_31 
ROOT
HETATM    1  C11 UNL     1      20.605   3.187 -23.117  1.00  0.00     0.066 A 
HETATM    2  C12 UNL     1      21.371   3.231 -24.243  1.00  0.00     0.148 A 
HETATM    3  N2  UNL     1      21.446   4.546 -24.636  1.00  0.00    -0.247 N 
HETATM    4  N3  UNL     1      22.061   5.115 -25.657  1.00  0.00    -0.303 N 
ATOM      5  H3  UNL     1      22.586   4.516 -26.294  1.00  0.00     0.186 HD
HETATM    6  C13 UNL     1      22.036   6.411 -25.901  1.00  0.00     0.125 A 
HETATM    7  C14 UNL     1      21.329   7.289 -25.058  1.00  0.00     0.058 A 
HETATM    8  C19 UNL     1      20.678   6.689 -23.979  1.00  0.00     0.093 A 
HETATM    9  C27 UNL     1      20.748   5.309 -23.782  1.00  0.00     0.155 A 
HETATM   10  N6  UNL     1      20.251   4.456 -22.874  1.00  0.00    -0.337 N 
ATOM     11  H6  UNL     1      19.669   4.741 -22.087  1.00  0.00     0.167 HD
ENDROOT
BRANCH   1  12
HETATM   12  C10 UNL     1      20.248   1.997 -22.340  1.00  0.00     0.055 A 
HETATM   13  C9  UNL     1      19.331   1.093 -22.837  1.00  0.00     0.052 A 
HETATM   14  C8  UNL     1      18.989  -0.031 -22.110  1.00  0.00     0.069 A 
HETATM   15 CL1  UNL     1      18.561   1.328 -24.402  1.00  0.00    -0.083 Cl
HETATM   16  C7  UNL     1      19.564  -0.259 -20.881  1.00  0.00     0.147 A 
HETATM   17  C6  UNL     1      20.475   0.662 -20.414  1.00  0.00     0.107 A 
HETATM   18  F1  UNL     1      19.214  -1.371 -20.181  1.00  0.00    -0.204 F 
HETATM   19  C28 UNL     1      20.841   1.798 -21.112  1.00  0.00     0.160 A 
HETATM   20  F2  UNL     1      21.754   2.669 -20.585  1.00  0.00    -0.203 F 
BRANCH  17  21
HETATM   21  N1  UNL     1      21.070   0.420 -19.134  1.00  0.00    -0.382 N 
ATOM     22  H1  UNL     1      20.870   1.031 -18.343  1.00  0.00     0.160 HD
BRANCH  21  23
HETATM   23  C5  UNL     1      21.950  -0.698 -18.991  1.00  0.00     0.147 C 
BRANCH  23  24
HETATM   24  C4  UNL     1      23.093  -0.625 -19.930  1.00  0.00    -0.005 C 
HETATM   25  C2  UNL     1      23.407  -1.628 -20.739  1.00  0.00    -0.090 C 
HETATM   26  C1  UNL     1      22.599  -2.881 -20.720  1.00  0.00     0.042 C 
HETATM   27  C3  UNL     1      24.564  -1.517 -21.669  1.00  0.00     0.042 C 
ENDBRANCH  23  24
ENDBRANCH  21  23
ENDBRANCH  17  21
ENDBRANCH   1  12
BRANCH   8  28
HETATM   28  N4  UNL     1      20.009   7.424 -23.225  1.00  0.00    -0.365 N 
ATOM     29  H4  UNL     1      20.594   8.077 -22.704  1.00  0.00     0.165 HD
BRANCH  28  30
HETATM   30  C20 UNL     1      18.676   7.564 -22.926  1.00  0.00     0.066 C 
BRANCH  30  31
HETATM   31  C21 UNL     1      18.146   8.990 -22.772  1.00  0.00     0.027 C 
HETATM   32  C22 UNL     1      16.979   9.103 -21.861  1.00  0.00     0.040 C 
HETATM   33  C23 UNL     1      17.225   9.851 -20.585  1.00  0.00     0.272 C 
HETATM   34  N5  UNL     1      18.584   9.690 -20.106  1.00  0.00     0.084 N 
HETATM   35  C24 UNL     1      18.715  10.527 -18.926  1.00  0.00     0.309 C 
HETATM   36  C25 UNL     1      19.560  10.111 -21.062  1.00  0.00     0.272 C 
HETATM   37  C26 UNL     1      19.173  10.013 -22.491  1.00  0.00     0.040 C 
ENDBRANCH  30  31
ENDBRANCH  28  30
ENDBRANCH   8  28
BRANCH   7  38
HETATM   38  C15 UNL     1      21.346   8.684 -25.315  1.00  0.00     0.167 C 
HETATM   39  O1  UNL     1      20.231   9.219 -25.709  1.00  0.00    -0.292 OA
BRANCH  38  40
HETATM   40  C16 UNL     1      22.455   9.626 -25.206  1.00  0.00     0.061 A 
HETATM   41  C17 UNL     1      22.176  11.096 -25.122  1.00  0.00     0.013 A 
HETATM   42  C18 UNL     1      22.543  10.372 -23.877  1.00  0.00     0.013 A 
ENDBRANCH  38  40
ENDBRANCH   7  38
TORSDOF 9
ENDMDL
