MODEL 1
REMARK VINA RESULT: -8.313811658      0.000      0.000
REMARK  9 active torsions:
REMARK  status: ('A' for Active; 'I' for Inactive)
REMARK    1  A    between atoms: C2_2  and  C3_3 
REMARK    2  A    between atoms: C3_3  and  C4_4 
REMARK    3  A    between atoms: N1_8  and  C8_9 
REMARK    4  A    between atoms: C8_9  and  C9_10 
REMARK    5  A    between atoms: C11_14  and  N3_15 
REMARK    6  A    between atoms: N3_15  and  C12_16 
REMARK    7  A    between atoms: N3_15  and  C14_18 
REMARK    8  A    between atoms: C19_28  and  N6_29 
REMARK    9  A    between atoms: C25_38  and  C26_39 
ROOT
HETATM    1  C9  UNL     1      20.717   1.865 -22.076  1.00  0.00     0.040 A 
HETATM    2  C10 UNL     1      21.304   2.994 -21.484  1.00  0.00     0.122 A 
HETATM    3  N2  UNL     1      21.235   4.255 -22.017  1.00  0.00    -0.200 N 
ATOM      4  H2  UNL     1      21.677   5.038 -21.537  1.00  0.00     0.183 HD
HETATM    5  C11 UNL     1      20.615   4.445 -23.115  1.00  0.00     0.686 A 
HETATM    6  N5  UNL     1      20.029   3.373 -23.732  1.00  0.00    -0.176 N 
ATOM      7  H5  UNL     1      19.533   3.535 -24.609  1.00  0.00     0.186 HD
HETATM    8  C19 UNL     1      20.069   2.132 -23.254  1.00  0.00     0.127 A 
ENDROOT
BRANCH   1   9
HETATM    9  C8  UNL     1      20.554   0.593 -21.417  1.00  0.00     0.108 C 
BRANCH   9  10
HETATM   10  N1  UNL     1      21.501  -0.264 -20.852  1.00  0.00    -0.354 N 
HETATM   11  C6  UNL     1      22.623  -0.486 -21.837  1.00  0.00     0.086 C 
HETATM   12  C5  UNL     1      23.701  -1.398 -21.431  1.00  0.00     0.035 C 
HETATM   13  C7  UNL     1      21.989  -1.194 -23.067  1.00  0.00     0.033 C 
HETATM   14  C4  UNL     1      23.162  -2.601 -20.723  1.00  0.00     0.026 C 
HETATM   15  C21 UNL     1      22.359  -2.134 -19.597  1.00  0.00     0.015 C 
HETATM   16  C20 UNL     1      21.584  -1.012 -19.669  1.00  0.00     0.027 C 
HETATM   17  C22 UNL     1      22.177  -2.961 -18.413  1.00  0.00     0.158 C 
HETATM   18  C25 UNL     1      20.918  -0.520 -18.469  1.00  0.00     0.046 C 
HETATM   19  C24 UNL     1      20.585  -1.562 -17.411  1.00  0.00     0.019 C 
HETATM   20  C23 UNL     1      20.730  -2.965 -17.897  1.00  0.00     0.084 C 
HETATM   21  O1  UNL     1      22.998  -3.621 -17.801  1.00  0.00    -0.293 OA
BRANCH  14  22
HETATM   22  C3  UNL     1      24.112  -3.677 -20.602  1.00  0.00     0.009 C 
BRANCH  22  23
HETATM   23  C2  UNL     1      23.769  -5.010 -21.139  1.00  0.00    -0.004 C 
HETATM   24  C1  UNL     1      22.452  -5.607 -21.049  1.00  0.00     0.005 C 
ENDBRANCH  22  23
ENDBRANCH  14  22
BRANCH  18  25
HETATM   25  C26 UNL     1      21.761   0.494 -17.692  1.00  0.00     0.096 C 
HETATM   26 BR1  UNL     1      20.990   1.182 -16.101  1.00  0.00    -0.096 Br
ENDBRANCH  18  25
ENDBRANCH   9  10
ENDBRANCH   1   9
BRANCH   8  27
HETATM   27  N6  UNL     1      19.474   1.259 -23.997  1.00  0.00    -0.384 N 
ATOM     28  H62 UNL     1      18.765   0.710 -23.511  1.00  0.00     0.157 HD
ATOM     29  H61 UNL     1      19.654   1.105 -24.990  1.00  0.00     0.157 HD
ENDBRANCH   8  27
BRANCH   5  30
HETATM   30  N3  UNL     1      20.361   5.745 -23.748  1.00  0.00    -0.182 N 
BRANCH  30  31
HETATM   31  C12 UNL     1      21.196   6.412 -24.631  1.00  0.00     0.143 C 
HETATM   32  C13 UNL     1      21.958   5.435 -25.532  1.00  0.00     0.027 C 
ENDBRANCH  30  31
BRANCH  30  33
HETATM   33  C14 UNL     1      19.099   6.272 -23.267  1.00  0.00     0.067 A 
HETATM   34  C15 UNL     1      17.938   5.630 -23.354  1.00  0.00     0.036 A 
HETATM   35  C16 UNL     1      16.818   6.160 -22.648  1.00  0.00     0.064 A 
HETATM   36  C17 UNL     1      16.928   7.298 -21.907  1.00  0.00     0.188 A 
HETATM   37  F1  UNL     1      15.918   7.846 -21.174  1.00  0.00    -0.186 F 
HETATM   38  N4  UNL     1      18.132   7.917 -21.854  1.00  0.00    -0.341 N 
HETATM   39  C18 UNL     1      19.178   7.425 -22.508  1.00  0.00     0.120 A 
ATOM     40  H4  UNL     1      18.236   8.771 -21.307  1.00  0.00     0.167 HD
ENDBRANCH  30  33
ENDBRANCH   5  30
TORSDOF 9
ENDMDL
MODEL 2
REMARK VINA RESULT: -8.254731207      1.830      2.858
REMARK  9 active torsions:
REMARK  status: ('A' for Active; 'I' for Inactive)
REMARK    1  A    between atoms: C2_2  and  C3_3 
REMARK    2  A    between atoms: C3_3  and  C4_4 
REMARK    3  A    between atoms: N1_8  and  C8_9 
REMARK    4  A    between atoms: C8_9  and  C9_10 
REMARK    5  A    between atoms: C11_14  and  N3_15 
REMARK    6  A    between atoms: N3_15  and  C12_16 
REMARK    7  A    between atoms: N3_15  and  C14_18 
REMARK    8  A    between atoms: C19_28  and  N6_29 
REMARK    9  A    between atoms: C25_38  and  C26_39 
ROOT
HETATM    1  C9  UNL     1      20.490   1.998 -21.984  1.00  0.00     0.040 A 
HETATM    2  C10 UNL     1      21.343   3.015 -21.532  1.00  0.00     0.122 A 
HETATM    3  N2  UNL     1      21.282   4.312 -21.973  1.00  0.00    -0.200 N 
ATOM      4  H2  UNL     1      21.926   5.010 -21.601  1.00  0.00     0.183 HD
HETATM    5  C11 UNL     1      20.418   4.642 -22.849  1.00  0.00     0.686 A 
HETATM    6  N5  UNL     1      19.565   3.682 -23.325  1.00  0.00    -0.176 N 
ATOM      7  H5  UNL     1      18.875   3.956 -24.024  1.00  0.00     0.186 HD
HETATM    8  C19 UNL     1      19.585   2.413 -22.927  1.00  0.00     0.127 A 
ENDROOT
BRANCH   1   9
HETATM    9  C8  UNL     1      20.362   0.706 -21.358  1.00  0.00     0.108 C 
BRANCH   9  10
HETATM   10  N1  UNL     1      21.331  -0.143 -20.820  1.00  0.00    -0.354 N 
HETATM   11  C6  UNL     1      22.425  -0.358 -21.838  1.00  0.00     0.086 C 
HETATM   12  C5  UNL     1      23.522  -1.261 -21.463  1.00  0.00     0.035 C 
HETATM   13  C7  UNL     1      21.760  -1.074 -23.047  1.00  0.00     0.033 C 
HETATM   14  C4  UNL     1      23.014  -2.466 -20.736  1.00  0.00     0.026 C 
HETATM   15  C21 UNL     1      22.242  -2.003 -19.587  1.00  0.00     0.015 C 
HETATM   16  C20 UNL     1      21.457  -0.887 -19.638  1.00  0.00     0.027 C 
HETATM   17  C22 UNL     1      22.102  -2.829 -18.397  1.00  0.00     0.158 C 
HETATM   18  C25 UNL     1      20.823  -0.397 -18.420  1.00  0.00     0.046 C 
HETATM   19  C24 UNL     1      20.530  -1.440 -17.351  1.00  0.00     0.019 C 
HETATM   20  C23 UNL     1      20.672  -2.843 -17.837  1.00  0.00     0.084 C 
HETATM   21  O1  UNL     1      22.947  -3.481 -17.809  1.00  0.00    -0.293 OA
BRANCH  14  22
HETATM   22  C3  UNL     1      23.976  -3.535 -20.642  1.00  0.00     0.009 C 
BRANCH  22  23
HETATM   23  C2  UNL     1      23.633  -4.868 -21.179  1.00  0.00    -0.004 C 
HETATM   24  C1  UNL     1      22.392  -5.560 -20.898  1.00  0.00     0.005 C 
ENDBRANCH  22  23
ENDBRANCH  14  22
BRANCH  18  25
HETATM   25  C26 UNL     1      21.680   0.625 -17.671  1.00  0.00     0.096 C 
HETATM   26 BR1  UNL     1      21.051   1.157 -15.963  1.00  0.00    -0.096 Br
ENDBRANCH  18  25
ENDBRANCH   9  10
ENDBRANCH   1   9
BRANCH   8  27
HETATM   27  N6  UNL     1      18.714   1.661 -23.513  1.00  0.00    -0.384 N 
ATOM     28  H62 UNL     1      18.174   2.134 -24.237  1.00  0.00     0.157 HD
ATOM     29  H61 UNL     1      18.554   0.673 -23.314  1.00  0.00     0.157 HD
ENDBRANCH   8  27
BRANCH   5  30
HETATM   30  N3  UNL     1      20.157   6.003 -23.335  1.00  0.00    -0.182 N 
BRANCH  30  31
HETATM   31  C12 UNL     1      19.196   6.881 -22.857  1.00  0.00     0.143 C 
HETATM   32  C13 UNL     1      17.807   6.550 -23.410  1.00  0.00     0.027 C 
ENDBRANCH  30  31
BRANCH  30  33
HETATM   33  C14 UNL     1      21.038   6.290 -24.450  1.00  0.00     0.067 A 
HETATM   34  C15 UNL     1      21.672   5.363 -25.161  1.00  0.00     0.036 A 
HETATM   35  C16 UNL     1      22.327   5.763 -26.363  1.00  0.00     0.064 A 
HETATM   36  C17 UNL     1      22.312   7.062 -26.773  1.00  0.00     0.188 A 
HETATM   37  F1  UNL     1      22.879   7.517 -27.925  1.00  0.00    -0.186 F 
HETATM   38  N4  UNL     1      21.655   7.969 -26.010  1.00  0.00    -0.341 N 
HETATM   39  C18 UNL     1      21.041   7.600 -24.892  1.00  0.00     0.120 A 
ATOM     40  H4  UNL     1      21.633   8.947 -26.299  1.00  0.00     0.167 HD
ENDBRANCH  30  33
ENDBRANCH   5  30
TORSDOF 9
ENDMDL
MODEL 3
REMARK VINA RESULT: -8.213067450      3.918      9.415
REMARK  9 active torsions:
REMARK  status: ('A' for Active; 'I' for Inactive)
REMARK    1  A    between atoms: C2_2  and  C3_3 
REMARK    2  A    between atoms: C3_3  and  C4_4 
REMARK    3  A    between atoms: N1_8  and  C8_9 
REMARK    4  A    between atoms: C8_9  and  C9_10 
REMARK    5  A    between atoms: C11_14  and  N3_15 
REMARK    6  A    between atoms: N3_15  and  C12_16 
REMARK    7  A    between atoms: N3_15  and  C14_18 
REMARK    8  A    between atoms: C19_28  and  N6_29 
REMARK    9  A    between atoms: C25_38  and  C26_39 
ROOT
HETATM    1  C9  UNL     1      19.418  -0.180 -22.099  1.00  0.00     0.040 A 
HETATM    2  C10 UNL     1      18.649  -0.561 -20.990  1.00  0.00     0.122 A 
HETATM    3  N2  UNL     1      19.121  -1.349 -19.972  1.00  0.00    -0.200 N 
ATOM      4  H2  UNL     1      18.515  -1.588 -19.187  1.00  0.00     0.183 HD
HETATM    5  C11 UNL     1      20.318  -1.783 -20.011  1.00  0.00     0.686 A 
HETATM    6  N5  UNL     1      21.107  -1.441 -21.076  1.00  0.00    -0.176 N 
ATOM      7  H5  UNL     1      22.065  -1.791 -21.097  1.00  0.00     0.186 HD
HETATM    8  C19 UNL     1      20.695  -0.679 -22.086  1.00  0.00     0.127 A 
ENDROOT
BRANCH   1   9
HETATM    9  C8  UNL     1      19.037   0.845 -23.040  1.00  0.00     0.108 C 
BRANCH   9  10
HETATM   10  N1  UNL     1      19.070   2.236 -22.929  1.00  0.00    -0.354 N 
HETATM   11  C6  UNL     1      17.780   2.717 -22.309  1.00  0.00     0.086 C 
HETATM   12  C5  UNL     1      17.614   4.168 -22.147  1.00  0.00     0.035 C 
HETATM   13  C7  UNL     1      16.649   2.329 -23.302  1.00  0.00     0.033 C 
HETATM   14  C4  UNL     1      18.121   4.913 -23.341  1.00  0.00     0.026 C 
HETATM   15  C21 UNL     1      19.511   4.522 -23.556  1.00  0.00     0.015 C 
HETATM   16  C20 UNL     1      19.951   3.246 -23.341  1.00  0.00     0.027 C 
HETATM   17  C22 UNL     1      20.449   5.418 -24.215  1.00  0.00     0.158 C 
HETATM   18  C25 UNL     1      21.375   2.951 -23.437  1.00  0.00     0.046 C 
HETATM   19  C24 UNL     1      22.186   3.850 -24.359  1.00  0.00     0.019 C 
HETATM   20  C23 UNL     1      21.343   4.707 -25.243  1.00  0.00     0.084 C 
HETATM   21  O1  UNL     1      20.611   6.615 -24.057  1.00  0.00    -0.293 OA
BRANCH  14  22
HETATM   22  C3  UNL     1      17.687   6.286 -23.396  1.00  0.00     0.009 C 
BRANCH  22  23
HETATM   23  C2  UNL     1      17.541   7.050 -22.139  1.00  0.00    -0.004 C 
HETATM   24  C1  UNL     1      18.282   8.256 -21.832  1.00  0.00     0.005 C 
ENDBRANCH  22  23
ENDBRANCH  14  22
BRANCH  18  25
HETATM   25  C26 UNL     1      22.104   3.091 -22.100  1.00  0.00     0.096 C 
HETATM   26 BR1  UNL     1      21.224   2.366 -20.584  1.00  0.00    -0.096 Br
ENDBRANCH  18  25
ENDBRANCH   9  10
ENDBRANCH   1   9
BRANCH   8  27
HETATM   27  N6  UNL     1      21.583  -0.492 -23.004  1.00  0.00    -0.384 N 
ATOM     28  H62 UNL     1      21.292  -0.792 -23.935  1.00  0.00     0.157 HD
ATOM     29  H61 UNL     1      22.502  -0.073 -22.863  1.00  0.00     0.157 HD
ENDBRANCH   8  27
BRANCH   5  30
HETATM   30  N3  UNL     1      20.997  -2.538 -18.950  1.00  0.00    -0.182 N 
BRANCH  30  31
HETATM   31  C12 UNL     1      20.839  -2.368 -17.583  1.00  0.00     0.143 C 
HETATM   32  C13 UNL     1      20.773  -0.884 -17.205  1.00  0.00     0.027 C 
ENDBRANCH  30  31
BRANCH  30  33
HETATM   33  C14 UNL     1      21.920  -3.481 -19.549  1.00  0.00     0.067 A 
HETATM   34  C15 UNL     1      21.584  -4.700 -19.960  1.00  0.00     0.036 A 
HETATM   35  C16 UNL     1      22.530  -5.439 -20.730  1.00  0.00     0.064 A 
HETATM   36  C17 UNL     1      23.750  -4.917 -21.035  1.00  0.00     0.188 A 
HETATM   37  F1  UNL     1      24.692  -5.541 -21.796  1.00  0.00    -0.186 F 
HETATM   38  N4  UNL     1      24.046  -3.672 -20.589  1.00  0.00    -0.341 N 
HETATM   39  C18 UNL     1      23.167  -2.979 -19.875  1.00  0.00     0.120 A 
ATOM     40  H4  UNL     1      24.954  -3.262 -20.805  1.00  0.00     0.167 HD
ENDBRANCH  30  33
ENDBRANCH   5  30
TORSDOF 9
ENDMDL
MODEL 4
REMARK VINA RESULT: -8.187909965      3.677      5.720
REMARK  9 active torsions:
REMARK  status: ('A' for Active; 'I' for Inactive)
REMARK    1  A    between atoms: C2_2  and  C3_3 
REMARK    2  A    between atoms: C3_3  and  C4_4 
REMARK    3  A    between atoms: N1_8  and  C8_9 
REMARK    4  A    between atoms: C8_9  and  C9_10 
REMARK    5  A    between atoms: C11_14  and  N3_15 
REMARK    6  A    between atoms: N3_15  and  C12_16 
REMARK    7  A    between atoms: N3_15  and  C14_18 
REMARK    8  A    between atoms: C19_28  and  N6_29 
REMARK    9  A    between atoms: C25_38  and  C26_39 
ROOT
HETATM    1  C9  UNL     1      18.112   5.844 -22.911  1.00  0.00     0.040 A 
HETATM    2  C10 UNL     1      19.224   6.262 -23.658  1.00  0.00     0.122 A 
HETATM    3  N2  UNL     1      19.456   7.567 -24.010  1.00  0.00    -0.200 N 
ATOM      4  H2  UNL     1      20.287   7.811 -24.549  1.00  0.00     0.183 HD
HETATM    5  C11 UNL     1      18.630   8.473 -23.663  1.00  0.00     0.686 A 
HETATM    6  N5  UNL     1      17.527   8.112 -22.937  1.00  0.00    -0.176 N 
ATOM      7  H5  UNL     1      16.873   8.845 -22.661  1.00  0.00     0.186 HD
HETATM    8  C19 UNL     1      17.259   6.862 -22.570  1.00  0.00     0.127 A 
ENDROOT
BRANCH   1   9
HETATM    9  C8  UNL     1      17.978   4.539 -22.314  1.00  0.00     0.108 C 
BRANCH   9  10
HETATM   10  N1  UNL     1      18.551   3.315 -22.667  1.00  0.00    -0.354 N 
HETATM   11  C6  UNL     1      17.720   2.670 -23.749  1.00  0.00     0.086 C 
HETATM   12  C5  UNL     1      18.149   1.348 -24.225  1.00  0.00     0.035 C 
HETATM   13  C7  UNL     1      16.325   2.397 -23.122  1.00  0.00     0.033 C 
HETATM   14  C4  UNL     1      18.597   0.478 -23.093  1.00  0.00     0.026 C 
HETATM   15  C21 UNL     1      19.647   1.189 -22.371  1.00  0.00     0.015 C 
HETATM   16  C20 UNL     1      19.619   2.542 -22.189  1.00  0.00     0.027 C 
HETATM   17  C22 UNL     1      20.665   0.465 -21.624  1.00  0.00     0.158 C 
HETATM   18  C25 UNL     1      20.765   3.210 -21.583  1.00  0.00     0.046 C 
HETATM   19  C24 UNL     1      21.607   2.370 -20.634  1.00  0.00     0.019 C 
HETATM   20  C23 UNL     1      20.958   1.083 -20.249  1.00  0.00     0.084 C 
HETATM   21  O1  UNL     1      21.293  -0.529 -21.943  1.00  0.00    -0.293 OA
BRANCH  14  22
HETATM   22  C3  UNL     1      18.705  -0.917 -23.441  1.00  0.00     0.009 C 
BRANCH  22  23
HETATM   23  C2  UNL     1      19.353  -1.298 -24.713  1.00  0.00    -0.004 C 
HETATM   24  C1  UNL     1      19.284  -2.624 -25.293  1.00  0.00     0.005 C 
ENDBRANCH  22  23
ENDBRANCH  14  22
BRANCH  18  25
HETATM   25  C26 UNL     1      21.789   3.688 -22.614  1.00  0.00     0.096 C 
HETATM   26 BR1  UNL     1      21.577   3.023 -24.378  1.00  0.00    -0.096 Br
ENDBRANCH  18  25
ENDBRANCH   9  10
ENDBRANCH   1   9
BRANCH   8  27
HETATM   27  N6  UNL     1      16.158   6.728 -21.910  1.00  0.00    -0.384 N 
ATOM     28  H62 UNL     1      15.900   5.760 -21.720  1.00  0.00     0.157 HD
ATOM     29  H61 UNL     1      15.571   7.492 -21.576  1.00  0.00     0.157 HD
ENDBRANCH   8  27
BRANCH   5  30
HETATM   30  N3  UNL     1      18.798   9.917 -23.867  1.00  0.00    -0.182 N 
BRANCH  30  31
HETATM   31  C12 UNL     1      19.796  10.717 -23.332  1.00  0.00     0.143 C 
HETATM   32  C13 UNL     1      19.950  10.493 -21.824  1.00  0.00     0.027 C 
ENDBRANCH  30  31
BRANCH  30  33
HETATM   33  C14 UNL     1      17.712  10.413 -24.689  1.00  0.00     0.067 A 
HETATM   34  C15 UNL     1      16.928  11.434 -24.357  1.00  0.00     0.036 A 
HETATM   35  C16 UNL     1      16.047  11.960 -25.349  1.00  0.00     0.064 A 
HETATM   36  C17 UNL     1      16.002  11.430 -26.603  1.00  0.00     0.188 A 
HETATM   37  F1  UNL     1      15.219  11.897 -27.614  1.00  0.00    -0.186 F 
HETATM   38  N4  UNL     1      16.819  10.387 -26.888  1.00  0.00    -0.341 N 
HETATM   39  C18 UNL     1      17.643   9.896 -25.970  1.00  0.00     0.120 A 
ATOM     40  H4  UNL     1      16.800   9.974 -27.821  1.00  0.00     0.167 HD
ENDBRANCH  30  33
ENDBRANCH   5  30
TORSDOF 9
ENDMDL
MODEL 5
REMARK VINA RESULT: -8.111549283      4.147      9.318
REMARK  9 active torsions:
REMARK  status: ('A' for Active; 'I' for Inactive)
REMARK    1  A    between atoms: C2_2  and  C3_3 
REMARK    2  A    between atoms: C3_3  and  C4_4 
REMARK    3  A    between atoms: N1_8  and  C8_9 
REMARK    4  A    between atoms: C8_9  and  C9_10 
REMARK    5  A    between atoms: C11_14  and  N3_15 
REMARK    6  A    between atoms: N3_15  and  C12_16 
REMARK    7  A    between atoms: N3_15  and  C14_18 
REMARK    8  A    between atoms: C19_28  and  N6_29 
REMARK    9  A    between atoms: C25_38  and  C26_39 
ROOT
HETATM    1  C9  UNL     1      21.326   0.926 -22.436  1.00  0.00     0.040 A 
HETATM    2  C10 UNL     1      22.176   1.082 -21.332  1.00  0.00     0.122 A 
HETATM    3  N2  UNL     1      22.202   0.222 -20.264  1.00  0.00    -0.200 N 
ATOM      4  H2  UNL     1      22.848   0.384 -19.492  1.00  0.00     0.183 HD
HETATM    5  C11 UNL     1      21.416  -0.781 -20.240  1.00  0.00     0.686 A 
HETATM    6  N5  UNL     1      20.563  -0.972 -21.294  1.00  0.00    -0.176 N 
ATOM      7  H5  UNL     1      19.939  -1.779 -21.267  1.00  0.00     0.186 HD
HETATM    8  C19 UNL     1      20.502  -0.167 -22.352  1.00  0.00     0.127 A 
ENDROOT
BRANCH   1   9
HETATM    9  C8  UNL     1      21.457   1.656 -23.673  1.00  0.00     0.108 C 
BRANCH   9  10
HETATM   10  N1  UNL     1      21.012   2.931 -24.026  1.00  0.00    -0.354 N 
HETATM   11  C6  UNL     1      21.870   3.466 -25.148  1.00  0.00     0.086 C 
HETATM   12  C5  UNL     1      21.574   4.822 -25.630  1.00  0.00     0.035 C 
HETATM   13  C7  UNL     1      23.309   3.588 -24.574  1.00  0.00     0.033 C 
HETATM   14  C4  UNL     1      21.268   5.750 -24.498  1.00  0.00     0.026 C 
HETATM   15  C21 UNL     1      20.172   5.171 -23.727  1.00  0.00     0.015 C 
HETATM   16  C20 UNL     1      20.056   3.825 -23.524  1.00  0.00     0.027 C 
HETATM   17  C22 UNL     1      19.269   6.014 -22.957  1.00  0.00     0.158 C 
HETATM   18  C25 UNL     1      18.865   3.298 -22.867  1.00  0.00     0.046 C 
HETATM   19  C24 UNL     1      18.157   4.239 -21.904  1.00  0.00     0.019 C 
HETATM   20  C23 UNL     1      18.960   5.450 -21.563  1.00  0.00     0.084 C 
HETATM   21  O1  UNL     1      18.745   7.068 -23.271  1.00  0.00    -0.293 OA
BRANCH  14  22
HETATM   22  C3  UNL     1      21.304   7.144 -24.864  1.00  0.00     0.009 C 
BRANCH  22  23
HETATM   23  C2  UNL     1      21.868   7.534 -26.173  1.00  0.00    -0.004 C 
HETATM   24  C1  UNL     1      21.971   8.903 -26.636  1.00  0.00     0.005 C 
ENDBRANCH  22  23
ENDBRANCH  14  22
BRANCH  18  25
HETATM   25  C26 UNL     1      17.757   2.926 -23.854  1.00  0.00     0.096 C 
HETATM   26 BR1  UNL     1      16.120   2.341 -23.094  1.00  0.00    -0.096 Br
ENDBRANCH  18  25
ENDBRANCH   9  10
ENDBRANCH   1   9
BRANCH   8  27
HETATM   27  N6  UNL     1      19.617  -0.508 -23.227  1.00  0.00    -0.384 N 
ATOM     28  H62 UNL     1      18.669  -0.205 -23.002  1.00  0.00     0.157 HD
ATOM     29  H61 UNL     1      19.801  -1.024 -24.087  1.00  0.00     0.157 HD
ENDBRANCH   8  27
BRANCH   5  30
HETATM   30  N3  UNL     1      21.404  -1.844 -19.228  1.00  0.00    -0.182 N 
BRANCH  30  31
HETATM   31  C12 UNL     1      20.784  -1.798 -17.988  1.00  0.00     0.143 C 
HETATM   32  C13 UNL     1      20.636  -0.358 -17.486  1.00  0.00     0.027 C 
ENDBRANCH  30  31
BRANCH  30  33
HETATM   33  C14 UNL     1      22.196  -2.962 -19.699  1.00  0.00     0.067 A 
HETATM   34  C15 UNL     1      21.727  -4.196 -19.862  1.00  0.00     0.036 A 
HETATM   35  C16 UNL     1      22.547  -5.147 -20.539  1.00  0.00     0.064 A 
HETATM   36  C17 UNL     1      23.782  -4.807 -21.004  1.00  0.00     0.188 A 
HETATM   37  F1  UNL     1      24.608  -5.643 -21.692  1.00  0.00    -0.186 F 
HETATM   38  N4  UNL     1      24.214  -3.538 -20.808  1.00  0.00    -0.341 N 
HETATM   39  C18 UNL     1      23.454  -2.649 -20.181  1.00  0.00     0.120 A 
ATOM     40  H4  UNL     1      25.136  -3.263 -21.147  1.00  0.00     0.167 HD
ENDBRANCH  30  33
ENDBRANCH   5  30
TORSDOF 9
ENDMDL
