MODEL 1
REMARK VINA RESULT: -8.347179809      0.000      0.000
REMARK  8 active torsions:
REMARK  status: ('A' for Active; 'I' for Inactive)
REMARK    1  A    between atoms: C5_5  and  N2_8 
REMARK    2  A    between atoms: N2_8  and  C7_10 
REMARK    3  A    between atoms: C7_10  and  C9_12 
REMARK       I    between atoms: C9_12  and  N3_14 
REMARK    4  A    between atoms: N3_14  and  C10_16 
REMARK    5  A    between atoms: C12_18  and  C13_19 
REMARK    6  A    between atoms: C13_19  and  N4_20 
REMARK    7  A    between atoms: N5_23  and  C16_24 
REMARK    8  A    between atoms: C16_24  and  C17_25 
ROOT
HETATM    1  C1  UNL     1      15.872   9.437 -21.258  1.00  0.00     0.010 C 
HETATM    2  C2  UNL     1      17.188  10.148 -21.423  1.00  0.00    -0.014 C 
HETATM    3  C3  UNL     1      18.303   9.308 -20.890  1.00  0.00     0.008 C 
HETATM    4  C4  UNL     1      19.680   9.840 -21.225  1.00  0.00     0.051 C 
HETATM    5  C5  UNL     1      19.835  10.058 -22.717  1.00  0.00     0.167 C 
HETATM    6  C6  UNL     1      21.082  10.758 -22.958  1.00  0.00     0.095 C 
HETATM    7  N1  UNL     1      22.067  11.339 -23.146  1.00  0.00    -0.194 NA
HETATM    8  C25 UNL     1      18.715  11.048 -23.100  1.00  0.00     0.217 C 
HETATM    9  F1  UNL     1      18.871  11.332 -24.432  1.00  0.00    -0.222 F 
HETATM   10 CL2  UNL     1      18.807  12.505 -22.091  1.00  0.00    -0.079 Cl
HETATM   11  C26 UNL     1      17.399  10.347 -22.909  1.00  0.00     0.068 C 
ENDROOT
BRANCH   5  12
HETATM   12  N2  UNL     1      19.608   8.890 -23.480  1.00  0.00    -0.385 N 
ATOM     13  H2  UNL     1      18.691   8.697 -23.883  1.00  0.00     0.156 HD
BRANCH  12  14
HETATM   14  C7  UNL     1      20.694   7.993 -23.669  1.00  0.00     0.167 C 
HETATM   15  C8  UNL     1      21.298   8.013 -25.035  1.00  0.00     0.042 C 
BRANCH  14  16
HETATM   16  C9  UNL     1      20.244   6.607 -23.360  1.00  0.00     0.244 C 
HETATM   17  O1  UNL     1      21.009   5.905 -22.681  1.00  0.00    -0.271 OA
HETATM   18  N3  UNL     1      19.016   6.112 -23.817  1.00  0.00    -0.324 N 
ATOM     19  H3  UNL     1      18.463   6.771 -24.364  1.00  0.00     0.169 HD
BRANCH  18  20
HETATM   20  C10 UNL     1      18.426   4.848 -23.638  1.00  0.00     0.057 A 
HETATM   21  C11 UNL     1      18.820   3.694 -24.277  1.00  0.00     0.044 A 
HETATM   22  C12 UNL     1      18.181   2.465 -24.072  1.00  0.00    -0.019 A 
HETATM   23  C22 UNL     1      17.126   2.383 -23.211  1.00  0.00     0.014 A 
HETATM   24  C23 UNL     1      16.698   3.537 -22.542  1.00  0.00     0.027 A 
HETATM   25  C24 UNL     1      17.339   4.718 -22.761  1.00  0.00     0.060 A 
HETATM   26 CL1  UNL     1      16.759   6.125 -21.899  1.00  0.00    -0.082 Cl
BRANCH  22  27
HETATM   27  C13 UNL     1      18.633   1.257 -24.798  1.00  0.00     0.097 C 
BRANCH  27  28
HETATM   28  N4  UNL     1      19.743   0.581 -24.300  1.00  0.00    -0.386 N 
HETATM   29  C14 UNL     1      19.655  -0.675 -23.699  1.00  0.00     0.152 C 
HETATM   30  C15 UNL     1      20.235  -0.567 -22.273  1.00  0.00     0.292 C 
HETATM   31  N5  UNL     1      21.585  -0.124 -22.394  1.00  0.00     0.096 N 
HETATM   32  C20 UNL     1      21.615   1.201 -22.955  1.00  0.00     0.292 C 
HETATM   33  C21 UNL     1      21.020   1.177 -24.353  1.00  0.00     0.152 C 
BRANCH  31  34
HETATM   34  C16 UNL     1      22.273  -0.187 -21.159  1.00  0.00     0.320 C 
BRANCH  34  35
HETATM   35  C17 UNL     1      23.204  -1.372 -21.183  1.00  0.00     0.027 A 
HETATM   36  C18 UNL     1      24.440  -1.426 -21.794  1.00  0.00     0.104 A 
HETATM   37  N6  UNL     1      25.102  -2.531 -21.706  1.00  0.00    -0.368 N 
HETATM   38  C19 UNL     1      24.590  -3.560 -21.048  1.00  0.00     0.138 A 
ATOM     39  H6  UNL     1      26.021  -2.612 -22.142  1.00  0.00     0.165 HD
HETATM   40  S1  UNL     1      23.087  -2.940 -20.520  1.00  0.00    -0.086 SA
ENDBRANCH  34  35
ENDBRANCH  31  34
ENDBRANCH  27  28
ENDBRANCH  22  27
ENDBRANCH  18  20
ENDBRANCH  14  16
ENDBRANCH  12  14
ENDBRANCH   5  12
TORSDOF 8
ENDMDL
MODEL 2
REMARK VINA RESULT: -8.247023278      4.899     10.934
REMARK  8 active torsions:
REMARK  status: ('A' for Active; 'I' for Inactive)
REMARK    1  A    between atoms: C5_5  and  N2_8 
REMARK    2  A    between atoms: N2_8  and  C7_10 
REMARK    3  A    between atoms: C7_10  and  C9_12 
REMARK       I    between atoms: C9_12  and  N3_14 
REMARK    4  A    between atoms: N3_14  and  C10_16 
REMARK    5  A    between atoms: C12_18  and  C13_19 
REMARK    6  A    between atoms: C13_19  and  N4_20 
REMARK    7  A    between atoms: N5_23  and  C16_24 
REMARK    8  A    between atoms: C16_24  and  C17_25 
ROOT
HETATM    1  C1  UNL     1      23.752  -2.806 -20.611  1.00  0.00     0.010 C 
HETATM    2  C2  UNL     1      22.734  -1.909 -19.958  1.00  0.00    -0.014 C 
HETATM    3  C3  UNL     1      22.918  -0.498 -20.411  1.00  0.00     0.008 C 
HETATM    4  C4  UNL     1      21.797   0.428 -19.989  1.00  0.00     0.051 C 
HETATM    5  C5  UNL     1      20.449  -0.108 -20.428  1.00  0.00     0.167 C 
HETATM    6  C6  UNL     1      19.407   0.698 -19.823  1.00  0.00     0.095 C 
HETATM    7  N1  UNL     1      18.576   1.330 -19.318  1.00  0.00    -0.194 NA
HETATM    8  C25 UNL     1      20.335  -1.502 -19.776  1.00  0.00     0.217 C 
HETATM    9  F1  UNL     1      19.092  -1.988 -20.088  1.00  0.00    -0.222 F 
HETATM   10 CL2  UNL     1      20.588  -1.386 -18.023  1.00  0.00    -0.079 Cl
HETATM   11  C26 UNL     1      21.371  -2.390 -20.409  1.00  0.00     0.068 C 
ENDROOT
BRANCH   5  12
HETATM   12  N2  UNL     1      20.357  -0.316 -21.823  1.00  0.00    -0.385 N 
ATOM     13  H2  UNL     1      21.143  -0.700 -22.349  1.00  0.00     0.156 HD
BRANCH  12  14
HETATM   14  C7  UNL     1      19.139   0.024 -22.472  1.00  0.00     0.167 C 
HETATM   15  C8  UNL     1      18.651  -0.979 -23.465  1.00  0.00     0.042 C 
BRANCH  14  16
HETATM   16  C9  UNL     1      19.298   1.340 -23.152  1.00  0.00     0.244 C 
HETATM   17  O1  UNL     1      18.360   1.717 -23.873  1.00  0.00    -0.271 OA
HETATM   18  N3  UNL     1      20.452   2.117 -22.995  1.00  0.00    -0.324 N 
ATOM     19  H3  UNL     1      21.160   1.715 -22.380  1.00  0.00     0.169 HD
BRANCH  18  20
HETATM   20  C10 UNL     1      20.787   3.364 -23.551  1.00  0.00     0.057 A 
HETATM   21  C11 UNL     1      20.613   4.580 -22.929  1.00  0.00     0.044 A 
HETATM   22  C12 UNL     1      20.950   5.793 -23.542  1.00  0.00    -0.019 A 
HETATM   23  C22 UNL     1      21.472   5.796 -24.802  1.00  0.00     0.014 A 
HETATM   24  C23 UNL     1      21.665   4.578 -25.465  1.00  0.00     0.027 A 
HETATM   25  C24 UNL     1      21.328   3.413 -24.844  1.00  0.00     0.060 A 
HETATM   26 CL1  UNL     1      21.590   1.924 -25.721  1.00  0.00    -0.082 Cl
BRANCH  22  27
HETATM   27  C13 UNL     1      20.725   7.075 -22.836  1.00  0.00     0.097 C 
BRANCH  27  28
HETATM   28  N4  UNL     1      19.815   7.969 -23.393  1.00  0.00    -0.386 N 
HETATM   29  C14 UNL     1      20.208   9.139 -24.042  1.00  0.00     0.152 C 
HETATM   30  C15 UNL     1      19.537  10.333 -23.328  1.00  0.00     0.292 C 
HETATM   31  N5  UNL     1      18.127  10.131 -23.394  1.00  0.00     0.096 N 
HETATM   32  C20 UNL     1      17.769   8.950 -22.654  1.00  0.00     0.292 C 
HETATM   33  C21 UNL     1      18.430   7.734 -23.280  1.00  0.00     0.152 C 
BRANCH  31  34
HETATM   34  C16 UNL     1      17.410  11.267 -22.949  1.00  0.00     0.320 C 
BRANCH  34  35
HETATM   35  C17 UNL     1      16.603  11.811 -24.100  1.00  0.00     0.027 A 
HETATM   36  C18 UNL     1      16.630  11.356 -25.402  1.00  0.00     0.104 A 
HETATM   37  N6  UNL     1      15.861  11.946 -26.257  1.00  0.00    -0.368 N 
HETATM   38  C19 UNL     1      15.087  12.949 -25.871  1.00  0.00     0.138 A 
ATOM     39  H6  UNL     1      15.850  11.638 -27.229  1.00  0.00     0.165 HD
HETATM   40  S1  UNL     1      15.459  13.073 -24.207  1.00  0.00    -0.086 SA
ENDBRANCH  34  35
ENDBRANCH  31  34
ENDBRANCH  27  28
ENDBRANCH  22  27
ENDBRANCH  18  20
ENDBRANCH  14  16
ENDBRANCH  12  14
ENDBRANCH   5  12
TORSDOF 8
ENDMDL
MODEL 3
REMARK VINA RESULT: -8.241147958      2.421      3.553
REMARK  8 active torsions:
REMARK  status: ('A' for Active; 'I' for Inactive)
REMARK    1  A    between atoms: C5_5  and  N2_8 
REMARK    2  A    between atoms: N2_8  and  C7_10 
REMARK    3  A    between atoms: C7_10  and  C9_12 
REMARK       I    between atoms: C9_12  and  N3_14 
REMARK    4  A    between atoms: N3_14  and  C10_16 
REMARK    5  A    between atoms: C12_18  and  C13_19 
REMARK    6  A    between atoms: C13_19  and  N4_20 
REMARK    7  A    between atoms: N5_23  and  C16_24 
REMARK    8  A    between atoms: C16_24  and  C17_25 
ROOT
HETATM    1  C1  UNL     1      21.935   9.545 -24.231  1.00  0.00     0.010 C 
HETATM    2  C2  UNL     1      20.578  10.077 -23.855  1.00  0.00    -0.014 C 
HETATM    3  C3  UNL     1      19.507   9.321 -24.571  1.00  0.00     0.008 C 
HETATM    4  C4  UNL     1      18.110   9.632 -24.079  1.00  0.00     0.051 C 
HETATM    5  C5  UNL     1      18.000   9.433 -22.580  1.00  0.00     0.167 C 
HETATM    6  C6  UNL     1      16.717   9.941 -22.135  1.00  0.00     0.095 C 
HETATM    7  N1  UNL     1      15.700  10.369 -21.779  1.00  0.00    -0.194 NA
HETATM    8  C25 UNL     1      19.060  10.374 -21.969  1.00  0.00     0.217 C 
HETATM    9  F1  UNL     1      18.938  10.280 -20.607  1.00  0.00    -0.222 F 
HETATM   10 CL2  UNL     1      18.821  12.034 -22.549  1.00  0.00    -0.079 Cl
HETATM   11  C26 UNL     1      20.415   9.857 -22.366  1.00  0.00     0.068 C 
ENDROOT
BRANCH   5  12
HETATM   12  N2  UNL     1      18.343   8.127 -22.162  1.00  0.00    -0.385 N 
ATOM     13  H2  UNL     1      19.174   7.959 -21.595  1.00  0.00     0.156 HD
BRANCH  12  14
HETATM   14  C7  UNL     1      17.495   7.055 -22.556  1.00  0.00     0.167 C 
HETATM   15  C8  UNL     1      16.370   6.764 -21.617  1.00  0.00     0.042 C 
BRANCH  14  16
HETATM   16  C9  UNL     1      18.314   5.823 -22.727  1.00  0.00     0.244 C 
HETATM   17  O1  UNL     1      18.590   5.185 -21.699  1.00  0.00    -0.271 OA
HETATM   18  N3  UNL     1      18.758   5.401 -23.986  1.00  0.00    -0.324 N 
ATOM     19  H3  UNL     1      18.473   5.996 -24.764  1.00  0.00     0.169 HD
BRANCH  18  20
HETATM   20  C10 UNL     1      19.534   4.285 -24.346  1.00  0.00     0.057 A 
HETATM   21  C11 UNL     1      19.090   2.982 -24.353  1.00  0.00     0.044 A 
HETATM   22  C12 UNL     1      19.917   1.908 -24.704  1.00  0.00    -0.019 A 
HETATM   23  C22 UNL     1      21.215   2.136 -25.057  1.00  0.00     0.014 A 
HETATM   24  C23 UNL     1      21.700   3.449 -25.064  1.00  0.00     0.027 A 
HETATM   25  C24 UNL     1      20.874   4.474 -24.717  1.00  0.00     0.060 A 
HETATM   26 CL1  UNL     1      21.536   6.092 -24.741  1.00  0.00    -0.082 Cl
BRANCH  22  27
HETATM   27  C13 UNL     1      19.396   0.523 -24.678  1.00  0.00     0.097 C 
BRANCH  27  28
HETATM   28  N4  UNL     1      19.611  -0.228 -23.526  1.00  0.00    -0.386 N 
HETATM   29  C14 UNL     1      18.693  -0.279 -22.476  1.00  0.00     0.152 C 
HETATM   30  C15 UNL     1      19.406   0.193 -21.191  1.00  0.00     0.292 C 
HETATM   31  N5  UNL     1      20.516  -0.676 -20.975  1.00  0.00     0.096 N 
HETATM   32  C20 UNL     1      21.462  -0.534 -22.050  1.00  0.00     0.292 C 
HETATM   33  C21 UNL     1      20.812  -0.947 -23.360  1.00  0.00     0.152 C 
BRANCH  31  34
HETATM   34  C16 UNL     1      21.118  -0.458 -19.713  1.00  0.00     0.320 C 
BRANCH  34  35
HETATM   35  C17 UNL     1      21.386  -1.794 -19.068  1.00  0.00     0.027 A 
HETATM   36  C18 UNL     1      20.729  -2.317 -17.974  1.00  0.00     0.104 A 
HETATM   37  N6  UNL     1      21.093  -3.486 -17.561  1.00  0.00    -0.368 N 
HETATM   38  C19 UNL     1      22.066  -4.135 -18.183  1.00  0.00     0.138 A 
ATOM     39  H6  UNL     1      20.631  -3.910 -16.756  1.00  0.00     0.165 HD
HETATM   40  S1  UNL     1      22.495  -3.041 -19.424  1.00  0.00    -0.086 SA
ENDBRANCH  34  35
ENDBRANCH  31  34
ENDBRANCH  27  28
ENDBRANCH  22  27
ENDBRANCH  18  20
ENDBRANCH  14  16
ENDBRANCH  12  14
ENDBRANCH   5  12
TORSDOF 8
ENDMDL
MODEL 4
REMARK VINA RESULT: -8.219509240      5.196     11.081
REMARK  8 active torsions:
REMARK  status: ('A' for Active; 'I' for Inactive)
REMARK    1  A    between atoms: C5_5  and  N2_8 
REMARK    2  A    between atoms: N2_8  and  C7_10 
REMARK    3  A    between atoms: C7_10  and  C9_12 
REMARK       I    between atoms: C9_12  and  N3_14 
REMARK    4  A    between atoms: N3_14  and  C10_16 
REMARK    5  A    between atoms: C12_18  and  C13_19 
REMARK    6  A    between atoms: C13_19  and  N4_20 
REMARK    7  A    between atoms: N5_23  and  C16_24 
REMARK    8  A    between atoms: C16_24  and  C17_25 
ROOT
HETATM    1  C1  UNL     1      24.561  -3.287 -21.863  1.00  0.00     0.010 C 
HETATM    2  C2  UNL     1      23.966  -3.183 -20.484  1.00  0.00    -0.014 C 
HETATM    3  C3  UNL     1      23.631  -1.761 -20.168  1.00  0.00     0.008 C 
HETATM    4  C4  UNL     1      22.818  -1.594 -18.902  1.00  0.00     0.051 C 
HETATM    5  C5  UNL     1      21.566  -2.449 -18.938  1.00  0.00     0.167 C 
HETATM    6  C6  UNL     1      20.941  -2.413 -17.630  1.00  0.00     0.095 C 
HETATM    7  N1  UNL     1      20.456  -2.402 -16.577  1.00  0.00    -0.194 NA
HETATM    8  C25 UNL     1      22.070  -3.896 -19.125  1.00  0.00     0.217 C 
HETATM    9  F1  UNL     1      20.967  -4.710 -19.084  1.00  0.00    -0.222 F 
HETATM   10 CL2  UNL     1      23.251  -4.306 -17.867  1.00  0.00    -0.079 Cl
HETATM   11  C26 UNL     1      22.687  -3.993 -20.492  1.00  0.00     0.068 C 
ENDROOT
BRANCH   5  12
HETATM   12  N2  UNL     1      20.733  -2.174 -20.046  1.00  0.00    -0.385 N 
ATOM     13  H2  UNL     1      20.879  -2.640 -20.941  1.00  0.00     0.156 HD
BRANCH  12  14
HETATM   14  C7  UNL     1      19.684  -1.229 -19.876  1.00  0.00     0.167 C 
HETATM   15  C8  UNL     1      18.309  -1.812 -19.846  1.00  0.00     0.042 C 
BRANCH  14  16
HETATM   16  C9  UNL     1      19.756  -0.217 -20.966  1.00  0.00     0.244 C 
HETATM   17  O1  UNL     1      18.993   0.758 -20.879  1.00  0.00    -0.271 OA
HETATM   18  N3  UNL     1      20.639  -0.355 -22.044  1.00  0.00    -0.324 N 
ATOM     19  H3  UNL     1      21.223  -1.192 -22.017  1.00  0.00     0.169 HD
BRANCH  18  20
HETATM   20  C10 UNL     1      20.847   0.477 -23.157  1.00  0.00     0.057 A 
HETATM   21  C11 UNL     1      21.279   1.783 -23.099  1.00  0.00     0.044 A 
HETATM   22  C12 UNL     1      21.451   2.570 -24.244  1.00  0.00    -0.019 A 
HETATM   23  C22 UNL     1      21.186   2.046 -25.475  1.00  0.00     0.014 A 
HETATM   24  C23 UNL     1      20.746   0.721 -25.574  1.00  0.00     0.027 A 
HETATM   25  C24 UNL     1      20.588  -0.021 -24.443  1.00  0.00     0.060 A 
HETATM   26 CL1  UNL     1      20.034  -1.669 -24.628  1.00  0.00    -0.082 Cl
BRANCH  22  27
HETATM   27  C13 UNL     1      21.902   3.975 -24.125  1.00  0.00     0.097 C 
BRANCH  27  28
HETATM   28  N4  UNL     1      20.934   4.973 -24.199  1.00  0.00    -0.386 N 
HETATM   29  C14 UNL     1      21.239   6.297 -24.519  1.00  0.00     0.152 C 
HETATM   30  C15 UNL     1      20.752   7.195 -23.361  1.00  0.00     0.292 C 
HETATM   31  N5  UNL     1      19.348   6.986 -23.221  1.00  0.00     0.096 N 
HETATM   32  C20 UNL     1      19.094   5.626 -22.826  1.00  0.00     0.292 C 
HETATM   33  C21 UNL     1      19.587   4.679 -23.908  1.00  0.00     0.152 C 
BRANCH  31  34
HETATM   34  C16 UNL     1      18.765   7.912 -22.323  1.00  0.00     0.320 C 
BRANCH  34  35
HETATM   35  C17 UNL     1      18.125   9.021 -23.119  1.00  0.00     0.027 A 
HETATM   36  C18 UNL     1      18.071   9.111 -24.494  1.00  0.00     0.104 A 
HETATM   37  N6  UNL     1      17.473  10.137 -25.002  1.00  0.00    -0.368 N 
HETATM   38  C19 UNL     1      16.941  11.054 -24.209  1.00  0.00     0.138 A 
ATOM     39  H6  UNL     1      17.410  10.241 -26.015  1.00  0.00     0.165 HD
HETATM   40  S1  UNL     1      17.300  10.440 -22.654  1.00  0.00    -0.086 SA
ENDBRANCH  34  35
ENDBRANCH  31  34
ENDBRANCH  27  28
ENDBRANCH  22  27
ENDBRANCH  18  20
ENDBRANCH  14  16
ENDBRANCH  12  14
ENDBRANCH   5  12
TORSDOF 8
ENDMDL
MODEL 5
REMARK VINA RESULT: -8.207951062      4.678     10.567
REMARK  8 active torsions:
REMARK  status: ('A' for Active; 'I' for Inactive)
REMARK    1  A    between atoms: C5_5  and  N2_8 
REMARK    2  A    between atoms: N2_8  and  C7_10 
REMARK    3  A    between atoms: C7_10  and  C9_12 
REMARK       I    between atoms: C9_12  and  N3_14 
REMARK    4  A    between atoms: N3_14  and  C10_16 
REMARK    5  A    between atoms: C12_18  and  C13_19 
REMARK    6  A    between atoms: C13_19  and  N4_20 
REMARK    7  A    between atoms: N5_23  and  C16_24 
REMARK    8  A    between atoms: C16_24  and  C17_25 
ROOT
HETATM    1  C1  UNL     1      23.698  -2.858 -20.648  1.00  0.00     0.010 C 
HETATM    2  C2  UNL     1      22.707  -1.959 -19.958  1.00  0.00    -0.014 C 
HETATM    3  C3  UNL     1      22.922  -0.538 -20.366  1.00  0.00     0.008 C 
HETATM    4  C4  UNL     1      21.828   0.401 -19.905  1.00  0.00     0.051 C 
HETATM    5  C5  UNL     1      20.463  -0.088 -20.350  1.00  0.00     0.167 C 
HETATM    6  C6  UNL     1      19.446   0.723 -19.710  1.00  0.00     0.095 C 
HETATM    7  N1  UNL     1      18.635   1.358 -19.178  1.00  0.00    -0.194 NA
HETATM    8  C25 UNL     1      20.321  -1.499 -19.742  1.00  0.00     0.217 C 
HETATM    9  F1  UNL     1      19.064  -1.945 -20.059  1.00  0.00    -0.222 F 
HETATM   10 CL2  UNL     1      20.589  -1.447 -17.989  1.00  0.00    -0.079 Cl
HETATM   11  C26 UNL     1      21.329  -2.391 -20.412  1.00  0.00     0.068 C 
ENDROOT
BRANCH   5  12
HETATM   12  N2  UNL     1      20.356  -0.248 -21.751  1.00  0.00    -0.385 N 
ATOM     13  H2  UNL     1      21.137  -0.608 -22.299  1.00  0.00     0.156 HD
BRANCH  12  14
HETATM   14  C7  UNL     1      19.128   0.107 -22.372  1.00  0.00     0.167 C 
HETATM   15  C8  UNL     1      18.593  -0.902 -23.335  1.00  0.00     0.042 C 
BRANCH  14  16
HETATM   16  C9  UNL     1      19.296   1.408 -23.078  1.00  0.00     0.244 C 
HETATM   17  O1  UNL     1      18.372   1.765 -23.826  1.00  0.00    -0.271 OA
HETATM   18  N3  UNL     1      20.444   2.193 -22.915  1.00  0.00    -0.324 N 
ATOM     19  H3  UNL     1      21.141   1.808 -22.278  1.00  0.00     0.169 HD
BRANCH  18  20
HETATM   20  C10 UNL     1      20.786   3.429 -23.492  1.00  0.00     0.057 A 
HETATM   21  C11 UNL     1      20.659   4.652 -22.874  1.00  0.00     0.044 A 
HETATM   22  C12 UNL     1      21.000   5.854 -23.507  1.00  0.00    -0.019 A 
HETATM   23  C22 UNL     1      21.478   5.837 -24.785  1.00  0.00     0.014 A 
HETATM   24  C23 UNL     1      21.621   4.610 -25.445  1.00  0.00     0.027 A 
HETATM   25  C24 UNL     1      21.281   3.458 -24.805  1.00  0.00     0.060 A 
HETATM   26 CL1  UNL     1      21.479   1.957 -25.679  1.00  0.00    -0.082 Cl
BRANCH  22  27
HETATM   27  C13 UNL     1      20.829   7.145 -22.804  1.00  0.00     0.097 C 
BRANCH  27  28
HETATM   28  N4  UNL     1      19.570   7.738 -22.839  1.00  0.00    -0.386 N 
HETATM   29  C14 UNL     1      19.298   8.966 -22.235  1.00  0.00     0.152 C 
HETATM   30  C15 UNL     1      18.155   8.759 -21.218  1.00  0.00     0.292 C 
HETATM   31  N5  UNL     1      17.032   8.254 -21.936  1.00  0.00     0.096 N 
HETATM   32  C20 UNL     1      17.343   6.958 -22.479  1.00  0.00     0.292 C 
HETATM   33  C21 UNL     1      18.492   7.081 -23.466  1.00  0.00     0.152 C 
BRANCH  31  34
HETATM   34  C16 UNL     1      15.866   8.221 -21.134  1.00  0.00     0.320 C 
BRANCH  34  35
HETATM   35  C17 UNL     1      15.288   9.612 -21.063  1.00  0.00     0.027 A 
HETATM   36  C18 UNL     1      14.101   9.972 -20.460  1.00  0.00     0.104 A 
HETATM   37  N6  UNL     1      13.769  11.220 -20.495  1.00  0.00    -0.368 N 
HETATM   38  C19 UNL     1      14.555  12.099 -21.096  1.00  0.00     0.138 A 
ATOM     39  H6  UNL     1      12.899  11.528 -20.059  1.00  0.00     0.165 HD
HETATM   40  S1  UNL     1      15.842  11.117 -21.645  1.00  0.00    -0.086 SA
ENDBRANCH  34  35
ENDBRANCH  31  34
ENDBRANCH  27  28
ENDBRANCH  22  27
ENDBRANCH  18  20
ENDBRANCH  14  16
ENDBRANCH  12  14
ENDBRANCH   5  12
TORSDOF 8
ENDMDL
