MODEL 1
REMARK VINA RESULT: -8.101814501      0.000      0.000
REMARK  7 active torsions:
REMARK  status: ('A' for Active; 'I' for Inactive)
REMARK    1  A    between atoms: C2_2  and  N1_4 
REMARK    2  A    between atoms: C7_9  and  C8_10 
REMARK       I    between atoms: C8_10  and  N2_12 
REMARK    3  A    between atoms: N2_12  and  N3_14 
REMARK    4  A    between atoms: N3_14  and  C9_15 
REMARK    5  A    between atoms: N3_14  and  S1_18 
REMARK    6  A    between atoms: S1_18  and  N4_21 
REMARK    7  A    between atoms: N4_21  and  C13_23 
ROOT
HETATM    1  N3  UNL     1     -17.632  -2.685   2.660  1.00  0.00    -0.097 NA
ENDROOT
BRANCH   1   2
HETATM    2  N2  UNL     1     -18.586  -2.547   3.640  1.00  0.00    -0.272 N 
HETATM    3  C8  UNL     1     -19.553  -1.493   3.663  1.00  0.00     0.256 C 
HETATM    4  O2  UNL     1     -19.525  -0.666   2.730  1.00  0.00    -0.270 OA
ATOM      5  H2  UNL     1     -18.605  -3.234   4.395  1.00  0.00     0.185 HD
BRANCH   3   6
HETATM    6  C7  UNL     1     -20.568  -1.329   4.734  1.00  0.00     0.181 C 
HETATM    7  N1  UNL     1     -20.476  -2.438   5.684  1.00  0.00    -0.335 N 
HETATM    8  C4  UNL     1     -19.464  -2.101   6.605  1.00  0.00     0.221 C 
HETATM    9  O1  UNL     1     -18.880  -2.947   7.345  1.00  0.00    -0.273 OA
HETATM   10  C5  UNL     1     -19.184  -0.654   6.591  1.00  0.00     0.105 C 
HETATM   11  C6  UNL     1     -20.159  -0.152   5.572  1.00  0.00     0.044 C 
BRANCH   7  12
HETATM   12  C2  UNL     1     -21.286  -3.653   5.594  1.00  0.00     0.080 C 
HETATM   13  C1  UNL     1     -20.360  -4.874   5.539  1.00  0.00     0.032 C 
HETATM   14  C3  UNL     1     -22.217  -3.867   6.723  1.00  0.00     0.032 C 
ENDBRANCH   7  12
ENDBRANCH   3   6
ENDBRANCH   1   2
BRANCH   1  15
HETATM   15  C9  UNL     1     -17.987  -3.541   1.609  1.00  0.00     0.090 C 
HETATM   16  C10 UNL     1     -17.419  -4.951   1.793  1.00  0.00     0.029 C 
HETATM   17  C11 UNL     1     -17.620  -3.101   0.215  1.00  0.00     0.029 C 
ENDBRANCH   1  15
BRANCH   1  18
HETATM   18  S1  UNL     1     -16.147  -3.118   3.425  1.00  0.00     0.318 S 
HETATM   19  O3  UNL     1     -15.972  -2.052   4.530  1.00  0.00    -0.187 OA
HETATM   20  O4  UNL     1     -16.375  -4.395   4.238  1.00  0.00    -0.187 OA
BRANCH  18  21
HETATM   21  N4  UNL     1     -14.803  -3.180   2.461  1.00  0.00    -0.296 N 
HETATM   22  C12 UNL     1     -14.293  -1.975   1.986  1.00  0.00     0.164 C 
BRANCH  21  23
HETATM   23  C13 UNL     1     -13.921  -4.259   2.492  1.00  0.00     0.096 C 
HETATM   24  C14 UNL     1     -14.022  -5.190   1.298  1.00  0.00     0.026 C 
HETATM   25  C15 UNL     1     -13.152  -6.383   1.546  1.00  0.00     0.002 C 
HETATM   26  C16 UNL     1     -12.309  -6.241   2.773  1.00  0.00     0.000 C 
HETATM   27  C17 UNL     1     -11.604  -4.931   2.900  1.00  0.00     0.002 C 
HETATM   28  C18 UNL     1     -12.486  -3.765   2.541  1.00  0.00     0.026 C 
ENDBRANCH  21  23
ENDBRANCH  18  21
ENDBRANCH   1  18
TORSDOF 7
ENDMDL
MODEL 2
REMARK VINA RESULT: -7.821788818      1.931      7.384
REMARK  7 active torsions:
REMARK  status: ('A' for Active; 'I' for Inactive)
REMARK    1  A    between atoms: C2_2  and  N1_4 
REMARK    2  A    between atoms: C7_9  and  C8_10 
REMARK       I    between atoms: C8_10  and  N2_12 
REMARK    3  A    between atoms: N2_12  and  N3_14 
REMARK    4  A    between atoms: N3_14  and  C9_15 
REMARK    5  A    between atoms: N3_14  and  S1_18 
REMARK    6  A    between atoms: S1_18  and  N4_21 
REMARK    7  A    between atoms: N4_21  and  C13_23 
ROOT
HETATM    1  N3  UNL     1     -17.183  -2.101   4.128  1.00  0.00    -0.097 NA
ENDROOT
BRANCH   1   2
HETATM    2  N2  UNL     1     -16.585  -3.089   3.381  1.00  0.00    -0.272 N 
HETATM    3  C8  UNL     1     -15.763  -2.832   2.239  1.00  0.00     0.256 C 
HETATM    4  O2  UNL     1     -15.578  -1.642   1.919  1.00  0.00    -0.270 OA
ATOM      5  H2  UNL     1     -16.737  -4.059   3.657  1.00  0.00     0.185 HD
BRANCH   3   6
HETATM    6  C7  UNL     1     -15.137  -3.900   1.418  1.00  0.00     0.181 C 
HETATM    7  N1  UNL     1     -14.442  -4.853   2.283  1.00  0.00    -0.335 N 
HETATM    8  C4  UNL     1     -15.409  -5.776   2.729  1.00  0.00     0.221 C 
HETATM    9  O1  UNL     1     -15.252  -6.521   3.743  1.00  0.00    -0.273 OA
HETATM   10  C5  UNL     1     -16.607  -5.759   1.870  1.00  0.00     0.105 C 
HETATM   11  C6  UNL     1     -16.243  -4.736   0.840  1.00  0.00     0.044 C 
BRANCH   7  12
HETATM   12  C2  UNL     1     -13.019  -4.764   2.610  1.00  0.00     0.080 C 
HETATM   13  C1  UNL     1     -12.345  -6.107   2.303  1.00  0.00     0.032 C 
HETATM   14  C3  UNL     1     -12.272  -3.725   1.868  1.00  0.00     0.032 C 
ENDBRANCH   7  12
ENDBRANCH   3   6
ENDBRANCH   1   2
BRANCH   1  15
HETATM   15  C9  UNL     1     -16.973  -2.197   5.509  1.00  0.00     0.090 C 
HETATM   16  C10 UNL     1     -15.857  -1.266   5.993  1.00  0.00     0.029 C 
HETATM   17  C11 UNL     1     -16.668  -3.567   6.061  1.00  0.00     0.029 C 
ENDBRANCH   1  15
BRANCH   1  18
HETATM   18  S1  UNL     1     -18.851  -2.043   3.690  1.00  0.00     0.318 S 
HETATM   19  O3  UNL     1     -18.857  -1.297   2.337  1.00  0.00    -0.187 OA
HETATM   20  O4  UNL     1     -19.294  -3.452   3.285  1.00  0.00    -0.187 OA
BRANCH  18  21
HETATM   21  N4  UNL     1     -19.878  -1.310   4.761  1.00  0.00    -0.296 N 
HETATM   22  C12 UNL     1     -19.898   0.081   4.787  1.00  0.00     0.164 C 
BRANCH  21  23
HETATM   23  C13 UNL     1     -21.004  -1.958   5.266  1.00  0.00     0.096 C 
HETATM   24  C14 UNL     1     -20.724  -2.902   6.421  1.00  0.00     0.026 C 
HETATM   25  C15 UNL     1     -21.979  -3.651   6.743  1.00  0.00     0.002 C 
HETATM   26  C16 UNL     1     -23.168  -3.142   5.990  1.00  0.00     0.000 C 
HETATM   27  C17 UNL     1     -23.320  -1.657   5.992  1.00  0.00     0.002 C 
HETATM   28  C18 UNL     1     -22.015  -0.942   5.767  1.00  0.00     0.026 C 
ENDBRANCH  21  23
ENDBRANCH  18  21
ENDBRANCH   1  18
TORSDOF 7
ENDMDL
MODEL 3
REMARK VINA RESULT: -7.757724740      2.792      7.984
REMARK  7 active torsions:
REMARK  status: ('A' for Active; 'I' for Inactive)
REMARK    1  A    between atoms: C2_2  and  N1_4 
REMARK    2  A    between atoms: C7_9  and  C8_10 
REMARK       I    between atoms: C8_10  and  N2_12 
REMARK    3  A    between atoms: N2_12  and  N3_14 
REMARK    4  A    between atoms: N3_14  and  C9_15 
REMARK    5  A    between atoms: N3_14  and  S1_18 
REMARK    6  A    between atoms: S1_18  and  N4_21 
REMARK    7  A    between atoms: N4_21  and  C13_23 
ROOT
HETATM    1  N3  UNL     1     -20.566  -1.473   4.519  1.00  0.00    -0.097 NA
ENDROOT
BRANCH   1   2
HETATM    2  N2  UNL     1     -19.363  -2.027   4.888  1.00  0.00    -0.272 N 
HETATM    3  C8  UNL     1     -18.872  -3.269   4.378  1.00  0.00     0.256 C 
HETATM    4  O2  UNL     1     -19.580  -3.870   3.545  1.00  0.00    -0.270 OA
ATOM      5  H2  UNL     1     -18.788  -1.523   5.564  1.00  0.00     0.185 HD
BRANCH   3   6
HETATM    6  C7  UNL     1     -17.584  -3.879   4.795  1.00  0.00     0.181 C 
HETATM    7  N1  UNL     1     -16.660  -3.920   3.661  1.00  0.00    -0.335 N 
HETATM    8  C4  UNL     1     -16.033  -2.659   3.604  1.00  0.00     0.221 C 
HETATM    9  O1  UNL     1     -15.443  -2.217   2.573  1.00  0.00    -0.273 OA
HETATM   10  C5  UNL     1     -16.154  -1.938   4.883  1.00  0.00     0.105 C 
HETATM   11  C6  UNL     1     -16.906  -2.918   5.728  1.00  0.00     0.044 C 
BRANCH   7  12
HETATM   12  C2  UNL     1     -16.512  -5.075   2.776  1.00  0.00     0.080 C 
HETATM   13  C1  UNL     1     -16.863  -4.661   1.342  1.00  0.00     0.032 C 
HETATM   14  C3  UNL     1     -15.154  -5.661   2.736  1.00  0.00     0.032 C 
ENDBRANCH   7  12
ENDBRANCH   3   6
ENDBRANCH   1   2
BRANCH   1  15
HETATM   15  C9  UNL     1     -20.479  -0.194   3.957  1.00  0.00     0.090 C 
HETATM   16  C10 UNL     1     -19.753  -0.201   2.608  1.00  0.00     0.029 C 
HETATM   17  C11 UNL     1     -19.831   0.879   4.794  1.00  0.00     0.029 C 
ENDBRANCH   1  15
BRANCH   1  18
HETATM   18  S1  UNL     1     -21.625  -1.554   5.880  1.00  0.00     0.318 S 
HETATM   19  O3  UNL     1     -20.685  -1.377   7.094  1.00  0.00    -0.187 OA
HETATM   20  O4  UNL     1     -22.457  -0.269   5.923  1.00  0.00    -0.187 OA
BRANCH  18  21
HETATM   21  N4  UNL     1     -22.528  -2.931   6.040  1.00  0.00    -0.296 N 
HETATM   22  C12 UNL     1     -21.857  -4.110   6.353  1.00  0.00     0.164 C 
BRANCH  21  23
HETATM   23  C13 UNL     1     -23.889  -2.891   6.342  1.00  0.00     0.096 C 
HETATM   24  C14 UNL     1     -24.803  -3.189   5.167  1.00  0.00     0.026 C 
HETATM   25  C15 UNL     1     -26.218  -2.941   5.587  1.00  0.00     0.002 C 
HETATM   26  C16 UNL     1     -26.348  -2.664   7.052  1.00  0.00     0.000 C 
HETATM   27  C17 UNL     1     -25.600  -3.606   7.936  1.00  0.00     0.002 C 
HETATM   28  C18 UNL     1     -24.219  -3.907   7.420  1.00  0.00     0.026 C 
ENDBRANCH  21  23
ENDBRANCH  18  21
ENDBRANCH   1  18
TORSDOF 7
ENDMDL
MODEL 4
REMARK VINA RESULT: -7.730981202      1.812      7.370
REMARK  7 active torsions:
REMARK  status: ('A' for Active; 'I' for Inactive)
REMARK    1  A    between atoms: C2_2  and  N1_4 
REMARK    2  A    between atoms: C7_9  and  C8_10 
REMARK       I    between atoms: C8_10  and  N2_12 
REMARK    3  A    between atoms: N2_12  and  N3_14 
REMARK    4  A    between atoms: N3_14  and  C9_15 
REMARK    5  A    between atoms: N3_14  and  S1_18 
REMARK    6  A    between atoms: S1_18  and  N4_21 
REMARK    7  A    between atoms: N4_21  and  C13_23 
ROOT
HETATM    1  N3  UNL     1     -17.883  -3.332   4.541  1.00  0.00    -0.097 NA
ENDROOT
BRANCH   1   2
HETATM    2  N2  UNL     1     -16.638  -3.065   4.023  1.00  0.00    -0.272 N 
HETATM    3  C8  UNL     1     -15.756  -4.071   3.520  1.00  0.00     0.256 C 
HETATM    4  O2  UNL     1     -16.154  -5.253   3.548  1.00  0.00    -0.270 OA
ATOM      5  H2  UNL     1     -16.325  -2.094   3.996  1.00  0.00     0.185 HD
BRANCH   3   6
HETATM    6  C7  UNL     1     -14.401  -3.786   2.982  1.00  0.00     0.181 C 
HETATM    7  N1  UNL     1     -14.278  -4.320   1.626  1.00  0.00    -0.335 N 
HETATM    8  C4  UNL     1     -14.816  -3.350   0.757  1.00  0.00     0.221 C 
HETATM    9  O1  UNL     1     -15.189  -3.600  -0.428  1.00  0.00    -0.273 OA
HETATM   10  C5  UNL     1     -14.885  -2.027   1.404  1.00  0.00     0.105 C 
HETATM   11  C6  UNL     1     -14.305  -2.305   2.755  1.00  0.00     0.044 C 
BRANCH   7  12
HETATM   12  C2  UNL     1     -13.732  -5.642   1.321  1.00  0.00     0.080 C 
HETATM   13  C1  UNL     1     -12.676  -5.509   0.216  1.00  0.00     0.032 C 
HETATM   14  C3  UNL     1     -13.081  -6.326   2.460  1.00  0.00     0.032 C 
ENDBRANCH   7  12
ENDBRANCH   3   6
ENDBRANCH   1   2
BRANCH   1  15
HETATM   15  C9  UNL     1     -18.920  -3.355   3.600  1.00  0.00     0.090 C 
HETATM   16  C10 UNL     1     -19.815  -4.588   3.754  1.00  0.00     0.029 C 
HETATM   17  C11 UNL     1     -18.528  -3.280   2.147  1.00  0.00     0.029 C 
ENDBRANCH   1  15
BRANCH   1  18
HETATM   18  S1  UNL     1     -18.161  -2.232   5.841  1.00  0.00     0.318 S 
HETATM   19  O3  UNL     1     -18.094  -3.121   7.103  1.00  0.00    -0.187 OA
HETATM   20  O4  UNL     1     -16.921  -1.347   6.001  1.00  0.00    -0.187 OA
BRANCH  18  21
HETATM   21  N4  UNL     1     -19.580  -1.380   5.806  1.00  0.00    -0.296 N 
HETATM   22  C12 UNL     1     -19.549  -0.095   5.271  1.00  0.00     0.164 C 
BRANCH  21  23
HETATM   23  C13 UNL     1     -20.822  -2.013   5.832  1.00  0.00     0.096 C 
HETATM   24  C14 UNL     1     -20.990  -3.025   6.951  1.00  0.00     0.026 C 
HETATM   25  C15 UNL     1     -22.288  -3.744   6.754  1.00  0.00     0.002 C 
HETATM   26  C16 UNL     1     -23.118  -3.154   5.658  1.00  0.00     0.000 C 
HETATM   27  C17 UNL     1     -23.240  -1.667   5.697  1.00  0.00     0.002 C 
HETATM   28  C18 UNL     1     -21.930  -0.989   5.999  1.00  0.00     0.026 C 
ENDBRANCH  21  23
ENDBRANCH  18  21
ENDBRANCH   1  18
TORSDOF 7
ENDMDL
MODEL 5
REMARK VINA RESULT: -7.680193862      1.515      2.173
REMARK  7 active torsions:
REMARK  status: ('A' for Active; 'I' for Inactive)
REMARK    1  A    between atoms: C2_2  and  N1_4 
REMARK    2  A    between atoms: C7_9  and  C8_10 
REMARK       I    between atoms: C8_10  and  N2_12 
REMARK    3  A    between atoms: N2_12  and  N3_14 
REMARK    4  A    between atoms: N3_14  and  C9_15 
REMARK    5  A    between atoms: N3_14  and  S1_18 
REMARK    6  A    between atoms: S1_18  and  N4_21 
REMARK    7  A    between atoms: N4_21  and  C13_23 
ROOT
HETATM    1  N3  UNL     1     -16.894  -2.472   2.188  1.00  0.00    -0.097 NA
ENDROOT
BRANCH   1   2
HETATM    2  N2  UNL     1     -17.376  -2.278   3.461  1.00  0.00    -0.272 N 
HETATM    3  C8  UNL     1     -18.533  -1.491   3.759  1.00  0.00     0.256 C 
HETATM    4  O2  UNL     1     -19.135  -0.967   2.801  1.00  0.00    -0.270 OA
ATOM      5  H2  UNL     1     -16.881  -2.719   4.236  1.00  0.00     0.185 HD
BRANCH   3   6
HETATM    6  C7  UNL     1     -19.040  -1.261   5.135  1.00  0.00     0.181 C 
HETATM    7  N1  UNL     1     -20.231  -2.077   5.373  1.00  0.00    -0.335 N 
HETATM    8  C4  UNL     1     -19.778  -3.353   5.764  1.00  0.00     0.221 C 
HETATM    9  O1  UNL     1     -20.497  -4.396   5.718  1.00  0.00    -0.273 OA
HETATM   10  C5  UNL     1     -18.379  -3.309   6.226  1.00  0.00     0.105 C 
HETATM   11  C6  UNL     1     -18.047  -1.857   6.091  1.00  0.00     0.044 C 
BRANCH   7  12
HETATM   12  C2  UNL     1     -21.598  -1.595   5.172  1.00  0.00     0.080 C 
HETATM   13  C1  UNL     1     -22.492  -2.129   6.298  1.00  0.00     0.032 C 
HETATM   14  C3  UNL     1     -21.746  -0.123   5.163  1.00  0.00     0.032 C 
ENDBRANCH   7  12
ENDBRANCH   3   6
ENDBRANCH   1   2
BRANCH   1  15
HETATM   15  C9  UNL     1     -17.537  -3.483   1.462  1.00  0.00     0.090 C 
HETATM   16  C10 UNL     1     -18.133  -2.965   0.149  1.00  0.00     0.029 C 
HETATM   17  C11 UNL     1     -18.632  -4.242   2.167  1.00  0.00     0.029 C 
ENDBRANCH   1  15
BRANCH   1  18
HETATM   18  S1  UNL     1     -15.185  -2.688   2.297  1.00  0.00     0.318 S 
HETATM   19  O3  UNL     1     -14.607  -1.343   1.802  1.00  0.00    -0.187 OA
HETATM   20  O4  UNL     1     -14.791  -2.686   3.777  1.00  0.00    -0.187 OA
BRANCH  18  21
HETATM   21  N4  UNL     1     -14.537  -3.948   1.442  1.00  0.00    -0.296 N 
HETATM   22  C12 UNL     1     -14.017  -3.672   0.181  1.00  0.00     0.164 C 
BRANCH  21  23
HETATM   23  C13 UNL     1     -14.070  -5.103   2.069  1.00  0.00     0.096 C 
HETATM   24  C14 UNL     1     -15.149  -6.115   2.408  1.00  0.00     0.026 C 
HETATM   25  C15 UNL     1     -14.538  -7.211   3.223  1.00  0.00     0.002 C 
HETATM   26  C16 UNL     1     -13.048  -7.106   3.312  1.00  0.00     0.000 C 
HETATM   27  C17 UNL     1     -12.360  -6.851   2.012  1.00  0.00     0.002 C 
HETATM   28  C18 UNL     1     -13.068  -5.815   1.179  1.00  0.00     0.026 C 
ENDBRANCH  21  23
ENDBRANCH  18  21
ENDBRANCH   1  18
TORSDOF 7
ENDMDL
