MODEL 1
REMARK VINA RESULT: -8.115948228      0.000      0.000
REMARK  6 active torsions:
REMARK  status: ('A' for Active; 'I' for Inactive)
REMARK    1  A    between atoms: N2_14  and  C12_15 
REMARK    2  A    between atoms: C12_15  and  C13_16 
REMARK    3  A    between atoms: C12_15  and  C19_26 
REMARK       I    between atoms: C13_16  and  N3_18 
REMARK    4  A    between atoms: N3_18  and  C14_20 
REMARK    5  A    between atoms: C14_20  and  C15_21 
REMARK    6  A    between atoms: C15_21  and  N4_22 
ROOT
HETATM    1  C12 UNL     1     -18.341  -3.841   3.572  1.00  0.00     0.318 C 
ENDROOT
BRANCH   1   2
HETATM    2  N2  UNL     1     -18.588  -2.967   4.697  1.00  0.00     0.109 N 
HETATM    3  C5  UNL     1     -19.567  -3.403   5.596  1.00  0.00     0.252 C 
HETATM    4  C4  UNL     1     -20.969  -3.129   5.735  1.00  0.00     0.308 C 
HETATM    5  C6  UNL     1     -18.993  -3.292   7.029  1.00  0.00     0.038 C 
HETATM    6  N1  UNL     1     -21.369  -1.788   6.225  1.00  0.00     0.096 N 
HETATM    7  C3  UNL     1     -22.467  -1.340   5.377  1.00  0.00     0.280 C 
HETATM    8  C9  UNL     1     -20.266  -0.944   5.874  1.00  0.00     0.236 C 
HETATM    9  C2  UNL     1     -22.224  -0.129   4.506  1.00  0.00     0.109 C 
HETATM   10  C1  UNL     1     -20.923  -0.216   3.770  1.00  0.00     0.136 C 
HETATM   11  O1  UNL     1     -20.611   0.426   2.840  1.00  0.00    -0.297 OA
HETATM   12  C10 UNL     1     -20.145  -1.248   4.446  1.00  0.00     0.117 C 
HETATM   13  C11 UNL     1     -18.797  -1.635   4.098  1.00  0.00     0.288 C 
HETATM   14  C8  UNL     1     -19.090  -0.849   6.726  1.00  0.00     0.037 C 
HETATM   15  C7  UNL     1     -18.214  -2.003   6.975  1.00  0.00     0.004 C 
ENDBRANCH   1   2
BRANCH   1  16
HETATM   16  C13 UNL     1     -16.990  -4.550   3.748  1.00  0.00     0.251 C 
HETATM   17  O2  UNL     1     -16.252  -4.038   4.606  1.00  0.00    -0.271 OA
HETATM   18  N3  UNL     1     -16.644  -5.669   3.000  1.00  0.00    -0.358 N 
ATOM     19  H3  UNL     1     -17.301  -6.033   2.309  1.00  0.00     0.162 HD
BRANCH  18  20
HETATM   20  C14 UNL     1     -15.376  -6.324   3.182  1.00  0.00     0.152 C 
BRANCH  20  21
HETATM   21  C15 UNL     1     -14.425  -6.181   2.029  1.00  0.00     0.292 C 
BRANCH  21  22
HETATM   22  N4  UNL     1     -14.235  -4.738   1.801  1.00  0.00     0.090 N 
HETATM   23  C16 UNL     1     -13.182  -4.173   2.649  1.00  0.00     0.274 C 
HETATM   24  C17 UNL     1     -12.632  -3.478   1.450  1.00  0.00     0.060 C 
HETATM   25  C18 UNL     1     -13.403  -4.494   0.622  1.00  0.00     0.274 C 
ENDBRANCH  21  22
ENDBRANCH  20  21
ENDBRANCH  18  20
ENDBRANCH   1  16
BRANCH   1  26
HETATM   26  C19 UNL     1     -18.050  -3.175   2.260  1.00  0.00     0.028 C 
HETATM   27  C20 UNL     1     -17.988  -3.837   0.985  1.00  0.00     0.007 C 
HETATM   28  C21 UNL     1     -17.581  -2.634   0.081  1.00  0.00     0.000 C 
HETATM   29  C22 UNL     1     -16.357  -2.203   0.877  1.00  0.00     0.000 C 
HETATM   30  C23 UNL     1     -16.703  -2.437   2.323  1.00  0.00     0.007 C 
ENDBRANCH   1  26
TORSDOF 6
ENDMDL
MODEL 2
REMARK VINA RESULT: -7.972625259      0.907      1.005
REMARK  6 active torsions:
REMARK  status: ('A' for Active; 'I' for Inactive)
REMARK    1  A    between atoms: N2_14  and  C12_15 
REMARK    2  A    between atoms: C12_15  and  C13_16 
REMARK    3  A    between atoms: C12_15  and  C19_26 
REMARK       I    between atoms: C13_16  and  N3_18 
REMARK    4  A    between atoms: N3_18  and  C14_20 
REMARK    5  A    between atoms: C14_20  and  C15_21 
REMARK    6  A    between atoms: C15_21  and  N4_22 
ROOT
HETATM    1  C12 UNL     1     -18.042  -4.014   3.330  1.00  0.00     0.318 C 
ENDROOT
BRANCH   1   2
HETATM    2  N2  UNL     1     -18.190  -3.110   4.448  1.00  0.00     0.109 N 
HETATM    3  C5  UNL     1     -19.114  -3.501   5.422  1.00  0.00     0.252 C 
HETATM    4  C4  UNL     1     -20.496  -3.189   5.651  1.00  0.00     0.308 C 
HETATM    5  C6  UNL     1     -18.439  -3.375   6.810  1.00  0.00     0.038 C 
HETATM    6  N1  UNL     1     -20.829  -1.828   6.136  1.00  0.00     0.096 N 
HETATM    7  C3  UNL     1     -21.972  -1.371   5.356  1.00  0.00     0.280 C 
HETATM    8  C9  UNL     1     -19.733  -1.021   5.690  1.00  0.00     0.236 C 
HETATM    9  C2  UNL     1     -21.761  -0.186   4.442  1.00  0.00     0.109 C 
HETATM   10  C1  UNL     1     -20.517  -0.322   3.620  1.00  0.00     0.136 C 
HETATM   11  O1  UNL     1     -20.255   0.291   2.656  1.00  0.00    -0.297 OA
HETATM   12  C10 UNL     1     -19.719  -1.358   4.264  1.00  0.00     0.117 C 
HETATM   13  C11 UNL     1     -18.408  -1.787   3.834  1.00  0.00     0.288 C 
HETATM   14  C8  UNL     1     -18.499  -0.937   6.456  1.00  0.00     0.037 C 
HETATM   15  C7  UNL     1     -17.636  -2.107   6.671  1.00  0.00     0.004 C 
ENDBRANCH   1   2
BRANCH   1  16
HETATM   16  C13 UNL     1     -16.785  -4.878   3.517  1.00  0.00     0.251 C 
HETATM   17  O2  UNL     1     -15.958  -4.408   4.315  1.00  0.00    -0.271 OA
HETATM   18  N3  UNL     1     -16.612  -6.080   2.842  1.00  0.00    -0.358 N 
ATOM     19  H3  UNL     1     -17.335  -6.402   2.198  1.00  0.00     0.162 HD
BRANCH  18  20
HETATM   20  C14 UNL     1     -15.431  -6.878   3.033  1.00  0.00     0.152 C 
BRANCH  20  21
HETATM   21  C15 UNL     1     -14.263  -6.488   2.174  1.00  0.00     0.292 C 
BRANCH  21  22
HETATM   22  N4  UNL     1     -13.265  -5.863   3.058  1.00  0.00     0.090 N 
HETATM   23  C16 UNL     1     -11.947  -6.496   2.947  1.00  0.00     0.274 C 
HETATM   24  C17 UNL     1     -11.337  -5.138   2.860  1.00  0.00     0.060 C 
HETATM   25  C18 UNL     1     -12.718  -4.644   2.461  1.00  0.00     0.274 C 
ENDBRANCH  21  22
ENDBRANCH  20  21
ENDBRANCH  18  20
ENDBRANCH   1  16
BRANCH   1  26
HETATM   26  C19 UNL     1     -17.668  -3.396   2.016  1.00  0.00     0.028 C 
HETATM   27  C20 UNL     1     -18.057  -3.890   0.722  1.00  0.00     0.007 C 
HETATM   28  C21 UNL     1     -17.299  -2.875  -0.188  1.00  0.00     0.000 C 
HETATM   29  C22 UNL     1     -15.916  -3.072   0.419  1.00  0.00     0.000 C 
HETATM   30  C23 UNL     1     -16.139  -3.290   1.891  1.00  0.00     0.007 C 
ENDBRANCH   1  26
TORSDOF 6
ENDMDL
MODEL 3
REMARK VINA RESULT: -7.863796347      1.716      7.005
REMARK  6 active torsions:
REMARK  status: ('A' for Active; 'I' for Inactive)
REMARK    1  A    between atoms: N2_14  and  C12_15 
REMARK    2  A    between atoms: C12_15  and  C13_16 
REMARK    3  A    between atoms: C12_15  and  C19_26 
REMARK       I    between atoms: C13_16  and  N3_18 
REMARK    4  A    between atoms: N3_18  and  C14_20 
REMARK    5  A    between atoms: C14_20  and  C15_21 
REMARK    6  A    between atoms: C15_21  and  N4_22 
ROOT
HETATM    1  C12 UNL     1     -17.485  -2.003   4.231  1.00  0.00     0.318 C 
ENDROOT
BRANCH   1   2
HETATM    2  N2  UNL     1     -17.323  -2.638   2.941  1.00  0.00     0.109 N 
HETATM    3  C5  UNL     1     -17.652  -3.995   2.892  1.00  0.00     0.252 C 
HETATM    4  C4  UNL     1     -16.881  -5.201   3.006  1.00  0.00     0.308 C 
HETATM    5  C6  UNL     1     -18.579  -4.226   1.673  1.00  0.00     0.038 C 
HETATM    6  N1  UNL     1     -15.984  -5.560   1.881  1.00  0.00     0.096 N 
HETATM    7  C3  UNL     1     -14.717  -5.975   2.470  1.00  0.00     0.280 C 
HETATM    8  C9  UNL     1     -15.701  -4.307   1.246  1.00  0.00     0.236 C 
HETATM    9  C2  UNL     1     -13.504  -5.118   2.186  1.00  0.00     0.109 C 
HETATM   10  C1  UNL     1     -13.785  -3.661   2.385  1.00  0.00     0.136 C 
HETATM   11  O1  UNL     1     -12.984  -2.813   2.505  1.00  0.00    -0.297 OA
HETATM   12  C10 UNL     1     -15.237  -3.527   2.396  1.00  0.00     0.117 C 
HETATM   13  C11 UNL     1     -15.956  -2.280   2.517  1.00  0.00     0.288 C 
HETATM   14  C8  UNL     1     -16.614  -3.736   0.269  1.00  0.00     0.037 C 
HETATM   15  C7  UNL     1     -17.979  -3.322   0.627  1.00  0.00     0.004 C 
ENDBRANCH   1   2
BRANCH   1  16
HETATM   16  C13 UNL     1     -18.263  -2.930   5.176  1.00  0.00     0.251 C 
HETATM   17  O2  UNL     1     -17.613  -3.316   6.162  1.00  0.00    -0.271 OA
HETATM   18  N3  UNL     1     -19.583  -3.291   4.931  1.00  0.00    -0.358 N 
ATOM     19  H3  UNL     1     -20.052  -2.936   4.097  1.00  0.00     0.162 HD
BRANCH  18  20
HETATM   20  C14 UNL     1     -20.297  -4.156   5.830  1.00  0.00     0.152 C 
BRANCH  20  21
HETATM   21  C15 UNL     1     -21.301  -3.462   6.705  1.00  0.00     0.292 C 
BRANCH  21  22
HETATM   22  N4  UNL     1     -22.482  -3.182   5.870  1.00  0.00     0.090 N 
HETATM   23  C16 UNL     1     -23.739  -3.381   6.597  1.00  0.00     0.274 C 
HETATM   24  C17 UNL     1     -24.219  -2.075   6.061  1.00  0.00     0.060 C 
HETATM   25  C18 UNL     1     -22.757  -1.746   5.808  1.00  0.00     0.274 C 
ENDBRANCH  21  22
ENDBRANCH  20  21
ENDBRANCH  18  20
ENDBRANCH   1  16
BRANCH   1  26
HETATM   26  C19 UNL     1     -18.416  -0.829   4.285  1.00  0.00     0.028 C 
HETATM   27  C20 UNL     1     -19.310  -0.525   5.371  1.00  0.00     0.007 C 
HETATM   28  C21 UNL     1     -20.024   0.730   4.782  1.00  0.00     0.000 C 
HETATM   29  C22 UNL     1     -20.465   0.099   3.469  1.00  0.00     0.000 C 
HETATM   30  C23 UNL     1     -19.355  -0.836   3.068  1.00  0.00     0.007 C 
ENDBRANCH   1  26
TORSDOF 6
ENDMDL
MODEL 4
REMARK VINA RESULT: -7.792117035      1.395      1.820
REMARK  6 active torsions:
REMARK  status: ('A' for Active; 'I' for Inactive)
REMARK    1  A    between atoms: N2_14  and  C12_15 
REMARK    2  A    between atoms: C12_15  and  C13_16 
REMARK    3  A    between atoms: C12_15  and  C19_26 
REMARK       I    between atoms: C13_16  and  N3_18 
REMARK    4  A    between atoms: N3_18  and  C14_20 
REMARK    5  A    between atoms: C14_20  and  C15_21 
REMARK    6  A    between atoms: C15_21  and  N4_22 
ROOT
HETATM    1  C12 UNL     1     -17.664  -2.724   2.823  1.00  0.00     0.318 C 
ENDROOT
BRANCH   1   2
HETATM    2  N2  UNL     1     -18.007  -2.589   4.222  1.00  0.00     0.109 N 
HETATM    3  C5  UNL     1     -19.041  -3.415   4.671  1.00  0.00     0.252 C 
HETATM    4  C4  UNL     1     -20.454  -3.225   4.837  1.00  0.00     0.308 C 
HETATM    5  C6  UNL     1     -18.575  -4.110   5.974  1.00  0.00     0.038 C 
HETATM    6  N1  UNL     1     -20.911  -2.350   5.944  1.00  0.00     0.096 N 
HETATM    7  C3  UNL     1     -21.952  -1.488   5.397  1.00  0.00     0.280 C 
HETATM    8  C9  UNL     1     -19.799  -1.479   6.182  1.00  0.00     0.236 C 
HETATM    9  C2  UNL     1     -21.666  -0.005   5.338  1.00  0.00     0.109 C 
HETATM   10  C1  UNL     1     -20.314   0.286   4.765  1.00  0.00     0.136 C 
HETATM   11  O1  UNL     1     -19.945   1.320   4.352  1.00  0.00    -0.297 OA
HETATM   12  C10 UNL     1     -19.569  -0.967   4.829  1.00  0.00     0.117 C 
HETATM   13  C11 UNL     1     -18.194  -1.139   4.423  1.00  0.00     0.288 C 
HETATM   14  C8  UNL     1     -18.690  -1.887   7.031  1.00  0.00     0.037 C 
HETATM   15  C7  UNL     1     -17.816  -3.015   6.679  1.00  0.00     0.004 C 
ENDBRANCH   1   2
BRANCH   1  16
HETATM   16  C13 UNL     1     -17.490  -4.208   2.468  1.00  0.00     0.251 C 
HETATM   17  O2  UNL     1     -18.155  -4.578   1.486  1.00  0.00    -0.271 OA
HETATM   18  N3  UNL     1     -16.654  -5.046   3.196  1.00  0.00    -0.358 N 
ATOM     19  H3  UNL     1     -16.141  -4.671   3.994  1.00  0.00     0.162 HD
BRANCH  18  20
HETATM   20  C14 UNL     1     -16.501  -6.432   2.845  1.00  0.00     0.152 C 
BRANCH  20  21
HETATM   21  C15 UNL     1     -15.201  -7.049   3.276  1.00  0.00     0.292 C 
BRANCH  21  22
HETATM   22  N4  UNL     1     -14.133  -6.100   2.919  1.00  0.00     0.090 N 
HETATM   23  C16 UNL     1     -12.810  -6.731   2.896  1.00  0.00     0.274 C 
HETATM   24  C17 UNL     1     -12.549  -6.063   1.588  1.00  0.00     0.060 C 
HETATM   25  C18 UNL     1     -14.056  -5.910   1.470  1.00  0.00     0.274 C 
ENDBRANCH  21  22
ENDBRANCH  20  21
ENDBRANCH  18  20
ENDBRANCH   1  16
BRANCH   1  26
HETATM   26  C19 UNL     1     -16.295  -2.259   2.423  1.00  0.00     0.028 C 
HETATM   27  C20 UNL     1     -15.658  -2.532   1.163  1.00  0.00     0.007 C 
HETATM   28  C21 UNL     1     -14.274  -1.858   1.415  1.00  0.00     0.000 C 
HETATM   29  C22 UNL     1     -13.942  -2.584   2.711  1.00  0.00     0.000 C 
HETATM   30  C23 UNL     1     -15.249  -2.741   3.442  1.00  0.00     0.007 C 
ENDBRANCH   1  26
TORSDOF 6
ENDMDL
MODEL 5
REMARK VINA RESULT: -7.302308422      2.839      7.232
REMARK  6 active torsions:
REMARK  status: ('A' for Active; 'I' for Inactive)
REMARK    1  A    between atoms: N2_14  and  C12_15 
REMARK    2  A    between atoms: C12_15  and  C13_16 
REMARK    3  A    between atoms: C12_15  and  C19_26 
REMARK       I    between atoms: C13_16  and  N3_18 
REMARK    4  A    between atoms: N3_18  and  C14_20 
REMARK    5  A    between atoms: C14_20  and  C15_21 
REMARK    6  A    between atoms: C15_21  and  N4_22 
ROOT
HETATM    1  C12 UNL     1     -17.508  -3.887   1.877  1.00  0.00     0.318 C 
ENDROOT
BRANCH   1   2
HETATM    2  N2  UNL     1     -16.123  -3.548   2.120  1.00  0.00     0.109 N 
HETATM    3  C5  UNL     1     -15.361  -3.273   0.981  1.00  0.00     0.252 C 
HETATM    4  C4  UNL     1     -14.486  -4.067   0.164  1.00  0.00     0.308 C 
HETATM    5  C6  UNL     1     -14.594  -1.949   1.217  1.00  0.00     0.038 C 
HETATM    6  N1  UNL     1     -13.174  -4.460   0.731  1.00  0.00     0.096 N 
HETATM    7  C3  UNL     1     -12.984  -5.870   0.415  1.00  0.00     0.280 C 
HETATM    8  C9  UNL     1     -13.381  -4.425   2.149  1.00  0.00     0.236 C 
HETATM    9  C2  UNL     1     -12.936  -6.841   1.572  1.00  0.00     0.109 C 
HETATM   10  C1  UNL     1     -14.048  -6.612   2.547  1.00  0.00     0.136 C 
HETATM   11  O1  UNL     1     -14.415  -7.365   3.368  1.00  0.00    -0.297 OA
HETATM   12  C10 UNL     1     -14.567  -5.279   2.263  1.00  0.00     0.117 C 
HETATM   13  C11 UNL     1     -15.624  -4.623   2.998  1.00  0.00     0.288 C 
HETATM   14  C8  UNL     1     -13.275  -3.181   2.895  1.00  0.00     0.037 C 
HETATM   15  C7  UNL     1     -14.192  -2.055   2.666  1.00  0.00     0.004 C 
ENDBRANCH   1   2
BRANCH   1  16
HETATM   16  C13 UNL     1     -17.968  -3.284   0.540  1.00  0.00     0.251 C 
HETATM   17  O2  UNL     1     -18.339  -2.101   0.615  1.00  0.00    -0.271 OA
HETATM   18  N3  UNL     1     -17.959  -4.018  -0.639  1.00  0.00    -0.358 N 
ATOM     19  H3  UNL     1     -17.642  -4.988  -0.624  1.00  0.00     0.162 HD
BRANCH  18  20
HETATM   20  C14 UNL     1     -18.388  -3.436  -1.882  1.00  0.00     0.152 C 
BRANCH  20  21
HETATM   21  C15 UNL     1     -18.200  -4.314  -3.086  1.00  0.00     0.292 C 
BRANCH  21  22
HETATM   22  N4  UNL     1     -19.480  -4.329  -3.814  1.00  0.00     0.090 N 
HETATM   23  C16 UNL     1     -20.630  -4.483  -2.918  1.00  0.00     0.274 C 
HETATM   24  C17 UNL     1     -21.307  -3.372  -3.646  1.00  0.00     0.060 C 
HETATM   25  C18 UNL     1     -19.924  -2.971  -4.132  1.00  0.00     0.274 C 
ENDBRANCH  21  22
ENDBRANCH  20  21
ENDBRANCH  18  20
ENDBRANCH   1  16
BRANCH   1  26
HETATM   26  C19 UNL     1     -18.523  -3.222   2.758  1.00  0.00     0.028 C 
HETATM   27  C20 UNL     1     -18.252  -2.154   3.683  1.00  0.00     0.007 C 
HETATM   28  C21 UNL     1     -19.667  -1.987   4.316  1.00  0.00     0.000 C 
HETATM   29  C22 UNL     1     -19.864  -3.439   4.728  1.00  0.00     0.000 C 
HETATM   30  C23 UNL     1     -19.225  -4.265   3.644  1.00  0.00     0.007 C 
ENDBRANCH   1  26
TORSDOF 6
ENDMDL
