MODEL 1
REMARK VINA RESULT: -8.656906390      0.000      0.000
REMARK  6 active torsions:
REMARK  status: ('A' for Active; 'I' for Inactive)
REMARK    1  A    between atoms: C1_2  and  C2_3 
REMARK       I    between atoms: C1_2  and  N3_21 
REMARK    2  A    between atoms: C2_3  and  C3_4 
REMARK    3  A    between atoms: C3_4  and  N1_5 
REMARK    4  A    between atoms: N2_8  and  S1_9 
REMARK    5  A    between atoms: S1_9  and  C6_12 
REMARK    6  A    between atoms: N3_21  and  C15_23 
ROOT
HETATM    1  N1  UNL     1     -18.441  -2.182   5.304  1.00  0.00     0.095 N 
HETATM    2  C4  UNL     1     -17.073  -2.051   5.757  1.00  0.00     0.317 C 
HETATM    3  C5  UNL     1     -16.135  -2.776   4.803  1.00  0.00     0.106 C 
HETATM    4  N2  UNL     1     -16.742  -3.042   3.559  1.00  0.00    -0.287 N 
HETATM    5  C13 UNL     1     -17.899  -3.885   3.634  1.00  0.00     0.170 C 
HETATM    6  C14 UNL     1     -18.742  -3.518   4.857  1.00  0.00     0.293 C 
ENDROOT
BRANCH   1   7
HETATM    7  C3  UNL     1     -19.396  -1.659   6.226  1.00  0.00     0.282 C 
BRANCH   7   8
HETATM    8  C2  UNL     1     -19.999  -0.348   5.766  1.00  0.00     0.133 C 
BRANCH   8   9
HETATM    9  C1  UNL     1     -21.359  -0.590   5.224  1.00  0.00     0.219 C 
HETATM   10  O1  UNL     1     -21.660  -0.166   4.084  1.00  0.00    -0.274 OA
HETATM   11  N3  UNL     1     -22.350  -1.290   5.958  1.00  0.00    -0.356 N 
ATOM     12  H3  UNL     1     -22.120  -1.642   6.888  1.00  0.00     0.162 HD
BRANCH  11  13
HETATM   13  C15 UNL     1     -23.664  -1.520   5.436  1.00  0.00     0.084 C 
HETATM   14  C16 UNL     1     -24.119  -2.924   5.752  1.00  0.00     0.025 C 
HETATM   15  C17 UNL     1     -25.477  -3.168   5.140  1.00  0.00     0.002 C 
HETATM   16  C18 UNL     1     -26.480  -2.129   5.579  1.00  0.00     0.000 C 
HETATM   17  C19 UNL     1     -25.969  -0.776   5.135  1.00  0.00     0.002 C 
HETATM   18  C20 UNL     1     -24.677  -0.533   5.921  1.00  0.00     0.025 C 
ENDBRANCH  11  13
ENDBRANCH   8   9
ENDBRANCH   7   8
ENDBRANCH   1   7
BRANCH   4  19
HETATM   19  S1  UNL     1     -15.745  -3.356   2.284  1.00  0.00     0.236 S 
HETATM   20  O2  UNL     1     -16.491  -3.866   1.046  1.00  0.00    -0.205 OA
HETATM   21  O3  UNL     1     -15.160  -2.017   1.786  1.00  0.00    -0.205 OA
BRANCH  19  22
HETATM   22  C6  UNL     1     -14.378  -4.414   2.493  1.00  0.00     0.134 C 
HETATM   23  C7  UNL     1     -14.651  -5.881   2.211  1.00  0.00     0.026 C 
HETATM   24  C8  UNL     1     -13.302  -6.298   1.656  1.00  0.00    -0.013 C 
HETATM   25  C9  UNL     1     -12.295  -6.041   2.755  1.00  0.00     0.005 C 
HETATM   26  C12 UNL     1     -13.010  -5.129   0.727  1.00  0.00     0.010 C 
HETATM   27  C10 UNL     1     -11.957  -4.544   2.688  1.00  0.00     0.006 C 
HETATM   28  C11 UNL     1     -13.117  -4.043   1.814  1.00  0.00     0.006 C 
ENDBRANCH  19  22
ENDBRANCH   4  19
TORSDOF 6
ENDMDL
MODEL 2
REMARK VINA RESULT: -8.555420150      0.830      1.202
REMARK  6 active torsions:
REMARK  status: ('A' for Active; 'I' for Inactive)
REMARK    1  A    between atoms: C1_2  and  C2_3 
REMARK       I    between atoms: C1_2  and  N3_21 
REMARK    2  A    between atoms: C2_3  and  C3_4 
REMARK    3  A    between atoms: C3_4  and  N1_5 
REMARK    4  A    between atoms: N2_8  and  S1_9 
REMARK    5  A    between atoms: S1_9  and  C6_12 
REMARK    6  A    between atoms: N3_21  and  C15_23 
ROOT
HETATM    1  N1  UNL     1     -18.359  -1.679   4.704  1.00  0.00     0.095 N 
HETATM    2  C4  UNL     1     -17.111  -1.952   5.383  1.00  0.00     0.317 C 
HETATM    3  C5  UNL     1     -16.190  -2.756   4.478  1.00  0.00     0.106 C 
HETATM    4  N2  UNL     1     -16.587  -2.698   3.127  1.00  0.00    -0.287 N 
HETATM    5  C13 UNL     1     -17.894  -3.229   2.871  1.00  0.00     0.170 C 
HETATM    6  C14 UNL     1     -18.856  -2.827   3.992  1.00  0.00     0.293 C 
ENDROOT
BRANCH   1   7
HETATM    7  C3  UNL     1     -19.335  -1.060   5.541  1.00  0.00     0.282 C 
BRANCH   7   8
HETATM    8  C2  UNL     1     -20.325  -0.218   4.764  1.00  0.00     0.133 C 
BRANCH   8   9
HETATM    9  C1  UNL     1     -21.700  -0.489   5.252  1.00  0.00     0.219 C 
HETATM   10  O1  UNL     1     -22.502   0.461   5.416  1.00  0.00    -0.274 OA
HETATM   11  N3  UNL     1     -22.150  -1.801   5.548  1.00  0.00    -0.356 N 
ATOM     12  H3  UNL     1     -21.510  -2.584   5.419  1.00  0.00     0.162 HD
BRANCH  11  13
HETATM   13  C15 UNL     1     -23.477  -2.061   6.023  1.00  0.00     0.084 C 
HETATM   14  C16 UNL     1     -24.476  -1.919   4.900  1.00  0.00     0.025 C 
HETATM   15  C17 UNL     1     -25.872  -2.135   5.431  1.00  0.00     0.002 C 
HETATM   16  C18 UNL     1     -25.998  -3.459   6.145  1.00  0.00     0.000 C 
HETATM   17  C19 UNL     1     -25.020  -3.457   7.299  1.00  0.00     0.002 C 
HETATM   18  C20 UNL     1     -23.623  -3.401   6.671  1.00  0.00     0.025 C 
ENDBRANCH  11  13
ENDBRANCH   8   9
ENDBRANCH   7   8
ENDBRANCH   1   7
BRANCH   4  19
HETATM   19  S1  UNL     1     -15.456  -3.081   1.990  1.00  0.00     0.236 S 
HETATM   20  O2  UNL     1     -16.066  -3.480   0.642  1.00  0.00    -0.205 OA
HETATM   21  O3  UNL     1     -14.677  -1.797   1.631  1.00  0.00    -0.205 OA
BRANCH  19  22
HETATM   22  C6  UNL     1     -14.243  -4.279   2.344  1.00  0.00     0.134 C 
HETATM   23  C7  UNL     1     -14.671  -5.717   2.109  1.00  0.00     0.026 C 
HETATM   24  C8  UNL     1     -13.350  -6.318   1.671  1.00  0.00    -0.013 C 
HETATM   25  C9  UNL     1     -12.393  -6.123   2.826  1.00  0.00     0.005 C 
HETATM   26  C12 UNL     1     -12.858  -5.243   0.714  1.00  0.00     0.010 C 
HETATM   27  C10 UNL     1     -11.873  -4.682   2.717  1.00  0.00     0.006 C 
HETATM   28  C11 UNL     1     -12.904  -4.095   1.741  1.00  0.00     0.006 C 
ENDBRANCH  19  22
ENDBRANCH   4  19
TORSDOF 6
ENDMDL
MODEL 3
REMARK VINA RESULT: -8.532862550      2.375      9.282
REMARK  6 active torsions:
REMARK  status: ('A' for Active; 'I' for Inactive)
REMARK    1  A    between atoms: C1_2  and  C2_3 
REMARK       I    between atoms: C1_2  and  N3_21 
REMARK    2  A    between atoms: C2_3  and  C3_4 
REMARK    3  A    between atoms: C3_4  and  N1_5 
REMARK    4  A    between atoms: N2_8  and  S1_9 
REMARK    5  A    between atoms: S1_9  and  C6_12 
REMARK    6  A    between atoms: N3_21  and  C15_23 
ROOT
HETATM    1  N1  UNL     1     -18.301  -2.317   2.543  1.00  0.00     0.095 N 
HETATM    2  C4  UNL     1     -18.863  -3.599   2.908  1.00  0.00     0.317 C 
HETATM    3  C5  UNL     1     -19.070  -3.669   4.414  1.00  0.00     0.106 C 
HETATM    4  N2  UNL     1     -19.047  -2.394   5.015  1.00  0.00    -0.287 N 
HETATM    5  C13 UNL     1     -17.810  -1.687   4.855  1.00  0.00     0.170 C 
HETATM    6  C14 UNL     1     -17.257  -1.902   3.445  1.00  0.00     0.293 C 
ENDROOT
BRANCH   1   7
HETATM    7  C3  UNL     1     -17.935  -2.229   1.167  1.00  0.00     0.282 C 
BRANCH   7   8
HETATM    8  C2  UNL     1     -17.697  -3.584   0.535  1.00  0.00     0.133 C 
BRANCH   8   9
HETATM    9  C1  UNL     1     -16.249  -3.906   0.580  1.00  0.00     0.219 C 
HETATM   10  O1  UNL     1     -15.500  -3.538  -0.355  1.00  0.00    -0.274 OA
HETATM   11  N3  UNL     1     -15.669  -4.627   1.654  1.00  0.00    -0.356 N 
ATOM     12  H3  UNL     1     -16.266  -4.933   2.423  1.00  0.00     0.162 HD
BRANCH  11  13
HETATM   13  C15 UNL     1     -14.272  -4.940   1.694  1.00  0.00     0.084 C 
HETATM   14  C16 UNL     1     -13.504  -3.836   2.381  1.00  0.00     0.025 C 
HETATM   15  C17 UNL     1     -12.028  -4.152   2.358  1.00  0.00     0.002 C 
HETATM   16  C18 UNL     1     -11.740  -5.508   2.958  1.00  0.00     0.000 C 
HETATM   17  C19 UNL     1     -12.485  -6.542   2.143  1.00  0.00     0.002 C 
HETATM   18  C20 UNL     1     -13.975  -6.252   2.349  1.00  0.00     0.025 C 
ENDBRANCH  11  13
ENDBRANCH   8   9
ENDBRANCH   7   8
ENDBRANCH   1   7
BRANCH   4  19
HETATM   19  S1  UNL     1     -19.733  -2.250   6.506  1.00  0.00     0.236 S 
HETATM   20  O2  UNL     1     -19.010  -3.065   7.585  1.00  0.00    -0.205 OA
HETATM   21  O3  UNL     1     -19.525  -0.801   6.997  1.00  0.00    -0.205 OA
BRANCH  19  22
HETATM   22  C6  UNL     1     -21.431  -2.574   6.714  1.00  0.00     0.134 C 
HETATM   23  C7  UNL     1     -22.361  -1.657   5.939  1.00  0.00     0.026 C 
HETATM   24  C8  UNL     1     -23.491  -2.623   5.635  1.00  0.00    -0.013 C 
HETATM   25  C9  UNL     1     -24.025  -3.081   6.974  1.00  0.00     0.005 C 
HETATM   26  C12 UNL     1     -22.701  -3.852   5.212  1.00  0.00     0.010 C 
HETATM   27  C10 UNL     1     -23.085  -4.197   7.454  1.00  0.00     0.006 C 
HETATM   28  C11 UNL     1     -21.890  -3.967   6.517  1.00  0.00     0.006 C 
ENDBRANCH  19  22
ENDBRANCH   4  19
TORSDOF 6
ENDMDL
MODEL 4
REMARK VINA RESULT: -8.504332973      1.022      1.410
REMARK  6 active torsions:
REMARK  status: ('A' for Active; 'I' for Inactive)
REMARK    1  A    between atoms: C1_2  and  C2_3 
REMARK       I    between atoms: C1_2  and  N3_21 
REMARK    2  A    between atoms: C2_3  and  C3_4 
REMARK    3  A    between atoms: C3_4  and  N1_5 
REMARK    4  A    between atoms: N2_8  and  S1_9 
REMARK    5  A    between atoms: S1_9  and  C6_12 
REMARK    6  A    between atoms: N3_21  and  C15_23 
ROOT
HETATM    1  N1  UNL     1     -18.241  -1.509   4.560  1.00  0.00     0.095 N 
HETATM    2  C4  UNL     1     -17.072  -1.928   5.301  1.00  0.00     0.317 C 
HETATM    3  C5  UNL     1     -16.169  -2.775   4.416  1.00  0.00     0.106 C 
HETATM    4  N2  UNL     1     -16.467  -2.621   3.048  1.00  0.00    -0.287 N 
HETATM    5  C13 UNL     1     -17.797  -3.015   2.684  1.00  0.00     0.170 C 
HETATM    6  C14 UNL     1     -18.791  -2.574   3.761  1.00  0.00     0.293 C 
ENDROOT
BRANCH   1   7
HETATM    7  C3  UNL     1     -19.211  -0.839   5.363  1.00  0.00     0.282 C 
BRANCH   7   8
HETATM    8  C2  UNL     1     -20.253  -0.110   4.540  1.00  0.00     0.133 C 
BRANCH   8   9
HETATM    9  C1  UNL     1     -21.598  -0.342   5.123  1.00  0.00     0.219 C 
HETATM   10  O1  UNL     1     -21.704  -0.764   6.298  1.00  0.00    -0.274 OA
HETATM   11  N3  UNL     1     -22.789  -0.102   4.390  1.00  0.00    -0.356 N 
ATOM     12  H3  UNL     1     -22.718   0.244   3.433  1.00  0.00     0.162 HD
BRANCH  11  13
HETATM   13  C15 UNL     1     -24.086  -0.329   4.953  1.00  0.00     0.084 C 
HETATM   14  C16 UNL     1     -25.154   0.294   4.085  1.00  0.00     0.025 C 
HETATM   15  C17 UNL     1     -26.507   0.100   4.725  1.00  0.00     0.002 C 
HETATM   16  C18 UNL     1     -26.782  -1.356   5.014  1.00  0.00     0.000 C 
HETATM   17  C19 UNL     1     -25.708  -1.852   5.957  1.00  0.00     0.002 C 
HETATM   18  C20 UNL     1     -24.391  -1.775   5.178  1.00  0.00     0.025 C 
ENDBRANCH  11  13
ENDBRANCH   8   9
ENDBRANCH   7   8
ENDBRANCH   1   7
BRANCH   4  19
HETATM   19  S1  UNL     1     -15.302  -3.058   1.967  1.00  0.00     0.236 S 
HETATM   20  O2  UNL     1     -15.864  -3.418   0.586  1.00  0.00    -0.205 OA
HETATM   21  O3  UNL     1     -14.440  -1.816   1.656  1.00  0.00    -0.205 OA
BRANCH  19  22
HETATM   22  C6  UNL     1     -14.173  -4.320   2.372  1.00  0.00     0.134 C 
HETATM   23  C7  UNL     1     -14.711  -5.734   2.231  1.00  0.00     0.026 C 
HETATM   24  C8  UNL     1     -13.446  -6.456   1.809  1.00  0.00    -0.013 C 
HETATM   25  C9  UNL     1     -12.455  -6.265   2.935  1.00  0.00     0.005 C 
HETATM   26  C12 UNL     1     -12.896  -5.478   0.781  1.00  0.00     0.010 C 
HETATM   27  C10 UNL     1     -11.832  -4.875   2.731  1.00  0.00     0.006 C 
HETATM   28  C11 UNL     1     -12.837  -4.272   1.738  1.00  0.00     0.006 C 
ENDBRANCH  19  22
ENDBRANCH   4  19
TORSDOF 6
ENDMDL
MODEL 5
REMARK VINA RESULT: -8.466678638      0.976      1.184
REMARK  6 active torsions:
REMARK  status: ('A' for Active; 'I' for Inactive)
REMARK    1  A    between atoms: C1_2  and  C2_3 
REMARK       I    between atoms: C1_2  and  N3_21 
REMARK    2  A    between atoms: C2_3  and  C3_4 
REMARK    3  A    between atoms: C3_4  and  N1_5 
REMARK    4  A    between atoms: N2_8  and  S1_9 
REMARK    5  A    between atoms: S1_9  and  C6_12 
REMARK    6  A    between atoms: N3_21  and  C15_23 
ROOT
HETATM    1  N1  UNL     1     -18.451  -2.188   5.560  1.00  0.00     0.095 N 
HETATM    2  C4  UNL     1     -17.063  -2.065   5.949  1.00  0.00     0.317 C 
HETATM    3  C5  UNL     1     -16.173  -2.772   4.938  1.00  0.00     0.106 C 
HETATM    4  N2  UNL     1     -16.838  -3.015   3.721  1.00  0.00    -0.287 N 
HETATM    5  C13 UNL     1     -17.991  -3.860   3.835  1.00  0.00     0.170 C 
HETATM    6  C14 UNL     1     -18.774  -3.516   5.104  1.00  0.00     0.293 C 
ENDROOT
BRANCH   1   7
HETATM    7  C3  UNL     1     -19.361  -1.683   6.536  1.00  0.00     0.282 C 
BRANCH   7   8
HETATM    8  C2  UNL     1     -20.222  -0.556   6.008  1.00  0.00     0.133 C 
BRANCH   8   9
HETATM    9  C1  UNL     1     -21.592  -1.061   5.740  1.00  0.00     0.219 C 
HETATM   10  O1  UNL     1     -21.894  -2.237   6.049  1.00  0.00    -0.274 OA
HETATM   11  N3  UNL     1     -22.589  -0.253   5.135  1.00  0.00    -0.356 N 
ATOM     12  H3  UNL     1     -22.358   0.707   4.879  1.00  0.00     0.162 HD
BRANCH  11  13
HETATM   13  C15 UNL     1     -23.909  -0.743   4.874  1.00  0.00     0.084 C 
HETATM   14  C16 UNL     1     -24.831  -0.413   6.024  1.00  0.00     0.025 C 
HETATM   15  C17 UNL     1     -26.200  -0.991   5.760  1.00  0.00     0.002 C 
HETATM   16  C18 UNL     1     -26.753  -0.528   4.433  1.00  0.00     0.000 C 
HETATM   17  C19 UNL     1     -25.801  -0.986   3.350  1.00  0.00     0.002 C 
HETATM   18  C20 UNL     1     -24.489  -0.233   3.593  1.00  0.00     0.025 C 
ENDBRANCH  11  13
ENDBRANCH   8   9
ENDBRANCH   7   8
ENDBRANCH   1   7
BRANCH   4  19
HETATM   19  S1  UNL     1     -15.904  -3.305   2.394  1.00  0.00     0.236 S 
HETATM   20  O2  UNL     1     -16.700  -3.848   1.202  1.00  0.00    -0.205 OA
HETATM   21  O3  UNL     1     -15.392  -1.951   1.857  1.00  0.00    -0.205 OA
BRANCH  19  22
HETATM   22  C6  UNL     1     -14.493  -4.316   2.532  1.00  0.00     0.134 C 
HETATM   23  C7  UNL     1     -14.709  -5.776   2.172  1.00  0.00     0.026 C 
HETATM   24  C8  UNL     1     -13.351  -6.106   1.582  1.00  0.00    -0.013 C 
HETATM   25  C9  UNL     1     -12.343  -5.868   2.684  1.00  0.00     0.005 C 
HETATM   26  C12 UNL     1     -13.117  -4.877   0.716  1.00  0.00     0.010 C 
HETATM   27  C10 UNL     1     -12.066  -4.357   2.697  1.00  0.00     0.006 C 
HETATM   28  C11 UNL     1     -13.255  -3.857   1.863  1.00  0.00     0.006 C 
ENDBRANCH  19  22
ENDBRANCH   4  19
TORSDOF 6
ENDMDL
