MODEL 1
REMARK VINA RESULT: -9.040658304      0.000      0.000
REMARK  6 active torsions:
REMARK  status: ('A' for Active; 'I' for Inactive)
REMARK       I    between atoms: C1_2  and  N1_3 
REMARK    1  A    between atoms: C1_2  and  C11_15 
REMARK    2  A    between atoms: N1_3  and  C2_5 
REMARK    3  A    between atoms: C2_5  and  C3_6 
REMARK    4  A    between atoms: N2_10  and  C7_11 
REMARK    5  A    between atoms: N3_20  and  C15_21 
REMARK    6  A    between atoms: C15_21  and  C16_22 
ROOT
HETATM    1  C11 UNL     1     -17.423  -2.545   2.221  1.00  0.00     0.171 C 
HETATM    2  C12 UNL     1     -17.847  -3.959   1.846  1.00  0.00     0.033 C 
HETATM    3  C13 UNL     1     -17.317  -4.195   0.443  1.00  0.00     0.105 C 
HETATM    4  C14 UNL     1     -16.003  -3.524   0.257  1.00  0.00     0.230 C 
HETATM    5  O2  UNL     1     -15.578  -3.272  -0.913  1.00  0.00    -0.273 OA
HETATM    6  N3  UNL     1     -15.215  -3.161   1.423  1.00  0.00    -0.266 N 
HETATM    7  C22 UNL     1     -15.978  -2.608   2.503  1.00  0.00     0.243 C 
HETATM    8  O3  UNL     1     -15.384  -2.251   3.523  1.00  0.00    -0.272 OA
ENDROOT
BRANCH   1   9
HETATM    9  C1  UNL     1     -18.268  -1.958   3.259  1.00  0.00     0.234 C 
HETATM   10  O1  UNL     1     -19.160  -1.188   2.932  1.00  0.00    -0.272 OA
HETATM   11  N1  UNL     1     -18.001  -2.319   4.595  1.00  0.00    -0.340 N 
ATOM     12  H1  UNL     1     -17.209  -2.955   4.690  1.00  0.00     0.167 HD
BRANCH  11  13
HETATM   13  C2  UNL     1     -18.589  -1.991   5.810  1.00  0.00     0.070 C 
BRANCH  13  14
HETATM   14  C3  UNL     1     -19.909  -2.579   6.188  1.00  0.00     0.042 C 
HETATM   15  C4  UNL     1     -20.156  -3.928   5.658  1.00  0.00     0.013 C 
HETATM   16  C5  UNL     1     -21.576  -4.392   5.938  1.00  0.00     0.020 C 
HETATM   17  C6  UNL     1     -22.319  -3.301   6.657  1.00  0.00     0.117 C 
HETATM   18  N2  UNL     1     -22.274  -2.144   5.848  1.00  0.00    -0.407 N 
HETATM   19  C10 UNL     1     -20.998  -1.601   5.687  1.00  0.00     0.127 C 
BRANCH  18  20
HETATM   20  C7  UNL     1     -23.348  -1.226   6.004  1.00  0.00     0.079 A 
HETATM   21  C8  UNL     1     -24.363  -1.226   4.853  1.00  0.00     0.027 A 
HETATM   22  C9  UNL     1     -23.492  -0.039   5.114  1.00  0.00     0.027 A 
ENDBRANCH  18  20
ENDBRANCH  13  14
ENDBRANCH  11  13
ENDBRANCH   1   9
BRANCH   6  23
HETATM   23  C15 UNL     1     -13.825  -3.355   1.363  1.00  0.00     0.080 C 
BRANCH  23  24
HETATM   24  C16 UNL     1     -13.301  -4.700   1.754  1.00  0.00     0.025 C 
HETATM   25  C17 UNL     1     -12.095  -4.469   2.664  1.00  0.00     0.010 C 
HETATM   26  C18 UNL     1     -11.545  -5.739   3.226  1.00  0.00     0.001 C 
HETATM   27  C19 UNL     1     -12.177  -6.966   2.615  1.00  0.00     0.000 C 
HETATM   28  C20 UNL     1     -13.665  -6.936   2.667  1.00  0.00     0.001 C 
HETATM   29  C21 UNL     1     -14.268  -5.551   2.538  1.00  0.00     0.010 C 
ENDBRANCH  23  24
ENDBRANCH   6  23
TORSDOF 6
ENDMDL
MODEL 2
REMARK VINA RESULT: -8.790630287      2.066      9.321
REMARK  6 active torsions:
REMARK  status: ('A' for Active; 'I' for Inactive)
REMARK       I    between atoms: C1_2  and  N1_3 
REMARK    1  A    between atoms: C1_2  and  C11_15 
REMARK    2  A    between atoms: N1_3  and  C2_5 
REMARK    3  A    between atoms: C2_5  and  C3_6 
REMARK    4  A    between atoms: N2_10  and  C7_11 
REMARK    5  A    between atoms: N3_20  and  C15_21 
REMARK    6  A    between atoms: C15_21  and  C16_22 
ROOT
HETATM    1  C11 UNL     1     -19.839  -2.808   6.172  1.00  0.00     0.171 C 
HETATM    2  C12 UNL     1     -20.323  -3.919   5.250  1.00  0.00     0.033 C 
HETATM    3  C13 UNL     1     -21.592  -4.462   5.883  1.00  0.00     0.105 C 
HETATM    4  C14 UNL     1     -22.366  -3.370   6.530  1.00  0.00     0.230 C 
HETATM    5  O2  UNL     1     -23.229  -3.643   7.420  1.00  0.00    -0.273 OA
HETATM    6  N3  UNL     1     -22.124  -1.992   6.134  1.00  0.00    -0.266 N 
HETATM    7  C22 UNL     1     -20.741  -1.664   5.949  1.00  0.00     0.243 C 
HETATM    8  O3  UNL     1     -20.445  -0.508   5.635  1.00  0.00    -0.272 OA
ENDROOT
BRANCH   1   9
HETATM    9  C1  UNL     1     -18.406  -2.546   6.039  1.00  0.00     0.234 C 
HETATM   10  O1  UNL     1     -17.726  -2.451   7.051  1.00  0.00    -0.272 OA
HETATM   11  N1  UNL     1     -17.887  -2.419   4.735  1.00  0.00    -0.340 N 
ATOM     12  H1  UNL     1     -18.598  -2.506   4.008  1.00  0.00     0.167 HD
BRANCH  11  13
HETATM   13  C2  UNL     1     -16.612  -2.199   4.231  1.00  0.00     0.070 C 
BRANCH  13  14
HETATM   14  C3  UNL     1     -16.275  -2.609   2.835  1.00  0.00     0.042 C 
HETATM   15  C4  UNL     1     -17.353  -3.312   2.123  1.00  0.00     0.013 C 
HETATM   16  C5  UNL     1     -16.885  -3.845   0.779  1.00  0.00     0.020 C 
HETATM   17  C6  UNL     1     -15.431  -3.514   0.595  1.00  0.00     0.117 C 
HETATM   18  N2  UNL     1     -14.720  -4.075   1.680  1.00  0.00    -0.407 N 
HETATM   19  C10 UNL     1     -15.017  -3.506   2.920  1.00  0.00     0.127 C 
BRANCH  18  20
HETATM   20  C7  UNL     1     -13.361  -4.409   1.435  1.00  0.00     0.079 A 
HETATM   21  C8  UNL     1     -13.059  -5.914   1.445  1.00  0.00     0.027 A 
HETATM   22  C9  UNL     1     -12.505  -5.008   2.497  1.00  0.00     0.027 A 
ENDBRANCH  18  20
ENDBRANCH  13  14
ENDBRANCH  11  13
ENDBRANCH   1   9
BRANCH   6  23
HETATM   23  C15 UNL     1     -23.234  -1.141   6.008  1.00  0.00     0.080 C 
BRANCH  23  24
HETATM   24  C16 UNL     1     -24.159  -1.383   4.857  1.00  0.00     0.025 C 
HETATM   25  C17 UNL     1     -25.474  -1.906   5.436  1.00  0.00     0.010 C 
HETATM   26  C18 UNL     1     -26.533  -2.078   4.397  1.00  0.00     0.001 C 
HETATM   27  C19 UNL     1     -26.007  -1.887   2.995  1.00  0.00     0.000 C 
HETATM   28  C20 UNL     1     -25.267  -0.605   2.825  1.00  0.00     0.001 C 
HETATM   29  C21 UNL     1     -24.506  -0.155   4.056  1.00  0.00     0.010 C 
ENDBRANCH  23  24
ENDBRANCH   6  23
TORSDOF 6
ENDMDL
MODEL 3
REMARK VINA RESULT: -8.420433553      1.007      2.141
REMARK  6 active torsions:
REMARK  status: ('A' for Active; 'I' for Inactive)
REMARK       I    between atoms: C1_2  and  N1_3 
REMARK    1  A    between atoms: C1_2  and  C11_15 
REMARK    2  A    between atoms: N1_3  and  C2_5 
REMARK    3  A    between atoms: C2_5  and  C3_6 
REMARK    4  A    between atoms: N2_10  and  C7_11 
REMARK    5  A    between atoms: N3_20  and  C15_21 
REMARK    6  A    between atoms: C15_21  and  C16_22 
ROOT
HETATM    1  C11 UNL     1     -17.706  -2.265   1.959  1.00  0.00     0.171 C 
HETATM    2  C12 UNL     1     -18.177  -3.645   1.518  1.00  0.00     0.033 C 
HETATM    3  C13 UNL     1     -17.417  -3.957   0.242  1.00  0.00     0.105 C 
HETATM    4  C14 UNL     1     -16.037  -3.407   0.303  1.00  0.00     0.230 C 
HETATM    5  O2  UNL     1     -15.379  -3.220  -0.766  1.00  0.00    -0.273 OA
HETATM    6  N3  UNL     1     -15.452  -3.090   1.596  1.00  0.00    -0.266 N 
HETATM    7  C22 UNL     1     -16.351  -2.449   2.510  1.00  0.00     0.243 C 
HETATM    8  O3  UNL     1     -15.929  -2.122   3.622  1.00  0.00    -0.272 OA
ENDROOT
BRANCH   1   9
HETATM    9  C1  UNL     1     -18.674  -1.583   2.816  1.00  0.00     0.234 C 
HETATM   10  O1  UNL     1     -19.425  -0.756   2.319  1.00  0.00    -0.272 OA
HETATM   11  N1  UNL     1     -18.685  -1.925   4.184  1.00  0.00    -0.340 N 
ATOM     12  H1  UNL     1     -17.978  -2.617   4.431  1.00  0.00     0.167 HD
BRANCH  11  13
HETATM   13  C2  UNL     1     -19.455  -1.516   5.265  1.00  0.00     0.070 C 
BRANCH  13  14
HETATM   14  C3  UNL     1     -20.945  -1.514   5.167  1.00  0.00     0.042 C 
HETATM   15  C4  UNL     1     -21.577  -0.212   5.430  1.00  0.00     0.013 C 
HETATM   16  C5  UNL     1     -23.091  -0.321   5.480  1.00  0.00     0.020 C 
HETATM   17  C6  UNL     1     -23.490  -1.755   5.274  1.00  0.00     0.117 C 
HETATM   18  N2  UNL     1     -22.856  -2.527   6.272  1.00  0.00    -0.407 N 
HETATM   19  C10 UNL     1     -21.464  -2.572   6.170  1.00  0.00     0.127 C 
BRANCH  18  20
HETATM   20  C7  UNL     1     -23.511  -3.732   6.646  1.00  0.00     0.079 A 
HETATM   21  C8  UNL     1     -24.533  -3.580   7.781  1.00  0.00     0.027 A 
HETATM   22  C9  UNL     1     -23.275  -4.365   7.974  1.00  0.00     0.027 A 
ENDBRANCH  18  20
ENDBRANCH  13  14
ENDBRANCH  11  13
ENDBRANCH   1   9
BRANCH   6  23
HETATM   23  C15 UNL     1     -14.099  -3.406   1.800  1.00  0.00     0.080 C 
BRANCH  23  24
HETATM   24  C16 UNL     1     -13.783  -4.770   2.326  1.00  0.00     0.025 C 
HETATM   25  C17 UNL     1     -15.112  -5.437   2.680  1.00  0.00     0.010 C 
HETATM   26  C18 UNL     1     -14.948  -6.859   3.108  1.00  0.00     0.001 C 
HETATM   27  C19 UNL     1     -13.500  -7.249   3.282  1.00  0.00     0.000 C 
HETATM   28  C20 UNL     1     -12.668  -6.930   2.088  1.00  0.00     0.001 C 
HETATM   29  C21 UNL     1     -13.099  -5.684   1.341  1.00  0.00     0.010 C 
ENDBRANCH  23  24
ENDBRANCH   6  23
TORSDOF 6
ENDMDL
MODEL 4
REMARK VINA RESULT: -8.313609975      1.677      2.412
REMARK  6 active torsions:
REMARK  status: ('A' for Active; 'I' for Inactive)
REMARK       I    between atoms: C1_2  and  N1_3 
REMARK    1  A    between atoms: C1_2  and  C11_15 
REMARK    2  A    between atoms: N1_3  and  C2_5 
REMARK    3  A    between atoms: C2_5  and  C3_6 
REMARK    4  A    between atoms: N2_10  and  C7_11 
REMARK    5  A    between atoms: N3_20  and  C15_21 
REMARK    6  A    between atoms: C15_21  and  C16_22 
ROOT
HETATM    1  C11 UNL     1     -18.279  -2.453   3.816  1.00  0.00     0.171 C 
HETATM    2  C12 UNL     1     -18.669  -3.867   3.405  1.00  0.00     0.033 C 
HETATM    3  C13 UNL     1     -18.280  -3.998   1.944  1.00  0.00     0.105 C 
HETATM    4  C14 UNL     1     -17.028  -3.245   1.662  1.00  0.00     0.230 C 
HETATM    5  O2  UNL     1     -16.743  -2.908   0.472  1.00  0.00    -0.273 OA
HETATM    6  N3  UNL     1     -16.140  -2.901   2.760  1.00  0.00    -0.266 N 
HETATM    7  C22 UNL     1     -16.811  -2.450   3.943  1.00  0.00     0.243 C 
HETATM    8  O3  UNL     1     -16.131  -2.114   4.916  1.00  0.00    -0.272 OA
ENDROOT
BRANCH   1   9
HETATM    9  C1  UNL     1     -19.037  -1.969   4.968  1.00  0.00     0.234 C 
HETATM   10  O1  UNL     1     -18.796  -2.435   6.073  1.00  0.00    -0.272 OA
HETATM   11  N1  UNL     1     -20.015  -0.981   4.735  1.00  0.00    -0.340 N 
ATOM     12  H1  UNL     1     -20.098  -0.722   3.752  1.00  0.00     0.167 HD
BRANCH  11  13
HETATM   13  C2  UNL     1     -20.888  -0.286   5.561  1.00  0.00     0.070 C 
BRANCH  13  14
HETATM   14  C3  UNL     1     -22.278  -0.787   5.775  1.00  0.00     0.042 C 
HETATM   15  C4  UNL     1     -22.382  -2.235   6.011  1.00  0.00     0.013 C 
HETATM   16  C5  UNL     1     -23.829  -2.697   6.050  1.00  0.00     0.020 C 
HETATM   17  C6  UNL     1     -24.730  -1.520   5.801  1.00  0.00     0.117 C 
HETATM   18  N2  UNL     1     -24.372  -0.959   4.556  1.00  0.00    -0.407 N 
HETATM   19  C10 UNL     1     -23.098  -0.389   4.524  1.00  0.00     0.127 C 
BRANCH  18  20
HETATM   20  C7  UNL     1     -25.401  -0.270   3.858  1.00  0.00     0.079 A 
HETATM   21  C8  UNL     1     -25.915  -0.987   2.602  1.00  0.00     0.027 A 
HETATM   22  C9  UNL     1     -25.170   0.305   2.503  1.00  0.00     0.027 A 
ENDBRANCH  18  20
ENDBRANCH  13  14
ENDBRANCH  11  13
ENDBRANCH   1   9
BRANCH   6  23
HETATM   23  C15 UNL     1     -14.756  -3.013   2.546  1.00  0.00     0.080 C 
BRANCH  23  24
HETATM   24  C16 UNL     1     -14.166  -4.387   2.573  1.00  0.00     0.025 C 
HETATM   25  C17 UNL     1     -15.267  -5.344   3.028  1.00  0.00     0.010 C 
HETATM   26  C18 UNL     1     -14.842  -6.775   2.986  1.00  0.00     0.001 C 
HETATM   27  C19 UNL     1     -13.369  -6.935   2.694  1.00  0.00     0.000 C 
HETATM   28  C20 UNL     1     -12.937  -6.191   1.477  1.00  0.00     0.001 C 
HETATM   29  C21 UNL     1     -13.687  -4.895   1.237  1.00  0.00     0.010 C 
ENDBRANCH  23  24
ENDBRANCH   6  23
TORSDOF 6
ENDMDL
MODEL 5
REMARK VINA RESULT: -8.278552133      0.944      1.881
REMARK  6 active torsions:
REMARK  status: ('A' for Active; 'I' for Inactive)
REMARK       I    between atoms: C1_2  and  N1_3 
REMARK    1  A    between atoms: C1_2  and  C11_15 
REMARK    2  A    between atoms: N1_3  and  C2_5 
REMARK    3  A    between atoms: C2_5  and  C3_6 
REMARK    4  A    between atoms: N2_10  and  C7_11 
REMARK    5  A    between atoms: N3_20  and  C15_21 
REMARK    6  A    between atoms: C15_21  and  C16_22 
ROOT
HETATM    1  C11 UNL     1     -17.679  -2.537   2.222  1.00  0.00     0.171 C 
HETATM    2  C12 UNL     1     -18.038  -3.970   1.848  1.00  0.00     0.033 C 
HETATM    3  C13 UNL     1     -17.424  -4.209   0.480  1.00  0.00     0.105 C 
HETATM    4  C14 UNL     1     -16.124  -3.499   0.354  1.00  0.00     0.230 C 
HETATM    5  O2  UNL     1     -15.642  -3.251  -0.794  1.00  0.00    -0.273 OA
HETATM    6  N3  UNL     1     -15.413  -3.095   1.556  1.00  0.00    -0.266 N 
HETATM    7  C22 UNL     1     -16.250  -2.551   2.584  1.00  0.00     0.243 C 
HETATM    8  O3  UNL     1     -15.725  -2.160   3.629  1.00  0.00    -0.272 OA
ENDROOT
BRANCH   1   9
HETATM    9  C1  UNL     1     -18.597  -1.962   3.203  1.00  0.00     0.234 C 
HETATM   10  O1  UNL     1     -19.280  -0.999   2.882  1.00  0.00    -0.272 OA
HETATM   11  N1  UNL     1     -18.644  -2.560   4.478  1.00  0.00    -0.340 N 
ATOM     12  H1  UNL     1     -17.994  -3.340   4.581  1.00  0.00     0.167 HD
BRANCH  11  13
HETATM   13  C2  UNL     1     -19.388  -2.311   5.624  1.00  0.00     0.070 C 
BRANCH  13  14
HETATM   14  C3  UNL     1     -20.875  -2.212   5.547  1.00  0.00     0.042 C 
HETATM   15  C4  UNL     1     -21.413  -0.856   5.735  1.00  0.00     0.013 C 
HETATM   16  C5  UNL     1     -22.931  -0.858   5.813  1.00  0.00     0.020 C 
HETATM   17  C6  UNL     1     -23.429  -2.272   5.705  1.00  0.00     0.117 C 
HETATM   18  N2  UNL     1     -22.830  -3.021   6.742  1.00  0.00    -0.407 N 
HETATM   19  C10 UNL     1     -21.447  -3.167   6.623  1.00  0.00     0.127 C 
BRANCH  18  20
HETATM   20  C7  UNL     1     -23.557  -4.152   7.201  1.00  0.00     0.079 A 
HETATM   21  C8  UNL     1     -24.661  -3.833   8.220  1.00  0.00     0.027 A 
HETATM   22  C9  UNL     1     -23.453  -4.623   8.611  1.00  0.00     0.027 A 
ENDBRANCH  18  20
ENDBRANCH  13  14
ENDBRANCH  11  13
ENDBRANCH   1   9
BRANCH   6  23
HETATM   23  C15 UNL     1     -14.016  -3.245   1.575  1.00  0.00     0.080 C 
BRANCH  23  24
HETATM   24  C16 UNL     1     -13.476  -4.613   1.849  1.00  0.00     0.025 C 
HETATM   25  C17 UNL     1     -12.188  -4.438   2.653  1.00  0.00     0.010 C 
HETATM   26  C18 UNL     1     -11.604  -5.739   3.098  1.00  0.00     0.001 C 
HETATM   27  C19 UNL     1     -12.307  -6.929   2.489  1.00  0.00     0.000 C 
HETATM   28  C20 UNL     1     -13.783  -6.888   2.681  1.00  0.00     0.001 C 
HETATM   29  C21 UNL     1     -14.377  -5.493   2.677  1.00  0.00     0.010 C 
ENDBRANCH  23  24
ENDBRANCH   6  23
TORSDOF 6
ENDMDL
