MODEL 1
REMARK VINA RESULT: -8.860227058      0.000      0.000
REMARK  12 active torsions:
REMARK  status: ('A' for Active; 'I' for Inactive)
REMARK    1  A    between atoms: C5_5  and  C6_6 
REMARK    2  A    between atoms: C6_6  and  C7_7 
REMARK    3  A    between atoms: C7_7  and  C9_9 
REMARK    4  A    between atoms: C7_7  and  N1_12 
REMARK    5  A    between atoms: C14_15  and  C15_16 
REMARK    6  A    between atoms: C15_16  and  C16_17 
REMARK    7  A    between atoms: C16_17  and  C17_18 
REMARK    8  A    between atoms: C17_18  and  N2_19 
REMARK    9  A    between atoms: C19_26  and  C20_27 
REMARK   10  A    between atoms: C20_27  and  C21_28 
REMARK   11  A    between atoms: C21_28  and  C22_29 
REMARK   12  A    between atoms: C22_29  and  N6_30 
REMARK       I    between atoms: N6_30  and  C23_32 
ROOT
HETATM    1  N1  UNL     1      21.524  47.146  44.637  1.00  0.00    -0.338 N 
HETATM    2  C12 UNL     1      21.968  46.228  45.652  1.00  0.00     0.129 C 
HETATM    3  C13 UNL     1      21.201  44.962  45.786  1.00  0.00     0.044 C 
HETATM    4  C14 UNL     1      21.073  44.060  44.641  1.00  0.00     0.079 C 
HETATM    5  N5  UNL     1      20.909  44.622  43.358  1.00  0.00    -0.405 N 
ATOM      6  H5  UNL     1      21.458  44.287  42.566  1.00  0.00     0.154 HD
HETATM    7  C19 UNL     1      19.967  45.659  43.198  1.00  0.00     0.170 C 
HETATM    8  C24 UNL     1      20.391  46.967  43.828  1.00  0.00     0.243 C 
HETATM    9  O1  UNL     1      19.638  47.916  43.577  1.00  0.00    -0.271 OA
ENDROOT
BRANCH   1  10
HETATM   10  C7  UNL     1      22.315  48.409  44.425  1.00  0.00     0.054 C 
HETATM   11  C8  UNL     1      21.310  49.458  44.861  1.00  0.00     0.044 C 
BRANCH  10  12
HETATM   12  C6  UNL     1      23.417  48.398  45.413  1.00  0.00     0.017 C 
BRANCH  12  13
HETATM   13  C5  UNL     1      23.399  49.047  46.689  1.00  0.00    -0.016 A 
HETATM   14  C4  UNL     1      23.287  48.408  47.895  1.00  0.00     0.013 A 
HETATM   15  C3  UNL     1      23.322  49.048  49.107  1.00  0.00     0.007 A 
HETATM   16  C2  UNL     1      23.478  50.409  49.195  1.00  0.00    -0.060 A 
HETATM   17  C1  UNL     1      23.518  51.096  50.511  1.00  0.00     0.048 C 
HETATM   18  C26 UNL     1      23.592  51.087  47.995  1.00  0.00     0.031 A 
HETATM   19  C25 UNL     1      23.554  50.437  46.782  1.00  0.00     0.044 A 
HETATM   20 CL1  UNL     1      23.579  51.496  45.385  1.00  0.00    -0.083 Cl
ENDBRANCH  12  13
ENDBRANCH  10  12
BRANCH  10  21
HETATM   21  C9  UNL     1      22.616  48.437  42.986  1.00  0.00     0.017 A 
HETATM   22  C10 UNL     1      23.340  47.195  42.361  1.00  0.00     0.008 A 
HETATM   23  C11 UNL     1      23.766  48.623  42.174  1.00  0.00     0.008 A 
ENDBRANCH  10  21
ENDBRANCH   1  10
BRANCH   7  24
HETATM   24  C20 UNL     1      18.563  45.359  43.589  1.00  0.00     0.036 C 
BRANCH  24  25
HETATM   25  C21 UNL     1      18.042  44.075  42.988  1.00  0.00     0.022 C 
BRANCH  25  26
HETATM   26  C22 UNL     1      17.452  44.239  41.622  1.00  0.00     0.122 C 
BRANCH  26  27
HETATM   27  N6  UNL     1      16.008  44.108  41.746  1.00  0.00    -0.365 N 
HETATM   28  C23 UNL     1      15.134  44.814  40.884  1.00  0.00     0.181 C 
HETATM   29  N7  UNL     1      14.092  45.419  41.313  1.00  0.00    -0.374 N 
HETATM   30  N8  UNL     1      15.437  44.843  39.497  1.00  0.00    -0.064 NA
ATOM     31  H72 UNL     1      13.874  45.398  42.309  1.00  0.00     0.158 HD
ATOM     32  H71 UNL     1      13.462  45.927  40.692  1.00  0.00     0.158 HD
ATOM     33  H6  UNL     1      15.620  43.498  42.465  1.00  0.00     0.162 HD
ENDBRANCH  26  27
ENDBRANCH  25  26
ENDBRANCH  24  25
ENDBRANCH   7  24
BRANCH   4  34
HETATM   34  C15 UNL     1      22.299  43.141  44.627  1.00  0.00     0.026 C 
BRANCH  34  35
HETATM   35  C16 UNL     1      23.439  43.755  43.861  1.00  0.00     0.022 C 
BRANCH  35  36
HETATM   36  C17 UNL     1      24.629  43.891  44.808  1.00  0.00     0.122 C 
BRANCH  36  37
HETATM   37  N2  UNL     1      25.378  45.087  44.533  1.00  0.00    -0.367 N 
HETATM   38  C18 UNL     1      26.640  45.205  44.474  1.00  0.00     0.196 C 
HETATM   39  N3  UNL     1      27.469  44.082  44.692  1.00  0.00    -0.067 NA
HETATM   40  N4  UNL     1      27.235  46.454  44.195  1.00  0.00    -0.067 NA
ATOM     41  H2  UNL     1      24.835  45.934  44.366  1.00  0.00     0.161 HD
ENDBRANCH  36  37
ENDBRANCH  35  36
ENDBRANCH  34  35
ENDBRANCH   4  34
TORSDOF 12
ENDMDL
MODEL 2
REMARK VINA RESULT: -8.803334941      2.978      7.790
REMARK  12 active torsions:
REMARK  status: ('A' for Active; 'I' for Inactive)
REMARK    1  A    between atoms: C5_5  and  C6_6 
REMARK    2  A    between atoms: C6_6  and  C7_7 
REMARK    3  A    between atoms: C7_7  and  C9_9 
REMARK    4  A    between atoms: C7_7  and  N1_12 
REMARK    5  A    between atoms: C14_15  and  C15_16 
REMARK    6  A    between atoms: C15_16  and  C16_17 
REMARK    7  A    between atoms: C16_17  and  C17_18 
REMARK    8  A    between atoms: C17_18  and  N2_19 
REMARK    9  A    between atoms: C19_26  and  C20_27 
REMARK   10  A    between atoms: C20_27  and  C21_28 
REMARK   11  A    between atoms: C21_28  and  C22_29 
REMARK   12  A    between atoms: C22_29  and  N6_30 
REMARK       I    between atoms: N6_30  and  C23_32 
ROOT
HETATM    1  N1  UNL     1      21.295  46.907  43.751  1.00  0.00    -0.338 N 
HETATM    2  C12 UNL     1      22.108  46.650  42.592  1.00  0.00     0.129 C 
HETATM    3  C13 UNL     1      23.214  47.607  42.329  1.00  0.00     0.044 C 
HETATM    4  C14 UNL     1      24.247  47.827  43.342  1.00  0.00     0.079 C 
HETATM    5  N5  UNL     1      23.864  47.852  44.699  1.00  0.00    -0.405 N 
ATOM      6  H5  UNL     1      24.389  47.330  45.401  1.00  0.00     0.154 HD
HETATM    7  C19 UNL     1      22.735  48.616  45.061  1.00  0.00     0.170 C 
HETATM    8  C24 UNL     1      21.425  48.022  44.595  1.00  0.00     0.243 C 
HETATM    9  O1  UNL     1      20.423  48.609  45.023  1.00  0.00    -0.271 OA
ENDROOT
BRANCH   1  10
HETATM   10  C7  UNL     1      20.207  45.924  44.090  1.00  0.00     0.054 C 
HETATM   11  C8  UNL     1      19.076  46.861  44.467  1.00  0.00     0.044 C 
BRANCH  10  12
HETATM   12  C6  UNL     1      19.834  45.246  42.829  1.00  0.00     0.017 C 
BRANCH  12  13
HETATM   13  C5  UNL     1      18.539  45.277  42.216  1.00  0.00    -0.016 A 
HETATM   14  C4  UNL     1      18.170  46.118  41.202  1.00  0.00     0.013 A 
HETATM   15  C3  UNL     1      16.939  46.096  40.598  1.00  0.00     0.007 A 
HETATM   16  C2  UNL     1      15.968  45.203  40.981  1.00  0.00    -0.060 A 
HETATM   17  C1  UNL     1      14.638  45.182  40.321  1.00  0.00     0.048 C 
HETATM   18  C26 UNL     1      16.308  44.339  42.006  1.00  0.00     0.031 A 
HETATM   19  C25 UNL     1      17.545  44.369  42.608  1.00  0.00     0.044 A 
HETATM   20 CL1  UNL     1      17.721  43.283  43.974  1.00  0.00    -0.083 Cl
ENDBRANCH  12  13
ENDBRANCH  10  12
BRANCH  10  21
HETATM   21  C9  UNL     1      20.732  45.142  45.219  1.00  0.00     0.017 A 
HETATM   22  C10 UNL     1      21.606  43.881  44.898  1.00  0.00     0.008 A 
HETATM   23  C11 UNL     1      20.439  43.901  45.842  1.00  0.00     0.008 A 
ENDBRANCH  10  21
ENDBRANCH   1  10
BRANCH   7  24
HETATM   24  C20 UNL     1      22.765  50.064  44.719  1.00  0.00     0.036 C 
BRANCH  24  25
HETATM   25  C21 UNL     1      23.429  50.910  45.780  1.00  0.00     0.022 C 
BRANCH  25  26
HETATM   26  C22 UNL     1      22.726  50.888  47.101  1.00  0.00     0.122 C 
BRANCH  26  27
HETATM   27  N6  UNL     1      23.741  50.963  48.141  1.00  0.00    -0.365 N 
HETATM   28  C23 UNL     1      23.539  50.356  49.405  1.00  0.00     0.181 C 
HETATM   29  N7  UNL     1      23.829  50.947  50.502  1.00  0.00    -0.374 N 
HETATM   30  N8  UNL     1      22.994  49.045  49.441  1.00  0.00    -0.064 NA
ATOM     31  H72 UNL     1      24.220  51.889  50.476  1.00  0.00     0.158 HD
ATOM     32  H71 UNL     1      23.683  50.510  51.412  1.00  0.00     0.158 HD
ATOM     33  H6  UNL     1      24.613  51.460  47.958  1.00  0.00     0.162 HD
ENDBRANCH  26  27
ENDBRANCH  25  26
ENDBRANCH  24  25
ENDBRANCH   7  24
BRANCH   4  34
HETATM   34  C15 UNL     1      25.328  46.758  43.151  1.00  0.00     0.026 C 
BRANCH  34  35
HETATM   35  C16 UNL     1      25.058  45.544  44.000  1.00  0.00     0.022 C 
BRANCH  35  36
HETATM   36  C17 UNL     1      26.397  44.888  44.329  1.00  0.00     0.122 C 
BRANCH  36  37
HETATM   37  N2  UNL     1      27.342  45.853  44.820  1.00  0.00    -0.367 N 
HETATM   38  C18 UNL     1      28.509  46.078  44.377  1.00  0.00     0.196 C 
HETATM   39  N3  UNL     1      29.007  45.338  43.281  1.00  0.00    -0.067 NA
HETATM   40  N4  UNL     1      29.328  47.063  44.969  1.00  0.00    -0.067 NA
ATOM     41  H2  UNL     1      27.041  46.420  45.613  1.00  0.00     0.161 HD
ENDBRANCH  36  37
ENDBRANCH  35  36
ENDBRANCH  34  35
ENDBRANCH   4  34
TORSDOF 12
ENDMDL
MODEL 3
REMARK VINA RESULT: -8.589670085      1.494      2.041
REMARK  12 active torsions:
REMARK  status: ('A' for Active; 'I' for Inactive)
REMARK    1  A    between atoms: C5_5  and  C6_6 
REMARK    2  A    between atoms: C6_6  and  C7_7 
REMARK    3  A    between atoms: C7_7  and  C9_9 
REMARK    4  A    between atoms: C7_7  and  N1_12 
REMARK    5  A    between atoms: C14_15  and  C15_16 
REMARK    6  A    between atoms: C15_16  and  C16_17 
REMARK    7  A    between atoms: C16_17  and  C17_18 
REMARK    8  A    between atoms: C17_18  and  N2_19 
REMARK    9  A    between atoms: C19_26  and  C20_27 
REMARK   10  A    between atoms: C20_27  and  C21_28 
REMARK   11  A    between atoms: C21_28  and  C22_29 
REMARK   12  A    between atoms: C22_29  and  N6_30 
REMARK       I    between atoms: N6_30  and  C23_32 
ROOT
HETATM    1  N1  UNL     1      20.612  46.624  44.479  1.00  0.00    -0.338 N 
HETATM    2  C12 UNL     1      21.030  45.984  45.697  1.00  0.00     0.129 C 
HETATM    3  C13 UNL     1      20.469  44.634  45.967  1.00  0.00     0.044 C 
HETATM    4  C14 UNL     1      20.677  43.551  45.005  1.00  0.00     0.079 C 
HETATM    5  N5  UNL     1      20.633  43.856  43.629  1.00  0.00    -0.405 N 
ATOM      6  H5  UNL     1      21.350  43.506  42.992  1.00  0.00     0.154 HD
HETATM    7  C19 UNL     1      19.572  44.655  43.156  1.00  0.00     0.170 C 
HETATM    8  C24 UNL     1      19.669  46.104  43.578  1.00  0.00     0.243 C 
HETATM    9  O1  UNL     1      18.821  46.840  43.056  1.00  0.00    -0.271 OA
ENDROOT
BRANCH   1  10
HETATM   10  C7  UNL     1      21.209  47.962  44.137  1.00  0.00     0.054 C 
HETATM   11  C8  UNL     1      19.962  48.820  44.037  1.00  0.00     0.044 C 
BRANCH  10  12
HETATM   12  C6  UNL     1      21.972  48.408  45.324  1.00  0.00     0.017 C 
BRANCH  12  13
HETATM   13  C5  UNL     1      22.626  49.674  45.468  1.00  0.00    -0.016 A 
HETATM   14  C4  UNL     1      22.685  50.643  44.503  1.00  0.00     0.013 A 
HETATM   15  C3  UNL     1      23.275  51.868  44.682  1.00  0.00     0.007 A 
HETATM   16  C2  UNL     1      23.862  52.214  45.874  1.00  0.00    -0.060 A 
HETATM   17  C1  UNL     1      24.496  53.543  46.062  1.00  0.00     0.048 C 
HETATM   18  C26 UNL     1      23.823  51.256  46.871  1.00  0.00     0.031 A 
HETATM   19  C25 UNL     1      23.230  50.028  46.683  1.00  0.00     0.044 A 
HETATM   20 CL1  UNL     1      23.411  48.916  48.026  1.00  0.00    -0.083 Cl
ENDBRANCH  12  13
ENDBRANCH  10  12
BRANCH  10  21
HETATM   21  C9  UNL     1      21.896  47.761  42.853  1.00  0.00     0.017 A 
HETATM   22  C10 UNL     1      22.736  46.451  42.665  1.00  0.00     0.008 A 
HETATM   23  C11 UNL     1      23.229  47.838  42.369  1.00  0.00     0.008 A 
ENDBRANCH  10  21
ENDBRANCH   1  10
BRANCH   7  24
HETATM   24  C20 UNL     1      18.192  44.162  43.410  1.00  0.00     0.036 C 
BRANCH  24  25
HETATM   25  C21 UNL     1      17.473  43.736  42.152  1.00  0.00     0.022 C 
BRANCH  25  26
HETATM   26  C22 UNL     1      17.250  44.847  41.173  1.00  0.00     0.122 C 
BRANCH  26  27
HETATM   27  N6  UNL     1      16.158  45.666  41.677  1.00  0.00    -0.365 N 
HETATM   28  C23 UNL     1      14.978  45.858  40.918  1.00  0.00     0.181 C 
HETATM   29  N7  UNL     1      14.425  47.005  40.791  1.00  0.00    -0.374 N 
HETATM   30  N8  UNL     1      14.399  44.729  40.280  1.00  0.00    -0.064 NA
ATOM     31  H72 UNL     1      14.841  47.815  41.250  1.00  0.00     0.158 HD
ATOM     32  H71 UNL     1      13.575  47.143  40.245  1.00  0.00     0.158 HD
ATOM     33  H6  UNL     1      16.243  46.109  42.593  1.00  0.00     0.162 HD
ENDBRANCH  26  27
ENDBRANCH  25  26
ENDBRANCH  24  25
ENDBRANCH   7  24
BRANCH   4  34
HETATM   34  C15 UNL     1      22.022  42.891  45.324  1.00  0.00     0.026 C 
BRANCH  34  35
HETATM   35  C16 UNL     1      23.111  43.391  44.414  1.00  0.00     0.022 C 
BRANCH  35  36
HETATM   36  C17 UNL     1      24.128  44.151  45.262  1.00  0.00     0.122 C 
BRANCH  36  37
HETATM   37  N2  UNL     1      25.239  44.596  44.467  1.00  0.00    -0.367 N 
HETATM   38  C18 UNL     1      25.708  45.773  44.393  1.00  0.00     0.196 C 
HETATM   39  N3  UNL     1      25.126  46.816  45.147  1.00  0.00    -0.067 NA
HETATM   40  N4  UNL     1      26.810  46.060  43.559  1.00  0.00    -0.067 NA
ATOM     41  H2  UNL     1      25.703  43.887  43.899  1.00  0.00     0.161 HD
ENDBRANCH  36  37
ENDBRANCH  35  36
ENDBRANCH  34  35
ENDBRANCH   4  34
TORSDOF 12
ENDMDL
MODEL 4
REMARK VINA RESULT: -8.443895666      3.233      7.936
REMARK  12 active torsions:
REMARK  status: ('A' for Active; 'I' for Inactive)
REMARK    1  A    between atoms: C5_5  and  C6_6 
REMARK    2  A    between atoms: C6_6  and  C7_7 
REMARK    3  A    between atoms: C7_7  and  C9_9 
REMARK    4  A    between atoms: C7_7  and  N1_12 
REMARK    5  A    between atoms: C14_15  and  C15_16 
REMARK    6  A    between atoms: C15_16  and  C16_17 
REMARK    7  A    between atoms: C16_17  and  C17_18 
REMARK    8  A    between atoms: C17_18  and  N2_19 
REMARK    9  A    between atoms: C19_26  and  C20_27 
REMARK   10  A    between atoms: C20_27  and  C21_28 
REMARK   11  A    between atoms: C21_28  and  C22_29 
REMARK   12  A    between atoms: C22_29  and  N6_30 
REMARK       I    between atoms: N6_30  and  C23_32 
ROOT
HETATM    1  N1  UNL     1      21.177  46.680  43.741  1.00  0.00    -0.338 N 
HETATM    2  C12 UNL     1      22.008  46.422  42.596  1.00  0.00     0.129 C 
HETATM    3  C13 UNL     1      23.057  47.431  42.293  1.00  0.00     0.044 C 
HETATM    4  C14 UNL     1      24.070  47.755  43.297  1.00  0.00     0.079 C 
HETATM    5  N5  UNL     1      23.680  47.815  44.651  1.00  0.00    -0.405 N 
ATOM      6  H5  UNL     1      24.233  47.356  45.376  1.00  0.00     0.154 HD
HETATM    7  C19 UNL     1      22.507  48.526  44.977  1.00  0.00     0.170 C 
HETATM    8  C24 UNL     1      21.236  47.836  44.536  1.00  0.00     0.243 C 
HETATM    9  O1  UNL     1      20.200  48.381  44.936  1.00  0.00    -0.271 OA
ENDROOT
BRANCH   1  10
HETATM   10  C7  UNL     1      20.147  45.650  44.120  1.00  0.00     0.054 C 
HETATM   11  C8  UNL     1      19.008  46.536  44.587  1.00  0.00     0.044 C 
BRANCH  10  12
HETATM   12  C6  UNL     1      19.722  44.986  42.867  1.00  0.00     0.017 C 
BRANCH  12  13
HETATM   13  C5  UNL     1      18.455  45.156  42.222  1.00  0.00    -0.016 A 
HETATM   14  C4  UNL     1      18.186  46.081  41.249  1.00  0.00     0.013 A 
HETATM   15  C3  UNL     1      16.977  46.192  40.611  1.00  0.00     0.007 A 
HETATM   16  C2  UNL     1      15.928  45.359  40.912  1.00  0.00    -0.060 A 
HETATM   17  C1  UNL     1      14.622  45.483  40.215  1.00  0.00     0.048 C 
HETATM   18  C26 UNL     1      16.165  44.414  41.894  1.00  0.00     0.031 A 
HETATM   19  C25 UNL     1      17.380  44.310  42.531  1.00  0.00     0.044 A 
HETATM   20 CL1  UNL     1      17.425  43.138  43.834  1.00  0.00    -0.083 Cl
ENDBRANCH  12  13
ENDBRANCH  10  12
BRANCH  10  21
HETATM   21  C9  UNL     1      20.767  44.864  45.196  1.00  0.00     0.017 A 
HETATM   22  C10 UNL     1      21.629  43.617  44.794  1.00  0.00     0.008 A 
HETATM   23  C11 UNL     1      20.538  43.612  45.826  1.00  0.00     0.008 A 
ENDBRANCH  10  21
ENDBRANCH   1  10
BRANCH   7  24
HETATM   24  C20 UNL     1      22.453  49.957  44.573  1.00  0.00     0.036 C 
BRANCH  24  25
HETATM   25  C21 UNL     1      23.542  50.793  45.203  1.00  0.00     0.022 C 
BRANCH  25  26
HETATM   26  C22 UNL     1      23.035  51.962  45.988  1.00  0.00     0.122 C 
BRANCH  26  27
HETATM   27  N6  UNL     1      23.239  53.156  45.182  1.00  0.00    -0.365 N 
HETATM   28  C23 UNL     1      24.204  54.127  45.545  1.00  0.00     0.181 C 
HETATM   29  N7  UNL     1      23.959  55.382  45.509  1.00  0.00    -0.374 N 
HETATM   30  N8  UNL     1      25.484  53.677  45.964  1.00  0.00    -0.064 NA
ATOM     31  H72 UNL     1      23.040  55.705  45.207  1.00  0.00     0.158 HD
ATOM     32  H71 UNL     1      24.654  56.081  45.770  1.00  0.00     0.158 HD
ATOM     33  H6  UNL     1      22.677  53.297  44.342  1.00  0.00     0.162 HD
ENDBRANCH  26  27
ENDBRANCH  25  26
ENDBRANCH  24  25
ENDBRANCH   7  24
BRANCH   4  34
HETATM   34  C15 UNL     1      25.213  46.744  43.155  1.00  0.00     0.026 C 
BRANCH  34  35
HETATM   35  C16 UNL     1      25.061  45.601  44.122  1.00  0.00     0.022 C 
BRANCH  35  36
HETATM   36  C17 UNL     1      26.428  44.943  44.298  1.00  0.00     0.122 C 
BRANCH  36  37
HETATM   37  N2  UNL     1      27.393  45.878  44.809  1.00  0.00    -0.367 N 
HETATM   38  C18 UNL     1      28.561  46.095  44.364  1.00  0.00     0.196 C 
HETATM   39  N3  UNL     1      29.039  45.376  43.245  1.00  0.00    -0.067 NA
HETATM   40  N4  UNL     1      29.401  47.050  44.977  1.00  0.00    -0.067 NA
ATOM     41  H2  UNL     1      27.107  46.429  45.618  1.00  0.00     0.161 HD
ENDBRANCH  36  37
ENDBRANCH  35  36
ENDBRANCH  34  35
ENDBRANCH   4  34
TORSDOF 12
ENDMDL
MODEL 5
REMARK VINA RESULT: -8.298007707      3.093      8.393
REMARK  12 active torsions:
REMARK  status: ('A' for Active; 'I' for Inactive)
REMARK    1  A    between atoms: C5_5  and  C6_6 
REMARK    2  A    between atoms: C6_6  and  C7_7 
REMARK    3  A    between atoms: C7_7  and  C9_9 
REMARK    4  A    between atoms: C7_7  and  N1_12 
REMARK    5  A    between atoms: C14_15  and  C15_16 
REMARK    6  A    between atoms: C15_16  and  C16_17 
REMARK    7  A    between atoms: C16_17  and  C17_18 
REMARK    8  A    between atoms: C17_18  and  N2_19 
REMARK    9  A    between atoms: C19_26  and  C20_27 
REMARK   10  A    between atoms: C20_27  and  C21_28 
REMARK   11  A    between atoms: C21_28  and  C22_29 
REMARK   12  A    between atoms: C22_29  and  N6_30 
REMARK       I    between atoms: N6_30  and  C23_32 
ROOT
HETATM    1  N1  UNL     1      21.237  46.037  43.991  1.00  0.00    -0.338 N 
HETATM    2  C12 UNL     1      21.243  46.896  45.145  1.00  0.00     0.129 C 
HETATM    3  C13 UNL     1      22.360  47.871  45.244  1.00  0.00     0.044 C 
HETATM    4  C14 UNL     1      22.574  48.848  44.175  1.00  0.00     0.079 C 
HETATM    5  N5  UNL     1      22.368  48.442  42.841  1.00  0.00    -0.405 N 
ATOM      6  H5  UNL     1      21.829  49.019  42.195  1.00  0.00     0.154 HD
HETATM    7  C19 UNL     1      22.926  47.216  42.422  1.00  0.00     0.170 C 
HETATM    8  C24 UNL     1      22.237  46.004  43.005  1.00  0.00     0.243 C 
HETATM    9  O1  UNL     1      22.628  44.927  42.540  1.00  0.00    -0.271 OA
ENDROOT
BRANCH   1  10
HETATM   10  C7  UNL     1      20.086  45.082  43.821  1.00  0.00     0.054 C 
HETATM   11  C8  UNL     1      19.010  45.775  44.635  1.00  0.00     0.044 C 
BRANCH  10  12
HETATM   12  C6  UNL     1      19.686  45.141  42.397  1.00  0.00     0.017 C 
BRANCH  12  13
HETATM   13  C5  UNL     1      18.356  45.354  41.912  1.00  0.00    -0.016 A 
HETATM   14  C4  UNL     1      17.973  46.383  41.094  1.00  0.00     0.013 A 
HETATM   15  C3  UNL     1      16.702  46.539  40.603  1.00  0.00     0.007 A 
HETATM   16  C2  UNL     1      15.702  45.648  40.906  1.00  0.00    -0.060 A 
HETATM   17  C1  UNL     1      14.329  45.821  40.369  1.00  0.00     0.048 C 
HETATM   18  C26 UNL     1      16.054  44.597  41.734  1.00  0.00     0.031 A 
HETATM   19  C25 UNL     1      17.332  44.449  42.224  1.00  0.00     0.044 A 
HETATM   20 CL1  UNL     1      17.530  43.129  43.361  1.00  0.00    -0.083 Cl
ENDBRANCH  12  13
ENDBRANCH  10  12
BRANCH  10  21
HETATM   21  C9  UNL     1      20.548  43.814  44.404  1.00  0.00     0.017 A 
HETATM   22  C10 UNL     1      20.176  43.512  45.897  1.00  0.00     0.008 A 
HETATM   23  C11 UNL     1      21.556  43.402  45.315  1.00  0.00     0.008 A 
ENDBRANCH  10  21
ENDBRANCH   1  10
BRANCH   7  24
HETATM   24  C20 UNL     1      24.399  47.062  42.572  1.00  0.00     0.036 C 
BRANCH  24  25
HETATM   25  C21 UNL     1      24.784  46.075  43.648  1.00  0.00     0.022 C 
BRANCH  25  26
HETATM   26  C22 UNL     1      25.968  46.495  44.463  1.00  0.00     0.122 C 
BRANCH  26  27
HETATM   27  N6  UNL     1      26.998  45.480  44.300  1.00  0.00    -0.365 N 
HETATM   28  C23 UNL     1      28.357  45.839  44.124  1.00  0.00     0.181 C 
HETATM   29  N7  UNL     1      29.104  45.281  43.249  1.00  0.00    -0.374 N 
HETATM   30  N8  UNL     1      28.895  46.857  44.956  1.00  0.00    -0.064 NA
ATOM     31  H72 UNL     1      28.717  44.550  42.652  1.00  0.00     0.158 HD
ATOM     32  H71 UNL     1      30.082  45.540  43.123  1.00  0.00     0.158 HD
ATOM     33  H6  UNL     1      26.737  44.494  44.312  1.00  0.00     0.162 HD
ENDBRANCH  26  27
ENDBRANCH  25  26
ENDBRANCH  24  25
ENDBRANCH   7  24
BRANCH   4  34
HETATM   34  C15 UNL     1      21.687  50.063  44.466  1.00  0.00     0.026 C 
BRANCH  34  35
HETATM   35  C16 UNL     1      22.508  51.303  44.695  1.00  0.00     0.022 C 
BRANCH  35  36
HETATM   36  C17 UNL     1      23.640  50.952  45.659  1.00  0.00     0.122 C 
BRANCH  36  37
HETATM   37  N2  UNL     1      23.234  51.133  47.025  1.00  0.00    -0.367 N 
HETATM   38  C18 UNL     1      23.433  50.340  47.996  1.00  0.00     0.196 C 
HETATM   39  N3  UNL     1      24.123  49.125  47.790  1.00  0.00    -0.067 NA
HETATM   40  N4  UNL     1      22.969  50.656  49.291  1.00  0.00    -0.067 NA
ATOM     41  H2  UNL     1      22.730  51.993  47.238  1.00  0.00     0.161 HD
ENDBRANCH  36  37
ENDBRANCH  35  36
ENDBRANCH  34  35
ENDBRANCH   4  34
TORSDOF 12
ENDMDL
