MODEL 1
REMARK VINA RESULT: -10.312688536      0.000      0.000
REMARK  14 active torsions:
REMARK  status: ('A' for Active; 'I' for Inactive)
REMARK    1  A    between atoms: C3_3  and  C4_4 
REMARK    2  A    between atoms: C4_4  and  C5_5 
REMARK    3  A    between atoms: C5_5  and  S1_6 
REMARK    4  A    between atoms: S1_6  and  C6_7 
REMARK    5  A    between atoms: C6_7  and  C7_8 
REMARK    6  A    between atoms: C14_22  and  C15_23 
REMARK    7  A    between atoms: C15_23  and  N4_24 
REMARK    8  A    between atoms: C15_23  and  N7_39 
REMARK    9  A    between atoms: N4_24  and  C16_25 
REMARK   10  A    between atoms: C16_25  and  C17_26 
REMARK   11  A    between atoms: C17_26  and  N5_27 
REMARK   12  A    between atoms: C18_29  and  C19_31 
REMARK   13  A    between atoms: C19_31  and  C20_32 
REMARK   14  A    between atoms: N7_39  and  N8_41 
ROOT
HETATM    1  C15 UNL     1      21.631  44.718  43.996  1.00  0.00     0.204 C 
ENDROOT
BRANCH   1   2
HETATM    2  C14 UNL     1      22.166  45.965  43.470  1.00  0.00     0.030 A 
HETATM    3  C2  UNL     1      21.803  47.236  43.882  1.00  0.00    -0.041 A 
HETATM    4  C1  UNL     1      20.655  47.392  44.794  1.00  0.00     0.050 C 
HETATM    5  C3  UNL     1      22.408  48.383  43.453  1.00  0.00    -0.051 A 
HETATM    6  C11 UNL     1      23.460  48.259  42.529  1.00  0.00     0.007 A 
HETATM    7  C12 UNL     1      23.854  47.036  42.084  1.00  0.00     0.002 A 
HETATM    8  C13 UNL     1      23.202  45.888  42.563  1.00  0.00     0.017 A 
BRANCH   5   9
HETATM    9  C4  UNL     1      22.141  49.769  43.857  1.00  0.00     0.049 C 
BRANCH   9  10
HETATM   10  C5  UNL     1      23.406  50.279  44.531  1.00  0.00     0.079 C 
BRANCH  10  11
HETATM   11  S1  UNL     1      23.045  50.729  46.242  1.00  0.00    -0.161 SA
BRANCH  11  12
HETATM   12  C6  UNL     1      23.430  49.292  47.278  1.00  0.00     0.150 C 
BRANCH  12  13
HETATM   13  C7  UNL     1      23.459  49.706  48.685  1.00  0.00     0.091 A 
HETATM   14  N1  UNL     1      22.790  48.835  49.539  1.00  0.00    -0.332 N 
HETATM   15  C8  UNL     1      22.772  49.117  50.858  1.00  0.00     0.101 A 
ATOM     16  H1  UNL     1      22.323  48.004  49.176  1.00  0.00     0.168 HD
HETATM   17  N2  UNL     1      22.134  48.305  51.651  1.00  0.00    -0.385 N 
HETATM   18  C9  UNL     1      23.372  50.208  51.410  1.00  0.00     0.065 A 
ATOM     19  H22 UNL     1      21.684  47.488  51.238  1.00  0.00     0.157 HD
ATOM     20  H21 UNL     1      22.120  48.517  52.648  1.00  0.00     0.157 HD
HETATM   21  C10 UNL     1      24.051  51.091  50.527  1.00  0.00     0.093 A 
HETATM   22  N3  UNL     1      24.034  50.753  49.226  1.00  0.00    -0.355 N 
ATOM     23  H3  UNL     1      24.524  51.381  48.589  1.00  0.00     0.166 HD
ENDBRANCH  12  13
ENDBRANCH  11  12
ENDBRANCH  10  11
ENDBRANCH   9  10
ENDBRANCH   5   9
ENDBRANCH   1   2
BRANCH   1  24
HETATM   24  N4  UNL     1      20.552  44.172  44.099  1.00  0.00    -0.400 NA
BRANCH  24  25
HETATM   25  C16 UNL     1      19.379  43.602  44.206  1.00  0.00     0.177 C 
BRANCH  25  26
HETATM   26  C17 UNL     1      18.031  44.145  44.088  1.00  0.00     0.180 C 
BRANCH  26  27
HETATM   27  N5  UNL     1      17.307  43.823  42.853  1.00  0.00    -0.376 N 
HETATM   28  C18 UNL     1      17.676  44.422  41.801  1.00  0.00     0.093 C 
HETATM   29  N6  UNL     1      18.732  45.368  41.818  1.00  0.00    -0.088 NA
ATOM     30  H5  UNL     1      16.543  43.147  42.843  1.00  0.00     0.160 HD
BRANCH  28  31
HETATM   31  C19 UNL     1      17.051  44.139  40.452  1.00  0.00     0.111 C 
BRANCH  31  32
HETATM   32  C20 UNL     1      15.950  45.156  40.366  1.00  0.00    -0.051 A 
HETATM   33  C21 UNL     1      16.286  46.410  39.823  1.00  0.00     0.009 A 
HETATM   34  C22 UNL     1      15.282  47.329  39.796  1.00  0.00     0.024 A 
HETATM   35  C23 UNL     1      14.025  47.065  40.258  1.00  0.00     0.034 A 
HETATM   36 CL1  UNL     1      12.814  48.324  40.170  1.00  0.00    -0.084 Cl
HETATM   37  C24 UNL     1      13.724  45.828  40.782  1.00  0.00     0.024 A 
HETATM   38  C25 UNL     1      14.718  44.855  40.834  1.00  0.00     0.009 A 
ENDBRANCH  31  32
ENDBRANCH  28  31
ENDBRANCH  26  27
ENDBRANCH  25  26
ENDBRANCH  24  25
ENDBRANCH   1  24
BRANCH   1  39
HETATM   39  N7  UNL     1      22.674  43.824  44.566  1.00  0.00    -0.259 N 
ATOM     40  H7  UNL     1      23.604  43.795  44.148  1.00  0.00     0.191 HD
BRANCH  39  41
HETATM   41  N8  UNL     1      22.387  43.034  45.659  1.00  0.00    -0.247 N 
HETATM   42  N9  UNL     1      21.972  41.838  45.644  1.00  0.00    -0.331 N 
ATOM     43  H92 UNL     1      21.842  41.432  44.717  1.00  0.00     0.178 HD
ATOM     44  H91 UNL     1      21.759  41.254  46.452  1.00  0.00     0.178 HD
ATOM     45  H8  UNL     1      22.522  43.458  46.576  1.00  0.00     0.207 HD
ENDBRANCH  39  41
ENDBRANCH   1  39
TORSDOF 14
ENDMDL
MODEL 2
REMARK VINA RESULT: -10.278863215      1.054      1.396
REMARK  14 active torsions:
REMARK  status: ('A' for Active; 'I' for Inactive)
REMARK    1  A    between atoms: C3_3  and  C4_4 
REMARK    2  A    between atoms: C4_4  and  C5_5 
REMARK    3  A    between atoms: C5_5  and  S1_6 
REMARK    4  A    between atoms: S1_6  and  C6_7 
REMARK    5  A    between atoms: C6_7  and  C7_8 
REMARK    6  A    between atoms: C14_22  and  C15_23 
REMARK    7  A    between atoms: C15_23  and  N4_24 
REMARK    8  A    between atoms: C15_23  and  N7_39 
REMARK    9  A    between atoms: N4_24  and  C16_25 
REMARK   10  A    between atoms: C16_25  and  C17_26 
REMARK   11  A    between atoms: C17_26  and  N5_27 
REMARK   12  A    between atoms: C18_29  and  C19_31 
REMARK   13  A    between atoms: C19_31  and  C20_32 
REMARK   14  A    between atoms: N7_39  and  N8_41 
ROOT
HETATM    1  C15 UNL     1      21.658  44.505  44.079  1.00  0.00     0.204 C 
ENDROOT
BRANCH   1   2
HETATM    2  C14 UNL     1      22.323  45.632  43.444  1.00  0.00     0.030 A 
HETATM    3  C2  UNL     1      22.514  46.881  44.011  1.00  0.00    -0.041 A 
HETATM    4  C1  UNL     1      21.847  47.197  45.287  1.00  0.00     0.050 C 
HETATM    5  C3  UNL     1      23.245  47.880  43.436  1.00  0.00    -0.051 A 
HETATM    6  C11 UNL     1      23.833  47.622  42.184  1.00  0.00     0.007 A 
HETATM    7  C12 UNL     1      23.672  46.416  41.577  1.00  0.00     0.002 A 
HETATM    8  C13 UNL     1      22.915  45.420  42.216  1.00  0.00     0.017 A 
BRANCH   5   9
HETATM    9  C4  UNL     1      23.554  49.215  43.964  1.00  0.00     0.049 C 
BRANCH   9  10
HETATM   10  C5  UNL     1      22.368  50.105  43.624  1.00  0.00     0.079 C 
BRANCH  10  11
HETATM   11  S1  UNL     1      21.898  51.075  45.074  1.00  0.00    -0.161 SA
BRANCH  11  12
HETATM   12  C6  UNL     1      23.413  51.438  46.002  1.00  0.00     0.150 C 
BRANCH  12  13
HETATM   13  C7  UNL     1      23.436  50.624  47.223  1.00  0.00     0.091 A 
HETATM   14  N1  UNL     1      23.700  51.353  48.377  1.00  0.00    -0.332 N 
HETATM   15  C8  UNL     1      23.726  50.700  49.558  1.00  0.00     0.101 A 
ATOM     16  H1  UNL     1      23.869  52.359  48.333  1.00  0.00     0.168 HD
HETATM   17  N2  UNL     1      23.986  51.386  50.633  1.00  0.00    -0.385 N 
HETATM   18  C9  UNL     1      23.510  49.362  49.690  1.00  0.00     0.065 A 
ATOM     19  H22 UNL     1      24.147  52.388  50.534  1.00  0.00     0.157 HD
ATOM     20  H21 UNL     1      24.006  50.892  51.525  1.00  0.00     0.157 HD
HETATM   21  C10 UNL     1      23.244  48.627  48.502  1.00  0.00     0.093 A 
HETATM   22  N3  UNL     1      23.228  49.337  47.361  1.00  0.00    -0.355 N 
ATOM     23  H3  UNL     1      23.033  48.815  46.506  1.00  0.00     0.166 HD
ENDBRANCH  12  13
ENDBRANCH  11  12
ENDBRANCH  10  11
ENDBRANCH   9  10
ENDBRANCH   5   9
ENDBRANCH   1   2
BRANCH   1  24
HETATM   24  N4  UNL     1      20.528  44.075  44.199  1.00  0.00    -0.400 NA
BRANCH  24  25
HETATM   25  C16 UNL     1      19.314  43.600  44.311  1.00  0.00     0.177 C 
BRANCH  25  26
HETATM   26  C17 UNL     1      18.013  44.233  44.128  1.00  0.00     0.180 C 
BRANCH  26  27
HETATM   27  N5  UNL     1      17.291  43.885  42.899  1.00  0.00    -0.376 N 
HETATM   28  C18 UNL     1      17.670  44.452  41.832  1.00  0.00     0.093 C 
HETATM   29  N6  UNL     1      18.736  45.385  41.828  1.00  0.00    -0.088 NA
ATOM     30  H5  UNL     1      16.519  43.218  42.904  1.00  0.00     0.160 HD
BRANCH  28  31
HETATM   31  C19 UNL     1      17.047  44.139  40.489  1.00  0.00     0.111 C 
BRANCH  31  32
HETATM   32  C20 UNL     1      15.934  45.141  40.388  1.00  0.00    -0.051 A 
HETATM   33  C21 UNL     1      16.256  46.392  39.830  1.00  0.00     0.009 A 
HETATM   34  C22 UNL     1      15.241  47.298  39.789  1.00  0.00     0.024 A 
HETATM   35  C23 UNL     1      13.985  47.024  40.252  1.00  0.00     0.034 A 
HETATM   36 CL1  UNL     1      12.759  48.267  40.145  1.00  0.00    -0.084 Cl
HETATM   37  C24 UNL     1      13.699  45.790  40.790  1.00  0.00     0.024 A 
HETATM   38  C25 UNL     1      14.704  44.830  40.856  1.00  0.00     0.009 A 
ENDBRANCH  31  32
ENDBRANCH  28  31
ENDBRANCH  26  27
ENDBRANCH  25  26
ENDBRANCH  24  25
ENDBRANCH   1  24
BRANCH   1  39
HETATM   39  N7  UNL     1      22.594  43.586  44.779  1.00  0.00    -0.259 N 
ATOM     40  H7  UNL     1      23.564  43.517  44.471  1.00  0.00     0.191 HD
BRANCH  39  41
HETATM   41  N8  UNL     1      22.155  42.829  45.844  1.00  0.00    -0.247 N 
HETATM   42  N9  UNL     1      21.895  41.591  45.839  1.00  0.00    -0.331 N 
ATOM     43  H92 UNL     1      22.030  41.119  44.945  1.00  0.00     0.178 HD
ATOM     44  H91 UNL     1      21.569  41.031  46.626  1.00  0.00     0.178 HD
ATOM     45  H8  UNL     1      22.025  43.319  46.729  1.00  0.00     0.207 HD
ENDBRANCH  39  41
ENDBRANCH   1  39
TORSDOF 14
ENDMDL
MODEL 3
REMARK VINA RESULT: -10.125582139      2.627      3.192
REMARK  14 active torsions:
REMARK  status: ('A' for Active; 'I' for Inactive)
REMARK    1  A    between atoms: C3_3  and  C4_4 
REMARK    2  A    between atoms: C4_4  and  C5_5 
REMARK    3  A    between atoms: C5_5  and  S1_6 
REMARK    4  A    between atoms: S1_6  and  C6_7 
REMARK    5  A    between atoms: C6_7  and  C7_8 
REMARK    6  A    between atoms: C14_22  and  C15_23 
REMARK    7  A    between atoms: C15_23  and  N4_24 
REMARK    8  A    between atoms: C15_23  and  N7_39 
REMARK    9  A    between atoms: N4_24  and  C16_25 
REMARK   10  A    between atoms: C16_25  and  C17_26 
REMARK   11  A    between atoms: C17_26  and  N5_27 
REMARK   12  A    between atoms: C18_29  and  C19_31 
REMARK   13  A    between atoms: C19_31  and  C20_32 
REMARK   14  A    between atoms: N7_39  and  N8_41 
ROOT
HETATM    1  C15 UNL     1      21.582  44.589  44.032  1.00  0.00     0.204 C 
ENDROOT
BRANCH   1   2
HETATM    2  C14 UNL     1      22.170  45.777  43.433  1.00  0.00     0.030 A 
HETATM    3  C2  UNL     1      21.989  47.077  43.873  1.00  0.00    -0.041 A 
HETATM    4  C1  UNL     1      20.984  47.345  44.918  1.00  0.00     0.050 C 
HETATM    5  C3  UNL     1      22.648  48.158  43.362  1.00  0.00    -0.051 A 
HETATM    6  C11 UNL     1      23.560  47.933  42.317  1.00  0.00     0.007 A 
HETATM    7  C12 UNL     1      23.772  46.678  41.839  1.00  0.00     0.002 A 
HETATM    8  C13 UNL     1      23.073  45.599  42.405  1.00  0.00     0.017 A 
BRANCH   5   9
HETATM    9  C4  UNL     1      22.573  49.563  43.782  1.00  0.00     0.049 C 
BRANCH   9  10
HETATM   10  C5  UNL     1      23.770  49.814  44.686  1.00  0.00     0.079 C 
BRANCH  10  11
HETATM   11  S1  UNL     1      23.266  50.816  46.102  1.00  0.00    -0.161 SA
BRANCH  11  12
HETATM   12  C6  UNL     1      22.326  52.229  45.465  1.00  0.00     0.150 C 
BRANCH  12  13
HETATM   13  C7  UNL     1      23.211  53.396  45.377  1.00  0.00     0.091 A 
HETATM   14  N1  UNL     1      24.476  53.179  45.913  1.00  0.00    -0.332 N 
HETATM   15  C8  UNL     1      25.374  54.185  45.867  1.00  0.00     0.101 A 
ATOM     16  H1  UNL     1      24.720  52.281  46.331  1.00  0.00     0.168 HD
HETATM   17  N2  UNL     1      26.553  53.981  46.381  1.00  0.00    -0.385 N 
HETATM   18  C9  UNL     1      25.117  55.408  45.325  1.00  0.00     0.065 A 
ATOM     19  H22 UNL     1      26.745  53.065  46.786  1.00  0.00     0.157 HD
ATOM     20  H21 UNL     1      27.231  54.741  46.345  1.00  0.00     0.157 HD
HETATM   21  C10 UNL     1      23.820  55.618  44.782  1.00  0.00     0.093 A 
HETATM   22  N3  UNL     1      22.974  54.575  44.857  1.00  0.00    -0.355 N 
ATOM     23  H3  UNL     1      22.043  54.719  44.465  1.00  0.00     0.166 HD
ENDBRANCH  12  13
ENDBRANCH  11  12
ENDBRANCH  10  11
ENDBRANCH   9  10
ENDBRANCH   5   9
ENDBRANCH   1   2
BRANCH   1  24
HETATM   24  N4  UNL     1      20.482  44.091  44.156  1.00  0.00    -0.400 NA
BRANCH  24  25
HETATM   25  C16 UNL     1      19.303  43.543  44.306  1.00  0.00     0.177 C 
BRANCH  25  26
HETATM   26  C17 UNL     1      17.960  44.093  44.161  1.00  0.00     0.180 C 
BRANCH  26  27
HETATM   27  N5  UNL     1      17.260  43.775  42.912  1.00  0.00    -0.376 N 
HETATM   28  C18 UNL     1      17.627  44.401  41.874  1.00  0.00     0.093 C 
HETATM   29  N6  UNL     1      18.659  45.371  41.920  1.00  0.00    -0.088 NA
ATOM     30  H5  UNL     1      16.513  43.081  42.881  1.00  0.00     0.160 HD
BRANCH  28  31
HETATM   31  C19 UNL     1      17.026  44.126  40.513  1.00  0.00     0.111 C 
BRANCH  31  32
HETATM   32  C20 UNL     1      15.925  45.142  40.415  1.00  0.00    -0.051 A 
HETATM   33  C21 UNL     1      16.263  46.391  39.860  1.00  0.00     0.009 A 
HETATM   34  C22 UNL     1      15.260  47.309  39.822  1.00  0.00     0.024 A 
HETATM   35  C23 UNL     1      14.001  47.050  40.284  1.00  0.00     0.034 A 
HETATM   36 CL1  UNL     1      12.791  48.309  40.181  1.00  0.00    -0.084 Cl
HETATM   37  C24 UNL     1      13.699  45.818  40.819  1.00  0.00     0.024 A 
HETATM   38  C25 UNL     1      14.692  44.845  40.882  1.00  0.00     0.009 A 
ENDBRANCH  31  32
ENDBRANCH  28  31
ENDBRANCH  26  27
ENDBRANCH  25  26
ENDBRANCH  24  25
ENDBRANCH   1  24
BRANCH   1  39
HETATM   39  N7  UNL     1      22.584  43.696  44.674  1.00  0.00    -0.259 N 
ATOM     40  H7  UNL     1      23.538  43.660  44.314  1.00  0.00     0.191 HD
BRANCH  39  41
HETATM   41  N8  UNL     1      22.226  42.917  45.753  1.00  0.00    -0.247 N 
HETATM   42  N9  UNL     1      21.954  41.681  45.741  1.00  0.00    -0.331 N 
ATOM     43  H92 UNL     1      22.010  41.229  44.828  1.00  0.00     0.178 HD
ATOM     44  H91 UNL     1      21.689  41.105  46.539  1.00  0.00     0.178 HD
ATOM     45  H8  UNL     1      22.175  43.386  46.657  1.00  0.00     0.207 HD
ENDBRANCH  39  41
ENDBRANCH   1  39
TORSDOF 14
ENDMDL
MODEL 4
REMARK VINA RESULT: -10.109499135      2.651      3.361
REMARK  14 active torsions:
REMARK  status: ('A' for Active; 'I' for Inactive)
REMARK    1  A    between atoms: C3_3  and  C4_4 
REMARK    2  A    between atoms: C4_4  and  C5_5 
REMARK    3  A    between atoms: C5_5  and  S1_6 
REMARK    4  A    between atoms: S1_6  and  C6_7 
REMARK    5  A    between atoms: C6_7  and  C7_8 
REMARK    6  A    between atoms: C14_22  and  C15_23 
REMARK    7  A    between atoms: C15_23  and  N4_24 
REMARK    8  A    between atoms: C15_23  and  N7_39 
REMARK    9  A    between atoms: N4_24  and  C16_25 
REMARK   10  A    between atoms: C16_25  and  C17_26 
REMARK   11  A    between atoms: C17_26  and  N5_27 
REMARK   12  A    between atoms: C18_29  and  C19_31 
REMARK   13  A    between atoms: C19_31  and  C20_32 
REMARK   14  A    between atoms: N7_39  and  N8_41 
ROOT
HETATM    1  C15 UNL     1      21.573  44.544  44.041  1.00  0.00     0.204 C 
ENDROOT
BRANCH   1   2
HETATM    2  C14 UNL     1      22.180  45.704  43.406  1.00  0.00     0.030 A 
HETATM    3  C2  UNL     1      22.009  47.020  43.799  1.00  0.00    -0.041 A 
HETATM    4  C1  UNL     1      20.995  47.336  44.822  1.00  0.00     0.050 C 
HETATM    5  C3  UNL     1      22.685  48.076  43.258  1.00  0.00    -0.051 A 
HETATM    6  C11 UNL     1      23.607  47.803  42.231  1.00  0.00     0.007 A 
HETATM    7  C12 UNL     1      23.810  46.530  41.801  1.00  0.00     0.002 A 
HETATM    8  C13 UNL     1      23.093  45.480  42.396  1.00  0.00     0.017 A 
BRANCH   5   9
HETATM    9  C4  UNL     1      22.621  49.495  43.627  1.00  0.00     0.049 C 
BRANCH   9  10
HETATM   10  C5  UNL     1      23.746  49.740  44.622  1.00  0.00     0.079 C 
BRANCH  10  11
HETATM   11  S1  UNL     1      23.119  50.676  46.033  1.00  0.00    -0.161 SA
BRANCH  11  12
HETATM   12  C6  UNL     1      22.512  52.266  45.408  1.00  0.00     0.150 C 
BRANCH  12  13
HETATM   13  C7  UNL     1      23.598  53.251  45.466  1.00  0.00     0.091 A 
HETATM   14  N1  UNL     1      23.238  54.509  44.993  1.00  0.00    -0.332 N 
HETATM   15  C8  UNL     1      24.161  55.493  45.019  1.00  0.00     0.101 A 
ATOM     16  H1  UNL     1      22.298  54.683  44.635  1.00  0.00     0.168 HD
HETATM   17  N2  UNL     1      23.821  56.664  44.563  1.00  0.00    -0.385 N 
HETATM   18  C9  UNL     1      25.431  55.331  45.481  1.00  0.00     0.065 A 
ATOM     19  H22 UNL     1      22.870  56.786  44.216  1.00  0.00     0.157 HD
ATOM     20  H21 UNL     1      24.519  57.408  44.583  1.00  0.00     0.157 HD
HETATM   21  C10 UNL     1      25.788  54.041  45.961  1.00  0.00     0.093 A 
HETATM   22  N3  UNL     1      24.823  53.106  45.910  1.00  0.00    -0.355 N 
ATOM     23  H3  UNL     1      25.072  52.179  46.257  1.00  0.00     0.166 HD
ENDBRANCH  12  13
ENDBRANCH  11  12
ENDBRANCH  10  11
ENDBRANCH   9  10
ENDBRANCH   5   9
ENDBRANCH   1   2
BRANCH   1  24
HETATM   24  N4  UNL     1      20.467  44.057  44.160  1.00  0.00    -0.400 NA
BRANCH  24  25
HETATM   25  C16 UNL     1      19.267  43.552  44.295  1.00  0.00     0.177 C 
BRANCH  25  26
HETATM   26  C17 UNL     1      17.947  44.149  44.132  1.00  0.00     0.180 C 
BRANCH  26  27
HETATM   27  N5  UNL     1      17.237  43.822  42.891  1.00  0.00    -0.376 N 
HETATM   28  C18 UNL     1      17.626  44.406  41.837  1.00  0.00     0.093 C 
HETATM   29  N6  UNL     1      18.692  45.340  41.858  1.00  0.00    -0.088 NA
ATOM     30  H5  UNL     1      16.465  43.154  42.878  1.00  0.00     0.160 HD
BRANCH  28  31
HETATM   31  C19 UNL     1      17.015  44.116  40.483  1.00  0.00     0.111 C 
BRANCH  31  32
HETATM   32  C20 UNL     1      15.908  45.124  40.385  1.00  0.00    -0.051 A 
HETATM   33  C21 UNL     1      16.231  46.368  39.811  1.00  0.00     0.009 A 
HETATM   34  C22 UNL     1      15.222  47.280  39.773  1.00  0.00     0.024 A 
HETATM   35  C23 UNL     1      13.970  47.019  40.253  1.00  0.00     0.034 A 
HETATM   36 CL1  UNL     1      12.751  48.269  40.149  1.00  0.00    -0.084 Cl
HETATM   37  C24 UNL     1      13.682  45.792  40.807  1.00  0.00     0.024 A 
HETATM   38  C25 UNL     1      14.682  44.826  40.871  1.00  0.00     0.009 A 
ENDBRANCH  31  32
ENDBRANCH  28  31
ENDBRANCH  26  27
ENDBRANCH  25  26
ENDBRANCH  24  25
ENDBRANCH   1  24
BRANCH   1  39
HETATM   39  N7  UNL     1      22.555  43.673  44.740  1.00  0.00    -0.259 N 
ATOM     40  H7  UNL     1      23.529  43.662  44.440  1.00  0.00     0.191 HD
BRANCH  39  41
HETATM   41  N8  UNL     1      22.150  42.880  45.793  1.00  0.00    -0.247 N 
HETATM   42  N9  UNL     1      21.975  41.627  45.777  1.00  0.00    -0.331 N 
ATOM     43  H92 UNL     1      22.157  41.171  44.882  1.00  0.00     0.178 HD
ATOM     44  H91 UNL     1      21.676  41.041  46.555  1.00  0.00     0.178 HD
ATOM     45  H8  UNL     1      21.973  43.354  46.678  1.00  0.00     0.207 HD
ENDBRANCH  39  41
ENDBRANCH   1  39
TORSDOF 14
ENDMDL
MODEL 5
REMARK VINA RESULT: -9.481960690      1.293      1.580
REMARK  14 active torsions:
REMARK  status: ('A' for Active; 'I' for Inactive)
REMARK    1  A    between atoms: C3_3  and  C4_4 
REMARK    2  A    between atoms: C4_4  and  C5_5 
REMARK    3  A    between atoms: C5_5  and  S1_6 
REMARK    4  A    between atoms: S1_6  and  C6_7 
REMARK    5  A    between atoms: C6_7  and  C7_8 
REMARK    6  A    between atoms: C14_22  and  C15_23 
REMARK    7  A    between atoms: C15_23  and  N4_24 
REMARK    8  A    between atoms: C15_23  and  N7_39 
REMARK    9  A    between atoms: N4_24  and  C16_25 
REMARK   10  A    between atoms: C16_25  and  C17_26 
REMARK   11  A    between atoms: C17_26  and  N5_27 
REMARK   12  A    between atoms: C18_29  and  C19_31 
REMARK   13  A    between atoms: C19_31  and  C20_32 
REMARK   14  A    between atoms: N7_39  and  N8_41 
ROOT
HETATM    1  C15 UNL     1      21.587  44.570  44.172  1.00  0.00     0.204 C 
ENDROOT
BRANCH   1   2
HETATM    2  C14 UNL     1      22.175  45.688  43.450  1.00  0.00     0.030 A 
HETATM    3  C2  UNL     1      22.116  47.017  43.834  1.00  0.00    -0.041 A 
HETATM    4  C1  UNL     1      21.241  47.399  44.957  1.00  0.00     0.050 C 
HETATM    5  C3  UNL     1      22.778  48.028  43.199  1.00  0.00    -0.051 A 
HETATM    6  C11 UNL     1      23.563  47.694  42.081  1.00  0.00     0.007 A 
HETATM    7  C12 UNL     1      23.653  46.406  41.656  1.00  0.00     0.002 A 
HETATM    8  C13 UNL     1      22.956  45.403  42.349  1.00  0.00     0.017 A 
BRANCH   5   9
HETATM    9  C4  UNL     1      22.828  49.454  43.545  1.00  0.00     0.049 C 
BRANCH   9  10
HETATM   10  C5  UNL     1      21.422  49.850  43.971  1.00  0.00     0.079 C 
BRANCH  10  11
HETATM   11  S1  UNL     1      21.464  51.459  44.791  1.00  0.00    -0.161 SA
BRANCH  11  12
HETATM   12  C6  UNL     1      23.130  51.684  45.469  1.00  0.00     0.150 C 
BRANCH  12  13
HETATM   13  C7  UNL     1      23.263  50.887  46.693  1.00  0.00     0.091 A 
HETATM   14  N1  UNL     1      23.754  49.604  46.474  1.00  0.00    -0.332 N 
HETATM   15  C8  UNL     1      23.931  48.793  47.538  1.00  0.00     0.101 A 
ATOM     16  H1  UNL     1      23.975  49.283  45.531  1.00  0.00     0.168 HD
HETATM   17  N2  UNL     1      24.378  47.590  47.325  1.00  0.00    -0.385 N 
HETATM   18  C9  UNL     1      23.656  49.156  48.822  1.00  0.00     0.065 A 
ATOM     19  H22 UNL     1      24.584  47.318  46.364  1.00  0.00     0.157 HD
ATOM     20  H21 UNL     1      24.512  46.977  48.130  1.00  0.00     0.157 HD
HETATM   21  C10 UNL     1      23.154  50.469  49.033  1.00  0.00     0.093 A 
HETATM   22  N3  UNL     1      23.004  51.226  47.932  1.00  0.00    -0.355 N 
ATOM     23  H3  UNL     1      22.647  52.171  48.078  1.00  0.00     0.166 HD
ENDBRANCH  12  13
ENDBRANCH  11  12
ENDBRANCH  10  11
ENDBRANCH   9  10
ENDBRANCH   5   9
ENDBRANCH   1   2
BRANCH   1  24
HETATM   24  N4  UNL     1      20.499  44.044  44.287  1.00  0.00    -0.400 NA
BRANCH  24  25
HETATM   25  C16 UNL     1      19.322  43.482  44.391  1.00  0.00     0.177 C 
BRANCH  25  26
HETATM   26  C17 UNL     1      17.978  44.024  44.222  1.00  0.00     0.180 C 
BRANCH  26  27
HETATM   27  N5  UNL     1      17.301  43.697  42.963  1.00  0.00    -0.376 N 
HETATM   28  C18 UNL     1      17.636  44.366  41.941  1.00  0.00     0.093 C 
HETATM   29  N6  UNL     1      18.612  45.391  42.015  1.00  0.00    -0.088 NA
ATOM     30  H5  UNL     1      16.594  42.963  42.912  1.00  0.00     0.160 HD
BRANCH  28  31
HETATM   31  C19 UNL     1      17.055  44.090  40.571  1.00  0.00     0.111 C 
BRANCH  31  32
HETATM   32  C20 UNL     1      15.962  45.112  40.453  1.00  0.00    -0.051 A 
HETATM   33  C21 UNL     1      16.315  46.359  39.903  1.00  0.00     0.009 A 
HETATM   34  C22 UNL     1      15.318  47.282  39.846  1.00  0.00     0.024 A 
HETATM   35  C23 UNL     1      14.049  47.030  40.285  1.00  0.00     0.034 A 
HETATM   36 CL1  UNL     1      12.848  48.294  40.159  1.00  0.00    -0.084 Cl
HETATM   37  C24 UNL     1      13.731  45.800  40.816  1.00  0.00     0.024 A 
HETATM   38  C25 UNL     1      14.718  44.822  40.898  1.00  0.00     0.009 A 
ENDBRANCH  31  32
ENDBRANCH  28  31
ENDBRANCH  26  27
ENDBRANCH  25  26
ENDBRANCH  24  25
ENDBRANCH   1  24
BRANCH   1  39
HETATM   39  N7  UNL     1      22.567  43.825  45.006  1.00  0.00    -0.259 N 
ATOM     40  H7  UNL     1      23.560  44.053  44.950  1.00  0.00     0.191 HD
BRANCH  39  41
HETATM   41  N8  UNL     1      22.137  42.826  45.853  1.00  0.00    -0.247 N 
HETATM   42  N9  UNL     1      21.939  41.612  45.558  1.00  0.00    -0.331 N 
ATOM     43  H92 UNL     1      22.121  41.363  44.585  1.00  0.00     0.178 HD
ATOM     44  H91 UNL     1      21.621  40.874  46.185  1.00  0.00     0.178 HD
ATOM     45  H8  UNL     1      21.960  43.095  46.821  1.00  0.00     0.207 HD
ENDBRANCH  39  41
ENDBRANCH   1  39
TORSDOF 14
ENDMDL
