MODEL 1
REMARK VINA RESULT: -9.719289364      0.000      0.000
REMARK  15 active torsions:
REMARK  status: ('A' for Active; 'I' for Inactive)
REMARK    1  A    between atoms: C2_2  and  C3_3 
REMARK    2  A    between atoms: C3_3  and  N1_4 
REMARK       I    between atoms: C4_6  and  N3_8 
REMARK    3  A    between atoms: N3_8  and  C5_10 
REMARK    4  A    between atoms: C5_10  and  C6_11 
REMARK    5  A    between atoms: C6_11  and  C7_12 
REMARK    6  A    between atoms: C7_12  and  N4_13 
REMARK    7  A    between atoms: C8_15  and  N5_17 
REMARK    8  A    between atoms: N5_17  and  C10_19 
REMARK    9  A    between atoms: C10_19  and  C11_20 
REMARK   10  A    between atoms: C11_20  and  N6_21 
REMARK   11  A    between atoms: N7_24  and  C14_25 
REMARK   12  A    between atoms: C14_25  and  C15_26 
REMARK   13  A    between atoms: C15_26  and  C16_27 
REMARK   14  A    between atoms: C16_27  and  N8_28 
REMARK   15  A    between atoms: N8_28  and  C17_30 
ROOT
HETATM    1  N6  UNL     1      22.973  44.508  44.699  1.00  0.00    -0.388 N 
HETATM    2  C12 UNL     1      22.198  45.655  44.829  1.00  0.00     0.152 C 
HETATM    3  C13 UNL     1      20.833  45.246  45.414  1.00  0.00     0.292 C 
HETATM    4  N7  UNL     1      20.452  44.009  44.753  1.00  0.00     0.091 N 
HETATM    5  C24 UNL     1      21.229  42.970  45.437  1.00  0.00     0.292 C 
HETATM    6  C25 UNL     1      22.673  43.367  45.484  1.00  0.00     0.152 C 
ENDROOT
BRANCH   1   7
HETATM    7  C11 UNL     1      24.223  44.506  44.054  1.00  0.00     0.077 C 
BRANCH   7   8
HETATM    8  C10 UNL     1      25.026  45.752  44.089  1.00  0.00     0.165 C 
BRANCH   8   9
HETATM    9  N5  UNL     1      25.150  46.452  42.840  1.00  0.00    -0.376 N 
ATOM     10  H5  UNL     1      26.050  46.821  42.535  1.00  0.00     0.161 HD
BRANCH   9  11
HETATM   11  C8  UNL     1      23.997  46.617  42.046  1.00  0.00     0.069 C 
HETATM   12  N4  UNL     1      23.355  47.744  42.204  1.00  0.00    -0.380 N 
ATOM     13  H4  UNL     1      22.511  47.916  41.657  1.00  0.00     0.160 HD
HETATM   14  C9  UNL     1      23.478  45.649  41.091  1.00  0.00     0.088 C 
BRANCH  12  15
HETATM   15  C7  UNL     1      23.816  48.764  43.142  1.00  0.00     0.122 C 
BRANCH  15  16
HETATM   16  C6  UNL     1      22.692  49.675  43.514  1.00  0.00     0.039 C 
BRANCH  16  17
HETATM   17  C5  UNL     1      22.867  50.280  44.880  1.00  0.00     0.123 C 
BRANCH  17  18
HETATM   18  N3  UNL     1      22.451  49.307  45.850  1.00  0.00    -0.365 N 
HETATM   19  C4  UNL     1      23.265  48.921  46.947  1.00  0.00     0.183 C 
HETATM   20  N1  UNL     1      23.108  49.452  48.105  1.00  0.00    -0.365 N 
HETATM   21  N2  UNL     1      24.287  47.916  46.774  1.00  0.00    -0.064 NA
ATOM     22  H1  UNL     1      22.391  50.165  48.249  1.00  0.00     0.162 HD
ATOM     23  H3  UNL     1      21.533  48.875  45.746  1.00  0.00     0.162 HD
BRANCH  20  24
HETATM   24  C3  UNL     1      23.949  49.036  49.204  1.00  0.00     0.122 C 
BRANCH  24  25
HETATM   25  C2  UNL     1      23.320  49.555  50.492  1.00  0.00     0.015 C 
HETATM   26  C1  UNL     1      23.851  50.909  50.849  1.00  0.00     0.006 C 
ENDBRANCH  24  25
ENDBRANCH  20  24
ENDBRANCH  17  18
ENDBRANCH  16  17
ENDBRANCH  15  16
ENDBRANCH  12  15
ENDBRANCH   9  11
ENDBRANCH   8   9
ENDBRANCH   7   8
ENDBRANCH   1   7
BRANCH   4  27
HETATM   27  C14 UNL     1      19.062  43.758  44.688  1.00  0.00     0.277 C 
BRANCH  27  28
HETATM   28  C15 UNL     1      18.373  44.767  43.781  1.00  0.00     0.074 C 
BRANCH  28  29
HETATM   29  C16 UNL     1      18.869  44.627  42.362  1.00  0.00     0.064 C 
BRANCH  29  30
HETATM   30  N8  UNL     1      17.872  44.398  41.425  1.00  0.00    -0.354 N 
ATOM     31  H8  UNL     1      18.268  43.981  40.582  1.00  0.00     0.166 HD
BRANCH  30  32
HETATM   32  C17 UNL     1      16.641  44.546  41.298  1.00  0.00     0.132 A 
HETATM   33  N9  UNL     1      15.595  43.759  41.555  1.00  0.00    -0.284 N 
HETATM   34  N10 UNL     1      14.492  44.394  41.222  1.00  0.00    -0.298 N 
ATOM     35  H9  UNL     1      15.643  42.818  41.946  1.00  0.00     0.188 HD
HETATM   36  C18 UNL     1      14.765  45.610  40.741  1.00  0.00     0.062 A 
ATOM     37  H10 UNL     1      13.552  44.009  41.318  1.00  0.00     0.187 HD
HETATM   38  C19 UNL     1      13.958  46.649  40.260  1.00  0.00     0.033 A 
HETATM   39  C23 UNL     1      16.121  45.744  40.773  1.00  0.00     0.039 A 
HETATM   40  C20 UNL     1      14.553  47.811  39.820  1.00  0.00     0.026 A 
HETATM   41  C21 UNL     1      15.937  47.958  39.849  1.00  0.00     0.035 A 
HETATM   42 CL1  UNL     1      16.715  49.417  39.296  1.00  0.00    -0.084 Cl
HETATM   43  C22 UNL     1      16.706  46.921  40.326  1.00  0.00     0.041 A 
ENDBRANCH  30  32
ENDBRANCH  29  30
ENDBRANCH  28  29
ENDBRANCH  27  28
ENDBRANCH   4  27
TORSDOF 15
ENDMDL
MODEL 2
REMARK VINA RESULT: -9.559412133      0.933      1.372
REMARK  15 active torsions:
REMARK  status: ('A' for Active; 'I' for Inactive)
REMARK    1  A    between atoms: C2_2  and  C3_3 
REMARK    2  A    between atoms: C3_3  and  N1_4 
REMARK       I    between atoms: C4_6  and  N3_8 
REMARK    3  A    between atoms: N3_8  and  C5_10 
REMARK    4  A    between atoms: C5_10  and  C6_11 
REMARK    5  A    between atoms: C6_11  and  C7_12 
REMARK    6  A    between atoms: C7_12  and  N4_13 
REMARK    7  A    between atoms: C8_15  and  N5_17 
REMARK    8  A    between atoms: N5_17  and  C10_19 
REMARK    9  A    between atoms: C10_19  and  C11_20 
REMARK   10  A    between atoms: C11_20  and  N6_21 
REMARK   11  A    between atoms: N7_24  and  C14_25 
REMARK   12  A    between atoms: C14_25  and  C15_26 
REMARK   13  A    between atoms: C15_26  and  C16_27 
REMARK   14  A    between atoms: C16_27  and  N8_28 
REMARK   15  A    between atoms: N8_28  and  C17_30 
ROOT
HETATM    1  N6  UNL     1      22.546  44.034  44.568  1.00  0.00    -0.388 N 
HETATM    2  C12 UNL     1      21.921  45.243  44.290  1.00  0.00     0.152 C 
HETATM    3  C13 UNL     1      20.513  45.209  44.916  1.00  0.00     0.292 C 
HETATM    4  N7  UNL     1      19.982  43.879  44.671  1.00  0.00     0.091 N 
HETATM    5  C24 UNL     1      20.621  43.033  45.683  1.00  0.00     0.292 C 
HETATM    6  C25 UNL     1      22.103  43.251  45.663  1.00  0.00     0.152 C 
ENDROOT
BRANCH   1   7
HETATM    7  C11 UNL     1      23.788  43.676  44.011  1.00  0.00     0.077 C 
BRANCH   7   8
HETATM    8  C10 UNL     1      25.017  44.116  44.713  1.00  0.00     0.165 C 
BRANCH   8   9
HETATM    9  N5  UNL     1      25.183  45.536  44.855  1.00  0.00    -0.376 N 
ATOM     10  H5  UNL     1      24.641  46.058  45.543  1.00  0.00     0.161 HD
BRANCH   9  11
HETATM   11  C8  UNL     1      26.112  46.190  44.022  1.00  0.00     0.069 C 
HETATM   12  N4  UNL     1      25.605  47.006  43.137  1.00  0.00    -0.380 N 
ATOM     13  H4  UNL     1      26.231  47.504  42.504  1.00  0.00     0.160 HD
HETATM   14  C9  UNL     1      27.558  46.024  44.068  1.00  0.00     0.088 C 
BRANCH  12  15
HETATM   15  C7  UNL     1      24.165  47.224  43.031  1.00  0.00     0.122 C 
BRANCH  15  16
HETATM   16  C6  UNL     1      23.870  48.677  42.842  1.00  0.00     0.039 C 
BRANCH  16  17
HETATM   17  C5  UNL     1      23.922  49.448  44.133  1.00  0.00     0.123 C 
BRANCH  17  18
HETATM   18  N3  UNL     1      23.163  48.721  45.111  1.00  0.00    -0.365 N 
HETATM   19  C4  UNL     1      23.553  48.633  46.474  1.00  0.00     0.183 C 
HETATM   20  N1  UNL     1      23.052  49.420  47.355  1.00  0.00    -0.365 N 
HETATM   21  N2  UNL     1      24.523  47.648  46.888  1.00  0.00    -0.064 NA
ATOM     22  H1  UNL     1      22.364  50.123  47.084  1.00  0.00     0.162 HD
ATOM     23  H3  UNL     1      22.309  48.249  44.815  1.00  0.00     0.162 HD
BRANCH  20  24
HETATM   24  C3  UNL     1      23.465  49.303  48.735  1.00  0.00     0.122 C 
BRANCH  24  25
HETATM   25  C2  UNL     1      23.459  50.703  49.340  1.00  0.00     0.015 C 
HETATM   26  C1  UNL     1      23.820  50.668  50.794  1.00  0.00     0.006 C 
ENDBRANCH  24  25
ENDBRANCH  20  24
ENDBRANCH  17  18
ENDBRANCH  16  17
ENDBRANCH  15  16
ENDBRANCH  12  15
ENDBRANCH   9  11
ENDBRANCH   8   9
ENDBRANCH   7   8
ENDBRANCH   1   7
BRANCH   4  27
HETATM   27  C14 UNL     1      18.572  43.786  44.629  1.00  0.00     0.277 C 
BRANCH  27  28
HETATM   28  C15 UNL     1      18.005  44.658  43.518  1.00  0.00     0.074 C 
BRANCH  28  29
HETATM   29  C16 UNL     1      18.427  44.133  42.168  1.00  0.00     0.064 C 
BRANCH  29  30
HETATM   30  N8  UNL     1      17.422  44.130  41.212  1.00  0.00    -0.354 N 
ATOM     31  H8  UNL     1      17.773  43.758  40.329  1.00  0.00     0.166 HD
BRANCH  30  32
HETATM   32  C17 UNL     1      16.220  44.443  41.103  1.00  0.00     0.132 A 
HETATM   33  N9  UNL     1      15.081  43.786  41.329  1.00  0.00    -0.284 N 
HETATM   34  N10 UNL     1      14.069  44.575  41.036  1.00  0.00    -0.298 N 
ATOM     35  H9  UNL     1      15.007  42.828  41.672  1.00  0.00     0.188 HD
HETATM   36  C18 UNL     1      14.498  45.768  40.614  1.00  0.00     0.062 A 
ATOM     37  H10 UNL     1      13.088  44.310  41.121  1.00  0.00     0.187 HD
HETATM   38  C19 UNL     1      13.831  46.925  40.192  1.00  0.00     0.033 A 
HETATM   39  C23 UNL     1      15.859  45.723  40.642  1.00  0.00     0.039 A 
HETATM   40  C20 UNL     1      14.571  48.021  39.806  1.00  0.00     0.026 A 
HETATM   41  C21 UNL     1      15.963  47.986  39.831  1.00  0.00     0.035 A 
HETATM   42 CL1  UNL     1      16.923  49.358  39.345  1.00  0.00    -0.084 Cl
HETATM   43  C22 UNL     1      16.592  46.835  40.250  1.00  0.00     0.041 A 
ENDBRANCH  30  32
ENDBRANCH  29  30
ENDBRANCH  28  29
ENDBRANCH  27  28
ENDBRANCH   4  27
TORSDOF 15
ENDMDL
MODEL 3
REMARK VINA RESULT: -9.377257366      0.746      1.071
REMARK  15 active torsions:
REMARK  status: ('A' for Active; 'I' for Inactive)
REMARK    1  A    between atoms: C2_2  and  C3_3 
REMARK    2  A    between atoms: C3_3  and  N1_4 
REMARK       I    between atoms: C4_6  and  N3_8 
REMARK    3  A    between atoms: N3_8  and  C5_10 
REMARK    4  A    between atoms: C5_10  and  C6_11 
REMARK    5  A    between atoms: C6_11  and  C7_12 
REMARK    6  A    between atoms: C7_12  and  N4_13 
REMARK    7  A    between atoms: C8_15  and  N5_17 
REMARK    8  A    between atoms: N5_17  and  C10_19 
REMARK    9  A    between atoms: C10_19  and  C11_20 
REMARK   10  A    between atoms: C11_20  and  N6_21 
REMARK   11  A    between atoms: N7_24  and  C14_25 
REMARK   12  A    between atoms: C14_25  and  C15_26 
REMARK   13  A    between atoms: C15_26  and  C16_27 
REMARK   14  A    between atoms: C16_27  and  N8_28 
REMARK   15  A    between atoms: N8_28  and  C17_30 
ROOT
HETATM    1  N6  UNL     1      22.411  44.742  43.684  1.00  0.00    -0.388 N 
HETATM    2  C12 UNL     1      21.550  45.832  43.739  1.00  0.00     0.152 C 
HETATM    3  C13 UNL     1      20.422  45.501  44.736  1.00  0.00     0.292 C 
HETATM    4  N7  UNL     1      20.057  44.114  44.504  1.00  0.00     0.091 N 
HETATM    5  C24 UNL     1      21.098  43.338  45.187  1.00  0.00     0.292 C 
HETATM    6  C25 UNL     1      22.450  43.825  44.765  1.00  0.00     0.152 C 
ENDROOT
BRANCH   1   7
HETATM    7  C11 UNL     1      23.465  44.653  42.757  1.00  0.00     0.077 C 
BRANCH   7   8
HETATM    8  C10 UNL     1      23.542  45.681  41.691  1.00  0.00     0.165 C 
BRANCH   8   9
HETATM    9  N5  UNL     1      24.556  46.684  41.860  1.00  0.00    -0.376 N 
ATOM     10  H5  UNL     1      24.933  47.186  41.057  1.00  0.00     0.161 HD
BRANCH   9  11
HETATM   11  C8  UNL     1      25.016  46.959  43.164  1.00  0.00     0.069 C 
HETATM   12  N4  UNL     1      24.653  48.110  43.663  1.00  0.00    -0.380 N 
ATOM     13  H4  UNL     1      24.961  48.364  44.602  1.00  0.00     0.160 HD
HETATM   14  C9  UNL     1      25.848  46.081  43.973  1.00  0.00     0.088 C 
BRANCH  12  15
HETATM   15  C7  UNL     1      23.818  49.044  42.912  1.00  0.00     0.122 C 
BRANCH  15  16
HETATM   16  C6  UNL     1      22.448  49.109  43.503  1.00  0.00     0.039 C 
BRANCH  16  17
HETATM   17  C5  UNL     1      22.424  49.821  44.828  1.00  0.00     0.123 C 
BRANCH  17  18
HETATM   18  N3  UNL     1      22.265  48.831  45.856  1.00  0.00    -0.365 N 
HETATM   19  C4  UNL     1      23.189  48.679  46.923  1.00  0.00     0.183 C 
HETATM   20  N1  UNL     1      22.974  49.222  48.065  1.00  0.00    -0.365 N 
HETATM   21  N2  UNL     1      24.391  47.901  46.735  1.00  0.00    -0.064 NA
ATOM     22  H1  UNL     1      22.132  49.777  48.219  1.00  0.00     0.162 HD
ATOM     23  H3  UNL     1      21.454  48.214  45.819  1.00  0.00     0.162 HD
BRANCH  20  24
HETATM   24  C3  UNL     1      23.932  49.045  49.134  1.00  0.00     0.122 C 
BRANCH  24  25
HETATM   25  C2  UNL     1      23.270  49.501  50.429  1.00  0.00     0.015 C 
HETATM   26  C1  UNL     1      23.863  50.786  50.920  1.00  0.00     0.006 C 
ENDBRANCH  24  25
ENDBRANCH  20  24
ENDBRANCH  17  18
ENDBRANCH  16  17
ENDBRANCH  15  16
ENDBRANCH  12  15
ENDBRANCH   9  11
ENDBRANCH   8   9
ENDBRANCH   7   8
ENDBRANCH   1   7
BRANCH   4  27
HETATM   27  C14 UNL     1      18.734  43.767  44.861  1.00  0.00     0.277 C 
BRANCH  27  28
HETATM   28  C15 UNL     1      17.753  44.192  43.778  1.00  0.00     0.074 C 
BRANCH  28  29
HETATM   29  C16 UNL     1      18.333  43.932  42.409  1.00  0.00     0.064 C 
BRANCH  29  30
HETATM   30  N8  UNL     1      17.451  44.149  41.361  1.00  0.00    -0.354 N 
ATOM     31  H8  UNL     1      17.931  44.045  40.467  1.00  0.00     0.166 HD
BRANCH  30  32
HETATM   32  C17 UNL     1      16.250  44.433  41.178  1.00  0.00     0.132 A 
HETATM   33  N9  UNL     1      15.115  43.752  41.345  1.00  0.00    -0.284 N 
HETATM   34  N10 UNL     1      14.105  44.514  40.985  1.00  0.00    -0.298 N 
ATOM     35  H9  UNL     1      15.043  42.796  41.695  1.00  0.00     0.188 HD
HETATM   36  C18 UNL     1      14.530  45.712  40.574  1.00  0.00     0.062 A 
ATOM     37  H10 UNL     1      13.126  44.227  41.015  1.00  0.00     0.187 HD
HETATM   38  C19 UNL     1      13.863  46.849  40.100  1.00  0.00     0.033 A 
HETATM   39  C23 UNL     1      15.888  45.700  40.682  1.00  0.00     0.039 A 
HETATM   40  C20 UNL     1      14.600  47.958  39.744  1.00  0.00     0.026 A 
HETATM   41  C21 UNL     1      15.988  47.955  39.851  1.00  0.00     0.035 A 
HETATM   42 CL1  UNL     1      16.943  49.344  39.405  1.00  0.00    -0.084 Cl
HETATM   43  C22 UNL     1      16.617  46.824  40.319  1.00  0.00     0.041 A 
ENDBRANCH  30  32
ENDBRANCH  29  30
ENDBRANCH  28  29
ENDBRANCH  27  28
ENDBRANCH   4  27
TORSDOF 15
ENDMDL
MODEL 4
REMARK VINA RESULT: -9.233291993      1.851      2.458
REMARK  15 active torsions:
REMARK  status: ('A' for Active; 'I' for Inactive)
REMARK    1  A    between atoms: C2_2  and  C3_3 
REMARK    2  A    between atoms: C3_3  and  N1_4 
REMARK       I    between atoms: C4_6  and  N3_8 
REMARK    3  A    between atoms: N3_8  and  C5_10 
REMARK    4  A    between atoms: C5_10  and  C6_11 
REMARK    5  A    between atoms: C6_11  and  C7_12 
REMARK    6  A    between atoms: C7_12  and  N4_13 
REMARK    7  A    between atoms: C8_15  and  N5_17 
REMARK    8  A    between atoms: N5_17  and  C10_19 
REMARK    9  A    between atoms: C10_19  and  C11_20 
REMARK   10  A    between atoms: C11_20  and  N6_21 
REMARK   11  A    between atoms: N7_24  and  C14_25 
REMARK   12  A    between atoms: C14_25  and  C15_26 
REMARK   13  A    between atoms: C15_26  and  C16_27 
REMARK   14  A    between atoms: C16_27  and  N8_28 
REMARK   15  A    between atoms: N8_28  and  C17_30 
ROOT
HETATM    1  N6  UNL     1      23.293  44.537  44.716  1.00  0.00    -0.388 N 
HETATM    2  C12 UNL     1      22.440  45.608  44.955  1.00  0.00     0.152 C 
HETATM    3  C13 UNL     1      21.097  45.046  45.462  1.00  0.00     0.292 C 
HETATM    4  N7  UNL     1      20.812  43.868  44.661  1.00  0.00     0.091 N 
HETATM    5  C24 UNL     1      21.649  42.813  45.242  1.00  0.00     0.292 C 
HETATM    6  C25 UNL     1      23.061  43.298  45.364  1.00  0.00     0.152 C 
ENDROOT
BRANCH   1   7
HETATM    7  C11 UNL     1      24.549  44.691  44.102  1.00  0.00     0.077 C 
BRANCH   7   8
HETATM    8  C10 UNL     1      25.195  46.024  44.163  1.00  0.00     0.165 C 
BRANCH   8   9
HETATM    9  N5  UNL     1      25.217  46.765  42.932  1.00  0.00    -0.376 N 
ATOM     10  H5  UNL     1      26.068  47.229  42.617  1.00  0.00     0.161 HD
BRANCH   9  11
HETATM   11  C8  UNL     1      24.033  46.837  42.171  1.00  0.00     0.069 C 
HETATM   12  N4  UNL     1      23.305  47.906  42.351  1.00  0.00    -0.380 N 
ATOM     13  H4  UNL     1      22.435  48.009  41.829  1.00  0.00     0.160 HD
HETATM   14  C9  UNL     1      23.570  45.831  41.225  1.00  0.00     0.088 C 
BRANCH  12  15
HETATM   15  C7  UNL     1      23.704  48.958  43.283  1.00  0.00     0.122 C 
BRANCH  15  16
HETATM   16  C6  UNL     1      22.608  49.235  44.258  1.00  0.00     0.039 C 
BRANCH  16  17
HETATM   17  C5  UNL     1      21.792  50.441  43.883  1.00  0.00     0.123 C 
BRANCH  17  18
HETATM   18  N3  UNL     1      21.788  51.336  45.006  1.00  0.00    -0.365 N 
HETATM   19  C4  UNL     1      22.960  51.990  45.470  1.00  0.00     0.183 C 
HETATM   20  N1  UNL     1      23.231  53.192  45.111  1.00  0.00    -0.365 N 
HETATM   21  N2  UNL     1      23.867  51.306  46.361  1.00  0.00    -0.064 NA
ATOM     22  H1  UNL     1      22.604  53.693  44.482  1.00  0.00     0.162 HD
ATOM     23  H3  UNL     1      20.907  51.509  45.489  1.00  0.00     0.162 HD
BRANCH  20  24
HETATM   24  C3  UNL     1      24.430  53.832  45.604  1.00  0.00     0.122 C 
BRANCH  24  25
HETATM   25  C2  UNL     1      24.392  55.290  45.159  1.00  0.00     0.015 C 
HETATM   26  C1  UNL     1      25.764  55.891  45.150  1.00  0.00     0.006 C 
ENDBRANCH  24  25
ENDBRANCH  20  24
ENDBRANCH  17  18
ENDBRANCH  16  17
ENDBRANCH  15  16
ENDBRANCH  12  15
ENDBRANCH   9  11
ENDBRANCH   8   9
ENDBRANCH   7   8
ENDBRANCH   1   7
BRANCH   4  27
HETATM   27  C14 UNL     1      19.444  43.533  44.538  1.00  0.00     0.277 C 
BRANCH  27  28
HETATM   28  C15 UNL     1      18.646  44.711  43.998  1.00  0.00     0.074 C 
BRANCH  28  29
HETATM   29  C16 UNL     1      19.059  45.024  42.580  1.00  0.00     0.064 C 
BRANCH  29  30
HETATM   30  N8  UNL     1      18.127  44.667  41.617  1.00  0.00    -0.354 N 
ATOM     31  H8  UNL     1      18.597  44.331  40.776  1.00  0.00     0.166 HD
BRANCH  30  32
HETATM   32  C17 UNL     1      16.890  44.631  41.467  1.00  0.00     0.132 A 
HETATM   33  N9  UNL     1      15.962  43.715  41.749  1.00  0.00    -0.284 N 
HETATM   34  N10 UNL     1      14.786  44.168  41.369  1.00  0.00    -0.298 N 
ATOM     35  H9  UNL     1      16.135  42.811  42.189  1.00  0.00     0.188 HD
HETATM   36  C18 UNL     1      14.894  45.386  40.829  1.00  0.00     0.062 A 
ATOM     37  H10 UNL     1      13.909  43.657  41.472  1.00  0.00     0.187 HD
HETATM   38  C19 UNL     1      13.957  46.273  40.285  1.00  0.00     0.033 A 
HETATM   39  C23 UNL     1      16.215  45.714  40.873  1.00  0.00     0.039 A 
HETATM   40  C20 UNL     1      14.389  47.486  39.793  1.00  0.00     0.026 A 
HETATM   41  C21 UNL     1      15.737  47.831  39.834  1.00  0.00     0.035 A 
HETATM   42 CL1  UNL     1      16.311  49.358  39.217  1.00  0.00    -0.084 Cl
HETATM   43  C22 UNL     1      16.636  46.940  40.374  1.00  0.00     0.041 A 
ENDBRANCH  30  32
ENDBRANCH  29  30
ENDBRANCH  28  29
ENDBRANCH  27  28
ENDBRANCH   4  27
TORSDOF 15
ENDMDL
MODEL 5
REMARK VINA RESULT: -9.213710835      0.927      1.379
REMARK  15 active torsions:
REMARK  status: ('A' for Active; 'I' for Inactive)
REMARK    1  A    between atoms: C2_2  and  C3_3 
REMARK    2  A    between atoms: C3_3  and  N1_4 
REMARK       I    between atoms: C4_6  and  N3_8 
REMARK    3  A    between atoms: N3_8  and  C5_10 
REMARK    4  A    between atoms: C5_10  and  C6_11 
REMARK    5  A    between atoms: C6_11  and  C7_12 
REMARK    6  A    between atoms: C7_12  and  N4_13 
REMARK    7  A    between atoms: C8_15  and  N5_17 
REMARK    8  A    between atoms: N5_17  and  C10_19 
REMARK    9  A    between atoms: C10_19  and  C11_20 
REMARK   10  A    between atoms: C11_20  and  N6_21 
REMARK   11  A    between atoms: N7_24  and  C14_25 
REMARK   12  A    between atoms: C14_25  and  C15_26 
REMARK   13  A    between atoms: C15_26  and  C16_27 
REMARK   14  A    between atoms: C16_27  and  N8_28 
REMARK   15  A    between atoms: N8_28  and  C17_30 
ROOT
HETATM    1  N6  UNL     1      22.986  44.485  44.683  1.00  0.00    -0.388 N 
HETATM    2  C12 UNL     1      22.182  45.605  44.855  1.00  0.00     0.152 C 
HETATM    3  C13 UNL     1      20.829  45.139  45.427  1.00  0.00     0.292 C 
HETATM    4  N7  UNL     1      20.480  43.917  44.723  1.00  0.00     0.091 N 
HETATM    5  C24 UNL     1      21.286  42.875  45.368  1.00  0.00     0.292 C 
HETATM    6  C25 UNL     1      22.719  43.308  45.427  1.00  0.00     0.152 C 
ENDROOT
BRANCH   1   7
HETATM    7  C11 UNL     1      24.234  44.540  44.036  1.00  0.00     0.077 C 
BRANCH   7   8
HETATM    8  C10 UNL     1      24.988  45.816  44.084  1.00  0.00     0.165 C 
BRANCH   8   9
HETATM    9  N5  UNL     1      25.073  46.539  42.846  1.00  0.00    -0.376 N 
ATOM     10  H5  UNL     1      25.923  47.043  42.593  1.00  0.00     0.161 HD
BRANCH   9  11
HETATM   11  C8  UNL     1      23.955  46.535  41.988  1.00  0.00     0.069 C 
HETATM   12  N4  UNL     1      23.177  47.581  42.064  1.00  0.00    -0.380 N 
ATOM     13  H4  UNL     1      22.350  47.631  41.468  1.00  0.00     0.160 HD
HETATM   14  C9  UNL     1      23.608  45.477  41.050  1.00  0.00     0.088 C 
BRANCH  12  15
HETATM   15  C7  UNL     1      23.461  48.683  42.980  1.00  0.00     0.122 C 
BRANCH  15  16
HETATM   16  C6  UNL     1      22.302  48.912  43.895  1.00  0.00     0.039 C 
BRANCH  16  17
HETATM   17  C5  UNL     1      21.760  50.312  43.800  1.00  0.00     0.123 C 
BRANCH  17  18
HETATM   18  N3  UNL     1      22.655  51.180  44.512  1.00  0.00    -0.365 N 
HETATM   19  C4  UNL     1      22.614  51.332  45.923  1.00  0.00     0.183 C 
HETATM   20  N1  UNL     1      23.406  50.666  46.682  1.00  0.00    -0.365 N 
HETATM   21  N2  UNL     1      21.675  52.248  46.527  1.00  0.00    -0.064 NA
ATOM     22  H1  UNL     1      24.077  50.013  46.276  1.00  0.00     0.162 HD
ATOM     23  H3  UNL     1      23.348  51.708  43.983  1.00  0.00     0.162 HD
BRANCH  20  24
HETATM   24  C3  UNL     1      23.344  50.846  48.115  1.00  0.00     0.122 C 
BRANCH  24  25
HETATM   25  C2  UNL     1      23.428  49.466  48.758  1.00  0.00     0.015 C 
HETATM   26  C1  UNL     1      24.071  48.475  47.837  1.00  0.00     0.006 C 
ENDBRANCH  24  25
ENDBRANCH  20  24
ENDBRANCH  17  18
ENDBRANCH  16  17
ENDBRANCH  15  16
ENDBRANCH  12  15
ENDBRANCH   9  11
ENDBRANCH   8   9
ENDBRANCH   7   8
ENDBRANCH   1   7
BRANCH   4  27
HETATM   27  C14 UNL     1      19.097  43.631  44.651  1.00  0.00     0.277 C 
BRANCH  27  28
HETATM   28  C15 UNL     1      18.370  44.684  43.827  1.00  0.00     0.074 C 
BRANCH  28  29
HETATM   29  C16 UNL     1      18.827  44.637  42.389  1.00  0.00     0.064 C 
BRANCH  29  30
HETATM   30  N8  UNL     1      17.829  44.322  41.479  1.00  0.00    -0.354 N 
ATOM     31  H8  UNL     1      18.218  43.798  40.694  1.00  0.00     0.166 HD
BRANCH  30  32
HETATM   32  C17 UNL     1      16.602  44.484  41.327  1.00  0.00     0.132 A 
HETATM   33  N9  UNL     1      15.543  43.709  41.566  1.00  0.00    -0.284 N 
HETATM   34  N10 UNL     1      14.454  44.356  41.208  1.00  0.00    -0.298 N 
ATOM     35  H9  UNL     1      15.571  42.769  41.961  1.00  0.00     0.188 HD
HETATM   36  C18 UNL     1      14.751  45.566  40.727  1.00  0.00     0.062 A 
ATOM     37  H10 UNL     1      13.508  43.981  41.286  1.00  0.00     0.187 HD
HETATM   38  C19 UNL     1      13.965  46.612  40.226  1.00  0.00     0.033 A 
HETATM   39  C23 UNL     1      16.107  45.685  40.786  1.00  0.00     0.039 A 
HETATM   40  C20 UNL     1      14.582  47.766  39.793  1.00  0.00     0.026 A 
HETATM   41  C21 UNL     1      15.967  47.897  39.850  1.00  0.00     0.035 A 
HETATM   42 CL1  UNL     1      16.773  49.345  39.307  1.00  0.00    -0.084 Cl
HETATM   43  C22 UNL     1      16.715  46.854  40.346  1.00  0.00     0.041 A 
ENDBRANCH  30  32
ENDBRANCH  29  30
ENDBRANCH  28  29
ENDBRANCH  27  28
ENDBRANCH   4  27
TORSDOF 15
ENDMDL
