MODEL 1
REMARK VINA RESULT: -4.801974374      0.000      0.000
REMARK  7 active torsions:
REMARK  status: ('A' for Active; 'I' for Inactive)
REMARK    1  A    between atoms: N1_1  and  N2_4 
REMARK    2  A    between atoms: N2_4  and  N3_5 
REMARK    3  A    between atoms: N3_5  and  C1_7 
REMARK    4  A    between atoms: C1_7  and  C2_8 
REMARK    5  A    between atoms: C2_8  and  N4_9 
REMARK    6  A    between atoms: C4_11  and  O1_12 
REMARK    7  A    between atoms: C5_14  and  O2_15 
ROOT
HETATM    1  N4  UNL     1      66.647  94.684  51.320  1.00  0.00     0.124 N 
HETATM    2  C3  UNL     1      68.030  95.030  51.381  1.00  0.00     0.311 C 
HETATM    3  C4  UNL     1      68.303  93.517  51.353  1.00  0.00     0.205 C 
HETATM    4  C5  UNL     1      66.922  93.453  51.964  1.00  0.00     0.387 C 
ENDROOT
BRANCH   1   5
HETATM    5  C2  UNL     1      65.644  95.557  51.729  1.00  0.00     0.298 C 
BRANCH   5   6
HETATM    6  C1  UNL     1      64.903  96.207  50.548  1.00  0.00     0.186 C 
BRANCH   6   7
HETATM    7  N3  UNL     1      65.071  97.656  50.757  1.00  0.00    -0.251 N 
ATOM      8  H3  UNL     1      65.528  98.003  51.601  1.00  0.00     0.197 HD
BRANCH   7   9
HETATM    9  N2  UNL     1      64.660  98.439  49.914  1.00  0.00    -0.249 NA
BRANCH   9  10
HETATM   10  N1  UNL     1      64.250  99.415  49.252  1.00  0.00    -0.261 N 
ATOM     11  H12 UNL     1      65.031  99.984  49.580  1.00  0.00     0.193 HD
ATOM     12  H11 UNL     1      63.756 100.076  48.653  1.00  0.00     0.193 HD
ENDBRANCH   9  10
ENDBRANCH   7   9
ENDBRANCH   6   7
ENDBRANCH   5   6
ENDBRANCH   1   5
BRANCH   4  13
HETATM   13  O2  UNL     1      66.935  93.466  53.373  1.00  0.00    -0.366 OA
ATOM     14  H2  UNL     1      66.331  92.876  53.809  1.00  0.00     0.212 HD
ENDBRANCH   4  13
BRANCH   3  15
HETATM   15  O1  UNL     1      69.345  93.154  52.157  1.00  0.00    -0.389 OA
ATOM     16  H1  UNL     1      70.183  93.199  51.713  1.00  0.00     0.210 HD
ENDBRANCH   3  15
TORSDOF 7
ENDMDL
MODEL 2
REMARK VINA RESULT: -4.796412123      4.643      6.414
REMARK  7 active torsions:
REMARK  status: ('A' for Active; 'I' for Inactive)
REMARK    1  A    between atoms: N1_1  and  N2_4 
REMARK    2  A    between atoms: N2_4  and  N3_5 
REMARK    3  A    between atoms: N3_5  and  C1_7 
REMARK    4  A    between atoms: C1_7  and  C2_8 
REMARK    5  A    between atoms: C2_8  and  N4_9 
REMARK    6  A    between atoms: C4_11  and  O1_12 
REMARK    7  A    between atoms: C5_14  and  O2_15 
ROOT
HETATM    1  N4  UNL     1      63.788  98.117  48.927  1.00  0.00     0.124 N 
HETATM    2  C3  UNL     1      64.656  99.240  48.777  1.00  0.00     0.311 C 
HETATM    3  C4  UNL     1      63.526  99.870  47.945  1.00  0.00     0.205 C 
HETATM    4  C5  UNL     1      63.172  98.424  47.688  1.00  0.00     0.387 C 
ENDROOT
BRANCH   1   5
HETATM    5  C2  UNL     1      64.263  96.852  49.255  1.00  0.00     0.298 C 
BRANCH   5   6
HETATM    6  C1  UNL     1      64.940  96.811  50.636  1.00  0.00     0.186 C 
BRANCH   6   7
HETATM    7  N3  UNL     1      65.096  95.374  50.930  1.00  0.00    -0.251 N 
ATOM      8  H3  UNL     1      64.277  94.768  50.973  1.00  0.00     0.197 HD
BRANCH   7   9
HETATM    9  N2  UNL     1      66.212  94.915  51.120  1.00  0.00    -0.249 NA
BRANCH   9  10
HETATM   10  N1  UNL     1      67.269  94.252  51.153  1.00  0.00    -0.261 N 
ATOM     11  H12 UNL     1      67.082  93.880  50.222  1.00  0.00     0.193 HD
ATOM     12  H11 UNL     1      68.155  93.799  51.378  1.00  0.00     0.193 HD
ENDBRANCH   9  10
ENDBRANCH   7   9
ENDBRANCH   6   7
ENDBRANCH   5   6
ENDBRANCH   1   5
BRANCH   4  13
HETATM   13  O2  UNL     1      63.780  97.897  46.532  1.00  0.00    -0.366 OA
ATOM     14  H2  UNL     1      63.255  97.888  45.741  1.00  0.00     0.212 HD
ENDBRANCH   4  13
BRANCH   3  15
HETATM   15  O1  UNL     1      63.993 100.584  46.878  1.00  0.00    -0.389 OA
ATOM     16  H1  UNL     1      63.535 101.408  46.761  1.00  0.00     0.210 HD
ENDBRANCH   3  15
TORSDOF 7
ENDMDL
MODEL 3
REMARK VINA RESULT: -4.735385338      3.424      5.540
REMARK  7 active torsions:
REMARK  status: ('A' for Active; 'I' for Inactive)
REMARK    1  A    between atoms: N1_1  and  N2_4 
REMARK    2  A    between atoms: N2_4  and  N3_5 
REMARK    3  A    between atoms: N3_5  and  C1_7 
REMARK    4  A    between atoms: C1_7  and  C2_8 
REMARK    5  A    between atoms: C2_8  and  N4_9 
REMARK    6  A    between atoms: C4_11  and  O1_12 
REMARK    7  A    between atoms: C5_14  and  O2_15 
ROOT
HETATM    1  N4  UNL     1      64.988  96.934  49.939  1.00  0.00     0.124 N 
HETATM    2  C3  UNL     1      63.845  97.439  49.248  1.00  0.00     0.311 C 
HETATM    3  C4  UNL     1      64.615  98.768  49.164  1.00  0.00     0.205 C 
HETATM    4  C5  UNL     1      65.284  98.237  50.410  1.00  0.00     0.387 C 
ENDROOT
BRANCH   1   5
HETATM    5  C2  UNL     1      64.922  95.816  50.764  1.00  0.00     0.298 C 
BRANCH   5   6
HETATM    6  C1  UNL     1      66.160  95.666  51.663  1.00  0.00     0.186 C 
BRANCH   6   7
HETATM    7  N3  UNL     1      66.526  94.241  51.557  1.00  0.00    -0.251 N 
ATOM      8  H3  UNL     1      65.886  93.521  51.894  1.00  0.00     0.197 HD
BRANCH   7   9
HETATM    9  N2  UNL     1      67.598  93.929  51.062  1.00  0.00    -0.249 NA
BRANCH   9  10
HETATM   10  N1  UNL     1      68.682  93.407  50.729  1.00  0.00    -0.261 N 
ATOM     11  H12 UNL     1      69.137  94.320  50.722  1.00  0.00     0.193 HD
ATOM     12  H11 UNL     1      69.454  92.795  50.464  1.00  0.00     0.193 HD
ENDBRANCH   9  10
ENDBRANCH   7   9
ENDBRANCH   6   7
ENDBRANCH   5   6
ENDBRANCH   1   5
BRANCH   4  13
HETATM   13  O2  UNL     1      64.648  98.638  51.600  1.00  0.00    -0.366 OA
ATOM     14  H2  UNL     1      65.152  98.557  52.401  1.00  0.00     0.212 HD
ENDBRANCH   4  13
BRANCH   3  15
HETATM   15  O1  UNL     1      63.805  99.856  49.321  1.00  0.00    -0.389 OA
ATOM     16  H1  UNL     1      64.107 100.612  48.831  1.00  0.00     0.210 HD
ENDBRANCH   3  15
TORSDOF 7
ENDMDL
MODEL 4
REMARK VINA RESULT: -4.729676560      2.928      4.254
REMARK  7 active torsions:
REMARK  status: ('A' for Active; 'I' for Inactive)
REMARK    1  A    between atoms: N1_1  and  N2_4 
REMARK    2  A    between atoms: N2_4  and  N3_5 
REMARK    3  A    between atoms: N3_5  and  C1_7 
REMARK    4  A    between atoms: C1_7  and  C2_8 
REMARK    5  A    between atoms: C2_8  and  N4_9 
REMARK    6  A    between atoms: C4_11  and  O1_12 
REMARK    7  A    between atoms: C5_14  and  O2_15 
ROOT
HETATM    1  N4  UNL     1      64.700  97.340  49.511  1.00  0.00     0.124 N 
HETATM    2  C3  UNL     1      64.693  97.323  50.938  1.00  0.00     0.311 C 
HETATM    3  C4  UNL     1      65.357  95.941  50.820  1.00  0.00     0.205 C 
HETATM    4  C5  UNL     1      64.641  95.925  49.490  1.00  0.00     0.387 C 
ENDROOT
BRANCH   1   5
HETATM    5  C2  UNL     1      63.846  98.155  48.775  1.00  0.00     0.298 C 
BRANCH   5   6
HETATM    6  C1  UNL     1      64.209  99.646  48.880  1.00  0.00     0.186 C 
BRANCH   6   7
HETATM    7  N3  UNL     1      63.647 100.251  47.659  1.00  0.00    -0.251 N 
ATOM      8  H3  UNL     1      62.719 100.674  47.676  1.00  0.00     0.197 HD
BRANCH   7   9
HETATM    9  N2  UNL     1      64.301 100.244  46.627  1.00  0.00    -0.249 NA
BRANCH   9  10
HETATM   10  N1  UNL     1      64.738 100.304  45.459  1.00  0.00    -0.261 N 
ATOM     11  H12 UNL     1      65.691 100.164  45.792  1.00  0.00     0.193 HD
ATOM     12  H11 UNL     1      64.885 100.381  44.453  1.00  0.00     0.193 HD
ENDBRANCH   9  10
ENDBRANCH   7   9
ENDBRANCH   6   7
ENDBRANCH   5   6
ENDBRANCH   1   5
BRANCH   4  13
HETATM   13  O2  UNL     1      63.360  95.344  49.553  1.00  0.00    -0.366 OA
ATOM     14  H2  UNL     1      63.140  94.722  48.869  1.00  0.00     0.212 HD
ENDBRANCH   4  13
BRANCH   3  15
HETATM   15  O1  UNL     1      64.913  95.061  51.765  1.00  0.00    -0.389 OA
ATOM     16  H1  UNL     1      64.035  94.746  51.587  1.00  0.00     0.210 HD
ENDBRANCH   3  15
TORSDOF 7
ENDMDL
MODEL 5
REMARK VINA RESULT: -4.694864220      3.595      4.927
REMARK  7 active torsions:
REMARK  status: ('A' for Active; 'I' for Inactive)
REMARK    1  A    between atoms: N1_1  and  N2_4 
REMARK    2  A    between atoms: N2_4  and  N3_5 
REMARK    3  A    between atoms: N3_5  and  C1_7 
REMARK    4  A    between atoms: C1_7  and  C2_8 
REMARK    5  A    between atoms: C2_8  and  N4_9 
REMARK    6  A    between atoms: C4_11  and  O1_12 
REMARK    7  A    between atoms: C5_14  and  O2_15 
ROOT
HETATM    1  N4  UNL     1      64.002  98.024  49.465  1.00  0.00     0.124 N 
HETATM    2  C3  UNL     1      64.640  96.748  49.461  1.00  0.00     0.311 C 
HETATM    3  C4  UNL     1      64.750  96.915  50.986  1.00  0.00     0.205 C 
HETATM    4  C5  UNL     1      64.718  98.384  50.633  1.00  0.00     0.387 C 
ENDROOT
BRANCH   1   5
HETATM    5  C2  UNL     1      63.935  98.824  48.328  1.00  0.00     0.298 C 
BRANCH   5   6
HETATM    6  C1  UNL     1      62.976  98.265  47.263  1.00  0.00     0.186 C 
BRANCH   6   7
HETATM    7  N3  UNL     1      63.854  97.849  46.155  1.00  0.00    -0.251 N 
ATOM      8  H3  UNL     1      64.127  96.871  46.056  1.00  0.00     0.197 HD
BRANCH   7   9
HETATM    9  N2  UNL     1      64.252  98.683  45.355  1.00  0.00    -0.249 NA
BRANCH   9  10
HETATM   10  N1  UNL     1      64.898  99.428  44.590  1.00  0.00    -0.261 N 
ATOM     11  H12 UNL     1      65.552  98.674  44.383  1.00  0.00     0.193 HD
ATOM     12  H11 UNL     1      65.276 100.185  44.020  1.00  0.00     0.193 HD
ENDBRANCH   9  10
ENDBRANCH   7   9
ENDBRANCH   6   7
ENDBRANCH   5   6
ENDBRANCH   1   5
BRANCH   4  13
HETATM   13  O2  UNL     1      65.998  98.940  50.443  1.00  0.00    -0.366 OA
ATOM     14  H2  UNL     1      66.179  99.757  50.894  1.00  0.00     0.212 HD
ENDBRANCH   4  13
BRANCH   3  15
HETATM   15  O1  UNL     1      65.925  96.432  51.486  1.00  0.00    -0.389 OA
ATOM     16  H1  UNL     1      66.399  97.077  51.996  1.00  0.00     0.210 HD
ENDBRANCH   3  15
TORSDOF 7
ENDMDL
