MODEL 1
REMARK VINA RESULT: -4.722717457      0.000      0.000
REMARK  4 active torsions:
REMARK  status: ('A' for Active; 'I' for Inactive)
REMARK    1  A    between atoms: O1_1  and  C1_3 
REMARK    2  A    between atoms: C1_3  and  C2_4 
REMARK    3  A    between atoms: C2_4  and  C3_5 
REMARK    4  A    between atoms: C3_5  and  N1_6 
ROOT
HETATM    1  N1  UNL     1      63.949  98.337  49.289  1.00  0.00    -0.409 N 
HETATM    2  C4  UNL     1      63.773  99.731  49.057  1.00  0.00     0.135 C 
HETATM    3  C5  UNL     1      64.709 100.274  47.987  1.00  0.00     0.162 C 
HETATM    4  N2  UNL     1      63.939 100.276  46.743  1.00  0.00    -0.100 NA
HETATM    5  O2  UNL     1      64.033  99.012  46.242  1.00  0.00    -0.285 OA
HETATM    6  C6  UNL     1      63.237  98.126  46.946  1.00  0.00     0.215 C 
HETATM    7  C7  UNL     1      63.905  97.510  48.128  1.00  0.00     0.145 C 
ENDROOT
BRANCH   1   8
HETATM    8  C3  UNL     1      64.968  98.000  50.228  1.00  0.00     0.119 C 
BRANCH   8   9
HETATM    9  C2  UNL     1      65.017  96.511  50.422  1.00  0.00     0.045 C 
BRANCH   9  10
HETATM   10  C1  UNL     1      65.335  96.187  51.872  1.00  0.00     0.165 C 
BRANCH  10  11
HETATM   11  O1  UNL     1      66.562  95.541  51.982  1.00  0.00    -0.401 OA
ATOM     12  H1  UNL     1      66.787  95.390  52.892  1.00  0.00     0.209 HD
ENDBRANCH  10  11
ENDBRANCH   9  10
ENDBRANCH   8   9
ENDBRANCH   1   8
TORSDOF 4
ENDMDL
MODEL 2
REMARK VINA RESULT: -4.377479711      2.194      3.031
REMARK  4 active torsions:
REMARK  status: ('A' for Active; 'I' for Inactive)
REMARK    1  A    between atoms: O1_1  and  C1_3 
REMARK    2  A    between atoms: C1_3  and  C2_4 
REMARK    3  A    between atoms: C2_4  and  C3_5 
REMARK    4  A    between atoms: C3_5  and  N1_6 
ROOT
HETATM    1  N1  UNL     1      65.134  96.060  51.050  1.00  0.00    -0.409 N 
HETATM    2  C4  UNL     1      64.841  97.415  51.373  1.00  0.00     0.135 C 
HETATM    3  C5  UNL     1      65.343  98.394  50.321  1.00  0.00     0.162 C 
HETATM    4  N2  UNL     1      64.201  98.670  49.450  1.00  0.00    -0.100 NA
HETATM    5  O2  UNL     1      64.165  97.652  48.544  1.00  0.00    -0.285 OA
HETATM    6  C6  UNL     1      63.684  96.485  49.111  1.00  0.00     0.215 C 
HETATM    7  C7  UNL     1      64.731  95.637  49.748  1.00  0.00     0.145 C 
ENDROOT
BRANCH   1   8
HETATM    8  C3  UNL     1      66.420  95.600  51.459  1.00  0.00     0.119 C 
BRANCH   8   9
HETATM    9  C2  UNL     1      66.278  94.416  52.373  1.00  0.00     0.045 C 
BRANCH   9  10
HETATM   10  C1  UNL     1      67.348  93.385  52.056  1.00  0.00     0.165 C 
BRANCH  10  11
HETATM   11  O1  UNL     1      68.592  93.798  52.521  1.00  0.00    -0.401 OA
ATOM     12  H1  UNL     1      68.888  93.249  53.237  1.00  0.00     0.209 HD
ENDBRANCH  10  11
ENDBRANCH   9  10
ENDBRANCH   8   9
ENDBRANCH   1   8
TORSDOF 4
ENDMDL
MODEL 3
REMARK VINA RESULT: -4.103513150      0.987      1.020
REMARK  4 active torsions:
REMARK  status: ('A' for Active; 'I' for Inactive)
REMARK    1  A    between atoms: O1_1  and  C1_3 
REMARK    2  A    between atoms: C1_3  and  C2_4 
REMARK    3  A    between atoms: C2_4  and  C3_5 
REMARK    4  A    between atoms: C3_5  and  N1_6 
ROOT
HETATM    1  N1  UNL     1      63.610  98.964  48.515  1.00  0.00    -0.409 N 
HETATM    2  C4  UNL     1      63.667 100.251  47.908  1.00  0.00     0.135 C 
HETATM    3  C5  UNL     1      64.857 100.411  46.973  1.00  0.00     0.162 C 
HETATM    4  N2  UNL     1      64.355 100.131  45.629  1.00  0.00    -0.100 NA
HETATM    5  O2  UNL     1      64.379  98.775  45.494  1.00  0.00    -0.285 OA
HETATM    6  C6  UNL     1      63.350  98.176  46.201  1.00  0.00     0.215 C 
HETATM    7  C7  UNL     1      63.687  97.858  47.618  1.00  0.00     0.145 C 
ENDROOT
BRANCH   1   8
HETATM    8  C3  UNL     1      64.371  98.821  49.711  1.00  0.00     0.119 C 
BRANCH   8   9
HETATM    9  C2  UNL     1      64.642  97.367  49.979  1.00  0.00     0.045 C 
BRANCH   9  10
HETATM   10  C1  UNL     1      65.130  97.185  51.406  1.00  0.00     0.165 C 
BRANCH  10  11
HETATM   11  O1  UNL     1      65.911  96.040  51.524  1.00  0.00    -0.401 OA
ATOM     12  H1  UNL     1      66.762  96.165  51.122  1.00  0.00     0.209 HD
ENDBRANCH  10  11
ENDBRANCH   9  10
ENDBRANCH   8   9
ENDBRANCH   1   8
TORSDOF 4
ENDMDL
MODEL 4
REMARK VINA RESULT: -3.735524051      2.325      3.485
REMARK  4 active torsions:
REMARK  status: ('A' for Active; 'I' for Inactive)
REMARK    1  A    between atoms: O1_1  and  C1_3 
REMARK    2  A    between atoms: C1_3  and  C2_4 
REMARK    3  A    between atoms: C2_4  and  C3_5 
REMARK    4  A    between atoms: C3_5  and  N1_6 
ROOT
HETATM    1  N1  UNL     1      65.504  96.255  51.107  1.00  0.00    -0.409 N 
HETATM    2  C4  UNL     1      65.229  95.767  49.798  1.00  0.00     0.135 C 
HETATM    3  C5  UNL     1      63.808  96.066  49.342  1.00  0.00     0.162 C 
HETATM    4  N2  UNL     1      63.890  97.288  48.543  1.00  0.00    -0.100 NA
HETATM    5  O2  UNL     1      63.865  98.320  49.433  1.00  0.00    -0.285 OA
HETATM    6  C6  UNL     1      65.076  98.452  50.091  1.00  0.00     0.215 C 
HETATM    7  C7  UNL     1      65.192  97.629  51.328  1.00  0.00     0.145 C 
ENDROOT
BRANCH   1   8
HETATM    8  C3  UNL     1      65.144  95.379  52.171  1.00  0.00     0.119 C 
BRANCH   8   9
HETATM    9  C2  UNL     1      66.369  94.968  52.939  1.00  0.00     0.045 C 
BRANCH   9  10
HETATM   10  C1  UNL     1      67.085  93.843  52.210  1.00  0.00     0.165 C 
BRANCH  10  11
HETATM   11  O1  UNL     1      68.436  93.817  52.538  1.00  0.00    -0.401 OA
ATOM     12  H1  UNL     1      68.935  94.394  51.972  1.00  0.00     0.209 HD
ENDBRANCH  10  11
ENDBRANCH   9  10
ENDBRANCH   8   9
ENDBRANCH   1   8
TORSDOF 4
ENDMDL
MODEL 5
REMARK VINA RESULT: -3.617165469      1.635      4.751
REMARK  4 active torsions:
REMARK  status: ('A' for Active; 'I' for Inactive)
REMARK    1  A    between atoms: O1_1  and  C1_3 
REMARK    2  A    between atoms: C1_3  and  C2_4 
REMARK    3  A    between atoms: C2_4  and  C3_5 
REMARK    4  A    between atoms: C3_5  and  N1_6 
ROOT
HETATM    1  N1  UNL     1      64.489  98.244  49.083  1.00  0.00    -0.409 N 
HETATM    2  C4  UNL     1      65.411  98.290  50.167  1.00  0.00     0.135 C 
HETATM    3  C5  UNL     1      64.825  97.752  51.464  1.00  0.00     0.162 C 
HETATM    4  N2  UNL     1      65.254  96.357  51.552  1.00  0.00    -0.100 NA
HETATM    5  O2  UNL     1      64.364  95.643  50.806  1.00  0.00    -0.285 OA
HETATM    6  C6  UNL     1      64.585  95.815  49.451  1.00  0.00     0.215 C 
HETATM    7  C7  UNL     1      63.867  96.980  48.858  1.00  0.00     0.145 C 
ENDROOT
BRANCH   1   8
HETATM    8  C3  UNL     1      63.619  99.368  48.975  1.00  0.00     0.119 C 
BRANCH   8   9
HETATM    9  C2  UNL     1      64.161 100.344  47.969  1.00  0.00     0.045 C 
BRANCH   9  10
HETATM   10  C1  UNL     1      64.251  99.686  46.603  1.00  0.00     0.165 C 
BRANCH  10  11
HETATM   11  O1  UNL     1      64.727 100.578  45.649  1.00  0.00    -0.401 OA
ATOM     12  H1  UNL     1      64.413 101.459  45.819  1.00  0.00     0.209 HD
ENDBRANCH  10  11
ENDBRANCH   9  10
ENDBRANCH   8   9
ENDBRANCH   1   8
TORSDOF 4
ENDMDL
