MODEL 1
REMARK VINA RESULT: -8.034137691      0.000      0.000
REMARK  15 active torsions:
REMARK  status: ('A' for Active; 'I' for Inactive)
REMARK    1  A    between atoms: C4_4  and  O1_5 
REMARK    2  A    between atoms: C5_7  and  O2_8 
REMARK    3  A    between atoms: N1_11  and  C7_13 
REMARK    4  A    between atoms: C7_13  and  O3_14 
REMARK    5  A    between atoms: C7_13  and  C8_16 
REMARK    6  A    between atoms: C8_16  and  C10_18 
REMARK    7  A    between atoms: C13_21  and  O4_22 
REMARK    8  A    between atoms: O4_22  and  C14_23 
REMARK    9  A    between atoms: C14_23  and  C15_25 
REMARK   10  A    between atoms: C15_25  and  C16_26 
REMARK   11  A    between atoms: C20_31  and  O7_32 
REMARK   12  A    between atoms: O7_32  and  C21_33 
REMARK   13  A    between atoms: C21_33  and  C22_34 
REMARK   14  A    between atoms: C22_34  and  O8_35 
REMARK   15  A    between atoms: C22_34  and  O9_37 
ROOT
HETATM    1  C1  UNL     1     -11.772  -3.896 -16.698  1.00  0.00     0.048 C 
HETATM    2  C2  UNL     1     -11.182  -2.657 -17.306  1.00  0.00    -0.031 C 
HETATM    3  C3  UNL     1      -9.859  -2.590 -17.386  1.00  0.00     0.015 C 
HETATM    4  C4  UNL     1      -9.001  -1.480 -17.944  1.00  0.00     0.184 C 
HETATM    5  C5  UNL     1      -9.382  -0.152 -17.401  1.00  0.00     0.156 C 
HETATM    6  C6  UNL     1      -8.949   1.003 -18.183  1.00  0.00     0.057 C 
HETATM    7  N1  UNL     1      -7.886   1.455 -18.672  1.00  0.00    -0.365 N 
ATOM      8  H1  UNL     1      -7.977   2.333 -19.181  1.00  0.00     0.161 HD
HETATM    9  C13 UNL     1     -10.392   1.485 -18.162  1.00  0.00     0.213 C 
HETATM   10  C19 UNL     1     -10.834   0.191 -17.564  1.00  0.00     0.203 C 
HETATM   11  O6  UNL     1     -11.521  -0.625 -18.451  1.00  0.00    -0.346 OA
HETATM   12  C20 UNL     1     -12.175  -1.637 -17.750  1.00  0.00     0.290 C 
ENDROOT
BRANCH   5  13
HETATM   13  O2  UNL     1      -8.975  -0.045 -16.057  1.00  0.00    -0.378 OA
ATOM     14  H2  UNL     1      -8.647   0.829 -15.885  1.00  0.00     0.211 HD
ENDBRANCH   5  13
BRANCH   7  15
HETATM   15  C7  UNL     1      -6.572   0.916 -18.617  1.00  0.00     0.221 C 
BRANCH  15  16
HETATM   16  O3  UNL     1      -6.267   0.792 -17.238  1.00  0.00    -0.377 OA
ATOM     17  H3  UNL     1      -6.248  -0.142 -17.062  1.00  0.00     0.212 HD
ENDBRANCH  15  16
BRANCH  15  18
HETATM   18  C8  UNL     1      -5.646   1.998 -19.137  1.00  0.00     0.033 C 
HETATM   19  C9  UNL     1      -6.045   3.309 -18.495  1.00  0.00     0.015 C 
BRANCH  18  20
HETATM   20  C10 UNL     1      -5.746   2.175 -20.629  1.00  0.00    -0.015 C 
HETATM   21  C11 UNL     1      -4.640   3.138 -21.034  1.00  0.00     0.010 C 
HETATM   22  C12 UNL     1      -5.587   0.895 -21.391  1.00  0.00     0.010 C 
ENDBRANCH  18  20
ENDBRANCH  15  18
ENDBRANCH   7  15
BRANCH   9  23
HETATM   23  O4  UNL     1     -10.457   2.608 -17.304  1.00  0.00    -0.307 OA
BRANCH  23  24
HETATM   24  C14 UNL     1     -11.582   3.362 -17.081  1.00  0.00     0.259 C 
HETATM   25  O5  UNL     1     -11.689   3.971 -15.986  1.00  0.00    -0.265 OA
BRANCH  24  26
HETATM   26  C15 UNL     1     -12.688   3.508 -18.053  1.00  0.00     0.115 C 
BRANCH  26  27
HETATM   27  C16 UNL     1     -12.852   4.942 -18.508  1.00  0.00    -0.013 C 
HETATM   28  C17 UNL     1     -12.857   4.970 -20.023  1.00  0.00     0.010 C 
HETATM   29  C18 UNL     1     -14.205   5.499 -18.057  1.00  0.00     0.010 C 
ENDBRANCH  26  27
ENDBRANCH  24  26
ENDBRANCH  23  24
ENDBRANCH   9  23
BRANCH   4  30
HETATM   30  O1  UNL     1      -8.908  -1.555 -19.315  1.00  0.00    -0.388 OA
ATOM     31  H1  UNL     1      -8.004  -1.610 -19.599  1.00  0.00     0.210 HD
ENDBRANCH   4  30
BRANCH  12  32
HETATM   32  O7  UNL     1     -13.172  -2.238 -18.473  1.00  0.00    -0.352 OA
BRANCH  32  33
HETATM   33  C21 UNL     1     -14.418  -1.675 -18.379  1.00  0.00     0.231 C 
BRANCH  33  34
HETATM   34  C22 UNL     1     -14.885  -1.063 -19.687  1.00  0.00     0.277 C 
BRANCH  34  35
HETATM   35  O8  UNL     1     -13.754  -0.817 -20.498  1.00  0.00    -0.369 OA
ATOM     36  H8  UNL     1     -13.891  -0.003 -20.968  1.00  0.00     0.212 HD
ENDBRANCH  34  35
BRANCH  34  37
HETATM   37  O9  UNL     1     -15.673  -1.960 -20.405  1.00  0.00    -0.369 OA
ATOM     38  H9  UNL     1     -15.206  -2.296 -21.160  1.00  0.00     0.212 HD
ENDBRANCH  34  37
ENDBRANCH  33  34
ENDBRANCH  32  33
ENDBRANCH  12  32
TORSDOF 15
ENDMDL
MODEL 2
REMARK VINA RESULT: -7.989996256      0.844      1.251
REMARK  15 active torsions:
REMARK  status: ('A' for Active; 'I' for Inactive)
REMARK    1  A    between atoms: C4_4  and  O1_5 
REMARK    2  A    between atoms: C5_7  and  O2_8 
REMARK    3  A    between atoms: N1_11  and  C7_13 
REMARK    4  A    between atoms: C7_13  and  O3_14 
REMARK    5  A    between atoms: C7_13  and  C8_16 
REMARK    6  A    between atoms: C8_16  and  C10_18 
REMARK    7  A    between atoms: C13_21  and  O4_22 
REMARK    8  A    between atoms: O4_22  and  C14_23 
REMARK    9  A    between atoms: C14_23  and  C15_25 
REMARK   10  A    between atoms: C15_25  and  C16_26 
REMARK   11  A    between atoms: C20_31  and  O7_32 
REMARK   12  A    between atoms: O7_32  and  C21_33 
REMARK   13  A    between atoms: C21_33  and  C22_34 
REMARK   14  A    between atoms: C22_34  and  O8_35 
REMARK   15  A    between atoms: C22_34  and  O9_37 
ROOT
HETATM    1  C1  UNL     1     -12.270  -3.994 -16.634  1.00  0.00     0.048 C 
HETATM    2  C2  UNL     1     -11.510  -2.817 -17.174  1.00  0.00    -0.031 C 
HETATM    3  C3  UNL     1     -10.186  -2.863 -17.101  1.00  0.00     0.015 C 
HETATM    4  C4  UNL     1      -9.178  -1.837 -17.560  1.00  0.00     0.184 C 
HETATM    5  C5  UNL     1      -9.505  -0.474 -17.072  1.00  0.00     0.156 C 
HETATM    6  C6  UNL     1      -8.887   0.629 -17.804  1.00  0.00     0.057 C 
HETATM    7  N1  UNL     1      -7.740   0.982 -18.168  1.00  0.00    -0.365 N 
ATOM      8  H1  UNL     1      -7.697   1.858 -18.688  1.00  0.00     0.161 HD
HETATM    9  C13 UNL     1     -10.277   1.231 -17.953  1.00  0.00     0.213 C 
HETATM   10  C19 UNL     1     -10.894  -0.012 -17.404  1.00  0.00     0.203 C 
HETATM   11  O6  UNL     1     -11.541  -0.782 -18.362  1.00  0.00    -0.346 OA
HETATM   12  C20 UNL     1     -12.355  -1.725 -17.736  1.00  0.00     0.290 C 
ENDROOT
BRANCH   5  13
HETATM   13  O2  UNL     1      -9.248  -0.382 -15.690  1.00  0.00    -0.378 OA
ATOM     14  H2  UNL     1      -8.628   0.317 -15.520  1.00  0.00     0.211 HD
ENDBRANCH   5  13
BRANCH   7  15
HETATM   15  C7  UNL     1      -6.493   0.336 -17.957  1.00  0.00     0.221 C 
BRANCH  15  16
HETATM   16  O3  UNL     1      -6.441   0.044 -16.571  1.00  0.00    -0.377 OA
ATOM     17  H3  UNL     1      -6.301   0.878 -16.138  1.00  0.00     0.212 HD
ENDBRANCH  15  16
BRANCH  15  18
HETATM   18  C8  UNL     1      -5.424   1.388 -18.186  1.00  0.00     0.033 C 
HETATM   19  C9  UNL     1      -4.720   1.637 -16.870  1.00  0.00     0.015 C 
BRANCH  18  20
HETATM   20  C10 UNL     1      -5.998   2.701 -18.650  1.00  0.00    -0.015 C 
HETATM   21  C11 UNL     1      -5.712   3.718 -17.555  1.00  0.00     0.010 C 
HETATM   22  C12 UNL     1      -5.405   3.186 -19.938  1.00  0.00     0.010 C 
ENDBRANCH  18  20
ENDBRANCH  15  18
ENDBRANCH   7  15
BRANCH   9  23
HETATM   23  O4  UNL     1     -10.345   2.367 -17.113  1.00  0.00    -0.307 OA
BRANCH  23  24
HETATM   24  C14 UNL     1     -11.236   3.401 -17.261  1.00  0.00     0.259 C 
HETATM   25  O5  UNL     1     -11.824   3.837 -16.239  1.00  0.00    -0.265 OA
BRANCH  24  26
HETATM   26  C15 UNL     1     -11.553   4.042 -18.557  1.00  0.00     0.115 C 
BRANCH  26  27
HETATM   27  C16 UNL     1     -13.045   4.210 -18.751  1.00  0.00    -0.013 C 
HETATM   28  C17 UNL     1     -13.277   5.187 -19.885  1.00  0.00     0.010 C 
HETATM   29  C18 UNL     1     -13.684   2.886 -19.179  1.00  0.00     0.010 C 
ENDBRANCH  26  27
ENDBRANCH  24  26
ENDBRANCH  23  24
ENDBRANCH   9  23
BRANCH   4  30
HETATM   30  O1  UNL     1      -8.934  -1.940 -18.911  1.00  0.00    -0.388 OA
ATOM     31  H1  UNL     1      -9.490  -2.596 -19.315  1.00  0.00     0.210 HD
ENDBRANCH   4  30
BRANCH  12  32
HETATM   32  O7  UNL     1     -13.309  -2.250 -18.568  1.00  0.00    -0.352 OA
BRANCH  32  33
HETATM   33  C21 UNL     1     -14.537  -1.641 -18.548  1.00  0.00     0.231 C 
BRANCH  33  34
HETATM   34  C22 UNL     1     -14.892  -0.995 -19.875  1.00  0.00     0.277 C 
BRANCH  34  35
HETATM   35  O8  UNL     1     -13.696  -0.719 -20.576  1.00  0.00    -0.369 OA
ATOM     36  H8  UNL     1     -13.615  -1.339 -21.290  1.00  0.00     0.212 HD
ENDBRANCH  34  35
BRANCH  34  37
HETATM   37  O9  UNL     1     -15.606  -1.875 -20.685  1.00  0.00    -0.369 OA
ATOM     38  H9  UNL     1     -15.198  -2.733 -20.698  1.00  0.00     0.212 HD
ENDBRANCH  34  37
ENDBRANCH  33  34
ENDBRANCH  32  33
ENDBRANCH  12  32
TORSDOF 15
ENDMDL
MODEL 3
REMARK VINA RESULT: -7.870387705      1.597      2.313
REMARK  15 active torsions:
REMARK  status: ('A' for Active; 'I' for Inactive)
REMARK    1  A    between atoms: C4_4  and  O1_5 
REMARK    2  A    between atoms: C5_7  and  O2_8 
REMARK    3  A    between atoms: N1_11  and  C7_13 
REMARK    4  A    between atoms: C7_13  and  O3_14 
REMARK    5  A    between atoms: C7_13  and  C8_16 
REMARK    6  A    between atoms: C8_16  and  C10_18 
REMARK    7  A    between atoms: C13_21  and  O4_22 
REMARK    8  A    between atoms: O4_22  and  C14_23 
REMARK    9  A    between atoms: C14_23  and  C15_25 
REMARK   10  A    between atoms: C15_25  and  C16_26 
REMARK   11  A    between atoms: C20_31  and  O7_32 
REMARK   12  A    between atoms: O7_32  and  C21_33 
REMARK   13  A    between atoms: C21_33  and  C22_34 
REMARK   14  A    between atoms: C22_34  and  O8_35 
REMARK   15  A    between atoms: C22_34  and  O9_37 
ROOT
HETATM    1  C1  UNL     1     -11.203  -4.588 -15.773  1.00  0.00     0.048 C 
HETATM    2  C2  UNL     1     -10.982  -3.398 -16.661  1.00  0.00    -0.031 C 
HETATM    3  C3  UNL     1      -9.732  -2.980 -16.816  1.00  0.00     0.015 C 
HETATM    4  C4  UNL     1      -9.217  -1.825 -17.640  1.00  0.00     0.184 C 
HETATM    5  C5  UNL     1      -9.970  -0.573 -17.380  1.00  0.00     0.156 C 
HETATM    6  C6  UNL     1      -9.871   0.455 -18.413  1.00  0.00     0.057 C 
HETATM    7  N1  UNL     1      -8.973   1.069 -19.037  1.00  0.00    -0.365 N 
ATOM      8  H1  UNL     1      -9.302   1.752 -19.719  1.00  0.00     0.161 HD
HETATM    9  C13 UNL     1     -11.392   0.503 -18.429  1.00  0.00     0.213 C 
HETATM   10  C19 UNL     1     -11.457  -0.698 -17.545  1.00  0.00     0.203 C 
HETATM   11  O6  UNL     1     -11.867  -1.850 -18.202  1.00  0.00    -0.346 OA
HETATM   12  C20 UNL     1     -12.216  -2.825 -17.269  1.00  0.00     0.290 C 
ENDROOT
BRANCH   5  13
HETATM   13  O2  UNL     1      -9.634  -0.062 -16.112  1.00  0.00    -0.378 OA
ATOM     14  H2  UNL     1      -9.562  -0.770 -15.484  1.00  0.00     0.211 HD
ENDBRANCH   5  13
BRANCH   7  15
HETATM   15  C7  UNL     1      -7.562   0.949 -18.927  1.00  0.00     0.221 C 
BRANCH  15  16
HETATM   16  O3  UNL     1      -7.297   0.782 -17.545  1.00  0.00    -0.377 OA
ATOM     17  H3  UNL     1      -7.225  -0.156 -17.409  1.00  0.00     0.212 HD
ENDBRANCH  15  16
BRANCH  15  18
HETATM   18  C8  UNL     1      -6.990   2.308 -19.284  1.00  0.00     0.033 C 
HETATM   19  C9  UNL     1      -5.957   2.113 -20.373  1.00  0.00     0.015 C 
BRANCH  18  20
HETATM   20  C10 UNL     1      -6.301   2.967 -18.118  1.00  0.00    -0.015 C 
HETATM   21  C11 UNL     1      -4.815   2.996 -18.442  1.00  0.00     0.010 C 
HETATM   22  C12 UNL     1      -6.775   4.365 -17.861  1.00  0.00     0.010 C 
ENDBRANCH  18  20
ENDBRANCH  15  18
ENDBRANCH   7  15
BRANCH   9  23
HETATM   23  O4  UNL     1     -11.790   1.722 -17.832  1.00  0.00    -0.307 OA
BRANCH  23  24
HETATM   24  C14 UNL     1     -12.696   2.602 -18.370  1.00  0.00     0.259 C 
HETATM   25  O5  UNL     1     -13.832   2.172 -18.692  1.00  0.00    -0.265 OA
BRANCH  24  26
HETATM   26  C15 UNL     1     -12.419   4.038 -18.599  1.00  0.00     0.115 C 
BRANCH  26  27
HETATM   27  C16 UNL     1     -13.499   4.693 -19.434  1.00  0.00    -0.013 C 
HETATM   28  C17 UNL     1     -14.138   5.796 -18.616  1.00  0.00     0.010 C 
HETATM   29  C18 UNL     1     -12.893   5.362 -20.670  1.00  0.00     0.010 C 
ENDBRANCH  26  27
ENDBRANCH  24  26
ENDBRANCH  23  24
ENDBRANCH   9  23
BRANCH   4  30
HETATM   30  O1  UNL     1      -9.082  -2.171 -18.965  1.00  0.00    -0.388 OA
ATOM     31  H1  UNL     1      -9.401  -3.051 -19.128  1.00  0.00     0.210 HD
ENDBRANCH   4  30
BRANCH  12  32
HETATM   32  O7  UNL     1     -12.988  -3.827 -17.798  1.00  0.00    -0.352 OA
BRANCH  32  33
HETATM   33  C21 UNL     1     -14.258  -3.482 -18.177  1.00  0.00     0.231 C 
BRANCH  33  34
HETATM   34  C22 UNL     1     -15.326  -4.254 -17.423  1.00  0.00     0.277 C 
BRANCH  34  35
HETATM   35  O8  UNL     1     -14.722  -4.891 -16.316  1.00  0.00    -0.369 OA
ATOM     36  H8  UNL     1     -14.839  -5.829 -16.407  1.00  0.00     0.212 HD
ENDBRANCH  34  35
BRANCH  34  37
HETATM   37  O9  UNL     1     -16.279  -3.392 -16.886  1.00  0.00    -0.369 OA
ATOM     38  H9  UNL     1     -16.972  -3.217 -17.511  1.00  0.00     0.212 HD
ENDBRANCH  34  37
ENDBRANCH  33  34
ENDBRANCH  32  33
ENDBRANCH  12  32
TORSDOF 15
ENDMDL
MODEL 4
REMARK VINA RESULT: -7.841656096      1.354      1.781
REMARK  15 active torsions:
REMARK  status: ('A' for Active; 'I' for Inactive)
REMARK    1  A    between atoms: C4_4  and  O1_5 
REMARK    2  A    between atoms: C5_7  and  O2_8 
REMARK    3  A    between atoms: N1_11  and  C7_13 
REMARK    4  A    between atoms: C7_13  and  O3_14 
REMARK    5  A    between atoms: C7_13  and  C8_16 
REMARK    6  A    between atoms: C8_16  and  C10_18 
REMARK    7  A    between atoms: C13_21  and  O4_22 
REMARK    8  A    between atoms: O4_22  and  C14_23 
REMARK    9  A    between atoms: C14_23  and  C15_25 
REMARK   10  A    between atoms: C15_25  and  C16_26 
REMARK   11  A    between atoms: C20_31  and  O7_32 
REMARK   12  A    between atoms: O7_32  and  C21_33 
REMARK   13  A    between atoms: C21_33  and  C22_34 
REMARK   14  A    between atoms: C22_34  and  O8_35 
REMARK   15  A    between atoms: C22_34  and  O9_37 
ROOT
HETATM    1  C1  UNL     1     -11.059  -4.361 -15.971  1.00  0.00     0.048 C 
HETATM    2  C2  UNL     1     -10.733  -3.164 -16.816  1.00  0.00    -0.031 C 
HETATM    3  C3  UNL     1      -9.451  -2.861 -16.972  1.00  0.00     0.015 C 
HETATM    4  C4  UNL     1      -8.836  -1.728 -17.758  1.00  0.00     0.184 C 
HETATM    5  C5  UNL     1      -9.463  -0.421 -17.439  1.00  0.00     0.156 C 
HETATM    6  C6  UNL     1      -9.277   0.633 -18.433  1.00  0.00     0.057 C 
HETATM    7  N1  UNL     1      -8.330   1.183 -19.045  1.00  0.00    -0.365 N 
ATOM      8  H1  UNL     1      -8.599   1.920 -19.696  1.00  0.00     0.161 HD
HETATM    9  C13 UNL     1     -10.786   0.826 -18.426  1.00  0.00     0.213 C 
HETATM   10  C19 UNL     1     -10.957  -0.397 -17.588  1.00  0.00     0.203 C 
HETATM   11  O6  UNL     1     -11.482  -1.478 -18.283  1.00  0.00    -0.346 OA
HETATM   12  C20 UNL     1     -11.914  -2.451 -17.383  1.00  0.00     0.290 C 
ENDROOT
BRANCH   5  13
HETATM   13  O2  UNL     1      -9.066   0.004 -16.157  1.00  0.00    -0.378 OA
ATOM     14  H2  UNL     1      -8.879   0.935 -16.166  1.00  0.00     0.211 HD
ENDBRANCH   5  13
BRANCH   7  15
HETATM   15  C7  UNL     1      -6.936   0.924 -18.960  1.00  0.00     0.221 C 
BRANCH  15  16
HETATM   16  O3  UNL     1      -6.642   0.853 -17.575  1.00  0.00    -0.377 OA
ATOM     17  H3  UNL     1      -6.300  -0.021 -17.430  1.00  0.00     0.212 HD
ENDBRANCH  15  16
BRANCH  15  18
HETATM   18  C8  UNL     1      -6.239   2.177 -19.454  1.00  0.00     0.033 C 
HETATM   19  C9  UNL     1      -7.196   3.340 -19.299  1.00  0.00     0.015 C 
BRANCH  18  20
HETATM   20  C10 UNL     1      -5.861   2.092 -20.910  1.00  0.00    -0.015 C 
HETATM   21  C11 UNL     1      -4.669   3.014 -21.110  1.00  0.00     0.010 C 
HETATM   22  C12 UNL     1      -5.491   0.707 -21.346  1.00  0.00     0.010 C 
ENDBRANCH  18  20
ENDBRANCH  15  18
ENDBRANCH   7  15
BRANCH   9  23
HETATM   23  O4  UNL     1     -11.059   2.053 -17.776  1.00  0.00    -0.307 OA
BRANCH  23  24
HETATM   24  C14 UNL     1     -12.166   2.833 -18.003  1.00  0.00     0.259 C 
HETATM   25  O5  UNL     1     -13.303   2.324 -17.835  1.00  0.00    -0.265 OA
BRANCH  24  26
HETATM   26  C15 UNL     1     -12.108   4.246 -18.436  1.00  0.00     0.115 C 
BRANCH  26  27
HETATM   27  C16 UNL     1     -13.319   4.633 -19.258  1.00  0.00    -0.013 C 
HETATM   28  C17 UNL     1     -14.096   5.691 -18.503  1.00  0.00     0.010 C 
HETATM   29  C18 UNL     1     -12.889   5.269 -20.583  1.00  0.00     0.010 C 
ENDBRANCH  26  27
ENDBRANCH  24  26
ENDBRANCH  23  24
ENDBRANCH   9  23
BRANCH   4  30
HETATM   30  O1  UNL     1      -8.749  -2.033 -19.097  1.00  0.00    -0.388 OA
ATOM     31  H1  UNL     1      -8.839  -1.256 -19.637  1.00  0.00     0.210 HD
ENDBRANCH   4  30
BRANCH  12  32
HETATM   32  O7  UNL     1     -12.783  -3.353 -17.939  1.00  0.00    -0.352 OA
BRANCH  32  33
HETATM   33  C21 UNL     1     -14.110  -3.011 -17.923  1.00  0.00     0.231 C 
BRANCH  33  34
HETATM   34  C22 UNL     1     -14.990  -4.102 -17.342  1.00  0.00     0.277 C 
BRANCH  34  35
HETATM   35  O8  UNL     1     -14.410  -4.554 -16.135  1.00  0.00    -0.369 OA
ATOM     36  H8  UNL     1     -14.962  -5.235 -15.772  1.00  0.00     0.212 HD
ENDBRANCH  34  35
BRANCH  34  37
HETATM   37  O9  UNL     1     -16.242  -3.601 -16.992  1.00  0.00    -0.369 OA
ATOM     38  H9  UNL     1     -16.285  -2.663 -17.134  1.00  0.00     0.212 HD
ENDBRANCH  34  37
ENDBRANCH  33  34
ENDBRANCH  32  33
ENDBRANCH  12  32
TORSDOF 15
ENDMDL
MODEL 5
REMARK VINA RESULT: -7.824298172      0.988      1.322
REMARK  15 active torsions:
REMARK  status: ('A' for Active; 'I' for Inactive)
REMARK    1  A    between atoms: C4_4  and  O1_5 
REMARK    2  A    between atoms: C5_7  and  O2_8 
REMARK    3  A    between atoms: N1_11  and  C7_13 
REMARK    4  A    between atoms: C7_13  and  O3_14 
REMARK    5  A    between atoms: C7_13  and  C8_16 
REMARK    6  A    between atoms: C8_16  and  C10_18 
REMARK    7  A    between atoms: C13_21  and  O4_22 
REMARK    8  A    between atoms: O4_22  and  C14_23 
REMARK    9  A    between atoms: C14_23  and  C15_25 
REMARK   10  A    between atoms: C15_25  and  C16_26 
REMARK   11  A    between atoms: C20_31  and  O7_32 
REMARK   12  A    between atoms: O7_32  and  C21_33 
REMARK   13  A    between atoms: C21_33  and  C22_34 
REMARK   14  A    between atoms: C22_34  and  O8_35 
REMARK   15  A    between atoms: C22_34  and  O9_37 
ROOT
HETATM    1  C1  UNL     1     -11.738  -3.967 -16.618  1.00  0.00     0.048 C 
HETATM    2  C2  UNL     1     -11.199  -2.723 -17.261  1.00  0.00    -0.031 C 
HETATM    3  C3  UNL     1      -9.880  -2.602 -17.341  1.00  0.00     0.015 C 
HETATM    4  C4  UNL     1      -9.067  -1.474 -17.930  1.00  0.00     0.184 C 
HETATM    5  C5  UNL     1      -9.506  -0.148 -17.428  1.00  0.00     0.156 C 
HETATM    6  C6  UNL     1      -9.119   1.000 -18.245  1.00  0.00     0.057 C 
HETATM    7  N1  UNL     1      -8.074   1.481 -18.744  1.00  0.00    -0.365 N 
ATOM      8  H1  UNL     1      -8.200   2.339 -19.280  1.00  0.00     0.161 HD
HETATM    9  C13 UNL     1     -10.581   1.421 -18.242  1.00  0.00     0.213 C 
HETATM   10  C19 UNL     1     -10.971   0.128 -17.606  1.00  0.00     0.203 C 
HETATM   11  O6  UNL     1     -11.619  -0.743 -18.470  1.00  0.00    -0.346 OA
HETATM   12  C20 UNL     1     -12.232  -1.760 -17.740  1.00  0.00     0.290 C 
ENDROOT
BRANCH   5  13
HETATM   13  O2  UNL     1      -9.109   0.017 -16.088  1.00  0.00    -0.378 OA
ATOM     14  H2  UNL     1      -8.347   0.582 -16.041  1.00  0.00     0.211 HD
ENDBRANCH   5  13
BRANCH   7  15
HETATM   15  C7  UNL     1      -6.739   1.001 -18.669  1.00  0.00     0.221 C 
BRANCH  15  16
HETATM   16  O3  UNL     1      -6.446   0.897 -17.286  1.00  0.00    -0.377 OA
ATOM     17  H3  UNL     1      -6.956   0.160 -16.970  1.00  0.00     0.212 HD
ENDBRANCH  15  16
BRANCH  15  18
HETATM   18  C8  UNL     1      -5.854   2.119 -19.184  1.00  0.00     0.033 C 
HETATM   19  C9  UNL     1      -6.422   3.433 -18.694  1.00  0.00     0.015 C 
BRANCH  18  20
HETATM   20  C10 UNL     1      -5.812   2.175 -20.689  1.00  0.00    -0.015 C 
HETATM   21  C11 UNL     1      -4.663   3.098 -21.063  1.00  0.00     0.010 C 
HETATM   22  C12 UNL     1      -5.596   0.837 -21.327  1.00  0.00     0.010 C 
ENDBRANCH  18  20
ENDBRANCH  15  18
ENDBRANCH   7  15
BRANCH   9  23
HETATM   23  O4  UNL     1     -10.697   2.565 -17.418  1.00  0.00    -0.307 OA
BRANCH  23  24
HETATM   24  C14 UNL     1     -11.754   3.441 -17.434  1.00  0.00     0.259 C 
HETATM   25  O5  UNL     1     -11.815   4.292 -18.357  1.00  0.00    -0.265 OA
BRANCH  24  26
HETATM   26  C15 UNL     1     -12.837   3.449 -16.425  1.00  0.00     0.115 C 
BRANCH  26  27
HETATM   27  C16 UNL     1     -13.068   4.834 -15.859  1.00  0.00    -0.013 C 
HETATM   28  C17 UNL     1     -14.537   4.977 -15.519  1.00  0.00     0.010 C 
HETATM   29  C18 UNL     1     -12.298   5.015 -14.548  1.00  0.00     0.010 C 
ENDBRANCH  26  27
ENDBRANCH  24  26
ENDBRANCH  23  24
ENDBRANCH   9  23
BRANCH   4  30
HETATM   30  O1  UNL     1      -8.966  -1.587 -19.297  1.00  0.00    -0.388 OA
ATOM     31  H1  UNL     1      -8.886  -0.736 -19.712  1.00  0.00     0.210 HD
ENDBRANCH   4  30
BRANCH  12  32
HETATM   32  O7  UNL     1     -13.200  -2.424 -18.447  1.00  0.00    -0.352 OA
BRANCH  32  33
HETATM   33  C21 UNL     1     -14.481  -1.956 -18.314  1.00  0.00     0.231 C 
BRANCH  33  34
HETATM   34  C22 UNL     1     -14.990  -1.274 -19.572  1.00  0.00     0.277 C 
BRANCH  34  35
HETATM   35  O8  UNL     1     -13.880  -0.938 -20.380  1.00  0.00    -0.369 OA
ATOM     36  H8  UNL     1     -14.069  -0.121 -20.827  1.00  0.00     0.212 HD
ENDBRANCH  34  35
BRANCH  34  37
HETATM   37  O9  UNL     1     -15.760  -2.147 -20.337  1.00  0.00    -0.369 OA
ATOM     38  H9  UNL     1     -16.310  -1.670 -20.947  1.00  0.00     0.212 HD
ENDBRANCH  34  37
ENDBRANCH  33  34
ENDBRANCH  32  33
ENDBRANCH  12  32
TORSDOF 15
ENDMDL
