MODEL 1
REMARK VINA RESULT: -7.785435613      0.000      0.000
REMARK  14 active torsions:
REMARK  status: ('A' for Active; 'I' for Inactive)
REMARK    1  A    between atoms: C2_2  and  C3_3 
REMARK    2  A    between atoms: C3_3  and  N1_4 
REMARK    3  A    between atoms: C4_6  and  C5_7 
REMARK    4  A    between atoms: C6_8  and  O1_9 
REMARK    5  A    between atoms: O1_9  and  C7_10 
REMARK    6  A    between atoms: C8_12  and  C9_13 
REMARK    7  A    between atoms: C9_13  and  O3_14 
REMARK    8  A    between atoms: C10_16  and  O4_17 
REMARK    9  A    between atoms: C11_19  and  O5_20 
REMARK   10  A    between atoms: C12_23  and  C13_24 
REMARK   11  A    between atoms: C13_24  and  O7_25 
REMARK   12  A    between atoms: C14_27  and  O8_28 
REMARK   13  A    between atoms: C15_30  and  S1_31 
REMARK   14  A    between atoms: S1_31  and  C16_32 
ROOT
HETATM    1  C5  UNL     1     -12.481   0.684 -18.019  1.00  0.00     0.095 C 
HETATM    2  C6  UNL     1     -12.163  -0.809 -17.804  1.00  0.00     0.273 C 
HETATM    3  O6  UNL     1     -10.887  -1.010 -18.328  1.00  0.00    -0.350 OA
HETATM    4  C12 UNL     1      -9.906  -0.457 -17.514  1.00  0.00     0.178 C 
HETATM    5  C14 UNL     1     -10.247   0.942 -17.072  1.00  0.00     0.164 C 
HETATM    6  C15 UNL     1     -11.228   1.485 -18.115  1.00  0.00     0.092 C 
ENDROOT
BRANCH   2   7
HETATM    7  O1  UNL     1     -13.099  -1.507 -18.475  1.00  0.00    -0.328 OA
BRANCH   7   8
HETATM    8  C7  UNL     1     -13.432  -2.752 -18.110  1.00  0.00     0.294 C 
HETATM    9  O2  UNL     1     -14.386  -3.368 -18.937  1.00  0.00    -0.348 OA
HETATM   10  C8  UNL     1     -15.114  -4.253 -18.187  1.00  0.00     0.179 C 
HETATM   11  C10 UNL     1     -14.372  -4.426 -16.871  1.00  0.00     0.182 C 
HETATM   12  C11 UNL     1     -13.959  -2.944 -16.723  1.00  0.00     0.204 C 
BRANCH  10  13
HETATM   13  C9  UNL     1     -15.421  -5.552 -18.856  1.00  0.00     0.198 C 
BRANCH  13  14
HETATM   14  O3  UNL     1     -14.975  -5.619 -20.160  1.00  0.00    -0.398 OA
ATOM     15  H3  UNL     1     -15.454  -5.052 -20.754  1.00  0.00     0.209 HD
ENDBRANCH  13  14
ENDBRANCH  10  13
BRANCH  11  16
HETATM   16  O4  UNL     1     -13.251  -5.218 -17.078  1.00  0.00    -0.390 OA
ATOM     17  H4  UNL     1     -13.403  -6.078 -16.704  1.00  0.00     0.210 HD
ENDBRANCH  11  16
BRANCH  12  18
HETATM   18  O5  UNL     1     -15.182  -2.290 -16.519  1.00  0.00    -0.388 OA
ATOM     19  H5  UNL     1     -15.548  -2.463 -15.659  1.00  0.00     0.210 HD
ENDBRANCH  12  18
ENDBRANCH   7   8
ENDBRANCH   2   7
BRANCH   1  20
HETATM   20  C4  UNL     1     -13.356   1.116 -16.886  1.00  0.00     0.066 C 
HETATM   21  N1  UNL     1     -14.583   0.759 -16.843  1.00  0.00    -0.398 N 
ATOM     22  H1  UNL     1     -14.940   0.177 -17.599  1.00  0.00     0.158 HD
BRANCH  21  23
HETATM   23  C3  UNL     1     -15.482   1.128 -15.798  1.00  0.00     0.145 C 
BRANCH  23  24
HETATM   24  C2  UNL     1     -16.886   0.762 -16.157  1.00  0.00    -0.018 C 
HETATM   25  C1  UNL     1     -17.630   0.002 -15.374  1.00  0.00     0.008 C 
ENDBRANCH  23  24
ENDBRANCH  21  23
ENDBRANCH   1  20
BRANCH   6  26
HETATM   26  S1  UNL     1     -11.337   3.229 -17.922  1.00  0.00    -0.156 SA
BRANCH  26  27
HETATM   27  C16 UNL     1     -12.780   4.075 -18.475  1.00  0.00     0.048 C 
HETATM   28  C17 UNL     1     -13.408   4.895 -17.358  1.00  0.00     0.015 C 
HETATM   29  C18 UNL     1     -14.775   5.397 -17.775  1.00  0.00     0.001 C 
HETATM   30  C19 UNL     1     -14.939   5.353 -19.279  1.00  0.00     0.000 C 
HETATM   31  C20 UNL     1     -13.694   5.889 -19.925  1.00  0.00     0.001 C 
HETATM   32  C21 UNL     1     -12.592   4.831 -19.729  1.00  0.00     0.015 C 
ENDBRANCH  26  27
ENDBRANCH   6  26
BRANCH   4  33
HETATM   33  C13 UNL     1      -8.553  -0.464 -18.140  1.00  0.00     0.198 C 
BRANCH  33  34
HETATM   34  O7  UNL     1      -7.539  -0.750 -17.257  1.00  0.00    -0.398 OA
ATOM     35  H7  UNL     1      -6.934  -1.412 -17.573  1.00  0.00     0.209 HD
ENDBRANCH  33  34
ENDBRANCH   4  33
BRANCH   5  36
HETATM   36  O8  UNL     1      -9.081   1.690 -17.062  1.00  0.00    -0.392 OA
ATOM     37  H8  UNL     1      -9.295   2.572 -16.780  1.00  0.00     0.210 HD
ENDBRANCH   5  36
TORSDOF 14
ENDMDL
MODEL 2
REMARK VINA RESULT: -7.574872427      2.311      3.102
REMARK  14 active torsions:
REMARK  status: ('A' for Active; 'I' for Inactive)
REMARK    1  A    between atoms: C2_2  and  C3_3 
REMARK    2  A    between atoms: C3_3  and  N1_4 
REMARK    3  A    between atoms: C4_6  and  C5_7 
REMARK    4  A    between atoms: C6_8  and  O1_9 
REMARK    5  A    between atoms: O1_9  and  C7_10 
REMARK    6  A    between atoms: C8_12  and  C9_13 
REMARK    7  A    between atoms: C9_13  and  O3_14 
REMARK    8  A    between atoms: C10_16  and  O4_17 
REMARK    9  A    between atoms: C11_19  and  O5_20 
REMARK   10  A    between atoms: C12_23  and  C13_24 
REMARK   11  A    between atoms: C13_24  and  O7_25 
REMARK   12  A    between atoms: C14_27  and  O8_28 
REMARK   13  A    between atoms: C15_30  and  S1_31 
REMARK   14  A    between atoms: S1_31  and  C16_32 
ROOT
HETATM    1  C5  UNL     1     -15.096   1.675 -17.732  1.00  0.00     0.095 C 
HETATM    2  C6  UNL     1     -14.029   0.561 -17.729  1.00  0.00     0.273 C 
HETATM    3  O6  UNL     1     -12.866   1.143 -18.231  1.00  0.00    -0.350 OA
HETATM    4  C12 UNL     1     -12.286   2.007 -17.311  1.00  0.00     0.178 C 
HETATM    5  C14 UNL     1     -13.291   2.934 -16.680  1.00  0.00     0.164 C 
HETATM    6  C15 UNL     1     -14.460   3.020 -17.665  1.00  0.00     0.092 C 
ENDROOT
BRANCH   2   7
HETATM    7  O1  UNL     1     -14.488  -0.421 -18.527  1.00  0.00    -0.328 OA
BRANCH   7   8
HETATM    8  C7  UNL     1     -14.096  -1.691 -18.361  1.00  0.00     0.294 C 
HETATM    9  O2  UNL     1     -14.868  -2.637 -19.056  1.00  0.00    -0.348 OA
HETATM   10  C8  UNL     1     -14.854  -3.815 -18.359  1.00  0.00     0.179 C 
HETATM   11  C10 UNL     1     -13.757  -3.693 -17.313  1.00  0.00     0.182 C 
HETATM   12  C11 UNL     1     -14.034  -2.215 -16.961  1.00  0.00     0.204 C 
BRANCH  10  13
HETATM   13  C9  UNL     1     -14.729  -5.046 -19.193  1.00  0.00     0.198 C 
BRANCH  13  14
HETATM   14  O3  UNL     1     -15.336  -4.940 -20.427  1.00  0.00    -0.398 OA
ATOM     15  H3  UNL     1     -15.995  -5.606 -20.584  1.00  0.00     0.209 HD
ENDBRANCH  13  14
ENDBRANCH  10  13
BRANCH  11  16
HETATM   16  O4  UNL     1     -12.520  -3.815 -17.932  1.00  0.00    -0.390 OA
ATOM     17  H4  UNL     1     -11.907  -4.217 -17.328  1.00  0.00     0.210 HD
ENDBRANCH  11  16
BRANCH  12  18
HETATM   18  O5  UNL     1     -15.295  -2.262 -16.350  1.00  0.00    -0.388 OA
ATOM     19  H5  UNL     1     -15.513  -3.131 -16.035  1.00  0.00     0.210 HD
ENDBRANCH  12  18
ENDBRANCH   7   8
ENDBRANCH   2   7
BRANCH   1  20
HETATM   20  C4  UNL     1     -16.012   1.411 -16.580  1.00  0.00     0.066 C 
HETATM   21  N1  UNL     1     -16.788   0.396 -16.587  1.00  0.00    -0.398 N 
ATOM     22  H1  UNL     1     -16.763  -0.221 -17.399  1.00  0.00     0.158 HD
BRANCH  21  23
HETATM   23  C3  UNL     1     -17.690   0.075 -15.528  1.00  0.00     0.145 C 
BRANCH  23  24
HETATM   24  C2  UNL     1     -18.965   0.843 -15.670  1.00  0.00    -0.018 C 
HETATM   25  C1  UNL     1     -19.648   0.855 -16.800  1.00  0.00     0.008 C 
ENDBRANCH  23  24
ENDBRANCH  21  23
ENDBRANCH   1  20
BRANCH   6  26
HETATM   26  S1  UNL     1     -15.463   4.394 -17.222  1.00  0.00    -0.156 SA
BRANCH  26  27
HETATM   27  C16 UNL     1     -16.929   4.730 -18.138  1.00  0.00     0.048 C 
HETATM   28  C17 UNL     1     -18.150   4.794 -17.232  1.00  0.00     0.015 C 
HETATM   29  C18 UNL     1     -19.421   4.821 -18.057  1.00  0.00     0.001 C 
HETATM   30  C19 UNL     1     -19.137   5.235 -19.485  1.00  0.00     0.000 C 
HETATM   31  C20 UNL     1     -18.200   6.408 -19.479  1.00  0.00     0.001 C 
HETATM   32  C21 UNL     1     -16.816   5.879 -19.058  1.00  0.00     0.015 C 
ENDBRANCH  26  27
ENDBRANCH   6  26
BRANCH   4  33
HETATM   33  C13 UNL     1     -11.165   2.805 -17.884  1.00  0.00     0.198 C 
BRANCH  33  34
HETATM   34  O7  UNL     1     -10.095   2.944 -17.030  1.00  0.00    -0.398 OA
ATOM     35  H7  UNL     1      -9.828   3.846 -16.899  1.00  0.00     0.209 HD
ENDBRANCH  33  34
ENDBRANCH   4  33
BRANCH   5  36
HETATM   36  O8  UNL     1     -12.696   4.175 -16.519  1.00  0.00    -0.392 OA
ATOM     37  H8  UNL     1     -13.179   4.653 -15.856  1.00  0.00     0.210 HD
ENDBRANCH   5  36
TORSDOF 14
ENDMDL
MODEL 3
REMARK VINA RESULT: -7.513904698      2.696      5.187
REMARK  14 active torsions:
REMARK  status: ('A' for Active; 'I' for Inactive)
REMARK    1  A    between atoms: C2_2  and  C3_3 
REMARK    2  A    between atoms: C3_3  and  N1_4 
REMARK    3  A    between atoms: C4_6  and  C5_7 
REMARK    4  A    between atoms: C6_8  and  O1_9 
REMARK    5  A    between atoms: O1_9  and  C7_10 
REMARK    6  A    between atoms: C8_12  and  C9_13 
REMARK    7  A    between atoms: C9_13  and  O3_14 
REMARK    8  A    between atoms: C10_16  and  O4_17 
REMARK    9  A    between atoms: C11_19  and  O5_20 
REMARK   10  A    between atoms: C12_23  and  C13_24 
REMARK   11  A    between atoms: C13_24  and  O7_25 
REMARK   12  A    between atoms: C14_27  and  O8_28 
REMARK   13  A    between atoms: C15_30  and  S1_31 
REMARK   14  A    between atoms: S1_31  and  C16_32 
ROOT
HETATM    1  C5  UNL     1     -10.629   1.219 -18.693  1.00  0.00     0.095 C 
HETATM    2  C6  UNL     1     -11.606   0.116 -18.239  1.00  0.00     0.273 C 
HETATM    3  O6  UNL     1     -10.887  -1.077 -18.286  1.00  0.00    -0.350 OA
HETATM    4  C12 UNL     1      -9.963  -1.161 -17.253  1.00  0.00     0.178 C 
HETATM    5  C14 UNL     1      -9.166   0.106 -17.089  1.00  0.00     0.164 C 
HETATM    6  C15 UNL     1      -9.217   0.813 -18.447  1.00  0.00     0.092 C 
ENDROOT
BRANCH   2   7
HETATM    7  O1  UNL     1     -12.633   0.121 -19.109  1.00  0.00    -0.328 OA
BRANCH   7   8
HETATM    8  C7  UNL     1     -13.842  -0.340 -18.761  1.00  0.00     0.294 C 
HETATM    9  O2  UNL     1     -14.142  -0.217 -17.394  1.00  0.00    -0.348 OA
HETATM   10  C8  UNL     1     -14.991  -1.230 -17.037  1.00  0.00     0.179 C 
HETATM   11  C10 UNL     1     -15.497  -1.853 -18.329  1.00  0.00     0.182 C 
HETATM   12  C11 UNL     1     -14.154  -1.766 -19.088  1.00  0.00     0.204 C 
BRANCH  10  13
HETATM   13  C9  UNL     1     -16.093  -0.839 -16.109  1.00  0.00     0.198 C 
BRANCH  13  14
HETATM   14  O3  UNL     1     -17.186  -1.679 -16.167  1.00  0.00    -0.398 OA
ATOM     15  H3  UNL     1     -17.966  -1.313 -15.767  1.00  0.00     0.209 HD
ENDBRANCH  13  14
ENDBRANCH  10  13
BRANCH  11  16
HETATM   16  O4  UNL     1     -16.432  -1.007 -18.910  1.00  0.00    -0.390 OA
ATOM     17  H4  UNL     1     -16.836  -0.476 -18.233  1.00  0.00     0.210 HD
ENDBRANCH  11  16
BRANCH  12  18
HETATM   18  O5  UNL     1     -13.336  -2.667 -18.393  1.00  0.00    -0.388 OA
ATOM     19  H5  UNL     1     -12.766  -3.161 -18.971  1.00  0.00     0.210 HD
ENDBRANCH  12  18
ENDBRANCH   7   8
ENDBRANCH   2   7
BRANCH   1  20
HETATM   20  C4  UNL     1     -11.006   2.469 -17.963  1.00  0.00     0.066 C 
HETATM   21  N1  UNL     1     -12.155   3.001 -18.139  1.00  0.00    -0.398 N 
ATOM     22  H1  UNL     1     -12.799   2.549 -18.788  1.00  0.00     0.158 HD
BRANCH  21  23
HETATM   23  C3  UNL     1     -12.590   4.190 -17.481  1.00  0.00     0.145 C 
BRANCH  23  24
HETATM   24  C2  UNL     1     -13.281   5.102 -18.444  1.00  0.00    -0.018 C 
HETATM   25  C1  UNL     1     -13.059   5.040 -19.744  1.00  0.00     0.008 C 
ENDBRANCH  23  24
ENDBRANCH  21  23
ENDBRANCH   1  20
BRANCH   6  26
HETATM   26  S1  UNL     1      -7.976   2.058 -18.474  1.00  0.00    -0.156 SA
BRANCH  26  27
HETATM   27  C16 UNL     1      -6.829   2.110 -19.810  1.00  0.00     0.048 C 
HETATM   28  C17 UNL     1      -5.633   2.991 -19.483  1.00  0.00     0.015 C 
HETATM   29  C18 UNL     1      -4.798   3.233 -20.724  1.00  0.00     0.001 C 
HETATM   30  C19 UNL     1      -5.097   2.203 -21.793  1.00  0.00     0.000 C 
HETATM   31  C20 UNL     1      -5.157   0.843 -21.161  1.00  0.00     0.001 C 
HETATM   32  C21 UNL     1      -6.459   0.783 -20.339  1.00  0.00     0.015 C 
ENDBRANCH  26  27
ENDBRANCH   6  26
BRANCH   4  33
HETATM   33  C13 UNL     1      -9.033  -2.318 -17.390  1.00  0.00     0.198 C 
BRANCH  33  34
HETATM   34  O7  UNL     1      -9.333  -3.369 -16.556  1.00  0.00    -0.398 OA
ATOM     35  H7  UNL     1     -10.137  -3.248 -16.064  1.00  0.00     0.209 HD
ENDBRANCH  33  34
ENDBRANCH   4  33
BRANCH   5  36
HETATM   36  O8  UNL     1      -7.863  -0.238 -16.767  1.00  0.00    -0.392 OA
ATOM     37  H8  UNL     1      -7.296   0.050 -17.472  1.00  0.00     0.210 HD
ENDBRANCH   5  36
TORSDOF 14
ENDMDL
MODEL 4
REMARK VINA RESULT: -7.502827487      1.455      2.110
REMARK  14 active torsions:
REMARK  status: ('A' for Active; 'I' for Inactive)
REMARK    1  A    between atoms: C2_2  and  C3_3 
REMARK    2  A    between atoms: C3_3  and  N1_4 
REMARK    3  A    between atoms: C4_6  and  C5_7 
REMARK    4  A    between atoms: C6_8  and  O1_9 
REMARK    5  A    between atoms: O1_9  and  C7_10 
REMARK    6  A    between atoms: C8_12  and  C9_13 
REMARK    7  A    between atoms: C9_13  and  O3_14 
REMARK    8  A    between atoms: C10_16  and  O4_17 
REMARK    9  A    between atoms: C11_19  and  O5_20 
REMARK   10  A    between atoms: C12_23  and  C13_24 
REMARK   11  A    between atoms: C13_24  and  O7_25 
REMARK   12  A    between atoms: C14_27  and  O8_28 
REMARK   13  A    between atoms: C15_30  and  S1_31 
REMARK   14  A    between atoms: S1_31  and  C16_32 
ROOT
HETATM    1  C5  UNL     1     -14.306   1.607 -17.869  1.00  0.00     0.095 C 
HETATM    2  C6  UNL     1     -13.506   0.290 -17.802  1.00  0.00     0.273 C 
HETATM    3  O6  UNL     1     -12.240   0.584 -18.306  1.00  0.00    -0.350 OA
HETATM    4  C12 UNL     1     -11.495   1.342 -17.413  1.00  0.00     0.178 C 
HETATM    5  C14 UNL     1     -12.280   2.491 -16.838  1.00  0.00     0.164 C 
HETATM    6  C15 UNL     1     -13.395   2.785 -17.846  1.00  0.00     0.092 C 
ENDROOT
BRANCH   2   7
HETATM    7  O1  UNL     1     -14.159  -0.604 -18.568  1.00  0.00    -0.328 OA
BRANCH   7   8
HETATM    8  C7  UNL     1     -14.019  -1.921 -18.371  1.00  0.00     0.294 C 
HETATM    9  O2  UNL     1     -14.900  -2.720 -19.118  1.00  0.00    -0.348 OA
HETATM   10  C8  UNL     1     -15.152  -3.871 -18.419  1.00  0.00     0.179 C 
HETATM   11  C10 UNL     1     -14.128  -3.935 -17.297  1.00  0.00     0.182 C 
HETATM   12  C11 UNL     1     -14.153  -2.425 -16.968  1.00  0.00     0.204 C 
BRANCH  10  13
HETATM   13  C9  UNL     1     -15.195  -5.117 -19.239  1.00  0.00     0.198 C 
BRANCH  13  14
HETATM   14  O3  UNL     1     -15.376  -4.883 -20.587  1.00  0.00    -0.398 OA
ATOM     15  H3  UNL     1     -16.168  -4.397 -20.784  1.00  0.00     0.209 HD
ENDBRANCH  13  14
ENDBRANCH  10  13
BRANCH  11  16
HETATM   16  O4  UNL     1     -12.893  -4.290 -17.824  1.00  0.00    -0.390 OA
ATOM     17  H4  UNL     1     -12.218  -3.753 -17.428  1.00  0.00     0.210 HD
ENDBRANCH  11  16
BRANCH  12  18
HETATM   18  O5  UNL     1     -15.442  -2.233 -16.451  1.00  0.00    -0.388 OA
ATOM     19  H5  UNL     1     -15.988  -3.005 -16.538  1.00  0.00     0.210 HD
ENDBRANCH  12  18
ENDBRANCH   7   8
ENDBRANCH   2   7
BRANCH   1  20
HETATM   20  C4  UNL     1     -15.267   1.597 -16.723  1.00  0.00     0.066 C 
HETATM   21  N1  UNL     1     -16.118   0.652 -16.598  1.00  0.00    -0.398 N 
ATOM     22  H1  UNL     1     -16.120  -0.088 -17.300  1.00  0.00     0.158 HD
BRANCH  21  23
HETATM   23  C3  UNL     1     -17.066   0.571 -15.535  1.00  0.00     0.145 C 
BRANCH  23  24
HETATM   24  C2  UNL     1     -18.458   0.483 -16.075  1.00  0.00    -0.018 C 
HETATM   25  C1  UNL     1     -19.204   1.557 -16.255  1.00  0.00     0.008 C 
ENDBRANCH  23  24
ENDBRANCH  21  23
ENDBRANCH   1  20
BRANCH   6  26
HETATM   26  S1  UNL     1     -14.080   4.361 -17.476  1.00  0.00    -0.156 SA
BRANCH  26  27
HETATM   27  C16 UNL     1     -14.388   5.501 -18.783  1.00  0.00     0.048 C 
HETATM   28  C17 UNL     1     -13.483   5.239 -19.977  1.00  0.00     0.015 C 
HETATM   29  C18 UNL     1     -13.577   6.376 -20.973  1.00  0.00     0.001 C 
HETATM   30  C19 UNL     1     -14.833   7.192 -20.754  1.00  0.00     0.000 C 
HETATM   31  C20 UNL     1     -15.992   6.262 -20.538  1.00  0.00     0.001 C 
HETATM   32  C21 UNL     1     -15.814   5.635 -19.142  1.00  0.00     0.015 C 
ENDBRANCH  26  27
ENDBRANCH   6  26
BRANCH   4  33
HETATM   33  C13 UNL     1     -10.222   1.854 -17.997  1.00  0.00     0.198 C 
BRANCH  33  34
HETATM   34  O7  UNL     1      -9.148   1.766 -17.142  1.00  0.00    -0.398 OA
ATOM     35  H7  UNL     1      -9.035   2.533 -16.594  1.00  0.00     0.209 HD
ENDBRANCH  33  34
ENDBRANCH   4  33
BRANCH   5  36
HETATM   36  O8  UNL     1     -11.432   3.580 -16.717  1.00  0.00    -0.392 OA
ATOM     37  H8  UNL     1     -11.728   4.256 -17.315  1.00  0.00     0.210 HD
ENDBRANCH   5  36
TORSDOF 14
ENDMDL
MODEL 5
REMARK VINA RESULT: -7.501352257      1.135      1.770
REMARK  14 active torsions:
REMARK  status: ('A' for Active; 'I' for Inactive)
REMARK    1  A    between atoms: C2_2  and  C3_3 
REMARK    2  A    between atoms: C3_3  and  N1_4 
REMARK    3  A    between atoms: C4_6  and  C5_7 
REMARK    4  A    between atoms: C6_8  and  O1_9 
REMARK    5  A    between atoms: O1_9  and  C7_10 
REMARK    6  A    between atoms: C8_12  and  C9_13 
REMARK    7  A    between atoms: C9_13  and  O3_14 
REMARK    8  A    between atoms: C10_16  and  O4_17 
REMARK    9  A    between atoms: C11_19  and  O5_20 
REMARK   10  A    between atoms: C12_23  and  C13_24 
REMARK   11  A    between atoms: C13_24  and  O7_25 
REMARK   12  A    between atoms: C14_27  and  O8_28 
REMARK   13  A    between atoms: C15_30  and  S1_31 
REMARK   14  A    between atoms: S1_31  and  C16_32 
ROOT
HETATM    1  C5  UNL     1     -12.824   1.223 -18.122  1.00  0.00     0.095 C 
HETATM    2  C6  UNL     1     -12.300  -0.220 -18.272  1.00  0.00     0.273 C 
HETATM    3  O6  UNL     1     -11.090  -0.120 -18.957  1.00  0.00    -0.350 OA
HETATM    4  C12 UNL     1     -10.085   0.398 -18.150  1.00  0.00     0.178 C 
HETATM    5  C14 UNL     1     -10.533   1.613 -17.382  1.00  0.00     0.164 C 
HETATM    6  C15 UNL     1     -11.703   2.203 -18.173  1.00  0.00     0.092 C 
ENDROOT
BRANCH   2   7
HETATM    7  O1  UNL     1     -13.224  -0.900 -18.976  1.00  0.00    -0.328 OA
BRANCH   7   8
HETATM    8  C7  UNL     1     -13.961  -1.864 -18.407  1.00  0.00     0.294 C 
HETATM    9  O2  UNL     1     -13.494  -3.168 -18.638  1.00  0.00    -0.348 OA
HETATM   10  C8  UNL     1     -14.561  -4.026 -18.629  1.00  0.00     0.179 C 
HETATM   11  C10 UNL     1     -15.739  -3.254 -18.057  1.00  0.00     0.182 C 
HETATM   12  C11 UNL     1     -15.414  -1.917 -18.761  1.00  0.00     0.204 C 
BRANCH  10  13
HETATM   13  C9  UNL     1     -14.326  -5.327 -17.936  1.00  0.00     0.198 C 
BRANCH  13  14
HETATM   14  O3  UNL     1     -13.460  -5.231 -16.866  1.00  0.00    -0.398 OA
ATOM     15  H3  UNL     1     -13.871  -4.908 -16.073  1.00  0.00     0.209 HD
ENDBRANCH  13  14
ENDBRANCH  10  13
BRANCH  11  16
HETATM   16  O4  UNL     1     -15.578  -3.124 -16.684  1.00  0.00    -0.390 OA
ATOM     17  H4  UNL     1     -15.490  -2.204 -16.465  1.00  0.00     0.210 HD
ENDBRANCH  11  16
BRANCH  12  18
HETATM   18  O5  UNL     1     -15.626  -2.210 -20.115  1.00  0.00    -0.388 OA
ATOM     19  H5  UNL     1     -16.231  -1.605 -20.527  1.00  0.00     0.210 HD
ENDBRANCH  12  18
ENDBRANCH   7   8
ENDBRANCH   2   7
BRANCH   1  20
HETATM   20  C4  UNL     1     -13.587   1.284 -16.838  1.00  0.00     0.066 C 
HETATM   21  N1  UNL     1     -14.852   1.102 -16.825  1.00  0.00    -0.398 N 
ATOM     22  H1  UNL     1     -15.319   0.916 -17.713  1.00  0.00     0.158 HD
BRANCH  21  23
HETATM   23  C3  UNL     1     -15.650   1.144 -15.643  1.00  0.00     0.145 C 
BRANCH  23  24
HETATM   24  C2  UNL     1     -16.612  -0.001 -15.615  1.00  0.00    -0.018 C 
HETATM   25  C1  UNL     1     -17.640  -0.066 -16.441  1.00  0.00     0.008 C 
ENDBRANCH  23  24
ENDBRANCH  21  23
ENDBRANCH   1  20
BRANCH   6  26
HETATM   26  S1  UNL     1     -11.999   3.837 -17.595  1.00  0.00    -0.156 SA
BRANCH  26  27
HETATM   27  C16 UNL     1     -13.070   4.898 -18.505  1.00  0.00     0.048 C 
HETATM   28  C17 UNL     1     -12.759   4.862 -19.993  1.00  0.00     0.015 C 
HETATM   29  C18 UNL     1     -13.504   5.964 -20.718  1.00  0.00     0.001 C 
HETATM   30  C19 UNL     1     -14.663   6.477 -19.889  1.00  0.00     0.000 C 
HETATM   31  C20 UNL     1     -15.400   5.309 -19.301  1.00  0.00     0.001 C 
HETATM   32  C21 UNL     1     -14.503   4.717 -18.197  1.00  0.00     0.015 C 
ENDBRANCH  26  27
ENDBRANCH   6  26
BRANCH   4  33
HETATM   33  C13 UNL     1      -8.837   0.717 -18.901  1.00  0.00     0.198 C 
BRANCH  33  34
HETATM   34  O7  UNL     1      -7.687   0.382 -18.226  1.00  0.00    -0.398 OA
ATOM     35  H7  UNL     1      -7.166  -0.280 -18.666  1.00  0.00     0.209 HD
ENDBRANCH  33  34
ENDBRANCH   4  33
BRANCH   5  36
HETATM   36  O8  UNL     1      -9.477   2.509 -17.331  1.00  0.00    -0.392 OA
ATOM     37  H8  UNL     1      -8.821   2.163 -16.737  1.00  0.00     0.210 HD
ENDBRANCH   5  36
TORSDOF 14
ENDMDL
