MODEL 1
REMARK VINA RESULT: -7.481999404      0.000      0.000
REMARK  15 active torsions:
REMARK  status: ('A' for Active; 'I' for Inactive)
REMARK    1  A    between atoms: C2_2  and  O2_4 
REMARK    2  A    between atoms: O2_4  and  C3_5 
REMARK    3  A    between atoms: C3_5  and  C4_6 
REMARK    4  A    between atoms: C4_6  and  O3_7 
REMARK    5  A    between atoms: C4_6  and  C20_33 
REMARK    6  A    between atoms: O3_7  and  C5_8 
REMARK    7  A    between atoms: C6_10  and  C7_11 
REMARK    8  A    between atoms: C7_11  and  C8_12 
REMARK    9  A    between atoms: C9_13  and  C10_14 
REMARK   10  A    between atoms: C9_13  and  C11_17 
REMARK   11  A    between atoms: C10_14  and  O5_15 
REMARK   12  A    between atoms: C16_23  and  O6_24 
REMARK   13  A    between atoms: C17_26  and  O7_27 
REMARK   14  A    between atoms: C18_29  and  O8_31 
REMARK   15  A    between atoms: C20_33  and  O9_35 
ROOT
HETATM    1  C5  UNL     1     -14.503   5.032 -18.314  1.00  0.00     0.297 C 
HETATM    2  O4  UNL     1     -13.146   4.651 -18.450  1.00  0.00    -0.350 OA
HETATM    3  C6  UNL     1     -12.766   3.384 -18.227  1.00  0.00     0.159 C 
HETATM    4  C16 UNL     1     -13.888   2.440 -18.213  1.00  0.00     0.179 C 
HETATM    5  C17 UNL     1     -15.023   2.816 -17.288  1.00  0.00     0.188 C 
HETATM    6  C18 UNL     1     -15.193   4.328 -17.235  1.00  0.00     0.132 C 
HETATM    7  C19 UNL     1     -16.652   4.602 -17.039  1.00  0.00     0.054 C 
ENDROOT
BRANCH   3   8
HETATM    8  C7  UNL     1     -11.677   3.235 -17.198  1.00  0.00     0.062 C 
BRANCH   8   9
HETATM    9  C8  UNL     1     -10.309   3.446 -17.622  1.00  0.00    -0.018 C 
HETATM   10  C9  UNL     1      -9.315   2.566 -17.690  1.00  0.00    -0.046 C 
BRANCH  10  11
HETATM   11  C10 UNL     1      -7.974   3.029 -18.164  1.00  0.00     0.199 C 
BRANCH  11  12
HETATM   12  O5  UNL     1      -8.012   3.709 -19.364  1.00  0.00    -0.397 OA
ATOM     13  H5  UNL     1      -7.156   3.851 -19.752  1.00  0.00     0.209 HD
ENDBRANCH  11  12
ENDBRANCH  10  11
BRANCH  10  14
HETATM   14  C11 UNL     1      -9.452   1.145 -17.328  1.00  0.00     0.080 C 
HETATM   15  C12 UNL     1      -8.260   0.253 -17.488  1.00  0.00     0.039 C 
HETATM   16  C13 UNL     1      -8.845  -0.904 -18.307  1.00  0.00     0.003 C 
HETATM   17  C14 UNL     1      -9.170  -2.143 -17.496  1.00  0.00     0.026 C 
HETATM   18  C15 UNL     1      -8.033  -1.288 -19.520  1.00  0.00     0.026 C 
HETATM   19  S1  UNL     1     -10.260   0.152 -18.657  1.00  0.00    -0.150 SA
ENDBRANCH  10  14
ENDBRANCH   8   9
ENDBRANCH   3   8
BRANCH   4  20
HETATM   20  O6  UNL     1     -13.589   1.091 -18.137  1.00  0.00    -0.390 OA
ATOM     21  H6  UNL     1     -14.123   0.554 -17.564  1.00  0.00     0.210 HD
ENDBRANCH   4  20
BRANCH   1  22
HETATM   22  O3  UNL     1     -14.973   4.813 -19.562  1.00  0.00    -0.348 OA
BRANCH  22  23
HETATM   23  C4  UNL     1     -15.155   5.758 -20.467  1.00  0.00     0.177 C 
BRANCH  23  24
HETATM   24  C3  UNL     1     -16.317   6.724 -20.158  1.00  0.00     0.213 C 
BRANCH  24  25
HETATM   25  O2  UNL     1     -17.412   6.467 -21.015  1.00  0.00    -0.319 OA
BRANCH  25  26
HETATM   26  C2  UNL     1     -18.676   6.309 -20.465  1.00  0.00     0.254 C 
HETATM   27  C1  UNL     1     -19.063   5.126 -19.661  1.00  0.00     0.126 C 
HETATM   28  O1  UNL     1     -19.545   7.201 -20.648  1.00  0.00    -0.266 OA
ENDBRANCH  25  26
ENDBRANCH  24  25
ENDBRANCH  23  24
BRANCH  23  29
HETATM   29  C20 UNL     1     -13.985   6.652 -20.662  1.00  0.00     0.145 C 
HETATM   30  C21 UNL     1     -14.274   7.863 -21.485  1.00  0.00     0.042 C 
BRANCH  29  31
HETATM   31  O9  UNL     1     -12.926   5.945 -21.245  1.00  0.00    -0.393 OA
ATOM     32  H9  UNL     1     -12.196   5.886 -20.640  1.00  0.00     0.210 HD
ENDBRANCH  29  31
ENDBRANCH  23  29
ENDBRANCH  22  23
ENDBRANCH   1  22
BRANCH   5  33
HETATM   33  O7  UNL     1     -14.757   2.278 -16.033  1.00  0.00    -0.390 OA
ATOM     34  H7  UNL     1     -14.633   2.996 -15.423  1.00  0.00     0.210 HD
ENDBRANCH   5  33
BRANCH   6  35
HETATM   35  O8  UNL     1     -14.675   4.718 -15.951  1.00  0.00    -0.382 OA
ATOM     36  H8  UNL     1     -13.902   4.213 -15.727  1.00  0.00     0.210 HD
ENDBRANCH   6  35
TORSDOF 15
ENDMDL
MODEL 2
REMARK VINA RESULT: -7.430287666      3.341      7.306
REMARK  15 active torsions:
REMARK  status: ('A' for Active; 'I' for Inactive)
REMARK    1  A    between atoms: C2_2  and  O2_4 
REMARK    2  A    between atoms: O2_4  and  C3_5 
REMARK    3  A    between atoms: C3_5  and  C4_6 
REMARK    4  A    between atoms: C4_6  and  O3_7 
REMARK    5  A    between atoms: C4_6  and  C20_33 
REMARK    6  A    between atoms: O3_7  and  C5_8 
REMARK    7  A    between atoms: C6_10  and  C7_11 
REMARK    8  A    between atoms: C7_11  and  C8_12 
REMARK    9  A    between atoms: C9_13  and  C10_14 
REMARK   10  A    between atoms: C9_13  and  C11_17 
REMARK   11  A    between atoms: C10_14  and  O5_15 
REMARK   12  A    between atoms: C16_23  and  O6_24 
REMARK   13  A    between atoms: C17_26  and  O7_27 
REMARK   14  A    between atoms: C18_29  and  O8_31 
REMARK   15  A    between atoms: C20_33  and  O9_35 
ROOT
HETATM    1  C5  UNL     1     -14.553   1.903 -18.307  1.00  0.00     0.297 C 
HETATM    2  O4  UNL     1     -13.844   2.796 -19.147  1.00  0.00    -0.350 OA
HETATM    3  C6  UNL     1     -12.749   3.430 -18.700  1.00  0.00     0.159 C 
HETATM    4  C16 UNL     1     -12.198   2.837 -17.478  1.00  0.00     0.179 C 
HETATM    5  C17 UNL     1     -13.192   2.658 -16.354  1.00  0.00     0.188 C 
HETATM    6  C18 UNL     1     -14.570   2.321 -16.907  1.00  0.00     0.132 C 
HETATM    7  C19 UNL     1     -15.236   1.419 -15.914  1.00  0.00     0.054 C 
ENDROOT
BRANCH   3   8
HETATM    8  C7  UNL     1     -12.811   4.930 -18.818  1.00  0.00     0.062 C 
BRANCH   8   9
HETATM    9  C8  UNL     1     -13.352   5.495 -20.035  1.00  0.00    -0.018 C 
HETATM   10  C9  UNL     1     -14.580   5.947 -20.268  1.00  0.00    -0.046 C 
BRANCH  10  11
HETATM   11  C10 UNL     1     -14.902   6.491 -21.624  1.00  0.00     0.199 C 
BRANCH  11  12
HETATM   12  O5  UNL     1     -14.057   7.501 -22.034  1.00  0.00    -0.397 OA
ATOM     13  H5  UNL     1     -14.481   8.347 -22.114  1.00  0.00     0.209 HD
ENDBRANCH  11  12
ENDBRANCH  10  11
BRANCH  10  14
HETATM   14  C11 UNL     1     -15.657   5.949 -19.263  1.00  0.00     0.080 C 
HETATM   15  C12 UNL     1     -16.750   4.936 -19.392  1.00  0.00     0.039 C 
HETATM   16  C13 UNL     1     -18.003   5.818 -19.314  1.00  0.00     0.003 C 
HETATM   17  C14 UNL     1     -18.691   5.810 -17.964  1.00  0.00     0.026 C 
HETATM   18  C15 UNL     1     -19.016   5.567 -20.404  1.00  0.00     0.026 C 
HETATM   19  S1  UNL     1     -16.934   7.238 -19.599  1.00  0.00    -0.150 SA
ENDBRANCH  10  14
ENDBRANCH   8   9
ENDBRANCH   3   8
BRANCH   4  20
HETATM   20  O6  UNL     1     -10.987   3.326 -17.019  1.00  0.00    -0.390 OA
ATOM     21  H6  UNL     1     -10.958   3.666 -16.133  1.00  0.00     0.210 HD
ENDBRANCH   4  20
BRANCH   1  22
HETATM   22  O3  UNL     1     -13.931   0.732 -18.570  1.00  0.00    -0.348 OA
BRANCH  22  23
HETATM   23  C4  UNL     1     -14.551  -0.374 -18.942  1.00  0.00     0.177 C 
BRANCH  23  24
HETATM   24  C3  UNL     1     -14.658  -0.564 -20.469  1.00  0.00     0.213 C 
BRANCH  24  25
HETATM   25  O2  UNL     1     -13.384  -0.452 -21.070  1.00  0.00    -0.319 OA
BRANCH  25  26
HETATM   26  C2  UNL     1     -13.301  -0.142 -22.420  1.00  0.00     0.254 C 
HETATM   27  C1  UNL     1     -13.885   1.089 -23.002  1.00  0.00     0.126 C 
HETATM   28  O1  UNL     1     -12.705  -0.931 -23.199  1.00  0.00    -0.266 OA
ENDBRANCH  25  26
ENDBRANCH  24  25
ENDBRANCH  23  24
BRANCH  23  29
HETATM   29  C20 UNL     1     -13.907  -1.625 -18.466  1.00  0.00     0.145 C 
HETATM   30  C21 UNL     1     -14.339  -2.052 -17.103  1.00  0.00     0.042 C 
BRANCH  29  31
HETATM   31  O9  UNL     1     -12.513  -1.491 -18.484  1.00  0.00    -0.393 OA
ATOM     32  H9  UNL     1     -12.147  -1.752 -17.647  1.00  0.00     0.210 HD
ENDBRANCH  29  31
ENDBRANCH  23  29
ENDBRANCH  22  23
ENDBRANCH   1  22
BRANCH   5  33
HETATM   33  O7  UNL     1     -13.206   3.823 -15.596  1.00  0.00    -0.390 OA
ATOM     34  H7  UNL     1     -14.055   3.893 -15.175  1.00  0.00     0.210 HD
ENDBRANCH   5  33
BRANCH   6  35
HETATM   35  O8  UNL     1     -15.345   3.521 -16.737  1.00  0.00    -0.382 OA
ATOM     36  H8  UNL     1     -14.783   4.270 -16.578  1.00  0.00     0.210 HD
ENDBRANCH   6  35
TORSDOF 15
ENDMDL
MODEL 3
REMARK VINA RESULT: -7.428213231      4.942      6.545
REMARK  15 active torsions:
REMARK  status: ('A' for Active; 'I' for Inactive)
REMARK    1  A    between atoms: C2_2  and  O2_4 
REMARK    2  A    between atoms: O2_4  and  C3_5 
REMARK    3  A    between atoms: C3_5  and  C4_6 
REMARK    4  A    between atoms: C4_6  and  O3_7 
REMARK    5  A    between atoms: C4_6  and  C20_33 
REMARK    6  A    between atoms: O3_7  and  C5_8 
REMARK    7  A    between atoms: C6_10  and  C7_11 
REMARK    8  A    between atoms: C7_11  and  C8_12 
REMARK    9  A    between atoms: C9_13  and  C10_14 
REMARK   10  A    between atoms: C9_13  and  C11_17 
REMARK   11  A    between atoms: C10_14  and  O5_15 
REMARK   12  A    between atoms: C16_23  and  O6_24 
REMARK   13  A    between atoms: C17_26  and  O7_27 
REMARK   14  A    between atoms: C18_29  and  O8_31 
REMARK   15  A    between atoms: C20_33  and  O9_35 
ROOT
HETATM    1  C5  UNL     1     -11.830  -0.601 -17.335  1.00  0.00     0.297 C 
HETATM    2  O4  UNL     1     -10.923   0.442 -17.646  1.00  0.00    -0.350 OA
HETATM    3  C6  UNL     1      -9.714   0.166 -18.156  1.00  0.00     0.159 C 
HETATM    4  C16 UNL     1      -9.606  -1.200 -18.677  1.00  0.00     0.179 C 
HETATM    5  C17 UNL     1     -10.024  -2.284 -17.708  1.00  0.00     0.188 C 
HETATM    6  C18 UNL     1     -11.172  -1.804 -16.831  1.00  0.00     0.132 C 
HETATM    7  C19 UNL     1     -12.026  -2.997 -16.530  1.00  0.00     0.054 C 
ENDROOT
BRANCH   3   8
HETATM    8  C7  UNL     1      -8.564   0.739 -17.370  1.00  0.00     0.062 C 
BRANCH   8   9
HETATM    9  C8  UNL     1      -8.223   2.129 -17.580  1.00  0.00    -0.018 C 
HETATM   10  C9  UNL     1      -7.107   2.645 -18.085  1.00  0.00    -0.046 C 
BRANCH  10  11
HETATM   11  C10 UNL     1      -6.990   4.132 -18.203  1.00  0.00     0.199 C 
BRANCH  11  12
HETATM   12  O5  UNL     1      -6.603   4.755 -17.035  1.00  0.00    -0.397 OA
ATOM     13  H5  UNL     1      -5.815   4.392 -16.648  1.00  0.00     0.209 HD
ENDBRANCH  11  12
ENDBRANCH  10  11
BRANCH  10  14
HETATM   14  C11 UNL     1      -5.966   1.836 -18.547  1.00  0.00     0.080 C 
HETATM   15  C12 UNL     1      -4.703   2.543 -18.928  1.00  0.00     0.039 C 
HETATM   16  C13 UNL     1      -4.428   1.958 -20.320  1.00  0.00     0.003 C 
HETATM   17  C14 UNL     1      -3.366   0.877 -20.344  1.00  0.00     0.026 C 
HETATM   18  C15 UNL     1      -4.134   2.985 -21.385  1.00  0.00     0.026 C 
HETATM   19  S1  UNL     1      -6.120   1.342 -20.317  1.00  0.00    -0.150 SA
ENDBRANCH  10  14
ENDBRANCH   8   9
ENDBRANCH   3   8
BRANCH   4  20
HETATM   20  O6  UNL     1      -8.447  -1.538 -19.355  1.00  0.00    -0.390 OA
ATOM     21  H6  UNL     1      -8.070  -2.392 -19.183  1.00  0.00     0.210 HD
ENDBRANCH   4  20
BRANCH   1  22
HETATM   22  O3  UNL     1     -12.500  -0.734 -18.501  1.00  0.00    -0.348 OA
BRANCH  22  23
HETATM   23  C4  UNL     1     -13.636  -0.120 -18.783  1.00  0.00     0.177 C 
BRANCH  23  24
HETATM   24  C3  UNL     1     -13.651   0.605 -20.143  1.00  0.00     0.213 C 
BRANCH  24  25
HETATM   25  O2  UNL     1     -13.025  -0.189 -21.131  1.00  0.00    -0.319 OA
BRANCH  25  26
HETATM   26  C2  UNL     1     -13.679  -0.407 -22.336  1.00  0.00     0.254 C 
HETATM   27  C1  UNL     1     -13.226   0.183 -23.617  1.00  0.00     0.126 C 
HETATM   28  O1  UNL     1     -14.705  -1.136 -22.358  1.00  0.00    -0.266 OA
ENDBRANCH  25  26
ENDBRANCH  24  25
ENDBRANCH  23  24
BRANCH  23  29
HETATM   29  C20 UNL     1     -14.818  -1.017 -18.839  1.00  0.00     0.145 C 
HETATM   30  C21 UNL     1     -15.451  -1.275 -17.512  1.00  0.00     0.042 C 
BRANCH  29  31
HETATM   31  O9  UNL     1     -14.473  -2.240 -19.426  1.00  0.00    -0.393 OA
ATOM     32  H9  UNL     1     -14.317  -2.895 -18.756  1.00  0.00     0.210 HD
ENDBRANCH  29  31
ENDBRANCH  23  29
ENDBRANCH  22  23
ENDBRANCH   1  22
BRANCH   5  33
HETATM   33  O7  UNL     1      -8.912  -2.648 -16.958  1.00  0.00    -0.390 OA
ATOM     34  H7  UNL     1      -9.202  -2.845 -16.074  1.00  0.00     0.210 HD
ENDBRANCH   5  33
BRANCH   6  35
HETATM   35  O8  UNL     1     -10.583  -1.567 -15.540  1.00  0.00    -0.382 OA
ATOM     36  H8  UNL     1      -9.714  -1.948 -15.487  1.00  0.00     0.210 HD
ENDBRANCH   6  35
TORSDOF 15
ENDMDL
MODEL 4
REMARK VINA RESULT: -7.362476662      3.216      5.014
REMARK  15 active torsions:
REMARK  status: ('A' for Active; 'I' for Inactive)
REMARK    1  A    between atoms: C2_2  and  O2_4 
REMARK    2  A    between atoms: O2_4  and  C3_5 
REMARK    3  A    between atoms: C3_5  and  C4_6 
REMARK    4  A    between atoms: C4_6  and  O3_7 
REMARK    5  A    between atoms: C4_6  and  C20_33 
REMARK    6  A    between atoms: O3_7  and  C5_8 
REMARK    7  A    between atoms: C6_10  and  C7_11 
REMARK    8  A    between atoms: C7_11  and  C8_12 
REMARK    9  A    between atoms: C9_13  and  C10_14 
REMARK   10  A    between atoms: C9_13  and  C11_17 
REMARK   11  A    between atoms: C10_14  and  O5_15 
REMARK   12  A    between atoms: C16_23  and  O6_24 
REMARK   13  A    between atoms: C17_26  and  O7_27 
REMARK   14  A    between atoms: C18_29  and  O8_31 
REMARK   15  A    between atoms: C20_33  and  O9_35 
ROOT
HETATM    1  C5  UNL     1     -14.749   4.462 -19.091  1.00  0.00     0.297 C 
HETATM    2  O4  UNL     1     -15.568   3.915 -18.072  1.00  0.00    -0.350 OA
HETATM    3  C6  UNL     1     -15.151   3.896 -16.798  1.00  0.00     0.159 C 
HETATM    4  C16 UNL     1     -14.015   4.789 -16.549  1.00  0.00     0.179 C 
HETATM    5  C17 UNL     1     -12.843   4.601 -17.484  1.00  0.00     0.188 C 
HETATM    6  C18 UNL     1     -13.325   4.218 -18.877  1.00  0.00     0.132 C 
HETATM    7  C19 UNL     1     -12.357   4.806 -19.857  1.00  0.00     0.054 C 
ENDROOT
BRANCH   3   8
HETATM    8  C7  UNL     1     -15.155   2.529 -16.165  1.00  0.00     0.062 C 
BRANCH   8   9
HETATM    9  C8  UNL     1     -16.397   1.786 -16.160  1.00  0.00    -0.018 C 
HETATM   10  C9  UNL     1     -16.589   0.485 -16.358  1.00  0.00    -0.046 C 
BRANCH  10  11
HETATM   11  C10 UNL     1     -17.983  -0.053 -16.302  1.00  0.00     0.199 C 
BRANCH  11  12
HETATM   12  O5  UNL     1     -18.491  -0.155 -15.024  1.00  0.00    -0.397 OA
ATOM     13  H5  UNL     1     -19.278  -0.684 -14.964  1.00  0.00     0.209 HD
ENDBRANCH  11  12
ENDBRANCH  10  11
BRANCH  10  14
HETATM   14  C11 UNL     1     -15.502  -0.472 -16.627  1.00  0.00     0.080 C 
HETATM   15  C12 UNL     1     -14.907  -0.501 -18.000  1.00  0.00     0.039 C 
HETATM   16  C13 UNL     1     -14.991  -1.994 -18.343  1.00  0.00     0.003 C 
HETATM   17  C14 UNL     1     -13.685  -2.747 -18.188  1.00  0.00     0.026 C 
HETATM   18  C15 UNL     1     -15.594  -2.294 -19.693  1.00  0.00     0.026 C 
HETATM   19  S1  UNL     1     -16.127  -2.175 -16.958  1.00  0.00    -0.150 SA
ENDBRANCH  10  14
ENDBRANCH   8   9
ENDBRANCH   3   8
BRANCH   4  20
HETATM   20  O6  UNL     1     -13.604   4.952 -15.237  1.00  0.00    -0.390 OA
ATOM     21  H6  UNL     1     -12.678   5.096 -15.081  1.00  0.00     0.210 HD
ENDBRANCH   4  20
BRANCH   1  22
HETATM   22  O3  UNL     1     -15.138   5.757 -19.084  1.00  0.00    -0.348 OA
BRANCH  22  23
HETATM   23  C4  UNL     1     -15.625   6.394 -20.135  1.00  0.00     0.177 C 
BRANCH  23  24
HETATM   24  C3  UNL     1     -17.161   6.346 -20.256  1.00  0.00     0.213 C 
BRANCH  24  25
HETATM   25  O2  UNL     1     -17.763   6.727 -19.035  1.00  0.00    -0.319 OA
BRANCH  25  26
HETATM   26  C2  UNL     1     -18.690   5.878 -18.446  1.00  0.00     0.254 C 
HETATM   27  C1  UNL     1     -20.027   5.616 -19.029  1.00  0.00     0.126 C 
HETATM   28  O1  UNL     1     -18.398   5.296 -17.369  1.00  0.00    -0.266 OA
ENDBRANCH  25  26
ENDBRANCH  24  25
ENDBRANCH  23  24
BRANCH  23  29
HETATM   29  C20 UNL     1     -15.304   7.843 -20.173  1.00  0.00     0.145 C 
HETATM   30  C21 UNL     1     -14.108   8.181 -20.999  1.00  0.00     0.042 C 
BRANCH  29  31
HETATM   31  O9  UNL     1     -15.117   8.334 -18.875  1.00  0.00    -0.393 OA
ATOM     32  H9  UNL     1     -14.917   9.262 -18.899  1.00  0.00     0.210 HD
ENDBRANCH  29  31
ENDBRANCH  23  29
ENDBRANCH  22  23
ENDBRANCH   1  22
BRANCH   5  33
HETATM   33  O7  UNL     1     -12.003   3.635 -16.940  1.00  0.00    -0.390 OA
ATOM     34  H7  UNL     1     -11.413   4.064 -16.331  1.00  0.00     0.210 HD
ENDBRANCH   5  33
BRANCH   6  35
HETATM   35  O8  UNL     1     -13.016   2.819 -19.008  1.00  0.00    -0.382 OA
ATOM     36  H8  UNL     1     -13.006   2.391 -18.159  1.00  0.00     0.210 HD
ENDBRANCH   6  35
TORSDOF 15
ENDMDL
MODEL 5
REMARK VINA RESULT: -7.334035850      2.149      4.058
REMARK  15 active torsions:
REMARK  status: ('A' for Active; 'I' for Inactive)
REMARK    1  A    between atoms: C2_2  and  O2_4 
REMARK    2  A    between atoms: O2_4  and  C3_5 
REMARK    3  A    between atoms: C3_5  and  C4_6 
REMARK    4  A    between atoms: C4_6  and  O3_7 
REMARK    5  A    between atoms: C4_6  and  C20_33 
REMARK    6  A    between atoms: O3_7  and  C5_8 
REMARK    7  A    between atoms: C6_10  and  C7_11 
REMARK    8  A    between atoms: C7_11  and  C8_12 
REMARK    9  A    between atoms: C9_13  and  C10_14 
REMARK   10  A    between atoms: C9_13  and  C11_17 
REMARK   11  A    between atoms: C10_14  and  O5_15 
REMARK   12  A    between atoms: C16_23  and  O6_24 
REMARK   13  A    between atoms: C17_26  and  O7_27 
REMARK   14  A    between atoms: C18_29  and  O8_31 
REMARK   15  A    between atoms: C20_33  and  O9_35 
ROOT
HETATM    1  C5  UNL     1     -15.774   4.457 -18.818  1.00  0.00     0.297 C 
HETATM    2  O4  UNL     1     -16.161   3.495 -17.854  1.00  0.00    -0.350 OA
HETATM    3  C6  UNL     1     -15.612   3.496 -16.630  1.00  0.00     0.159 C 
HETATM    4  C16 UNL     1     -14.916   4.746 -16.311  1.00  0.00     0.179 C 
HETATM    5  C17 UNL     1     -13.900   5.187 -17.340  1.00  0.00     0.188 C 
HETATM    6  C18 UNL     1     -14.359   4.811 -18.742  1.00  0.00     0.132 C 
HETATM    7  C19 UNL     1     -13.849   5.869 -19.672  1.00  0.00     0.054 C 
ENDROOT
BRANCH   3   8
HETATM    8  C7  UNL     1     -14.979   2.188 -16.233  1.00  0.00     0.062 C 
BRANCH   8   9
HETATM    9  C8  UNL     1     -14.915   1.136 -17.224  1.00  0.00    -0.018 C 
HETATM   10  C9  UNL     1     -13.892   0.346 -17.534  1.00  0.00    -0.046 C 
BRANCH  10  11
HETATM   11  C10 UNL     1     -14.073  -0.680 -18.608  1.00  0.00     0.199 C 
BRANCH  11  12
HETATM   12  O5  UNL     1     -14.277  -0.144 -19.862  1.00  0.00    -0.397 OA
ATOM     13  H5  UNL     1     -14.951  -0.587 -20.364  1.00  0.00     0.209 HD
ENDBRANCH  11  12
ENDBRANCH  10  11
BRANCH  10  14
HETATM   14  C11 UNL     1     -12.575   0.415 -16.878  1.00  0.00     0.080 C 
HETATM   15  C12 UNL     1     -11.480   1.171 -17.561  1.00  0.00     0.039 C 
HETATM   16  C13 UNL     1     -10.342   0.142 -17.558  1.00  0.00     0.003 C 
HETATM   17  C14 UNL     1      -9.295   0.370 -16.486  1.00  0.00     0.026 C 
HETATM   18  C15 UNL     1      -9.669  -0.053 -18.894  1.00  0.00     0.026 C 
HETATM   19  S1  UNL     1     -11.570  -1.108 -17.148  1.00  0.00    -0.150 SA
ENDBRANCH  10  14
ENDBRANCH   8   9
ENDBRANCH   3   8
BRANCH   4  20
HETATM   20  O6  UNL     1     -14.442   4.905 -15.020  1.00  0.00    -0.390 OA
ATOM     21  H6  UNL     1     -14.469   4.148 -14.446  1.00  0.00     0.210 HD
ENDBRANCH   4  20
BRANCH   1  22
HETATM   22  O3  UNL     1     -16.651   5.455 -18.572  1.00  0.00    -0.348 OA
BRANCH  22  23
HETATM   23  C4  UNL     1     -17.899   5.475 -19.007  1.00  0.00     0.177 C 
BRANCH  23  24
HETATM   24  C3  UNL     1     -18.947   5.809 -17.925  1.00  0.00     0.213 C 
BRANCH  24  25
HETATM   25  O2  UNL     1     -18.890   4.862 -16.877  1.00  0.00    -0.319 OA
BRANCH  25  26
HETATM   26  C2  UNL     1     -19.656   3.708 -16.968  1.00  0.00     0.254 C 
HETATM   27  C1  UNL     1     -20.837   3.593 -17.856  1.00  0.00     0.126 C 
HETATM   28  O1  UNL     1     -19.346   2.705 -16.274  1.00  0.00    -0.266 OA
ENDBRANCH  25  26
ENDBRANCH  24  25
ENDBRANCH  23  24
BRANCH  23  29
HETATM   29  C20 UNL     1     -18.158   6.469 -20.079  1.00  0.00     0.145 C 
HETATM   30  C21 UNL     1     -19.594   6.846 -20.228  1.00  0.00     0.042 C 
BRANCH  29  31
HETATM   31  O9  UNL     1     -17.681   5.993 -21.307  1.00  0.00    -0.393 OA
ATOM     32  H9  UNL     1     -17.369   5.101 -21.216  1.00  0.00     0.210 HD
ENDBRANCH  29  31
ENDBRANCH  23  29
ENDBRANCH  22  23
ENDBRANCH   1  22
BRANCH   5  33
HETATM   33  O7  UNL     1     -12.678   4.606 -17.019  1.00  0.00    -0.390 OA
ATOM     34  H7  UNL     1     -12.008   5.004 -17.564  1.00  0.00     0.210 HD
ENDBRANCH   5  33
BRANCH   6  35
HETATM   35  O8  UNL     1     -13.528   3.701 -19.123  1.00  0.00    -0.382 OA
ATOM     36  H8  UNL     1     -13.279   3.759 -20.038  1.00  0.00     0.210 HD
ENDBRANCH   6  35
TORSDOF 15
ENDMDL
