MODEL 1
REMARK VINA RESULT: -7.523286656      0.000      0.000
REMARK  15 active torsions:
REMARK  status: ('A' for Active; 'I' for Inactive)
REMARK    1  A    between atoms: C4_4  and  C5_5 
REMARK    2  A    between atoms: C5_5  and  C6_6 
REMARK    3  A    between atoms: C6_6  and  S1_7 
REMARK    4  A    between atoms: S1_7  and  C7_8 
REMARK    5  A    between atoms: C7_8  and  C8_9 
REMARK    6  A    between atoms: C8_9  and  O2_11 
REMARK    7  A    between atoms: O2_11  and  C9_12 
REMARK    8  A    between atoms: C10_13  and  O3_14 
REMARK    9  A    between atoms: C12_17  and  O4_18 
REMARK   10  A    between atoms: C13_20  and  O5_21 
REMARK   11  A    between atoms: O5_21  and  C14_22 
REMARK   12  A    between atoms: C16_24  and  O6_26 
REMARK   13  A    between atoms: C18_28  and  C19_29 
REMARK   14  A    between atoms: C19_29  and  O7_30 
REMARK   15  A    between atoms: C21_34  and  O9_35 
ROOT
HETATM    1  C9  UNL     1     -13.812   4.513 -18.237  1.00  0.00     0.192 C 
HETATM    2  C10 UNL     1     -13.826   5.134 -16.858  1.00  0.00     0.152 C 
HETATM    3  C11 UNL     1     -14.518   4.266 -15.859  1.00  0.00     0.069 C 
HETATM    4  C12 UNL     1     -14.793   2.873 -16.307  1.00  0.00     0.152 C 
HETATM    5  C13 UNL     1     -13.735   2.251 -17.172  1.00  0.00     0.184 C 
HETATM    6  C21 UNL     1     -13.180   3.147 -18.230  1.00  0.00     0.181 C 
ENDROOT
BRANCH   5   7
HETATM    7  O5  UNL     1     -14.249   1.064 -17.739  1.00  0.00    -0.350 OA
BRANCH   7   8
HETATM    8  C14 UNL     1     -14.158  -0.011 -16.837  1.00  0.00     0.269 C 
HETATM    9  C15 UNL     1     -15.471  -0.711 -16.795  1.00  0.00     0.103 C 
HETATM   10  C16 UNL     1     -15.472  -2.096 -17.396  1.00  0.00     0.086 C 
HETATM   11  C17 UNL     1     -15.748  -1.977 -18.870  1.00  0.00     0.051 C 
HETATM   12  C18 UNL     1     -14.200  -2.798 -17.200  1.00  0.00    -0.001 C 
HETATM   13  C20 UNL     1     -13.056  -2.155 -17.079  1.00  0.00     0.146 C 
HETATM   14  O8  UNL     1     -13.044  -0.802 -17.137  1.00  0.00    -0.332 OA
BRANCH  10  15
HETATM   15  O6  UNL     1     -16.467  -2.860 -16.765  1.00  0.00    -0.385 OA
ATOM     16  H6  UNL     1     -16.434  -3.745 -17.108  1.00  0.00     0.211 HD
ENDBRANCH  10  15
BRANCH  12  17
HETATM   17  C19 UNL     1     -14.198  -4.273 -17.130  1.00  0.00     0.203 C 
BRANCH  17  18
HETATM   18  O7  UNL     1     -14.463  -4.738 -15.842  1.00  0.00    -0.396 OA
ATOM     19  H7  UNL     1     -14.835  -5.612 -15.847  1.00  0.00     0.209 HD
ENDBRANCH  17  18
ENDBRANCH  12  17
ENDBRANCH   7   8
ENDBRANCH   5   7
BRANCH   4  20
HETATM   20  O4  UNL     1     -16.054   2.851 -16.933  1.00  0.00    -0.393 OA
ATOM     21  H4  UNL     1     -16.468   2.017 -16.741  1.00  0.00     0.210 HD
ENDBRANCH   4  20
BRANCH   6  22
HETATM   22  O9  UNL     1     -11.809   3.172 -18.154  1.00  0.00    -0.390 OA
ATOM     23  H9  UNL     1     -11.435   2.403 -17.739  1.00  0.00     0.210 HD
ENDBRANCH   6  22
BRANCH   1  24
HETATM   24  O2  UNL     1     -13.302   5.331 -19.232  1.00  0.00    -0.310 OA
BRANCH  24  25
HETATM   25  C8  UNL     1     -13.841   5.477 -20.497  1.00  0.00     0.268 C 
HETATM   26  O1  UNL     1     -13.583   4.539 -21.304  1.00  0.00    -0.264 OA
BRANCH  25  27
HETATM   27  C7  UNL     1     -14.666   6.605 -20.957  1.00  0.00     0.184 C 
BRANCH  27  28
HETATM   28  S1  UNL     1     -16.103   6.781 -19.873  1.00  0.00    -0.159 SA
BRANCH  28  29
HETATM   29  C6  UNL     1     -17.580   6.075 -20.667  1.00  0.00     0.078 C 
BRANCH  29  30
HETATM   30  C5  UNL     1     -18.770   6.576 -19.847  1.00  0.00     0.037 C 
BRANCH  30  31
HETATM   31  C4  UNL     1     -19.689   5.444 -19.605  1.00  0.00    -0.024 C 
HETATM   32  C2  UNL     1     -19.632   4.795 -18.461  1.00  0.00    -0.091 C 
HETATM   33  C1  UNL     1     -20.540   3.646 -18.175  1.00  0.00     0.042 C 
HETATM   34  C3  UNL     1     -18.639   5.209 -17.413  1.00  0.00     0.042 C 
ENDBRANCH  30  31
ENDBRANCH  29  30
ENDBRANCH  28  29
ENDBRANCH  27  28
ENDBRANCH  25  27
ENDBRANCH  24  25
ENDBRANCH   1  24
BRANCH   2  35
HETATM   35  O3  UNL     1     -14.435   6.383 -16.855  1.00  0.00    -0.393 OA
ATOM     36  H3  UNL     1     -15.370   6.324 -16.698  1.00  0.00     0.210 HD
ENDBRANCH   2  35
TORSDOF 15
ENDMDL
MODEL 2
REMARK VINA RESULT: -7.343268591      4.461      7.717
REMARK  15 active torsions:
REMARK  status: ('A' for Active; 'I' for Inactive)
REMARK    1  A    between atoms: C4_4  and  C5_5 
REMARK    2  A    between atoms: C5_5  and  C6_6 
REMARK    3  A    between atoms: C6_6  and  S1_7 
REMARK    4  A    between atoms: S1_7  and  C7_8 
REMARK    5  A    between atoms: C7_8  and  C8_9 
REMARK    6  A    between atoms: C8_9  and  O2_11 
REMARK    7  A    between atoms: O2_11  and  C9_12 
REMARK    8  A    between atoms: C10_13  and  O3_14 
REMARK    9  A    between atoms: C12_17  and  O4_18 
REMARK   10  A    between atoms: C13_20  and  O5_21 
REMARK   11  A    between atoms: O5_21  and  C14_22 
REMARK   12  A    between atoms: C16_24  and  O6_26 
REMARK   13  A    between atoms: C18_28  and  C19_29 
REMARK   14  A    between atoms: C19_29  and  O7_30 
REMARK   15  A    between atoms: C21_34  and  O9_35 
ROOT
HETATM    1  C9  UNL     1     -11.452  -0.764 -17.924  1.00  0.00     0.192 C 
HETATM    2  C10 UNL     1     -11.256  -1.506 -16.621  1.00  0.00     0.152 C 
HETATM    3  C11 UNL     1      -9.968  -2.263 -16.594  1.00  0.00     0.069 C 
HETATM    4  C12 UNL     1      -9.009  -1.926 -17.681  1.00  0.00     0.152 C 
HETATM    5  C13 UNL     1      -8.972  -0.480 -18.087  1.00  0.00     0.184 C 
HETATM    6  C21 UNL     1     -10.309   0.173 -18.212  1.00  0.00     0.181 C 
ENDROOT
BRANCH   5   7
HETATM    7  O5  UNL     1      -8.241  -0.362 -19.289  1.00  0.00    -0.350 OA
BRANCH   7   8
HETATM    8  C14 UNL     1      -6.962   0.176 -19.056  1.00  0.00     0.269 C 
HETATM    9  C15 UNL     1      -6.765   1.344 -19.956  1.00  0.00     0.103 C 
HETATM   10  C16 UNL     1      -6.713   2.682 -19.258  1.00  0.00     0.086 C 
HETATM   11  C17 UNL     1      -8.117   3.207 -19.127  1.00  0.00     0.051 C 
HETATM   12  C18 UNL     1      -6.103   2.603 -17.928  1.00  0.00    -0.001 C 
HETATM   13  C20 UNL     1      -6.147   1.504 -17.202  1.00  0.00     0.146 C 
HETATM   14  O8  UNL     1      -6.777   0.408 -17.690  1.00  0.00    -0.332 OA
BRANCH  10  15
HETATM   15  O6  UNL     1      -5.925   3.558 -20.023  1.00  0.00    -0.385 OA
ATOM     16  H6  UNL     1      -6.400   4.372 -20.140  1.00  0.00     0.211 HD
ENDBRANCH  10  15
BRANCH  12  17
HETATM   17  C19 UNL     1      -5.410   3.787 -17.384  1.00  0.00     0.203 C 
BRANCH  17  18
HETATM   18  O7  UNL     1      -6.298   4.815 -17.067  1.00  0.00    -0.396 OA
ATOM     19  H7  UNL     1      -5.947   5.401 -16.407  1.00  0.00     0.209 HD
ENDBRANCH  17  18
ENDBRANCH  12  17
ENDBRANCH   7   8
ENDBRANCH   5   7
BRANCH   4  20
HETATM   20  O4  UNL     1      -9.272  -2.766 -18.780  1.00  0.00    -0.393 OA
ATOM     21  H4  UNL     1      -8.444  -2.996 -19.185  1.00  0.00     0.210 HD
ENDBRANCH   4  20
BRANCH   6  22
HETATM   22  O9  UNL     1     -10.341   1.328 -17.471  1.00  0.00    -0.390 OA
ATOM     23  H9  UNL     1      -9.514   1.797 -17.458  1.00  0.00     0.210 HD
ENDBRANCH   6  22
BRANCH   1  24
HETATM   24  O2  UNL     1     -12.688  -0.153 -18.059  1.00  0.00    -0.310 OA
BRANCH  24  25
HETATM   25  C8  UNL     1     -13.295   0.157 -19.262  1.00  0.00     0.268 C 
HETATM   26  O1  UNL     1     -13.496  -0.826 -20.033  1.00  0.00    -0.264 OA
BRANCH  25  27
HETATM   27  C7  UNL     1     -13.712   1.499 -19.697  1.00  0.00     0.184 C 
BRANCH  27  28
HETATM   28  S1  UNL     1     -13.523   2.662 -18.325  1.00  0.00    -0.159 SA
BRANCH  28  29
HETATM   29  C6  UNL     1     -12.928   4.268 -18.938  1.00  0.00     0.078 C 
BRANCH  29  30
HETATM   30  C5  UNL     1     -13.634   4.486 -20.277  1.00  0.00     0.037 C 
BRANCH  30  31
HETATM   31  C4  UNL     1     -13.275   5.826 -20.790  1.00  0.00    -0.024 C 
HETATM   32  C2  UNL     1     -14.228   6.692 -21.065  1.00  0.00    -0.091 C 
HETATM   33  C1  UNL     1     -13.911   8.054 -21.585  1.00  0.00     0.042 C 
HETATM   34  C3  UNL     1     -15.666   6.316 -20.853  1.00  0.00     0.042 C 
ENDBRANCH  30  31
ENDBRANCH  29  30
ENDBRANCH  28  29
ENDBRANCH  27  28
ENDBRANCH  25  27
ENDBRANCH  24  25
ENDBRANCH   1  24
BRANCH   2  35
HETATM   35  O3  UNL     1     -12.295  -2.394 -16.366  1.00  0.00    -0.393 OA
ATOM     36  H3  UNL     1     -12.174  -2.859 -15.546  1.00  0.00     0.210 HD
ENDBRANCH   2  35
TORSDOF 15
ENDMDL
MODEL 3
REMARK VINA RESULT: -7.343032931      3.502      8.544
REMARK  15 active torsions:
REMARK  status: ('A' for Active; 'I' for Inactive)
REMARK    1  A    between atoms: C4_4  and  C5_5 
REMARK    2  A    between atoms: C5_5  and  C6_6 
REMARK    3  A    between atoms: C6_6  and  S1_7 
REMARK    4  A    between atoms: S1_7  and  C7_8 
REMARK    5  A    between atoms: C7_8  and  C8_9 
REMARK    6  A    between atoms: C8_9  and  O2_11 
REMARK    7  A    between atoms: O2_11  and  C9_12 
REMARK    8  A    between atoms: C10_13  and  O3_14 
REMARK    9  A    between atoms: C12_17  and  O4_18 
REMARK   10  A    between atoms: C13_20  and  O5_21 
REMARK   11  A    between atoms: O5_21  and  C14_22 
REMARK   12  A    between atoms: C16_24  and  O6_26 
REMARK   13  A    between atoms: C18_28  and  C19_29 
REMARK   14  A    between atoms: C19_29  and  O7_30 
REMARK   15  A    between atoms: C21_34  and  O9_35 
ROOT
HETATM    1  C9  UNL     1     -12.710  -0.842 -17.883  1.00  0.00     0.192 C 
HETATM    2  C10 UNL     1     -14.040  -1.533 -17.684  1.00  0.00     0.152 C 
HETATM    3  C11 UNL     1     -15.123  -0.572 -17.316  1.00  0.00     0.069 C 
HETATM    4  C12 UNL     1     -14.786   0.866 -17.497  1.00  0.00     0.152 C 
HETATM    5  C13 UNL     1     -13.932   1.186 -18.689  1.00  0.00     0.184 C 
HETATM    6  C21 UNL     1     -12.793   0.247 -18.919  1.00  0.00     0.181 C 
ENDROOT
BRANCH   5   7
HETATM    7  O5  UNL     1     -13.470   2.516 -18.577  1.00  0.00    -0.350 OA
BRANCH   7   8
HETATM    8  C14 UNL     1     -14.189   3.377 -19.425  1.00  0.00     0.269 C 
HETATM    9  C15 UNL     1     -15.296   3.998 -18.647  1.00  0.00     0.103 C 
HETATM   10  C16 UNL     1     -15.141   5.478 -18.392  1.00  0.00     0.086 C 
HETATM   11  C17 UNL     1     -14.345   5.665 -17.130  1.00  0.00     0.051 C 
HETATM   12  C18 UNL     1     -14.467   6.174 -19.493  1.00  0.00    -0.001 C 
HETATM   13  C20 UNL     1     -13.602   5.567 -20.279  1.00  0.00     0.146 C 
HETATM   14  O8  UNL     1     -13.317   4.258 -20.072  1.00  0.00    -0.332 OA
BRANCH  10  15
HETATM   15  O6  UNL     1     -16.417   6.049 -18.264  1.00  0.00    -0.385 OA
ATOM     16  H6  UNL     1     -16.331   6.995 -18.275  1.00  0.00     0.211 HD
ENDBRANCH  10  15
BRANCH  12  17
HETATM   17  C19 UNL     1     -14.769   7.599 -19.734  1.00  0.00     0.203 C 
BRANCH  17  18
HETATM   18  O7  UNL     1     -14.960   8.303 -18.545  1.00  0.00    -0.396 OA
ATOM     19  H7  UNL     1     -15.814   8.139 -18.165  1.00  0.00     0.209 HD
ENDBRANCH  17  18
ENDBRANCH  12  17
ENDBRANCH   7   8
ENDBRANCH   5   7
BRANCH   4  20
HETATM   20  O4  UNL     1     -14.207   1.338 -16.303  1.00  0.00    -0.393 OA
ATOM     21  H4  UNL     1     -13.589   2.026 -16.523  1.00  0.00     0.210 HD
ENDBRANCH   4  20
BRANCH   6  22
HETATM   22  O9  UNL     1     -12.820  -0.219 -20.210  1.00  0.00    -0.390 OA
ATOM     23  H9  UNL     1     -12.458   0.390 -20.844  1.00  0.00     0.210 HD
ENDBRANCH   6  22
BRANCH   1  24
HETATM   24  O2  UNL     1     -11.641  -1.698 -18.095  1.00  0.00    -0.310 OA
BRANCH  24  25
HETATM   25  C8  UNL     1     -10.654  -1.982 -17.170  1.00  0.00     0.268 C 
HETATM   26  O1  UNL     1     -11.054  -2.106 -15.976  1.00  0.00    -0.264 OA
BRANCH  25  27
HETATM   27  C7  UNL     1      -9.221  -2.146 -17.461  1.00  0.00     0.184 C 
BRANCH  27  28
HETATM   28  S1  UNL     1      -8.523  -0.554 -17.961  1.00  0.00    -0.159 SA
BRANCH  28  29
HETATM   29  C6  UNL     1      -9.397   0.807 -17.129  1.00  0.00     0.078 C 
BRANCH  29  30
HETATM   30  C5  UNL     1      -9.453   1.946 -18.147  1.00  0.00     0.037 C 
BRANCH  30  31
HETATM   31  C4  UNL     1      -8.663   3.083 -17.631  1.00  0.00    -0.024 C 
HETATM   32  C2  UNL     1      -7.556   3.438 -18.249  1.00  0.00    -0.091 C 
HETATM   33  C1  UNL     1      -6.727   4.580 -17.762  1.00  0.00     0.042 C 
HETATM   34  C3  UNL     1      -7.108   2.690 -19.472  1.00  0.00     0.042 C 
ENDBRANCH  30  31
ENDBRANCH  29  30
ENDBRANCH  28  29
ENDBRANCH  27  28
ENDBRANCH  25  27
ENDBRANCH  24  25
ENDBRANCH   1  24
BRANCH   2  35
HETATM   35  O3  UNL     1     -13.974  -2.520 -16.707  1.00  0.00    -0.393 OA
ATOM     36  H3  UNL     1     -13.583  -3.321 -17.035  1.00  0.00     0.210 HD
ENDBRANCH   2  35
TORSDOF 15
ENDMDL
MODEL 4
REMARK VINA RESULT: -7.342916101      4.430      7.759
REMARK  15 active torsions:
REMARK  status: ('A' for Active; 'I' for Inactive)
REMARK    1  A    between atoms: C4_4  and  C5_5 
REMARK    2  A    between atoms: C5_5  and  C6_6 
REMARK    3  A    between atoms: C6_6  and  S1_7 
REMARK    4  A    between atoms: S1_7  and  C7_8 
REMARK    5  A    between atoms: C7_8  and  C8_9 
REMARK    6  A    between atoms: C8_9  and  O2_11 
REMARK    7  A    between atoms: O2_11  and  C9_12 
REMARK    8  A    between atoms: C10_13  and  O3_14 
REMARK    9  A    between atoms: C12_17  and  O4_18 
REMARK   10  A    between atoms: C13_20  and  O5_21 
REMARK   11  A    between atoms: O5_21  and  C14_22 
REMARK   12  A    between atoms: C16_24  and  O6_26 
REMARK   13  A    between atoms: C18_28  and  C19_29 
REMARK   14  A    between atoms: C19_29  and  O7_30 
REMARK   15  A    between atoms: C21_34  and  O9_35 
ROOT
HETATM    1  C9  UNL     1     -11.573  -0.879 -17.952  1.00  0.00     0.192 C 
HETATM    2  C10 UNL     1     -11.339  -1.577 -16.631  1.00  0.00     0.152 C 
HETATM    3  C11 UNL     1     -10.009  -2.255 -16.583  1.00  0.00     0.069 C 
HETATM    4  C12 UNL     1      -9.067  -1.889 -17.676  1.00  0.00     0.152 C 
HETATM    5  C13 UNL     1      -9.114  -0.454 -18.116  1.00  0.00     0.184 C 
HETATM    6  C21 UNL     1     -10.487   0.116 -18.261  1.00  0.00     0.181 C 
ENDROOT
BRANCH   5   7
HETATM    7  O5  UNL     1      -8.387  -0.322 -19.320  1.00  0.00    -0.350 OA
BRANCH   7   8
HETATM    8  C14 UNL     1      -7.096   0.183 -19.081  1.00  0.00     0.269 C 
HETATM    9  C15 UNL     1      -6.870   1.355 -19.971  1.00  0.00     0.103 C 
HETATM   10  C16 UNL     1      -6.788   2.684 -19.260  1.00  0.00     0.086 C 
HETATM   11  C17 UNL     1      -8.178   3.241 -19.125  1.00  0.00     0.051 C 
HETATM   12  C18 UNL     1      -6.180   2.578 -17.931  1.00  0.00    -0.001 C 
HETATM   13  C20 UNL     1      -6.251   1.475 -17.214  1.00  0.00     0.146 C 
HETATM   14  O8  UNL     1      -6.906   0.398 -17.713  1.00  0.00    -0.332 OA
BRANCH  10  15
HETATM   15  O6  UNL     1      -5.978   3.549 -20.016  1.00  0.00    -0.385 OA
ATOM     16  H6  UNL     1      -5.738   4.292 -19.475  1.00  0.00     0.211 HD
ENDBRANCH  10  15
BRANCH  12  17
HETATM   17  C19 UNL     1      -5.460   3.741 -17.375  1.00  0.00     0.203 C 
BRANCH  17  18
HETATM   18  O7  UNL     1      -6.315   4.812 -17.113  1.00  0.00    -0.396 OA
ATOM     19  H7  UNL     1      -5.884   5.503 -16.624  1.00  0.00     0.209 HD
ENDBRANCH  17  18
ENDBRANCH  12  17
ENDBRANCH   7   8
ENDBRANCH   5   7
BRANCH   4  20
HETATM   20  O4  UNL     1      -9.276  -2.769 -18.754  1.00  0.00    -0.393 OA
ATOM     21  H4  UNL     1      -9.251  -2.266 -19.560  1.00  0.00     0.210 HD
ENDBRANCH   4  20
BRANCH   6  22
HETATM   22  O9  UNL     1     -10.589   1.285 -17.549  1.00  0.00    -0.390 OA
ATOM     23  H9  UNL     1     -11.387   1.771 -17.723  1.00  0.00     0.210 HD
ENDBRANCH   6  22
BRANCH   1  24
HETATM   24  O2  UNL     1     -12.843  -0.346 -18.105  1.00  0.00    -0.310 OA
BRANCH  24  25
HETATM   25  C8  UNL     1     -13.525  -0.245 -19.304  1.00  0.00     0.268 C 
HETATM   26  O1  UNL     1     -13.922  -1.342 -19.791  1.00  0.00    -0.264 OA
BRANCH  25  27
HETATM   27  C7  UNL     1     -13.812   1.001 -20.029  1.00  0.00     0.184 C 
BRANCH  27  28
HETATM   28  S1  UNL     1     -14.002   2.357 -18.847  1.00  0.00    -0.159 SA
BRANCH  28  29
HETATM   29  C6  UNL     1     -13.412   3.916 -19.576  1.00  0.00     0.078 C 
BRANCH  29  30
HETATM   30  C5  UNL     1     -12.632   4.621 -18.467  1.00  0.00     0.037 C 
BRANCH  30  31
HETATM   31  C4  UNL     1     -13.565   4.964 -17.373  1.00  0.00    -0.024 C 
HETATM   32  C2  UNL     1     -13.223   4.717 -16.126  1.00  0.00    -0.091 C 
HETATM   33  C1  UNL     1     -14.135   5.047 -14.992  1.00  0.00     0.042 C 
HETATM   34  C3  UNL     1     -11.890   4.096 -15.824  1.00  0.00     0.042 C 
ENDBRANCH  30  31
ENDBRANCH  29  30
ENDBRANCH  28  29
ENDBRANCH  27  28
ENDBRANCH  25  27
ENDBRANCH  24  25
ENDBRANCH   1  24
BRANCH   2  35
HETATM   35  O3  UNL     1     -12.325  -2.518 -16.356  1.00  0.00    -0.393 OA
ATOM     36  H3  UNL     1     -12.500  -2.589 -15.425  1.00  0.00     0.210 HD
ENDBRANCH   2  35
TORSDOF 15
ENDMDL
MODEL 5
REMARK VINA RESULT: -7.341766357      4.372      7.749
REMARK  15 active torsions:
REMARK  status: ('A' for Active; 'I' for Inactive)
REMARK    1  A    between atoms: C4_4  and  C5_5 
REMARK    2  A    between atoms: C5_5  and  C6_6 
REMARK    3  A    between atoms: C6_6  and  S1_7 
REMARK    4  A    between atoms: S1_7  and  C7_8 
REMARK    5  A    between atoms: C7_8  and  C8_9 
REMARK    6  A    between atoms: C8_9  and  O2_11 
REMARK    7  A    between atoms: O2_11  and  C9_12 
REMARK    8  A    between atoms: C10_13  and  O3_14 
REMARK    9  A    between atoms: C12_17  and  O4_18 
REMARK   10  A    between atoms: C13_20  and  O5_21 
REMARK   11  A    between atoms: O5_21  and  C14_22 
REMARK   12  A    between atoms: C16_24  and  O6_26 
REMARK   13  A    between atoms: C18_28  and  C19_29 
REMARK   14  A    between atoms: C19_29  and  O7_30 
REMARK   15  A    between atoms: C21_34  and  O9_35 
ROOT
HETATM    1  C9  UNL     1     -12.569  -2.525 -17.571  1.00  0.00     0.192 C 
HETATM    2  C10 UNL     1     -12.146  -3.454 -16.455  1.00  0.00     0.152 C 
HETATM    3  C11 UNL     1     -10.672  -3.404 -16.212  1.00  0.00     0.069 C 
HETATM    4  C12 UNL     1      -9.956  -2.279 -16.873  1.00  0.00     0.152 C 
HETATM    5  C13 UNL     1     -10.707  -0.981 -16.936  1.00  0.00     0.184 C 
HETATM    6  C21 UNL     1     -12.148  -1.104 -17.308  1.00  0.00     0.181 C 
ENDROOT
BRANCH   5   7
HETATM    7  O5  UNL     1     -10.035  -0.107 -17.817  1.00  0.00    -0.350 OA
BRANCH   7   8
HETATM    8  C14 UNL     1      -9.330   0.885 -17.111  1.00  0.00     0.269 C 
HETATM    9  C15 UNL     1      -7.871   0.677 -17.325  1.00  0.00     0.103 C 
HETATM   10  C16 UNL     1      -7.193   1.740 -18.154  1.00  0.00     0.086 C 
HETATM   11  C17 UNL     1      -7.310   1.361 -19.605  1.00  0.00     0.051 C 
HETATM   12  C18 UNL     1      -7.776   3.070 -17.955  1.00  0.00    -0.001 C 
HETATM   13  C20 UNL     1      -9.036   3.237 -17.609  1.00  0.00     0.146 C 
HETATM   14  O8  UNL     1      -9.827   2.152 -17.430  1.00  0.00    -0.332 OA
BRANCH  10  15
HETATM   15  O6  UNL     1      -5.844   1.819 -17.768  1.00  0.00    -0.385 OA
ATOM     16  H6  UNL     1      -5.404   1.021 -18.035  1.00  0.00     0.211 HD
ENDBRANCH  10  15
BRANCH  12  17
HETATM   17  C19 UNL     1      -6.926   4.262 -18.143  1.00  0.00     0.203 C 
BRANCH  17  18
HETATM   18  O7  UNL     1      -6.185   4.564 -17.000  1.00  0.00    -0.396 OA
ATOM     19  H7  UNL     1      -6.116   5.500 -16.854  1.00  0.00     0.209 HD
ENDBRANCH  17  18
ENDBRANCH  12  17
ENDBRANCH   7   8
ENDBRANCH   5   7
BRANCH   4  20
HETATM   20  O4  UNL     1      -9.549  -2.705 -18.151  1.00  0.00    -0.393 OA
ATOM     21  H4  UNL     1      -9.551  -1.952 -18.731  1.00  0.00     0.210 HD
ENDBRANCH   4  20
BRANCH   6  22
HETATM   22  O9  UNL     1     -12.930  -0.459 -16.383  1.00  0.00    -0.390 OA
ATOM     23  H9  UNL     1     -13.838  -0.741 -16.385  1.00  0.00     0.210 HD
ENDBRANCH   6  22
BRANCH   1  24
HETATM   24  O2  UNL     1     -13.903  -2.628 -17.931  1.00  0.00    -0.310 OA
BRANCH  24  25
HETATM   25  C8  UNL     1     -14.580  -1.734 -18.740  1.00  0.00     0.268 C 
HETATM   26  O1  UNL     1     -14.012  -1.463 -19.837  1.00  0.00    -0.264 OA
BRANCH  25  27
HETATM   27  C7  UNL     1     -15.868  -1.095 -18.429  1.00  0.00     0.184 C 
BRANCH  27  28
HETATM   28  S1  UNL     1     -16.340  -1.489 -16.729  1.00  0.00    -0.159 SA
BRANCH  28  29
HETATM   29  C6  UNL     1     -16.496   0.036 -15.749  1.00  0.00     0.078 C 
BRANCH  29  30
HETATM   30  C5  UNL     1     -17.969   0.118 -15.344  1.00  0.00     0.037 C 
BRANCH  30  31
HETATM   31  C4  UNL     1     -18.750   0.619 -16.494  1.00  0.00    -0.024 C 
HETATM   32  C2  UNL     1     -20.032   0.878 -16.344  1.00  0.00    -0.091 C 
HETATM   33  C1  UNL     1     -20.859   1.385 -17.478  1.00  0.00     0.042 C 
HETATM   34  C3  UNL     1     -20.688   0.669 -15.009  1.00  0.00     0.042 C 
ENDBRANCH  30  31
ENDBRANCH  29  30
ENDBRANCH  28  29
ENDBRANCH  27  28
ENDBRANCH  25  27
ENDBRANCH  24  25
ENDBRANCH   1  24
BRANCH   2  35
HETATM   35  O3  UNL     1     -12.507  -4.772 -16.709  1.00  0.00    -0.393 OA
ATOM     36  H3  UNL     1     -12.254  -5.354 -16.001  1.00  0.00     0.210 HD
ENDBRANCH   2  35
TORSDOF 15
ENDMDL
