MODEL 1
REMARK VINA RESULT: -8.241962431      0.000      0.000
REMARK  12 active torsions:
REMARK  status: ('A' for Active; 'I' for Inactive)
REMARK    1  A    between atoms: C2_2  and  C3_3 
REMARK    2  A    between atoms: C3_3  and  C4_4 
REMARK    3  A    between atoms: C4_4  and  C5_5 
REMARK    4  A    between atoms: C5_5  and  C6_6 
REMARK    5  A    between atoms: C6_6  and  C7_7 
REMARK    6  A    between atoms: C7_7  and  C8_8 
REMARK    7  A    between atoms: C8_8  and  S1_9 
REMARK    8  A    between atoms: S1_9  and  C9_10 
REMARK    9  A    between atoms: C9_10  and  C10_11 
REMARK   10  A    between atoms: C15_21  and  N3_22 
REMARK   11  A    between atoms: N3_22  and  C16_24 
REMARK   12  A    between atoms: C19_34  and  O3_35 
ROOT
HETATM    1  C10 UNL     1     -13.469   4.629 -16.996  1.00  0.00     0.164 C 
HETATM    2  O1  UNL     1     -13.550   4.044 -18.249  1.00  0.00    -0.356 OA
HETATM    3  C11 UNL     1     -14.901   4.208 -18.650  1.00  0.00     0.249 C 
HETATM    4  N1  UNL     1     -15.032   5.388 -19.429  1.00  0.00    -0.328 N 
ATOM      5  H1  UNL     1     -14.163   5.886 -19.626  1.00  0.00     0.165 HD
HETATM    6  C12 UNL     1     -16.207   5.969 -19.969  1.00  0.00     0.268 C 
HETATM    7  O2  UNL     1     -16.127   6.567 -21.073  1.00  0.00    -0.267 OA
HETATM    8  C13 UNL     1     -17.525   5.918 -19.320  1.00  0.00     0.155 C 
HETATM    9  C14 UNL     1     -18.603   6.557 -20.046  1.00  0.00     0.109 C 
HETATM   10  N2  UNL     1     -19.478   7.057 -20.620  1.00  0.00    -0.191 NA
HETATM   11  C15 UNL     1     -17.877   5.364 -18.148  1.00  0.00     0.130 C 
HETATM   12  N6  UNL     1     -16.948   4.697 -17.309  1.00  0.00    -0.363 N 
ATOM     13  H6  UNL     1     -17.263   4.690 -16.339  1.00  0.00     0.161 HD
HETATM   14  C18 UNL     1     -15.697   4.036 -17.449  1.00  0.00     0.163 C 
HETATM   15  C19 UNL     1     -14.753   4.347 -16.294  1.00  0.00     0.174 C 
ENDROOT
BRANCH  11  16
HETATM   16  N3  UNL     1     -19.236   5.463 -17.754  1.00  0.00    -0.320 N 
ATOM     17  H3  UNL     1     -19.664   6.364 -17.541  1.00  0.00     0.169 HD
BRANCH  16  18
HETATM   18  C16 UNL     1     -19.923   4.340 -17.676  1.00  0.00     0.167 A 
HETATM   19  N4  UNL     1     -20.994   3.990 -18.394  1.00  0.00    -0.331 N 
HETATM   20  C17 UNL     1     -21.527   2.826 -18.156  1.00  0.00     0.189 A 
ATOM     21  H4  UNL     1     -21.380   4.613 -19.103  1.00  0.00     0.168 HD
HETATM   22  N5  UNL     1     -20.982   2.056 -17.219  1.00  0.00    -0.320 N 
HETATM   23  S2  UNL     1     -19.695   2.988 -16.665  1.00  0.00     0.024 SA
ATOM     24  H5  UNL     1     -21.273   1.129 -16.910  1.00  0.00     0.175 HD
ENDBRANCH  16  18
ENDBRANCH  11  16
BRANCH  15  25
HETATM   25  O3  UNL     1     -15.187   5.473 -15.593  1.00  0.00    -0.391 OA
ATOM     26  H3  UNL     1     -16.110   5.632 -15.754  1.00  0.00     0.210 HD
ENDBRANCH  15  25
BRANCH   1  27
HETATM   27  C9  UNL     1     -12.241   4.129 -16.286  1.00  0.00     0.108 C 
BRANCH  27  28
HETATM   28  S1  UNL     1     -11.718   2.544 -17.009  1.00  0.00    -0.166 SA
BRANCH  28  29
HETATM   29  C8  UNL     1      -9.911   2.551 -17.267  1.00  0.00     0.074 C 
BRANCH  29  30
HETATM   30  C7  UNL     1      -9.528   1.446 -18.241  1.00  0.00     0.010 C 
BRANCH  30  31
HETATM   31  C6  UNL     1      -8.303   1.950 -19.047  1.00  0.00     0.001 C 
BRANCH  31  32
HETATM   32  C5  UNL     1      -8.243   3.425 -18.999  1.00  0.00     0.000 C 
BRANCH  32  33
HETATM   33  C4  UNL     1      -6.993   4.138 -18.726  1.00  0.00     0.000 C 
BRANCH  33  34
HETATM   34  C3  UNL     1      -6.377   4.160 -17.386  1.00  0.00    -0.000 C 
BRANCH  34  35
HETATM   35  C2  UNL     1      -5.140   3.386 -17.145  1.00  0.00    -0.005 C 
HETATM   36  C1  UNL     1      -4.683   2.657 -18.385  1.00  0.00     0.005 C 
ENDBRANCH  34  35
ENDBRANCH  33  34
ENDBRANCH  32  33
ENDBRANCH  31  32
ENDBRANCH  30  31
ENDBRANCH  29  30
ENDBRANCH  28  29
ENDBRANCH  27  28
ENDBRANCH   1  27
TORSDOF 12
ENDMDL
MODEL 2
REMARK VINA RESULT: -8.129099056      5.612      9.045
REMARK  12 active torsions:
REMARK  status: ('A' for Active; 'I' for Inactive)
REMARK    1  A    between atoms: C2_2  and  C3_3 
REMARK    2  A    between atoms: C3_3  and  C4_4 
REMARK    3  A    between atoms: C4_4  and  C5_5 
REMARK    4  A    between atoms: C5_5  and  C6_6 
REMARK    5  A    between atoms: C6_6  and  C7_7 
REMARK    6  A    between atoms: C7_7  and  C8_8 
REMARK    7  A    between atoms: C8_8  and  S1_9 
REMARK    8  A    between atoms: S1_9  and  C9_10 
REMARK    9  A    between atoms: C9_10  and  C10_11 
REMARK   10  A    between atoms: C15_21  and  N3_22 
REMARK   11  A    between atoms: N3_22  and  C16_24 
REMARK   12  A    between atoms: C19_34  and  O3_35 
ROOT
HETATM    1  C10 UNL     1     -14.704   2.113 -17.966  1.00  0.00     0.164 C 
HETATM    2  O1  UNL     1     -14.100   1.699 -19.141  1.00  0.00    -0.356 OA
HETATM    3  C11 UNL     1     -13.917   0.300 -18.993  1.00  0.00     0.249 C 
HETATM    4  N1  UNL     1     -15.016  -0.394 -19.565  1.00  0.00    -0.328 N 
ATOM      5  H1  UNL     1     -15.712   0.190 -20.031  1.00  0.00     0.165 HD
HETATM    6  C12 UNL     1     -15.278  -1.787 -19.575  1.00  0.00     0.268 C 
HETATM    7  O2  UNL     1     -15.862  -2.279 -20.575  1.00  0.00    -0.267 OA
HETATM    8  C13 UNL     1     -14.909  -2.704 -18.487  1.00  0.00     0.155 C 
HETATM    9  C14 UNL     1     -15.249  -4.095 -18.701  1.00  0.00     0.109 C 
HETATM   10  N2  UNL     1     -15.508  -5.214 -18.862  1.00  0.00    -0.191 NA
HETATM   11  C15 UNL     1     -14.301  -2.438 -17.319  1.00  0.00     0.130 C 
HETATM   12  N6  UNL     1     -13.898  -1.130 -16.947  1.00  0.00    -0.363 N 
ATOM     13  H6  UNL     1     -13.826  -1.038 -15.934  1.00  0.00     0.161 HD
HETATM   14  C18 UNL     1     -13.568   0.089 -17.599  1.00  0.00     0.163 C 
HETATM   15  C19 UNL     1     -14.120   1.301 -16.860  1.00  0.00     0.174 C 
ENDROOT
BRANCH  11  16
HETATM   16  N3  UNL     1     -14.063  -3.525 -16.439  1.00  0.00    -0.320 N 
ATOM     17  H3  UNL     1     -14.832  -4.047 -16.019  1.00  0.00     0.169 HD
BRANCH  16  18
HETATM   18  C16 UNL     1     -12.805  -3.831 -16.186  1.00  0.00     0.167 A 
HETATM   19  N4  UNL     1     -12.335  -4.568 -15.177  1.00  0.00    -0.331 N 
HETATM   20  C17 UNL     1     -11.047  -4.750 -15.110  1.00  0.00     0.189 A 
ATOM     21  H4  UNL     1     -12.962  -4.975 -14.483  1.00  0.00     0.168 HD
HETATM   22  N5  UNL     1     -10.277  -4.194 -16.041  1.00  0.00    -0.320 N 
HETATM   23  S2  UNL     1     -11.388  -3.405 -17.029  1.00  0.00     0.024 SA
ATOM     24  H5  UNL     1      -9.262  -4.235 -16.134  1.00  0.00     0.175 HD
ENDBRANCH  16  18
ENDBRANCH  11  16
BRANCH  15  25
HETATM   25  O3  UNL     1     -15.112   0.917 -15.957  1.00  0.00    -0.391 OA
ATOM     26  H3  UNL     1     -14.724   0.591 -15.153  1.00  0.00     0.210 HD
ENDBRANCH  15  25
BRANCH   1  27
HETATM   27  C9  UNL     1     -14.535   3.600 -17.811  1.00  0.00     0.108 C 
BRANCH  27  28
HETATM   28  S1  UNL     1     -12.779   4.039 -17.987  1.00  0.00    -0.166 SA
BRANCH  28  29
HETATM   29  C8  UNL     1     -12.500   4.820 -19.612  1.00  0.00     0.074 C 
BRANCH  29  30
HETATM   30  C7  UNL     1     -13.827   4.974 -20.342  1.00  0.00     0.010 C 
BRANCH  30  31
HETATM   31  C6  UNL     1     -13.954   6.463 -20.754  1.00  0.00     0.001 C 
BRANCH  31  32
HETATM   32  C5  UNL     1     -15.212   7.025 -20.222  1.00  0.00     0.000 C 
BRANCH  32  33
HETATM   33  C4  UNL     1     -16.495   6.341 -20.393  1.00  0.00     0.000 C 
BRANCH  33  34
HETATM   34  C3  UNL     1     -17.712   6.761 -19.673  1.00  0.00    -0.000 C 
BRANCH  34  35
HETATM   35  C2  UNL     1     -19.038   6.393 -20.215  1.00  0.00    -0.005 C 
HETATM   36  C1  UNL     1     -19.884   5.674 -19.194  1.00  0.00     0.005 C 
ENDBRANCH  34  35
ENDBRANCH  33  34
ENDBRANCH  32  33
ENDBRANCH  31  32
ENDBRANCH  30  31
ENDBRANCH  29  30
ENDBRANCH  28  29
ENDBRANCH  27  28
ENDBRANCH   1  27
TORSDOF 12
ENDMDL
MODEL 3
REMARK VINA RESULT: -8.071955021      5.597      9.416
REMARK  12 active torsions:
REMARK  status: ('A' for Active; 'I' for Inactive)
REMARK    1  A    between atoms: C2_2  and  C3_3 
REMARK    2  A    between atoms: C3_3  and  C4_4 
REMARK    3  A    between atoms: C4_4  and  C5_5 
REMARK    4  A    between atoms: C5_5  and  C6_6 
REMARK    5  A    between atoms: C6_6  and  C7_7 
REMARK    6  A    between atoms: C7_7  and  C8_8 
REMARK    7  A    between atoms: C8_8  and  S1_9 
REMARK    8  A    between atoms: S1_9  and  C9_10 
REMARK    9  A    between atoms: C9_10  and  C10_11 
REMARK   10  A    between atoms: C15_21  and  N3_22 
REMARK   11  A    between atoms: N3_22  and  C16_24 
REMARK   12  A    between atoms: C19_34  and  O3_35 
ROOT
HETATM    1  C10 UNL     1     -14.439   2.123 -18.106  1.00  0.00     0.164 C 
HETATM    2  O1  UNL     1     -13.886   1.653 -19.285  1.00  0.00    -0.356 OA
HETATM    3  C11 UNL     1     -13.769   0.250 -19.109  1.00  0.00     0.249 C 
HETATM    4  N1  UNL     1     -14.915  -0.399 -19.639  1.00  0.00    -0.328 N 
ATOM      5  H1  UNL     1     -15.592   0.209 -20.102  1.00  0.00     0.165 HD
HETATM    6  C12 UNL     1     -15.246  -1.777 -19.611  1.00  0.00     0.268 C 
HETATM    7  O2  UNL     1     -15.879  -2.261 -20.586  1.00  0.00    -0.267 OA
HETATM    8  C13 UNL     1     -14.897  -2.687 -18.511  1.00  0.00     0.155 C 
HETATM    9  C14 UNL     1     -15.312  -4.064 -18.685  1.00  0.00     0.109 C 
HETATM   10  N2  UNL     1     -15.630  -5.171 -18.814  1.00  0.00    -0.191 NA
HETATM   11  C15 UNL     1     -14.248  -2.427 -17.364  1.00  0.00     0.130 C 
HETATM   12  N6  UNL     1     -13.772  -1.133 -17.032  1.00  0.00    -0.363 N 
ATOM     13  H6  UNL     1     -13.671  -1.023 -16.023  1.00  0.00     0.161 HD
HETATM   14  C18 UNL     1     -13.397   0.053 -17.720  1.00  0.00     0.163 C 
HETATM   15  C19 UNL     1     -13.870   1.308 -16.996  1.00  0.00     0.174 C 
ENDROOT
BRANCH  11  16
HETATM   16  N3  UNL     1     -14.044  -3.505 -16.465  1.00  0.00    -0.320 N 
ATOM     17  H3  UNL     1     -14.828  -4.005 -16.047  1.00  0.00     0.169 HD
BRANCH  16  18
HETATM   18  C16 UNL     1     -12.796  -3.833 -16.192  1.00  0.00     0.167 A 
HETATM   19  N4  UNL     1     -12.355  -4.585 -15.180  1.00  0.00    -0.331 N 
HETATM   20  C17 UNL     1     -11.072  -4.787 -15.090  1.00  0.00     0.189 A 
ATOM     21  H4  UNL     1     -13.002  -4.986 -14.500  1.00  0.00     0.168 HD
HETATM   22  N5  UNL     1     -10.277  -4.237 -16.004  1.00  0.00    -0.320 N 
HETATM   23  S2  UNL     1     -11.357  -3.423 -17.006  1.00  0.00     0.024 SA
ATOM     24  H5  UNL     1      -9.261  -4.294 -16.079  1.00  0.00     0.175 HD
ENDBRANCH  16  18
ENDBRANCH  11  16
BRANCH  15  25
HETATM   25  O3  UNL     1     -14.857   0.994 -16.061  1.00  0.00    -0.391 OA
ATOM     26  H3  UNL     1     -14.549   1.167 -15.179  1.00  0.00     0.210 HD
ENDBRANCH  15  25
BRANCH   1  27
HETATM   27  C9  UNL     1     -14.192   3.603 -17.990  1.00  0.00     0.108 C 
BRANCH  27  28
HETATM   28  S1  UNL     1     -13.556   4.244 -19.568  1.00  0.00    -0.166 SA
BRANCH  28  29
HETATM   29  C8  UNL     1     -14.617   5.609 -20.151  1.00  0.00     0.074 C 
BRANCH  29  30
HETATM   30  C7  UNL     1     -15.841   5.726 -19.254  1.00  0.00     0.010 C 
BRANCH  30  31
HETATM   31  C6  UNL     1     -16.817   6.719 -19.936  1.00  0.00     0.001 C 
BRANCH  31  32
HETATM   32  C5  UNL     1     -17.883   5.973 -20.637  1.00  0.00     0.000 C 
BRANCH  32  33
HETATM   33  C4  UNL     1     -19.290   6.093 -20.250  1.00  0.00     0.000 C 
BRANCH  33  34
HETATM   34  C3  UNL     1     -19.900   5.227 -19.223  1.00  0.00    -0.000 C 
BRANCH  34  35
HETATM   35  C2  UNL     1     -19.642   5.507 -17.794  1.00  0.00    -0.005 C 
HETATM   36  C1  UNL     1     -18.724   4.482 -17.177  1.00  0.00     0.005 C 
ENDBRANCH  34  35
ENDBRANCH  33  34
ENDBRANCH  32  33
ENDBRANCH  31  32
ENDBRANCH  30  31
ENDBRANCH  29  30
ENDBRANCH  28  29
ENDBRANCH  27  28
ENDBRANCH   1  27
TORSDOF 12
ENDMDL
MODEL 4
REMARK VINA RESULT: -8.053883965      5.562      9.513
REMARK  12 active torsions:
REMARK  status: ('A' for Active; 'I' for Inactive)
REMARK    1  A    between atoms: C2_2  and  C3_3 
REMARK    2  A    between atoms: C3_3  and  C4_4 
REMARK    3  A    between atoms: C4_4  and  C5_5 
REMARK    4  A    between atoms: C5_5  and  C6_6 
REMARK    5  A    between atoms: C6_6  and  C7_7 
REMARK    6  A    between atoms: C7_7  and  C8_8 
REMARK    7  A    between atoms: C8_8  and  S1_9 
REMARK    8  A    between atoms: S1_9  and  C9_10 
REMARK    9  A    between atoms: C9_10  and  C10_11 
REMARK   10  A    between atoms: C15_21  and  N3_22 
REMARK   11  A    between atoms: N3_22  and  C16_24 
REMARK   12  A    between atoms: C19_34  and  O3_35 
ROOT
HETATM    1  C10 UNL     1     -14.415   2.204 -18.106  1.00  0.00     0.164 C 
HETATM    2  O1  UNL     1     -13.865   1.733 -19.286  1.00  0.00    -0.356 OA
HETATM    3  C11 UNL     1     -13.755   0.329 -19.112  1.00  0.00     0.249 C 
HETATM    4  N1  UNL     1     -14.905  -0.314 -19.641  1.00  0.00    -0.328 N 
ATOM      5  H1  UNL     1     -15.579   0.298 -20.103  1.00  0.00     0.165 HD
HETATM    6  C12 UNL     1     -15.243  -1.690 -19.615  1.00  0.00     0.268 C 
HETATM    7  O2  UNL     1     -15.879  -2.170 -20.589  1.00  0.00    -0.267 OA
HETATM    8  C13 UNL     1     -14.897  -2.603 -18.516  1.00  0.00     0.155 C 
HETATM    9  C14 UNL     1     -15.319  -3.977 -18.692  1.00  0.00     0.109 C 
HETATM   10  N2  UNL     1     -15.642  -5.084 -18.822  1.00  0.00    -0.191 NA
HETATM   11  C15 UNL     1     -14.245  -2.348 -17.370  1.00  0.00     0.130 C 
HETATM   12  N6  UNL     1     -13.762  -1.057 -17.037  1.00  0.00    -0.363 N 
ATOM     13  H6  UNL     1     -13.659  -0.949 -16.028  1.00  0.00     0.161 HD
HETATM   14  C18 UNL     1     -13.382   0.128 -17.723  1.00  0.00     0.163 C 
HETATM   15  C19 UNL     1     -13.848   1.384 -16.997  1.00  0.00     0.174 C 
ENDROOT
BRANCH  11  16
HETATM   16  N3  UNL     1     -14.045  -3.428 -16.472  1.00  0.00    -0.320 N 
ATOM     17  H3  UNL     1     -14.831  -3.918 -16.046  1.00  0.00     0.169 HD
BRANCH  16  18
HETATM   18  C16 UNL     1     -12.798  -3.771 -16.212  1.00  0.00     0.167 A 
HETATM   19  N4  UNL     1     -12.357  -4.530 -15.205  1.00  0.00    -0.331 N 
HETATM   20  C17 UNL     1     -11.075  -4.747 -15.128  1.00  0.00     0.189 A 
ATOM     21  H4  UNL     1     -13.001  -4.925 -14.520  1.00  0.00     0.168 HD
HETATM   22  N5  UNL     1     -10.282  -4.205 -16.048  1.00  0.00    -0.320 N 
HETATM   23  S2  UNL     1     -11.362  -3.376 -17.038  1.00  0.00     0.024 SA
ATOM     24  H5  UNL     1      -9.269  -4.274 -16.133  1.00  0.00     0.175 HD
ENDBRANCH  16  18
ENDBRANCH  11  16
BRANCH  15  25
HETATM   25  O3  UNL     1     -14.836   1.075 -16.062  1.00  0.00    -0.391 OA
ATOM     26  H3  UNL     1     -14.510   0.447 -15.427  1.00  0.00     0.210 HD
ENDBRANCH  15  25
BRANCH   1  27
HETATM   27  C9  UNL     1     -14.161   3.683 -17.988  1.00  0.00     0.108 C 
BRANCH  27  28
HETATM   28  S1  UNL     1     -15.435   4.441 -16.934  1.00  0.00    -0.166 SA
BRANCH  28  29
HETATM   29  C8  UNL     1     -17.035   3.606 -17.206  1.00  0.00     0.074 C 
BRANCH  29  30
HETATM   30  C7  UNL     1     -18.172   4.526 -16.784  1.00  0.00     0.010 C 
BRANCH  30  31
HETATM   31  C6  UNL     1     -19.498   3.773 -17.061  1.00  0.00     0.001 C 
BRANCH  31  32
HETATM   32  C5  UNL     1     -20.106   4.270 -18.312  1.00  0.00     0.000 C 
BRANCH  32  33
HETATM   33  C4  UNL     1     -19.986   5.671 -18.724  1.00  0.00     0.000 C 
BRANCH  33  34
HETATM   34  C3  UNL     1     -19.554   6.056 -20.081  1.00  0.00    -0.000 C 
BRANCH  34  35
HETATM   35  C2  UNL     1     -18.136   5.887 -20.463  1.00  0.00    -0.005 C 
HETATM   36  C1  UNL     1     -17.222   6.752 -19.631  1.00  0.00     0.005 C 
ENDBRANCH  34  35
ENDBRANCH  33  34
ENDBRANCH  32  33
ENDBRANCH  31  32
ENDBRANCH  30  31
ENDBRANCH  29  30
ENDBRANCH  28  29
ENDBRANCH  27  28
ENDBRANCH   1  27
TORSDOF 12
ENDMDL
MODEL 5
REMARK VINA RESULT: -8.025586075      2.570      3.993
REMARK  12 active torsions:
REMARK  status: ('A' for Active; 'I' for Inactive)
REMARK    1  A    between atoms: C2_2  and  C3_3 
REMARK    2  A    between atoms: C3_3  and  C4_4 
REMARK    3  A    between atoms: C4_4  and  C5_5 
REMARK    4  A    between atoms: C5_5  and  C6_6 
REMARK    5  A    between atoms: C6_6  and  C7_7 
REMARK    6  A    between atoms: C7_7  and  C8_8 
REMARK    7  A    between atoms: C8_8  and  S1_9 
REMARK    8  A    between atoms: S1_9  and  C9_10 
REMARK    9  A    between atoms: C9_10  and  C10_11 
REMARK   10  A    between atoms: C15_21  and  N3_22 
REMARK   11  A    between atoms: N3_22  and  C16_24 
REMARK   12  A    between atoms: C19_34  and  O3_35 
ROOT
HETATM    1  C10 UNL     1     -13.358   4.592 -17.095  1.00  0.00     0.164 C 
HETATM    2  O1  UNL     1     -13.418   4.109 -18.391  1.00  0.00    -0.356 OA
HETATM    3  C11 UNL     1     -14.786   4.193 -18.757  1.00  0.00     0.249 C 
HETATM    4  N1  UNL     1     -15.030   5.419 -19.430  1.00  0.00    -0.328 N 
ATOM      5  H1  UNL     1     -14.209   6.002 -19.598  1.00  0.00     0.165 HD
HETATM    6  C12 UNL     1     -16.260   5.944 -19.902  1.00  0.00     0.268 C 
HETATM    7  O2  UNL     1     -16.253   6.636 -20.952  1.00  0.00    -0.267 OA
HETATM    8  C13 UNL     1     -17.555   5.730 -19.240  1.00  0.00     0.155 C 
HETATM    9  C14 UNL     1     -18.696   6.336 -19.893  1.00  0.00     0.109 C 
HETATM   10  N2  UNL     1     -19.621   6.808 -20.409  1.00  0.00    -0.191 NA
HETATM   11  C15 UNL     1     -17.834   5.052 -18.114  1.00  0.00     0.130 C 
HETATM   12  N6  UNL     1     -16.836   4.397 -17.349  1.00  0.00    -0.363 N 
ATOM     13  H6  UNL     1     -17.129   4.283 -16.378  1.00  0.00     0.161 HD
HETATM   14  C18 UNL     1     -15.540   3.856 -17.563  1.00  0.00     0.163 C 
HETATM   15  C19 UNL     1     -14.599   4.147 -16.400  1.00  0.00     0.174 C 
ENDROOT
BRANCH  11  16
HETATM   16  N3  UNL     1     -19.189   5.005 -17.693  1.00  0.00    -0.320 N 
ATOM     17  H3  UNL     1     -19.701   5.854 -17.455  1.00  0.00     0.169 HD
BRANCH  16  18
HETATM   18  C16 UNL     1     -19.756   3.817 -17.624  1.00  0.00     0.167 A 
HETATM   19  N4  UNL     1     -20.769   3.356 -18.362  1.00  0.00    -0.331 N 
HETATM   20  C17 UNL     1     -21.183   2.143 -18.130  1.00  0.00     0.189 A 
ATOM     21  H4  UNL     1     -21.203   3.933 -19.082  1.00  0.00     0.168 HD
HETATM   22  N5  UNL     1     -20.581   1.437 -17.178  1.00  0.00    -0.320 N 
HETATM   23  S2  UNL     1     -19.410   2.500 -16.602  1.00  0.00     0.024 SA
ATOM     24  H5  UNL     1     -20.779   0.485 -16.871  1.00  0.00     0.175 HD
ENDBRANCH  16  18
ENDBRANCH  11  16
BRANCH  15  25
HETATM   25  O3  UNL     1     -15.107   5.170 -15.599  1.00  0.00    -0.391 OA
ATOM     26  H3  UNL     1     -14.736   5.127 -14.726  1.00  0.00     0.210 HD
ENDBRANCH  15  25
BRANCH   1  27
HETATM   27  C9  UNL     1     -12.078   4.137 -16.448  1.00  0.00     0.108 C 
BRANCH  27  28
HETATM   28  S1  UNL     1     -11.155   3.071 -17.597  1.00  0.00    -0.166 SA
BRANCH  28  29
HETATM   29  C8  UNL     1     -11.379   1.322 -17.128  1.00  0.00     0.074 C 
BRANCH  29  30
HETATM   30  C7  UNL     1     -12.689   0.800 -17.701  1.00  0.00     0.010 C 
BRANCH  30  31
HETATM   31  C6  UNL     1     -12.427   0.431 -19.183  1.00  0.00     0.001 C 
BRANCH  31  32
HETATM   32  C5  UNL     1     -13.625   0.729 -19.994  1.00  0.00     0.000 C 
BRANCH  32  33
HETATM   33  C4  UNL     1     -14.284  -0.298 -20.804  1.00  0.00     0.000 C 
BRANCH  33  34
HETATM   34  C3  UNL     1     -14.372  -0.202 -22.274  1.00  0.00    -0.000 C 
BRANCH  34  35
HETATM   35  C2  UNL     1     -13.134  -0.276 -23.079  1.00  0.00    -0.005 C 
HETATM   36  C1  UNL     1     -13.069   0.820 -24.114  1.00  0.00     0.005 C 
ENDBRANCH  34  35
ENDBRANCH  33  34
ENDBRANCH  32  33
ENDBRANCH  31  32
ENDBRANCH  30  31
ENDBRANCH  29  30
ENDBRANCH  28  29
ENDBRANCH  27  28
ENDBRANCH   1  27
TORSDOF 12
ENDMDL
