MODEL 1
REMARK VINA RESULT: -4.048571756      0.000      0.000
REMARK  3 active torsions:
REMARK  status: ('A' for Active; 'I' for Inactive)
REMARK    1  A    between atoms: C2_4  and  N2_5 
REMARK    2  A    between atoms: N2_5  and  C3_7 
REMARK    3  A    between atoms: C3_7  and  C4_8 
ROOT
HETATM    1  N2  UNL     1      45.141  73.104  15.377  1.00  0.00    -0.386 N 
ATOM      2  H2  UNL     1      44.371  73.397  14.775  1.00  0.00     0.160 HD
ENDROOT
BRANCH   1   3
HETATM    3  C2  UNL     1      46.476  73.473  15.043  1.00  0.00     0.170 C 
HETATM    4  N1  UNL     1      46.800  74.710  14.956  1.00  0.00    -0.391 N 
HETATM    5  C1  UNL     1      45.827  75.777  15.192  1.00  0.00     0.147 C 
ATOM      6  H1  UNL     1      47.760  74.957  14.717  1.00  0.00     0.159 HD
ENDBRANCH   1   3
BRANCH   1   7
HETATM    7  C3  UNL     1      44.865  72.316  16.563  1.00  0.00     0.125 C 
BRANCH   7   8
HETATM    8  C4  UNL     1      45.781  71.145  16.586  1.00  0.00     0.003 A 
HETATM    9  C5  UNL     1      45.374  69.803  17.032  1.00  0.00     0.007 A 
HETATM   10  C6  UNL     1      46.158  70.685  18.005  1.00  0.00     0.007 A 
ENDBRANCH   7   8
ENDBRANCH   1   7
TORSDOF 3
ENDMDL
MODEL 2
REMARK VINA RESULT: -4.034124320      1.660      1.894
REMARK  3 active torsions:
REMARK  status: ('A' for Active; 'I' for Inactive)
REMARK    1  A    between atoms: C2_4  and  N2_5 
REMARK    2  A    between atoms: N2_5  and  C3_7 
REMARK    3  A    between atoms: C3_7  and  C4_8 
ROOT
HETATM    1  N2  UNL     1      44.012  73.948  16.389  1.00  0.00    -0.386 N 
ATOM      2  H2  UNL     1      44.252  74.922  16.574  1.00  0.00     0.160 HD
ENDROOT
BRANCH   1   3
HETATM    3  C2  UNL     1      43.382  73.599  15.159  1.00  0.00     0.170 C 
HETATM    4  N1  UNL     1      43.933  73.906  14.043  1.00  0.00    -0.391 N 
HETATM    5  C1  UNL     1      45.211  74.616  13.987  1.00  0.00     0.147 C 
ATOM      6  H1  UNL     1      43.468  73.649  13.172  1.00  0.00     0.159 HD
ENDBRANCH   1   3
BRANCH   1   7
HETATM    7  C3  UNL     1      44.316  72.933  17.379  1.00  0.00     0.125 C 
BRANCH   7   8
HETATM    8  C4  UNL     1      45.303  71.981  16.804  1.00  0.00     0.003 A 
HETATM    9  C5  UNL     1      45.105  70.523  16.776  1.00  0.00     0.007 A 
HETATM   10  C6  UNL     1      46.008  71.112  17.860  1.00  0.00     0.007 A 
ENDBRANCH   7   8
ENDBRANCH   1   7
TORSDOF 3
ENDMDL
MODEL 3
REMARK VINA RESULT: -3.976829954      2.460      2.872
REMARK  3 active torsions:
REMARK  status: ('A' for Active; 'I' for Inactive)
REMARK    1  A    between atoms: C2_4  and  N2_5 
REMARK    2  A    between atoms: N2_5  and  C3_7 
REMARK    3  A    between atoms: C3_7  and  C4_8 
ROOT
HETATM    1  N2  UNL     1      43.712  72.545  16.605  1.00  0.00    -0.386 N 
ATOM      2  H2  UNL     1      43.289  73.444  16.832  1.00  0.00     0.160 HD
ENDROOT
BRANCH   1   3
HETATM    3  C2  UNL     1      43.006  71.622  15.780  1.00  0.00     0.170 C 
HETATM    4  N1  UNL     1      42.481  72.014  14.678  1.00  0.00    -0.391 N 
HETATM    5  C1  UNL     1      42.582  73.404  14.231  1.00  0.00     0.147 C 
ATOM      6  H1  UNL     1      41.979  71.341  14.099  1.00  0.00     0.159 HD
ENDBRANCH   1   3
BRANCH   1   7
HETATM    7  C3  UNL     1      45.025  72.218  17.126  1.00  0.00     0.125 C 
BRANCH   7   8
HETATM    8  C4  UNL     1      45.318  70.790  16.830  1.00  0.00     0.003 A 
HETATM    9  C5  UNL     1      45.689  69.805  17.859  1.00  0.00     0.007 A 
HETATM   10  C6  UNL     1      46.800  70.416  17.004  1.00  0.00     0.007 A 
ENDBRANCH   7   8
ENDBRANCH   1   7
TORSDOF 3
ENDMDL
MODEL 4
REMARK VINA RESULT: -3.948473055      2.102      2.734
REMARK  3 active torsions:
REMARK  status: ('A' for Active; 'I' for Inactive)
REMARK    1  A    between atoms: C2_4  and  N2_5 
REMARK    2  A    between atoms: N2_5  and  C3_7 
REMARK    3  A    between atoms: C3_7  and  C4_8 
ROOT
HETATM    1  N2  UNL     1      44.421  73.210  15.064  1.00  0.00    -0.386 N 
ATOM      2  H2  UNL     1      44.819  72.597  14.353  1.00  0.00     0.160 HD
ENDROOT
BRANCH   1   3
HETATM    3  C2  UNL     1      43.521  74.245  14.678  1.00  0.00     0.170 C 
HETATM    4  N1  UNL     1      42.362  73.951  14.216  1.00  0.00    -0.391 N 
HETATM    5  C1  UNL     1      41.923  72.563  14.069  1.00  0.00     0.147 C 
ATOM      6  H1  UNL     1      41.729  74.704  13.944  1.00  0.00     0.159 HD
ENDBRANCH   1   3
BRANCH   1   7
HETATM    7  C3  UNL     1      44.778  73.021  16.457  1.00  0.00     0.125 C 
BRANCH   7   8
HETATM    8  C4  UNL     1      45.702  71.861  16.563  1.00  0.00     0.003 A 
HETATM    9  C5  UNL     1      45.249  70.474  16.757  1.00  0.00     0.007 A 
HETATM   10  C6  UNL     1      45.762  71.248  17.973  1.00  0.00     0.007 A 
ENDBRANCH   7   8
ENDBRANCH   1   7
TORSDOF 3
ENDMDL
MODEL 5
REMARK VINA RESULT: -3.926703049      1.686      2.054
REMARK  3 active torsions:
REMARK  status: ('A' for Active; 'I' for Inactive)
REMARK    1  A    between atoms: C2_4  and  N2_5 
REMARK    2  A    between atoms: N2_5  and  C3_7 
REMARK    3  A    between atoms: C3_7  and  C4_8 
ROOT
HETATM    1  N2  UNL     1      44.158  73.858  16.628  1.00  0.00    -0.386 N 
ATOM      2  H2  UNL     1      43.464  74.563  16.877  1.00  0.00     0.160 HD
ENDROOT
BRANCH   1   3
HETATM    3  C2  UNL     1      44.787  73.909  15.350  1.00  0.00     0.170 C 
HETATM    4  N1  UNL     1      44.094  73.735  14.285  1.00  0.00    -0.391 N 
HETATM    5  C1  UNL     1      42.654  73.482  14.338  1.00  0.00     0.147 C 
ATOM      6  H1  UNL     1      44.559  73.774  13.378  1.00  0.00     0.159 HD
ENDBRANCH   1   3
BRANCH   1   7
HETATM    7  C3  UNL     1      44.496  72.816  17.578  1.00  0.00     0.125 C 
BRANCH   7   8
HETATM    8  C4  UNL     1      45.432  71.859  16.930  1.00  0.00     0.003 A 
HETATM    9  C5  UNL     1      45.150  70.423  16.778  1.00  0.00     0.007 A 
HETATM   10  C6  UNL     1      46.076  70.866  17.912  1.00  0.00     0.007 A 
ENDBRANCH   7   8
ENDBRANCH   1   7
TORSDOF 3
ENDMDL
