MODEL 1
REMARK VINA RESULT: -7.440941474      0.000      0.000
REMARK  5 active torsions:
REMARK  status: ('A' for Active; 'I' for Inactive)
REMARK    1  A    between atoms: C2_2  and  O2_4 
REMARK    2  A    between atoms: O2_4  and  C3_5 
REMARK    3  A    between atoms: C6_8  and  O3_10 
REMARK    4  A    between atoms: C8_12  and  O4_14 
REMARK    5  A    between atoms: C12_18  and  O5_20 
ROOT
HETATM    1  C3  UNL     1       0.868  -9.111  43.496  1.00  0.00     0.154 C 
HETATM    2  C4  UNL     1       0.958  -9.600  44.885  1.00  0.00     0.004 C 
HETATM    3  C5  UNL     1       0.331 -10.537  45.520  1.00  0.00     0.012 C 
HETATM    4  C6  UNL     1      -0.719 -11.479  45.102  1.00  0.00     0.102 C 
HETATM    5  C7  UNL     1      -1.736 -10.962  44.151  1.00  0.00     0.053 C 
HETATM    6  C8  UNL     1      -0.178 -12.836  44.667  1.00  0.00     0.088 C 
HETATM    7  C9  UNL     1       0.478 -13.562  45.808  1.00  0.00     0.049 C 
HETATM    8  C10 UNL     1       0.587 -12.836  43.403  1.00  0.00     0.044 C 
HETATM    9  C11 UNL     1       2.072 -12.652  43.542  1.00  0.00     0.040 C 
HETATM   10  C12 UNL     1       2.609 -11.641  42.541  1.00  0.00     0.054 C 
HETATM   11  C13 UNL     1       3.852 -12.168  41.824  1.00  0.00     0.045 C 
HETATM   12  C14 UNL     1       3.019 -10.381  43.275  1.00  0.00     0.040 C 
HETATM   13  C15 UNL     1       2.193  -9.245  42.758  1.00  0.00     0.039 C 
ENDROOT
BRANCH   1  14
HETATM   14  O2  UNL     1       0.504  -7.721  43.454  1.00  0.00    -0.312 OA
BRANCH  14  15
HETATM   15  C2  UNL     1      -0.156  -7.071  44.456  1.00  0.00     0.255 C 
HETATM   16  C1  UNL     1      -1.586  -7.286  44.793  1.00  0.00     0.126 C 
HETATM   17  O1  UNL     1       0.471  -6.241  45.142  1.00  0.00    -0.266 OA
ENDBRANCH  14  15
ENDBRANCH   1  14
BRANCH   4  18
HETATM   18  O3  UNL     1      -1.488 -11.813  46.267  1.00  0.00    -0.383 OA
ATOM     19  H3  UNL     1      -0.880 -12.100  46.938  1.00  0.00     0.211 HD
ENDBRANCH   4  18
BRANCH  10  20
HETATM   20  O5  UNL     1       1.680 -11.383  41.531  1.00  0.00    -0.390 OA
ATOM     21  H5  UNL     1       1.476 -12.171  41.040  1.00  0.00     0.210 HD
ENDBRANCH  10  20
BRANCH   6  22
HETATM   22  O4  UNL     1      -1.341 -13.618  44.412  1.00  0.00    -0.387 OA
ATOM     23  H4  UNL     1      -1.302 -14.318  45.055  1.00  0.00     0.210 HD
ENDBRANCH   6  22
TORSDOF 5
ENDMDL
MODEL 2
REMARK VINA RESULT: -7.390804509      3.652      6.290
REMARK  5 active torsions:
REMARK  status: ('A' for Active; 'I' for Inactive)
REMARK    1  A    between atoms: C2_2  and  O2_4 
REMARK    2  A    between atoms: O2_4  and  C3_5 
REMARK    3  A    between atoms: C6_8  and  O3_10 
REMARK    4  A    between atoms: C8_12  and  O4_14 
REMARK    5  A    between atoms: C12_18  and  O5_20 
ROOT
HETATM    1  C3  UNL     1       2.374  -7.734  39.069  1.00  0.00     0.154 C 
HETATM    2  C4  UNL     1       1.616  -8.999  39.129  1.00  0.00     0.004 C 
HETATM    3  C5  UNL     1       1.694 -10.023  39.915  1.00  0.00     0.012 C 
HETATM    4  C6  UNL     1       2.572 -10.326  41.056  1.00  0.00     0.102 C 
HETATM    5  C7  UNL     1       3.977  -9.857  40.957  1.00  0.00     0.053 C 
HETATM    6  C8  UNL     1       1.954  -9.978  42.405  1.00  0.00     0.088 C 
HETATM    7  C9  UNL     1       0.742 -10.818  42.692  1.00  0.00     0.049 C 
HETATM    8  C10 UNL     1       1.792  -8.534  42.672  1.00  0.00     0.044 C 
HETATM    9  C11 UNL     1       0.466  -7.945  42.279  1.00  0.00     0.040 C 
HETATM   10  C12 UNL     1       0.635  -6.628  41.538  1.00  0.00     0.054 C 
HETATM   11  C13 UNL     1      -0.295  -5.549  42.093  1.00  0.00     0.045 C 
HETATM   12  C14 UNL     1       0.268  -6.825  40.082  1.00  0.00     0.040 C 
HETATM   13  C15 UNL     1       1.472  -6.520  39.247  1.00  0.00     0.039 C 
ENDROOT
BRANCH   1  14
HETATM   14  O2  UNL     1       3.037  -7.581  37.803  1.00  0.00    -0.312 OA
BRANCH  14  15
HETATM   15  C2  UNL     1       2.964  -8.488  36.785  1.00  0.00     0.255 C 
HETATM   16  C1  UNL     1       3.839  -9.681  36.663  1.00  0.00     0.126 C 
HETATM   17  O1  UNL     1       2.111  -8.315  35.894  1.00  0.00    -0.266 OA
ENDBRANCH  14  15
ENDBRANCH   1  14
BRANCH   4  18
HETATM   18  O3  UNL     1       2.699 -11.753  41.135  1.00  0.00    -0.383 OA
ATOM     19  H3  UNL     1       3.558 -11.944  41.493  1.00  0.00     0.211 HD
ENDBRANCH   4  18
BRANCH  10  20
HETATM   20  O5  UNL     1       1.926  -6.120  41.692  1.00  0.00    -0.390 OA
ATOM     21  H5  UNL     1       2.174  -5.577  40.953  1.00  0.00     0.210 HD
ENDBRANCH  10  20
BRANCH   6  22
HETATM   22  O4  UNL     1       2.902 -10.441  43.361  1.00  0.00    -0.387 OA
ATOM     23  H4  UNL     1       3.746 -10.304  42.945  1.00  0.00     0.210 HD
ENDBRANCH   6  22
TORSDOF 5
ENDMDL
MODEL 3
REMARK VINA RESULT: -7.354530305      2.243      4.365
REMARK  5 active torsions:
REMARK  status: ('A' for Active; 'I' for Inactive)
REMARK    1  A    between atoms: C2_2  and  O2_4 
REMARK    2  A    between atoms: O2_4  and  C3_5 
REMARK    3  A    between atoms: C6_8  and  O3_10 
REMARK    4  A    between atoms: C8_12  and  O4_14 
REMARK    5  A    between atoms: C12_18  and  O5_20 
ROOT
HETATM    1  C3  UNL     1      -0.298  -8.571  42.580  1.00  0.00     0.154 C 
HETATM    2  C4  UNL     1      -0.310  -9.882  41.902  1.00  0.00     0.004 C 
HETATM    3  C5  UNL     1       0.639 -10.642  41.460  1.00  0.00     0.012 C 
HETATM    4  C6  UNL     1       2.102 -10.493  41.459  1.00  0.00     0.102 C 
HETATM    5  C7  UNL     1       2.631  -9.121  41.253  1.00  0.00     0.053 C 
HETATM    6  C8  UNL     1       2.783 -11.189  42.633  1.00  0.00     0.088 C 
HETATM    7  C9  UNL     1       2.606 -12.680  42.570  1.00  0.00     0.049 C 
HETATM    8  C10 UNL     1       2.534 -10.584  43.957  1.00  0.00     0.044 C 
HETATM    9  C11 UNL     1       1.368 -11.147  44.720  1.00  0.00     0.040 C 
HETATM   10  C12 UNL     1       0.506 -10.048  45.322  1.00  0.00     0.054 C 
HETATM   11  C13 UNL     1       0.187 -10.327  46.790  1.00  0.00     0.045 C 
HETATM   12  C14 UNL     1      -0.815  -9.989  44.582  1.00  0.00     0.040 C 
HETATM   13  C15 UNL     1      -0.944  -8.635  43.957  1.00  0.00     0.039 C 
ENDROOT
BRANCH   1  14
HETATM   14  O2  UNL     1      -1.019  -7.585  41.824  1.00  0.00    -0.312 OA
BRANCH  14  15
HETATM   15  C2  UNL     1      -0.456  -6.456  41.302  1.00  0.00     0.255 C 
HETATM   16  C1  UNL     1       0.251  -6.401  39.997  1.00  0.00     0.126 C 
HETATM   17  O1  UNL     1      -0.533  -5.396  41.952  1.00  0.00    -0.266 OA
ENDBRANCH  14  15
ENDBRANCH   1  14
BRANCH   4  18
HETATM   18  O3  UNL     1       2.610 -11.221  40.332  1.00  0.00    -0.383 OA
ATOM     19  H3  UNL     1       3.470 -11.548  40.567  1.00  0.00     0.211 HD
ENDBRANCH   4  18
BRANCH  10  20
HETATM   20  O5  UNL     1       1.170  -8.820  45.313  1.00  0.00    -0.390 OA
ATOM     21  H5  UNL     1       1.695  -8.706  46.096  1.00  0.00     0.210 HD
ENDBRANCH  10  20
BRANCH   6  22
HETATM   22  O4  UNL     1       4.176 -11.018  42.388  1.00  0.00    -0.387 OA
ATOM     23  H4  UNL     1       4.471 -11.872  42.094  1.00  0.00     0.210 HD
ENDBRANCH   6  22
TORSDOF 5
ENDMDL
MODEL 4
REMARK VINA RESULT: -7.340334638      2.100      3.834
REMARK  5 active torsions:
REMARK  status: ('A' for Active; 'I' for Inactive)
REMARK    1  A    between atoms: C2_2  and  O2_4 
REMARK    2  A    between atoms: O2_4  and  C3_5 
REMARK    3  A    between atoms: C6_8  and  O3_10 
REMARK    4  A    between atoms: C8_12  and  O4_14 
REMARK    5  A    between atoms: C12_18  and  O5_20 
ROOT
HETATM    1  C3  UNL     1      -0.482  -8.092  43.752  1.00  0.00     0.154 C 
HETATM    2  C4  UNL     1      -1.289  -9.185  43.175  1.00  0.00     0.004 C 
HETATM    3  C5  UNL     1      -0.966 -10.245  42.507  1.00  0.00     0.012 C 
HETATM    4  C6  UNL     1       0.332 -10.772  42.060  1.00  0.00     0.102 C 
HETATM    5  C7  UNL     1       1.345  -9.772  41.636  1.00  0.00     0.053 C 
HETATM    6  C8  UNL     1       0.924 -11.808  43.008  1.00  0.00     0.088 C 
HETATM    7  C9  UNL     1       0.075 -13.046  43.075  1.00  0.00     0.049 C 
HETATM    8  C10 UNL     1       1.375 -11.286  44.314  1.00  0.00     0.044 C 
HETATM    9  C11 UNL     1       0.357 -11.334  45.419  1.00  0.00     0.040 C 
HETATM   10  C12 UNL     1       0.309 -10.027  46.196  1.00  0.00     0.054 C 
HETATM   11  C13 UNL     1       0.338 -10.272  47.705  1.00  0.00     0.045 C 
HETATM   12  C14 UNL     1      -0.988  -9.310  45.885  1.00  0.00     0.040 C 
HETATM   13  C15 UNL     1      -0.658  -7.990  45.261  1.00  0.00     0.039 C 
ENDROOT
BRANCH   1  14
HETATM   14  O2  UNL     1      -0.856  -6.819  43.200  1.00  0.00    -0.312 OA
BRANCH  14  15
HETATM   15  C2  UNL     1      -0.076  -6.097  42.343  1.00  0.00     0.255 C 
HETATM   16  C1  UNL     1      -0.004  -6.330  40.879  1.00  0.00     0.126 C 
HETATM   17  O1  UNL     1       0.627  -5.179  42.807  1.00  0.00    -0.266 OA
ENDBRANCH  14  15
ENDBRANCH   1  14
BRANCH   4  18
HETATM   18  O3  UNL     1       0.100 -11.539  40.870  1.00  0.00    -0.383 OA
ATOM     19  H3  UNL     1       0.504 -11.075  40.147  1.00  0.00     0.211 HD
ENDBRANCH   4  18
BRANCH  10  20
HETATM   20  O5  UNL     1       1.427  -9.236  45.927  1.00  0.00    -0.390 OA
ATOM     21  H5  UNL     1       1.627  -8.661  46.657  1.00  0.00     0.210 HD
ENDBRANCH  10  20
BRANCH   6  22
HETATM   22  O4  UNL     1       2.103 -12.261  42.348  1.00  0.00    -0.387 OA
ATOM     23  H4  UNL     1       2.523 -12.834  42.980  1.00  0.00     0.210 HD
ENDBRANCH   6  22
TORSDOF 5
ENDMDL
MODEL 5
REMARK VINA RESULT: -7.314592454      1.568      1.832
REMARK  5 active torsions:
REMARK  status: ('A' for Active; 'I' for Inactive)
REMARK    1  A    between atoms: C2_2  and  O2_4 
REMARK    2  A    between atoms: O2_4  and  C3_5 
REMARK    3  A    between atoms: C6_8  and  O3_10 
REMARK    4  A    between atoms: C8_12  and  O4_14 
REMARK    5  A    between atoms: C12_18  and  O5_20 
ROOT
HETATM    1  C3  UNL     1       1.492  -8.626  42.559  1.00  0.00     0.154 C 
HETATM    2  C4  UNL     1       1.440  -8.528  44.031  1.00  0.00     0.004 C 
HETATM    3  C5  UNL     1       0.554  -8.899  44.897  1.00  0.00     0.012 C 
HETATM    4  C6  UNL     1      -0.750  -9.564  44.750  1.00  0.00     0.102 C 
HETATM    5  C7  UNL     1      -1.560  -9.185  43.564  1.00  0.00     0.053 C 
HETATM    6  C8  UNL     1      -0.682 -11.076  44.927  1.00  0.00     0.088 C 
HETATM    7  C9  UNL     1      -0.279 -11.452  46.325  1.00  0.00     0.049 C 
HETATM    8  C10 UNL     1       0.022 -11.808  43.854  1.00  0.00     0.044 C 
HETATM    9  C11 UNL     1       1.489 -12.042  44.083  1.00  0.00     0.040 C 
HETATM   10  C12 UNL     1       2.308 -11.724  42.842  1.00  0.00     0.054 C 
HETATM   11  C13 UNL     1       3.303 -12.841  42.526  1.00  0.00     0.045 C 
HETATM   12  C14 UNL     1       3.114 -10.465  43.085  1.00  0.00     0.040 C 
HETATM   13  C15 UNL     1       2.692  -9.435  42.084  1.00  0.00     0.039 C 
ENDROOT
BRANCH   1  14
HETATM   14  O2  UNL     1       1.596  -7.328  41.951  1.00  0.00    -0.312 OA
BRANCH  14  15
HETATM   15  C2  UNL     1       0.804  -6.264  42.277  1.00  0.00     0.255 C 
HETATM   16  C1  UNL     1      -0.610  -6.112  41.851  1.00  0.00     0.126 C 
HETATM   17  O1  UNL     1       1.288  -5.354  42.977  1.00  0.00    -0.266 OA
ENDBRANCH  14  15
ENDBRANCH   1  14
BRANCH   4  18
HETATM   18  O3  UNL     1      -1.568  -9.160  45.858  1.00  0.00    -0.383 OA
ATOM     19  H3  UNL     1      -2.390  -8.842  45.505  1.00  0.00     0.211 HD
ENDBRANCH   4  18
BRANCH  10  20
HETATM   20  O5  UNL     1       1.497 -11.620  41.710  1.00  0.00    -0.390 OA
ATOM     21  H5  UNL     1       2.007 -11.688  40.912  1.00  0.00     0.210 HD
ENDBRANCH  10  20
BRANCH   6  22
HETATM   22  O4  UNL     1      -2.040 -11.504  44.857  1.00  0.00    -0.387 OA
ATOM     23  H4  UNL     1      -2.197 -11.931  45.691  1.00  0.00     0.210 HD
ENDBRANCH   6  22
TORSDOF 5
ENDMDL
