MODEL 1
REMARK VINA RESULT: -7.794230279      0.000      0.000
REMARK  7 active torsions:
REMARK  status: ('A' for Active; 'I' for Inactive)
REMARK    1  A    between atoms: C6_6  and  O1_8 
REMARK    2  A    between atoms: C9_11  and  O2_12 
REMARK    3  A    between atoms: C11_15  and  O3_16 
REMARK    4  A    between atoms: O3_16  and  C12_17 
REMARK    5  A    between atoms: C12_17  and  O5_19 
REMARK    6  A    between atoms: O5_19  and  C13_20 
REMARK    7  A    between atoms: C14_22  and  O7_23 
ROOT
HETATM    1  C1  UNL     1       1.958  -7.337  43.901  1.00  0.00     0.017 C 
HETATM    2  C2  UNL     1       2.153  -8.551  43.402  1.00  0.00    -0.058 C 
HETATM    3  C3  UNL     1       2.195  -9.633  44.379  1.00  0.00     0.036 C 
HETATM    4  C4  UNL     1       2.158 -11.021  43.926  1.00  0.00     0.007 C 
HETATM    5  C5  UNL     1       1.044 -11.810  44.627  1.00  0.00     0.038 C 
HETATM    6  C6  UNL     1       0.042 -12.293  43.565  1.00  0.00     0.056 C 
HETATM    7  C7  UNL     1      -0.673 -13.475  44.244  1.00  0.00     0.045 C 
HETATM    8  C8  UNL     1      -0.906 -11.229  43.204  1.00  0.00     0.069 C 
HETATM    9  C9  UNL     1      -0.766 -10.583  41.863  1.00  0.00     0.123 C 
HETATM   10  C10 UNL     1      -0.171  -9.195  41.992  1.00  0.00     0.067 C 
HETATM   11  C11 UNL     1       1.057  -8.965  41.168  1.00  0.00     0.169 C 
HETATM   12  C14 UNL     1       2.305  -8.674  41.937  1.00  0.00     0.176 C 
ENDROOT
BRANCH  11  13
HETATM   13  O3  UNL     1       0.806  -7.979  40.155  1.00  0.00    -0.289 OA
BRANCH  13  14
HETATM   14  C12 UNL     1       1.495  -7.877  38.981  1.00  0.00     0.414 C 
HETATM   15  O4  UNL     1       2.087  -6.796  38.744  1.00  0.00    -0.229 OA
BRANCH  14  16
HETATM   16  O5  UNL     1       1.586  -8.880  38.033  1.00  0.00    -0.229 OA
BRANCH  16  17
HETATM   17  C13 UNL     1       2.488  -8.742  36.989  1.00  0.00     0.408 C 
HETATM   18  O6  UNL     1       2.126  -8.309  35.849  1.00  0.00    -0.275 OA
ENDBRANCH  16  17
ENDBRANCH  14  16
ENDBRANCH  13  14
ENDBRANCH  11  13
BRANCH  12  19
HETATM   19  O7  UNL     1       3.366  -9.556  41.605  1.00  0.00    -0.389 OA
ATOM     20  H7  UNL     1       3.159 -10.450  41.850  1.00  0.00     0.210 HD
ENDBRANCH  12  19
BRANCH   9  21
HETATM   21  O2  UNL     1      -0.088 -11.366  40.930  1.00  0.00    -0.395 OA
ATOM     22  H2  UNL     1      -0.287 -11.146  40.027  1.00  0.00     0.210 HD
ENDBRANCH   9  21
BRANCH   6  23
HETATM   23  O1  UNL     1       0.804 -12.830  42.555  1.00  0.00    -0.390 OA
ATOM     24  H1  UNL     1       0.393 -12.547  41.747  1.00  0.00     0.210 HD
ENDBRANCH   6  23
TORSDOF 7
ENDMDL
MODEL 2
REMARK VINA RESULT: -7.749717743      0.912      1.136
REMARK  7 active torsions:
REMARK  status: ('A' for Active; 'I' for Inactive)
REMARK    1  A    between atoms: C6_6  and  O1_8 
REMARK    2  A    between atoms: C9_11  and  O2_12 
REMARK    3  A    between atoms: C11_15  and  O3_16 
REMARK    4  A    between atoms: O3_16  and  C12_17 
REMARK    5  A    between atoms: C12_17  and  O5_19 
REMARK    6  A    between atoms: O5_19  and  C13_20 
REMARK    7  A    between atoms: C14_22  and  O7_23 
ROOT
HETATM    1  C1  UNL     1       2.554  -7.814  44.046  1.00  0.00     0.017 C 
HETATM    2  C2  UNL     1       2.488  -9.100  43.727  1.00  0.00    -0.058 C 
HETATM    3  C3  UNL     1       2.015  -9.987  44.784  1.00  0.00     0.036 C 
HETATM    4  C4  UNL     1       1.674 -11.372  44.471  1.00  0.00     0.007 C 
HETATM    5  C5  UNL     1       0.260 -11.724  44.953  1.00  0.00     0.038 C 
HETATM    6  C6  UNL     1      -0.598 -12.094  43.732  1.00  0.00     0.056 C 
HETATM    7  C7  UNL     1      -1.747 -12.927  44.327  1.00  0.00     0.045 C 
HETATM    8  C8  UNL     1      -1.103 -10.892  43.052  1.00  0.00     0.069 C 
HETATM    9  C9  UNL     1      -0.510 -10.527  41.729  1.00  0.00     0.123 C 
HETATM   10  C10 UNL     1       0.420  -9.337  41.865  1.00  0.00     0.067 C 
HETATM   11  C11 UNL     1       1.804  -9.566  41.345  1.00  0.00     0.169 C 
HETATM   12  C14 UNL     1       2.897  -9.490  42.361  1.00  0.00     0.176 C 
ENDROOT
BRANCH  11  13
HETATM   13  O3  UNL     1       2.062  -8.723  40.212  1.00  0.00    -0.289 OA
BRANCH  13  14
HETATM   14  C12 UNL     1       1.833  -9.074  38.912  1.00  0.00     0.414 C 
HETATM   15  O4  UNL     1       1.515 -10.265  38.677  1.00  0.00    -0.229 OA
BRANCH  14  16
HETATM   16  O5  UNL     1       1.928  -8.210  37.837  1.00  0.00    -0.229 OA
BRANCH  16  17
HETATM   17  C13 UNL     1       2.609  -8.620  36.700  1.00  0.00     0.408 C 
HETATM   18  O6  UNL     1       2.266  -8.227  35.540  1.00  0.00    -0.275 OA
ENDBRANCH  16  17
ENDBRANCH  14  16
ENDBRANCH  13  14
ENDBRANCH  11  13
BRANCH  12  19
HETATM   19  O7  UNL     1       3.704 -10.657  42.382  1.00  0.00    -0.389 OA
ATOM     20  H7  UNL     1       3.198 -11.427  42.150  1.00  0.00     0.210 HD
ENDBRANCH  12  19
BRANCH   9  21
HETATM   21  O2  UNL     1       0.091 -11.596  41.067  1.00  0.00    -0.395 OA
ATOM     22  H2  UNL     1       0.976 -11.781  41.359  1.00  0.00     0.210 HD
ENDBRANCH   9  21
BRANCH   6  23
HETATM   23  O1  UNL     1       0.168 -12.963  42.992  1.00  0.00    -0.390 OA
ATOM     24  H1  UNL     1      -0.089 -12.825  42.088  1.00  0.00     0.210 HD
ENDBRANCH   6  23
TORSDOF 7
ENDMDL
MODEL 3
REMARK VINA RESULT: -7.622141904      3.202      4.481
REMARK  7 active torsions:
REMARK  status: ('A' for Active; 'I' for Inactive)
REMARK    1  A    between atoms: C6_6  and  O1_8 
REMARK    2  A    between atoms: C9_11  and  O2_12 
REMARK    3  A    between atoms: C11_15  and  O3_16 
REMARK    4  A    between atoms: O3_16  and  C12_17 
REMARK    5  A    between atoms: C12_17  and  O5_19 
REMARK    6  A    between atoms: O5_19  and  C13_20 
REMARK    7  A    between atoms: C14_22  and  O7_23 
ROOT
HETATM    1  C1  UNL     1       0.341 -10.567  40.942  1.00  0.00     0.017 C 
HETATM    2  C2  UNL     1      -0.342 -10.175  42.011  1.00  0.00    -0.058 C 
HETATM    3  C3  UNL     1      -1.250 -11.168  42.575  1.00  0.00     0.036 C 
HETATM    4  C4  UNL     1      -1.860 -10.933  43.881  1.00  0.00     0.007 C 
HETATM    5  C5  UNL     1      -1.621 -12.112  44.833  1.00  0.00     0.038 C 
HETATM    6  C6  UNL     1      -0.803 -11.614  46.036  1.00  0.00     0.056 C 
HETATM    7  C7  UNL     1      -1.087 -12.656  47.132  1.00  0.00     0.045 C 
HETATM    8  C8  UNL     1       0.631 -11.550  45.716  1.00  0.00     0.069 C 
HETATM    9  C9  UNL     1       1.256 -10.204  45.541  1.00  0.00     0.123 C 
HETATM   10  C10 UNL     1       1.521  -9.919  44.076  1.00  0.00     0.067 C 
HETATM   11  C11 UNL     1       0.918  -8.646  43.570  1.00  0.00     0.169 C 
HETATM   12  C14 UNL     1      -0.117  -8.800  42.503  1.00  0.00     0.176 C 
ENDROOT
BRANCH  11  13
HETATM   13  O3  UNL     1       1.946  -7.716  43.194  1.00  0.00    -0.289 OA
BRANCH  13  14
HETATM   14  C12 UNL     1       2.007  -6.415  43.604  1.00  0.00     0.414 C 
HETATM   15  O4  UNL     1       3.076  -6.018  44.126  1.00  0.00    -0.229 OA
BRANCH  14  16
HETATM   16  O5  UNL     1       0.972  -5.505  43.485  1.00  0.00    -0.229 OA
BRANCH  16  17
HETATM   17  C13 UNL     1       0.529  -5.149  42.220  1.00  0.00     0.408 C 
HETATM   18  O6  UNL     1      -0.623  -5.485  41.798  1.00  0.00    -0.275 OA
ENDBRANCH  16  17
ENDBRANCH  14  16
ENDBRANCH  13  14
ENDBRANCH  11  13
BRANCH  12  19
HETATM   19  O7  UNL     1      -1.342  -8.169  42.838  1.00  0.00    -0.389 OA
ATOM     20  H7  UNL     1      -1.193  -7.362  43.317  1.00  0.00     0.210 HD
ENDBRANCH  12  19
BRANCH   9  21
HETATM   21  O2  UNL     1       0.555  -9.173  46.163  1.00  0.00    -0.395 OA
ATOM     22  H2  UNL     1       1.017  -8.783  46.897  1.00  0.00     0.210 HD
ENDBRANCH   9  21
BRANCH   6  23
HETATM   23  O1  UNL     1      -1.412 -10.451  46.441  1.00  0.00    -0.390 OA
ATOM     24  H1  UNL     1      -1.053 -10.260  47.300  1.00  0.00     0.210 HD
ENDBRANCH   6  23
TORSDOF 7
ENDMDL
MODEL 4
REMARK VINA RESULT: -7.605371843      3.467      5.032
REMARK  7 active torsions:
REMARK  status: ('A' for Active; 'I' for Inactive)
REMARK    1  A    between atoms: C6_6  and  O1_8 
REMARK    2  A    between atoms: C9_11  and  O2_12 
REMARK    3  A    between atoms: C11_15  and  O3_16 
REMARK    4  A    between atoms: O3_16  and  C12_17 
REMARK    5  A    between atoms: C12_17  and  O5_19 
REMARK    6  A    between atoms: O5_19  and  C13_20 
REMARK    7  A    between atoms: C14_22  and  O7_23 
ROOT
HETATM    1  C1  UNL     1      -0.175 -10.475  41.911  1.00  0.00     0.017 C 
HETATM    2  C2  UNL     1      -1.007 -10.697  42.922  1.00  0.00    -0.058 C 
HETATM    3  C3  UNL     1      -0.927 -12.024  43.521  1.00  0.00     0.036 C 
HETATM    4  C4  UNL     1      -1.613 -12.293  44.782  1.00  0.00     0.007 C 
HETATM    5  C5  UNL     1      -0.658 -12.888  45.825  1.00  0.00     0.038 C 
HETATM    6  C6  UNL     1      -0.572 -11.923  47.020  1.00  0.00     0.056 C 
HETATM    7  C7  UNL     1      -0.080 -12.811  48.176  1.00  0.00     0.045 C 
HETATM    8  C8  UNL     1       0.368 -10.824  46.750  1.00  0.00     0.069 C 
HETATM    9  C9  UNL     1      -0.192  -9.461  46.502  1.00  0.00     0.123 C 
HETATM   10  C10 UNL     1      -0.110  -9.103  45.032  1.00  0.00     0.067 C 
HETATM   11  C11 UNL     1      -1.413  -8.705  44.414  1.00  0.00     0.169 C 
HETATM   12  C14 UNL     1      -1.909  -9.597  43.322  1.00  0.00     0.176 C 
ENDROOT
BRANCH  11  13
HETATM   13  O3  UNL     1      -1.380  -7.327  44.011  1.00  0.00    -0.289 OA
BRANCH  13  14
HETATM   14  C12 UNL     1      -0.395  -6.762  43.252  1.00  0.00     0.414 C 
HETATM   15  O4  UNL     1      -0.457  -6.915  42.008  1.00  0.00    -0.229 OA
BRANCH  14  16
HETATM   16  O5  UNL     1       0.667  -6.034  43.758  1.00  0.00    -0.229 OA
BRANCH  16  17
HETATM   17  C13 UNL     1       1.961  -6.452  43.487  1.00  0.00     0.408 C 
HETATM   18  O6  UNL     1       2.940  -6.111  44.224  1.00  0.00    -0.275 OA
ENDBRANCH  16  17
ENDBRANCH  14  16
ENDBRANCH  13  14
ENDBRANCH  11  13
BRANCH  12  19
HETATM   19  O7  UNL     1      -3.222 -10.075  43.563  1.00  0.00    -0.389 OA
ATOM     20  H7  UNL     1      -3.485  -9.916  44.462  1.00  0.00     0.210 HD
ENDBRANCH  12  19
BRANCH   9  21
HETATM   21  O2  UNL     1      -1.472  -9.275  47.022  1.00  0.00    -0.395 OA
ATOM     22  H2  UNL     1      -1.734  -8.364  47.083  1.00  0.00     0.210 HD
ENDBRANCH   9  21
BRANCH   6  23
HETATM   23  O1  UNL     1      -1.871 -11.585  47.316  1.00  0.00    -0.390 OA
ATOM     24  H1  UNL     1      -1.865 -10.645  47.456  1.00  0.00     0.210 HD
ENDBRANCH   6  23
TORSDOF 7
ENDMDL
MODEL 5
REMARK VINA RESULT: -7.588198047      1.373      1.868
REMARK  7 active torsions:
REMARK  status: ('A' for Active; 'I' for Inactive)
REMARK    1  A    between atoms: C6_6  and  O1_8 
REMARK    2  A    between atoms: C9_11  and  O2_12 
REMARK    3  A    between atoms: C11_15  and  O3_16 
REMARK    4  A    between atoms: O3_16  and  C12_17 
REMARK    5  A    between atoms: C12_17  and  O5_19 
REMARK    6  A    between atoms: O5_19  and  C13_20 
REMARK    7  A    between atoms: C14_22  and  O7_23 
ROOT
HETATM    1  C1  UNL     1       1.815  -6.116  42.164  1.00  0.00     0.017 C 
HETATM    2  C2  UNL     1       2.367  -7.297  42.417  1.00  0.00    -0.058 C 
HETATM    3  C3  UNL     1       2.419  -7.677  43.825  1.00  0.00     0.036 C 
HETATM    4  C4  UNL     1       2.776  -9.044  44.194  1.00  0.00     0.007 C 
HETATM    5  C5  UNL     1       1.726  -9.666  45.124  1.00  0.00     0.038 C 
HETATM    6  C6  UNL     1       1.109 -10.887  44.421  1.00  0.00     0.056 C 
HETATM    7  C7  UNL     1       0.527 -11.721  45.575  1.00  0.00     0.045 C 
HETATM    8  C8  UNL     1       0.062 -10.481  43.471  1.00  0.00     0.069 C 
HETATM    9  C9  UNL     1       0.357 -10.584  42.010  1.00  0.00     0.123 C 
HETATM   10  C10 UNL     1       0.603  -9.213  41.411  1.00  0.00     0.067 C 
HETATM   11  C11 UNL     1       1.905  -9.074  40.689  1.00  0.00     0.169 C 
HETATM   12  C14 UNL     1       2.863  -8.083  41.268  1.00  0.00     0.176 C 
ENDROOT
BRANCH  11  13
HETATM   13  O3  UNL     1       1.683  -8.852  39.288  1.00  0.00    -0.289 OA
BRANCH  13  14
HETATM   14  C12 UNL     1       1.809  -9.806  38.319  1.00  0.00     0.414 C 
HETATM   15  O4  UNL     1       0.893 -10.657  38.217  1.00  0.00    -0.229 OA
BRANCH  14  16
HETATM   16  O5  UNL     1       2.875  -9.901  37.443  1.00  0.00    -0.229 OA
BRANCH  16  17
HETATM   17  C13 UNL     1       3.043  -8.920  36.477  1.00  0.00     0.408 C 
HETATM   18  O6  UNL     1       2.063  -8.231  36.048  1.00  0.00    -0.275 OA
ENDBRANCH  16  17
ENDBRANCH  14  16
ENDBRANCH  13  14
ENDBRANCH  11  13
BRANCH  12  19
HETATM   19  O7  UNL     1       4.132  -8.652  41.548  1.00  0.00    -0.389 OA
ATOM     20  H7  UNL     1       4.202  -9.528  41.187  1.00  0.00     0.210 HD
ENDBRANCH  12  19
BRANCH   9  21
HETATM   21  O2  UNL     1       1.374 -11.487  41.703  1.00  0.00    -0.395 OA
ATOM     22  H2  UNL     1       1.948 -11.195  41.003  1.00  0.00     0.210 HD
ENDBRANCH   9  21
BRANCH   6  23
HETATM   23  O1  UNL     1       2.171 -11.603  43.923  1.00  0.00    -0.390 OA
ATOM     24  H1  UNL     1       2.682 -11.863  44.681  1.00  0.00     0.210 HD
ENDBRANCH   6  23
TORSDOF 7
ENDMDL
