MODEL 1
REMARK VINA RESULT: -6.967804568      0.000      0.000
REMARK  6 active torsions:
REMARK  status: ('A' for Active; 'I' for Inactive)
REMARK    1  A    between atoms: C3_3  and  C4_4 
REMARK    2  A    between atoms: C6_6  and  C7_7 
REMARK    3  A    between atoms: C7_7  and  O1_8 
REMARK    4  A    between atoms: C7_7  and  C8_10 
REMARK    5  A    between atoms: C8_10  and  O2_11 
REMARK    6  A    between atoms: C14_18  and  O3_19 
ROOT
HETATM    1  C4  UNL     1       9.492 -11.933  25.897  1.00  0.00     0.015 C 
HETATM    2  C5  UNL     1      10.375 -10.765  26.269  1.00  0.00     0.017 C 
HETATM    3  C6  UNL     1      11.749 -11.045  25.655  1.00  0.00     0.026 C 
HETATM    4  C9  UNL     1      11.644 -12.246  24.813  1.00  0.00    -0.031 C 
HETATM    5  C10 UNL     1      12.463 -13.347  25.445  1.00  0.00     0.016 C 
HETATM    6  C11 UNL     1      12.119 -12.154  23.387  1.00  0.00     0.010 C 
HETATM    7  C12 UNL     1      11.386 -13.089  22.460  1.00  0.00     0.003 C 
HETATM    8  C13 UNL     1      10.637 -14.200  23.064  1.00  0.00     0.032 C 
HETATM    9  C14 UNL     1       9.933 -13.915  24.364  1.00  0.00     0.123 C 
HETATM   10  C15 UNL     1      10.174 -12.501  24.725  1.00  0.00     0.030 C 
ENDROOT
BRANCH   3  11
HETATM   11  C7  UNL     1      12.319  -9.808  25.012  1.00  0.00     0.146 C 
BRANCH  11  12
HETATM   12  O1  UNL     1      13.689  -9.799  25.177  1.00  0.00    -0.393 OA
ATOM     13  H1  UNL     1      13.924  -9.135  25.815  1.00  0.00     0.210 HD
ENDBRANCH  11  12
BRANCH  11  14
HETATM   14  C8  UNL     1      11.769  -8.620  25.782  1.00  0.00     0.196 C 
BRANCH  14  15
HETATM   15  O2  UNL     1      11.403  -7.576  24.935  1.00  0.00    -0.398 OA
ATOM     16  H2  UNL     1      11.012  -6.853  25.411  1.00  0.00     0.209 HD
ENDBRANCH  14  15
ENDBRANCH  11  14
ENDBRANCH   3  11
BRANCH   1  17
HETATM   17  C3  UNL     1       9.203 -12.849  27.017  1.00  0.00    -0.026 C 
HETATM   18  C2  UNL     1       8.150 -12.730  27.801  1.00  0.00    -0.035 C 
HETATM   19  C1  UNL     1       7.191 -11.628  27.571  1.00  0.00     0.036 C 
ENDBRANCH   1  17
BRANCH   9  20
HETATM   20  O3  UNL     1      10.347 -14.842  25.310  1.00  0.00    -0.395 OA
ATOM     21  H3  UNL     1      10.965 -14.425  25.899  1.00  0.00     0.210 HD
ENDBRANCH   9  20
TORSDOF 6
ENDMDL
MODEL 2
REMARK VINA RESULT: -6.934927645      2.056      4.108
REMARK  6 active torsions:
REMARK  status: ('A' for Active; 'I' for Inactive)
REMARK    1  A    between atoms: C3_3  and  C4_4 
REMARK    2  A    between atoms: C6_6  and  C7_7 
REMARK    3  A    between atoms: C7_7  and  O1_8 
REMARK    4  A    between atoms: C7_7  and  C8_10 
REMARK    5  A    between atoms: C8_10  and  O2_11 
REMARK    6  A    between atoms: C14_18  and  O3_19 
ROOT
HETATM    1  C4  UNL     1      10.623 -12.439  24.715  1.00  0.00     0.015 C 
HETATM    2  C5  UNL     1      12.019 -12.248  24.171  1.00  0.00     0.017 C 
HETATM    3  C6  UNL     1      12.379 -10.779  24.401  1.00  0.00     0.026 C 
HETATM    4  C9  UNL     1      11.310 -10.159  25.199  1.00  0.00    -0.031 C 
HETATM    5  C10 UNL     1      10.601  -9.139  24.340  1.00  0.00     0.016 C 
HETATM    6  C11 UNL     1      11.699  -9.430  26.458  1.00  0.00     0.010 C 
HETATM    7  C12 UNL     1      10.618  -9.450  27.508  1.00  0.00     0.003 C 
HETATM    8  C13 UNL     1       9.254  -9.789  27.077  1.00  0.00     0.032 C 
HETATM    9  C14 UNL     1       9.123 -10.845  26.012  1.00  0.00     0.123 C 
HETATM   10  C15 UNL     1      10.478 -11.316  25.652  1.00  0.00     0.030 C 
ENDROOT
BRANCH   3  11
HETATM   11  C7  UNL     1      13.786 -10.639  24.920  1.00  0.00     0.146 C 
BRANCH  11  12
HETATM   12  O1  UNL     1      14.414  -9.602  24.261  1.00  0.00    -0.393 OA
ATOM     13  H1  UNL     1      15.284  -9.879  23.997  1.00  0.00     0.210 HD
ENDBRANCH  11  12
BRANCH  11  14
HETATM   14  C8  UNL     1      14.521 -11.915  24.547  1.00  0.00     0.196 C 
BRANCH  14  15
HETATM   15  O2  UNL     1      15.653 -11.658  23.778  1.00  0.00    -0.398 OA
ATOM     16  H2  UNL     1      15.684 -12.202  23.000  1.00  0.00     0.209 HD
ENDBRANCH  14  15
ENDBRANCH  11  14
ENDBRANCH   3  11
BRANCH   1  17
HETATM   17  C3  UNL     1       9.587 -12.585  23.674  1.00  0.00    -0.026 C 
HETATM   18  C2  UNL     1       9.223 -13.747  23.169  1.00  0.00    -0.035 C 
HETATM   19  C1  UNL     1       9.870 -14.986  23.649  1.00  0.00     0.036 C 
ENDBRANCH   1  17
BRANCH   9  20
HETATM   20  O3  UNL     1       8.380 -10.329  24.959  1.00  0.00    -0.395 OA
ATOM     21  H3  UNL     1       8.549 -10.847  24.181  1.00  0.00     0.210 HD
ENDBRANCH   9  20
TORSDOF 6
ENDMDL
MODEL 3
REMARK VINA RESULT: -6.916055766      2.277      3.009
REMARK  6 active torsions:
REMARK  status: ('A' for Active; 'I' for Inactive)
REMARK    1  A    between atoms: C3_3  and  C4_4 
REMARK    2  A    between atoms: C6_6  and  C7_7 
REMARK    3  A    between atoms: C7_7  and  O1_8 
REMARK    4  A    between atoms: C7_7  and  C8_10 
REMARK    5  A    between atoms: C8_10  and  O2_11 
REMARK    6  A    between atoms: C14_18  and  O3_19 
ROOT
HETATM    1  C4  UNL     1      11.180 -10.421  25.567  1.00  0.00     0.015 C 
HETATM    2  C5  UNL     1      12.520 -10.826  26.133  1.00  0.00     0.017 C 
HETATM    3  C6  UNL     1      12.671 -12.325  25.866  1.00  0.00     0.026 C 
HETATM    4  C9  UNL     1      11.544 -12.762  25.028  1.00  0.00    -0.031 C 
HETATM    5  C10 UNL     1      10.675 -13.692  25.842  1.00  0.00     0.016 C 
HETATM    6  C11 UNL     1      11.854 -13.506  23.756  1.00  0.00     0.010 C 
HETATM    7  C12 UNL     1      10.814 -13.302  22.685  1.00  0.00     0.003 C 
HETATM    8  C13 UNL     1       9.502 -12.781  23.098  1.00  0.00     0.032 C 
HETATM    9  C14 UNL     1       9.498 -11.746  24.192  1.00  0.00     0.123 C 
HETATM   10  C15 UNL     1      10.897 -11.486  24.594  1.00  0.00     0.030 C 
ENDROOT
BRANCH   3  11
HETATM   11  C7  UNL     1      14.055 -12.652  25.372  1.00  0.00     0.146 C 
BRANCH  11  12
HETATM   12  O1  UNL     1      14.824 -13.093  26.429  1.00  0.00    -0.393 OA
ATOM     13  H1  UNL     1      15.419 -12.401  26.695  1.00  0.00     0.210 HD
ENDBRANCH  11  12
BRANCH  11  14
HETATM   14  C8  UNL     1      14.668 -11.350  24.887  1.00  0.00     0.196 C 
BRANCH  14  15
HETATM   15  O2  UNL     1      15.564 -11.555  23.841  1.00  0.00    -0.398 OA
ATOM     16  H2  UNL     1      16.450 -11.307  24.078  1.00  0.00     0.209 HD
ENDBRANCH  14  15
ENDBRANCH  11  14
ENDBRANCH   3  11
BRANCH   1  17
HETATM   17  C3  UNL     1      10.150 -10.155  26.590  1.00  0.00    -0.026 C 
HETATM   18  C2  UNL     1       9.469  -9.028  26.660  1.00  0.00    -0.035 C 
HETATM   19  C1  UNL     1       9.730  -7.956  25.677  1.00  0.00     0.036 C 
ENDBRANCH   1  17
BRANCH   9  20
HETATM   20  O3  UNL     1       8.663 -12.178  25.214  1.00  0.00    -0.395 OA
ATOM     21  H3  UNL     1       9.159 -12.740  25.797  1.00  0.00     0.210 HD
ENDBRANCH   9  20
TORSDOF 6
ENDMDL
MODEL 4
REMARK VINA RESULT: -6.828679021      1.688      4.101
REMARK  6 active torsions:
REMARK  status: ('A' for Active; 'I' for Inactive)
REMARK    1  A    between atoms: C3_3  and  C4_4 
REMARK    2  A    between atoms: C6_6  and  C7_7 
REMARK    3  A    between atoms: C7_7  and  O1_8 
REMARK    4  A    between atoms: C7_7  and  C8_10 
REMARK    5  A    between atoms: C8_10  and  O2_11 
REMARK    6  A    between atoms: C14_18  and  O3_19 
ROOT
HETATM    1  C4  UNL     1      10.572 -12.095  26.141  1.00  0.00     0.015 C 
HETATM    2  C5  UNL     1      10.921 -10.759  25.529  1.00  0.00     0.017 C 
HETATM    3  C6  UNL     1       9.613  -9.972  25.427  1.00  0.00     0.026 C 
HETATM    4  C9  UNL     1       8.556 -10.740  26.103  1.00  0.00    -0.031 C 
HETATM    5  C10 UNL     1       7.561 -11.201  25.065  1.00  0.00     0.016 C 
HETATM    6  C11 UNL     1       7.744 -10.044  27.164  1.00  0.00     0.010 C 
HETATM    7  C12 UNL     1       7.231 -10.984  28.224  1.00  0.00     0.003 C 
HETATM    8  C13 UNL     1       7.222 -12.422  27.916  1.00  0.00     0.032 C 
HETATM    9  C14 UNL     1       8.378 -12.948  27.107  1.00  0.00     0.123 C 
HETATM   10  C15 UNL     1       9.296 -11.825  26.818  1.00  0.00     0.030 C 
ENDROOT
BRANCH   3  11
HETATM   11  C7  UNL     1       9.803  -8.543  25.863  1.00  0.00     0.146 C 
BRANCH  11  12
HETATM   12  O1  UNL     1       9.242  -7.702  24.925  1.00  0.00    -0.393 OA
ATOM     13  H1  UNL     1       8.934  -8.215  24.188  1.00  0.00     0.210 HD
ENDBRANCH  11  12
BRANCH  11  14
HETATM   14  C8  UNL     1      11.299  -8.279  25.862  1.00  0.00     0.196 C 
BRANCH  14  15
HETATM   15  O2  UNL     1      11.695  -7.535  24.754  1.00  0.00    -0.398 OA
ATOM     16  H2  UNL     1      12.637  -7.414  24.726  1.00  0.00     0.209 HD
ENDBRANCH  14  15
ENDBRANCH  11  14
ENDBRANCH   3  11
BRANCH   1  17
HETATM   17  C3  UNL     1      10.602 -13.220  25.187  1.00  0.00    -0.026 C 
HETATM   18  C2  UNL     1      11.547 -14.140  25.176  1.00  0.00    -0.035 C 
HETATM   19  C1  UNL     1      12.648 -14.065  26.159  1.00  0.00     0.036 C 
ENDBRANCH   1  17
BRANCH   9  20
HETATM   20  O3  UNL     1       7.881 -13.604  25.989  1.00  0.00    -0.395 OA
ATOM     21  H3  UNL     1       6.945 -13.724  26.095  1.00  0.00     0.210 HD
ENDBRANCH   9  20
TORSDOF 6
ENDMDL
MODEL 5
REMARK VINA RESULT: -6.759129814      1.383      1.642
REMARK  6 active torsions:
REMARK  status: ('A' for Active; 'I' for Inactive)
REMARK    1  A    between atoms: C3_3  and  C4_4 
REMARK    2  A    between atoms: C6_6  and  C7_7 
REMARK    3  A    between atoms: C7_7  and  O1_8 
REMARK    4  A    between atoms: C7_7  and  C8_10 
REMARK    5  A    between atoms: C8_10  and  O2_11 
REMARK    6  A    between atoms: C14_18  and  O3_19 
ROOT
HETATM    1  C4  UNL     1       8.582 -10.833  26.596  1.00  0.00     0.015 C 
HETATM    2  C5  UNL     1       9.900 -10.145  26.867  1.00  0.00     0.017 C 
HETATM    3  C6  UNL     1      10.961 -10.907  26.069  1.00  0.00     0.026 C 
HETATM    4  C9  UNL     1      10.281 -11.903  25.227  1.00  0.00    -0.031 C 
HETATM    5  C10 UNL     1      10.651 -13.281  25.724  1.00  0.00     0.016 C 
HETATM    6  C11 UNL     1      10.584 -11.908  23.752  1.00  0.00     0.010 C 
HETATM    7  C12 UNL     1       9.433 -12.404  22.916  1.00  0.00     0.003 C 
HETATM    8  C13 UNL     1       8.373 -13.163  23.595  1.00  0.00     0.032 C 
HETATM    9  C14 UNL     1       8.001 -12.713  24.983  1.00  0.00     0.123 C 
HETATM   10  C15 UNL     1       8.834 -11.542  25.334  1.00  0.00     0.030 C 
ENDROOT
BRANCH   3  11
HETATM   11  C7  UNL     1      11.905  -9.958  25.378  1.00  0.00     0.146 C 
BRANCH  11  12
HETATM   12  O1  UNL     1      13.204 -10.297  25.694  1.00  0.00    -0.393 OA
ATOM     13  H1  UNL     1      13.548  -9.671  26.320  1.00  0.00     0.210 HD
ENDBRANCH  11  12
BRANCH  11  14
HETATM   14  C8  UNL     1      11.648  -8.580  25.961  1.00  0.00     0.196 C 
BRANCH  14  15
HETATM   15  O2  UNL     1      11.544  -7.607  24.970  1.00  0.00    -0.398 OA
ATOM     16  H2  UNL     1      11.406  -7.988  24.111  1.00  0.00     0.209 HD
ENDBRANCH  14  15
ENDBRANCH  11  14
ENDBRANCH   3  11
BRANCH   1  17
HETATM   17  C3  UNL     1       8.079 -11.634  27.728  1.00  0.00    -0.026 C 
HETATM   18  C2  UNL     1       6.826 -11.606  28.139  1.00  0.00    -0.035 C 
HETATM   19  C1  UNL     1       5.853 -10.733  27.449  1.00  0.00     0.036 C 
ENDBRANCH   1  17
BRANCH   9  20
HETATM   20  O3  UNL     1       8.110 -13.793  25.848  1.00  0.00    -0.395 OA
ATOM     21  H3  UNL     1       7.629 -14.527  25.485  1.00  0.00     0.210 HD
ENDBRANCH   9  20
TORSDOF 6
ENDMDL
