MODEL 1
REMARK VINA RESULT: -7.320523424      0.000      0.000
REMARK  3 active torsions:
REMARK  status: ('A' for Active; 'I' for Inactive)
REMARK    1  A    between atoms: C2_2  and  N1_4 
REMARK    2  A    between atoms: C2_2  and  C6_10 
REMARK       I    between atoms: N1_4  and  C4_6 
REMARK       I    between atoms: C6_10  and  N3_12 
REMARK    3  A    between atoms: N3_12  and  C7_14 
ROOT
HETATM    1  N1  UNL     1       9.215  -9.827  27.303  1.00  0.00    -0.331 N 
ATOM      2  H1  UNL     1       9.411  -9.418  28.217  1.00  0.00     0.164 HD
HETATM    3  C4  UNL     1       8.033 -10.599  27.127  1.00  0.00     0.323 C 
HETATM    4  O1  UNL     1       7.813 -11.094  25.989  1.00  0.00    -0.256 OA
HETATM    5  C5  UNL     1       7.104 -10.829  28.172  1.00  0.00     0.162 C 
HETATM    6  N2  UNL     1       6.330 -11.009  29.025  1.00  0.00    -0.186 NA
ENDROOT
BRANCH   1   7
HETATM    7  C2  UNL     1      10.148  -9.607  26.216  1.00  0.00     0.107 C 
HETATM    8  C1  UNL     1      11.284  -8.768  26.741  1.00  0.00     0.048 C 
HETATM    9  C3  UNL     1       9.406  -8.873  25.105  1.00  0.00     0.048 C 
BRANCH   7  10
HETATM   10  C6  UNL     1      10.653 -10.913  25.763  1.00  0.00     0.245 C 
HETATM   11  O2  UNL     1      11.350 -11.614  26.505  1.00  0.00    -0.271 OA
HETATM   12  N3  UNL     1      10.360 -11.414  24.456  1.00  0.00    -0.354 N 
ATOM     13  H3  UNL     1       9.787 -10.856  23.822  1.00  0.00     0.162 HD
BRANCH  12  14
HETATM   14  C7  UNL     1      10.865 -12.711  24.010  1.00  0.00     0.084 C 
HETATM   15  C8  UNL     1      11.371 -12.554  22.619  1.00  0.00     0.025 C 
HETATM   16  C9  UNL     1      12.525 -13.447  22.279  1.00  0.00     0.002 C 
HETATM   17  C10 UNL     1      12.492 -14.768  23.012  1.00  0.00     0.000 C 
HETATM   18  C11 UNL     1      11.165 -15.452  22.892  1.00  0.00     0.000 C 
HETATM   19  C12 UNL     1      10.216 -15.134  23.993  1.00  0.00     0.002 C 
HETATM   20  C13 UNL     1       9.741 -13.714  24.005  1.00  0.00     0.025 C 
ENDBRANCH  12  14
ENDBRANCH   7  10
ENDBRANCH   1   7
TORSDOF 3
ENDMDL
MODEL 2
REMARK VINA RESULT: -7.215462248      5.121      8.565
REMARK  3 active torsions:
REMARK  status: ('A' for Active; 'I' for Inactive)
REMARK    1  A    between atoms: C2_2  and  N1_4 
REMARK    2  A    between atoms: C2_2  and  C6_10 
REMARK       I    between atoms: N1_4  and  C4_6 
REMARK       I    between atoms: C6_10  and  N3_12 
REMARK    3  A    between atoms: N3_12  and  C7_14 
ROOT
HETATM    1  N1  UNL     1      15.916 -12.480  19.802  1.00  0.00    -0.331 N 
ATOM      2  H1  UNL     1      15.328 -11.743  20.192  1.00  0.00     0.164 HD
HETATM    3  C4  UNL     1      16.764 -12.182  18.699  1.00  0.00     0.323 C 
HETATM    4  O1  UNL     1      17.480 -13.109  18.235  1.00  0.00    -0.256 OA
HETATM    5  C5  UNL     1      16.831 -10.895  18.109  1.00  0.00     0.162 C 
HETATM    6  N2  UNL     1      16.899  -9.835  17.630  1.00  0.00    -0.186 NA
ENDROOT
BRANCH   1   7
HETATM    7  C2  UNL     1      15.867 -13.806  20.387  1.00  0.00     0.107 C 
HETATM    8  C1  UNL     1      17.268 -14.187  20.790  1.00  0.00     0.048 C 
HETATM    9  C3  UNL     1      15.333 -14.764  19.328  1.00  0.00     0.048 C 
BRANCH   7  10
HETATM   10  C6  UNL     1      14.995 -13.762  21.572  1.00  0.00     0.245 C 
HETATM   11  O2  UNL     1      15.211 -14.496  22.543  1.00  0.00    -0.271 OA
HETATM   12  N3  UNL     1      13.874 -12.877  21.641  1.00  0.00    -0.354 N 
ATOM     13  H3  UNL     1      13.674 -12.260  20.854  1.00  0.00     0.162 HD
BRANCH  12  14
HETATM   14  C7  UNL     1      13.011 -12.838  22.820  1.00  0.00     0.084 C 
HETATM   15  C8  UNL     1      11.602 -12.719  22.354  1.00  0.00     0.025 C 
HETATM   16  C9  UNL     1      10.600 -13.384  23.248  1.00  0.00     0.002 C 
HETATM   17  C10 UNL     1      11.002 -13.375  24.704  1.00  0.00     0.000 C 
HETATM   18  C11 UNL     1      11.395 -12.009  25.177  1.00  0.00     0.000 C 
HETATM   19  C12 UNL     1      12.851 -11.723  25.061  1.00  0.00     0.002 C 
HETATM   20  C13 UNL     1      13.349 -11.629  23.652  1.00  0.00     0.025 C 
ENDBRANCH  12  14
ENDBRANCH   7  10
ENDBRANCH   1   7
TORSDOF 3
ENDMDL
MODEL 3
REMARK VINA RESULT: -7.205153723      1.119      1.909
REMARK  3 active torsions:
REMARK  status: ('A' for Active; 'I' for Inactive)
REMARK    1  A    between atoms: C2_2  and  N1_4 
REMARK    2  A    between atoms: C2_2  and  C6_10 
REMARK       I    between atoms: N1_4  and  C4_6 
REMARK       I    between atoms: C6_10  and  N3_12 
REMARK    3  A    between atoms: N3_12  and  C7_14 
ROOT
HETATM    1  N1  UNL     1       8.465  -9.448  26.951  1.00  0.00    -0.331 N 
ATOM      2  H1  UNL     1       7.785  -8.688  26.995  1.00  0.00     0.164 HD
HETATM    3  C4  UNL     1       8.186 -10.668  27.628  1.00  0.00     0.323 C 
HETATM    4  O1  UNL     1       9.039 -11.592  27.559  1.00  0.00    -0.256 OA
HETATM    5  C5  UNL     1       6.996 -10.880  28.369  1.00  0.00     0.162 C 
HETATM    6  N2  UNL     1       6.013 -11.062  28.967  1.00  0.00    -0.186 NA
ENDROOT
BRANCH   1   7
HETATM    7  C2  UNL     1       9.690  -9.259  26.199  1.00  0.00     0.107 C 
HETATM    8  C1  UNL     1      10.834  -9.229  27.177  1.00  0.00     0.048 C 
HETATM    9  C3  UNL     1       9.582  -7.932  25.456  1.00  0.00     0.048 C 
BRANCH   7  10
HETATM   10  C6  UNL     1       9.848 -10.391  25.272  1.00  0.00     0.245 C 
HETATM   11  O2  UNL     1       9.001 -10.618  24.400  1.00  0.00    -0.271 OA
HETATM   12  N3  UNL     1      10.979 -11.264  25.346  1.00  0.00    -0.354 N 
ATOM     13  H3  UNL     1      11.693 -11.099  26.056  1.00  0.00     0.162 HD
BRANCH  12  14
HETATM   14  C7  UNL     1      11.130 -12.387  24.423  1.00  0.00     0.084 C 
HETATM   15  C8  UNL     1      11.342 -13.620  25.231  1.00  0.00     0.025 C 
HETATM   16  C9  UNL     1      10.793 -14.866  24.607  1.00  0.00     0.002 C 
HETATM   17  C10 UNL     1      10.826 -14.841  23.096  1.00  0.00     0.000 C 
HETATM   18  C11 UNL     1      12.174 -14.462  22.564  1.00  0.00     0.000 C 
HETATM   19  C12 UNL     1      12.341 -13.004  22.315  1.00  0.00     0.002 C 
HETATM   20  C13 UNL     1      12.340 -12.165  23.555  1.00  0.00     0.025 C 
ENDBRANCH  12  14
ENDBRANCH   7  10
ENDBRANCH   1   7
TORSDOF 3
ENDMDL
MODEL 4
REMARK VINA RESULT: -7.175845708      5.120      8.574
REMARK  3 active torsions:
REMARK  status: ('A' for Active; 'I' for Inactive)
REMARK    1  A    between atoms: C2_2  and  N1_4 
REMARK    2  A    between atoms: C2_2  and  C6_10 
REMARK       I    between atoms: N1_4  and  C4_6 
REMARK       I    between atoms: C6_10  and  N3_12 
REMARK    3  A    between atoms: N3_12  and  C7_14 
ROOT
HETATM    1  N1  UNL     1      15.594 -12.671  19.913  1.00  0.00    -0.331 N 
ATOM      2  H1  UNL     1      14.826 -12.001  19.888  1.00  0.00     0.164 HD
HETATM    3  C4  UNL     1      16.647 -12.557  18.962  1.00  0.00     0.323 C 
HETATM    4  O1  UNL     1      17.585 -13.396  19.012  1.00  0.00    -0.256 OA
HETATM    5  C5  UNL     1      16.678 -11.543  17.971  1.00  0.00     0.162 C 
HETATM    6  N2  UNL     1      16.714 -10.703  17.164  1.00  0.00    -0.186 NA
ENDROOT
BRANCH   1   7
HETATM    7  C2  UNL     1      15.588 -13.718  20.916  1.00  0.00     0.107 C 
HETATM    8  C1  UNL     1      16.972 -13.807  21.502  1.00  0.00     0.048 C 
HETATM    9  C3  UNL     1      15.210 -15.024  20.226  1.00  0.00     0.048 C 
BRANCH   7  10
HETATM   10  C6  UNL     1      14.619 -13.355  21.963  1.00  0.00     0.245 C 
HETATM   11  O2  UNL     1      13.444 -13.733  21.897  1.00  0.00    -0.271 OA
HETATM   12  N3  UNL     1      14.999 -12.555  23.087  1.00  0.00    -0.354 N 
ATOM     13  H3  UNL     1      15.963 -12.230  23.167  1.00  0.00     0.162 HD
BRANCH  12  14
HETATM   14  C7  UNL     1      14.033 -12.197  24.123  1.00  0.00     0.084 C 
HETATM   15  C8  UNL     1      14.402 -10.855  24.651  1.00  0.00     0.025 C 
HETATM   16  C9  UNL     1      13.237 -10.030  25.106  1.00  0.00     0.002 C 
HETATM   17  C10 UNL     1      12.098 -10.859  25.652  1.00  0.00     0.000 C 
HETATM   18  C11 UNL     1      12.556 -11.846  26.682  1.00  0.00     0.000 C 
HETATM   19  C12 UNL     1      12.898 -13.185  26.129  1.00  0.00     0.002 C 
HETATM   20  C13 UNL     1      14.107 -13.196  25.247  1.00  0.00     0.025 C 
ENDBRANCH  12  14
ENDBRANCH   7  10
ENDBRANCH   1   7
TORSDOF 3
ENDMDL
MODEL 5
REMARK VINA RESULT: -6.779356679      2.601      6.365
REMARK  3 active torsions:
REMARK  status: ('A' for Active; 'I' for Inactive)
REMARK    1  A    between atoms: C2_2  and  N1_4 
REMARK    2  A    between atoms: C2_2  and  C6_10 
REMARK       I    between atoms: N1_4  and  C4_6 
REMARK       I    between atoms: C6_10  and  N3_12 
REMARK    3  A    between atoms: N3_12  and  C7_14 
ROOT
HETATM    1  N1  UNL     1      11.516 -15.711  24.436  1.00  0.00    -0.331 N 
ATOM      2  H1  UNL     1      11.180 -16.662  24.592  1.00  0.00     0.164 HD
HETATM    3  C4  UNL     1      12.843 -15.372  24.822  1.00  0.00     0.323 C 
HETATM    4  O1  UNL     1      13.235 -14.192  24.620  1.00  0.00    -0.256 OA
HETATM    5  C5  UNL     1      13.730 -16.303  25.419  1.00  0.00     0.162 C 
HETATM    6  N2  UNL     1      14.467 -17.069  25.897  1.00  0.00    -0.186 NA
ENDROOT
BRANCH   1   7
HETATM    7  C2  UNL     1      10.629 -14.739  23.827  1.00  0.00     0.107 C 
HETATM    8  C1  UNL     1       9.378 -15.458  23.396  1.00  0.00     0.048 C 
HETATM    9  C3  UNL     1      11.349 -14.141  22.624  1.00  0.00     0.048 C 
BRANCH   7  10
HETATM   10  C6  UNL     1      10.302 -13.714  24.831  1.00  0.00     0.245 C 
HETATM   11  O2  UNL     1       9.584 -13.984  25.800  1.00  0.00    -0.271 OA
HETATM   12  N3  UNL     1      10.797 -12.376  24.720  1.00  0.00    -0.354 N 
ATOM     13  H3  UNL     1      11.392 -12.126  23.930  1.00  0.00     0.162 HD
BRANCH  12  14
HETATM   14  C7  UNL     1      10.467 -11.361  25.719  1.00  0.00     0.084 C 
HETATM   15  C8  UNL     1       9.278 -10.607  25.234  1.00  0.00     0.025 C 
HETATM   16  C9  UNL     1       8.380 -10.106  26.322  1.00  0.00     0.002 C 
HETATM   17  C10 UNL     1       9.119  -9.770  27.597  1.00  0.00     0.000 C 
HETATM   18  C11 UNL     1      10.298  -8.880  27.352  1.00  0.00     0.000 C 
HETATM   19  C12 UNL     1      11.576  -9.611  27.132  1.00  0.00     0.002 C 
HETATM   20  C13 UNL     1      11.620 -10.404  25.863  1.00  0.00     0.025 C 
ENDBRANCH  12  14
ENDBRANCH   7  10
ENDBRANCH   1   7
TORSDOF 3
ENDMDL
