MODEL 1
REMARK VINA RESULT: -7.469754672      0.000      0.000
REMARK  5 active torsions:
REMARK  status: ('A' for Active; 'I' for Inactive)
REMARK       I    between atoms: C1_2  and  N1_3 
REMARK    1  A    between atoms: C1_2  and  C9_16 
REMARK    2  A    between atoms: N1_3  and  C2_5 
REMARK    3  A    between atoms: C5_8  and  C6_9 
REMARK    4  A    between atoms: C6_9  and  O2_10 
REMARK    5  A    between atoms: C8_13  and  O3_14 
ROOT
HETATM    1  C2  UNL     1      13.592 -12.594  24.383  1.00  0.00     0.113 C 
HETATM    2  C3  UNL     1      12.479 -12.602  25.407  1.00  0.00     0.028 C 
HETATM    3  C4  UNL     1      11.548 -11.474  25.050  1.00  0.00     0.009 C 
HETATM    4  C5  UNL     1      12.294 -10.182  25.158  1.00  0.00     0.012 C 
HETATM    5  C7  UNL     1      13.602 -10.160  24.440  1.00  0.00     0.040 C 
HETATM    6  C8  UNL     1      14.450 -11.377  24.675  1.00  0.00     0.141 C 
ENDROOT
BRANCH   1   7
HETATM    7  N1  UNL     1      14.335 -13.812  24.339  1.00  0.00    -0.354 N 
HETATM    8  C1  UNL     1      14.399 -14.662  23.189  1.00  0.00     0.222 C 
HETATM    9  O1  UNL     1      13.779 -14.343  22.147  1.00  0.00    -0.273 OA
ATOM     10  H1  UNL     1      14.848 -14.094  25.173  1.00  0.00     0.163 HD
BRANCH   8  11
HETATM   11  C9  UNL     1      15.183 -15.912  23.195  1.00  0.00     0.078 C 
HETATM   12  C10 UNL     1      14.331 -17.129  23.449  1.00  0.00     0.014 C 
HETATM   13  C11 UNL     1      13.839 -17.780  22.185  1.00  0.00     0.001 C 
HETATM   14  C12 UNL     1      14.939 -18.034  21.189  1.00  0.00     0.000 C 
HETATM   15  C13 UNL     1      16.257 -17.443  21.631  1.00  0.00     0.001 C 
HETATM   16  C14 UNL     1      16.026 -16.004  21.973  1.00  0.00     0.014 C 
ENDBRANCH   8  11
ENDBRANCH   1   7
BRANCH   6  17
HETATM   17  O3  UNL     1      15.563 -11.314  23.860  1.00  0.00    -0.394 OA
ATOM     18  H3  UNL     1      15.571 -10.532  23.320  1.00  0.00     0.210 HD
ENDBRANCH   6  17
BRANCH   4  19
HETATM   19  C6  UNL     1      11.405  -9.090  24.585  1.00  0.00     0.168 C 
BRANCH  19  20
HETATM   20  O2  UNL     1      11.818  -7.822  25.017  1.00  0.00    -0.400 OA
ATOM     21  H2  UNL     1      12.349  -7.392  24.358  1.00  0.00     0.209 HD
ENDBRANCH  19  20
ENDBRANCH   4  19
TORSDOF 5
ENDMDL
MODEL 2
REMARK VINA RESULT: -7.319619889      1.439      2.189
REMARK  5 active torsions:
REMARK  status: ('A' for Active; 'I' for Inactive)
REMARK       I    between atoms: C1_2  and  N1_3 
REMARK    1  A    between atoms: C1_2  and  C9_16 
REMARK    2  A    between atoms: N1_3  and  C2_5 
REMARK    3  A    between atoms: C5_8  and  C6_9 
REMARK    4  A    between atoms: C6_9  and  O2_10 
REMARK    5  A    between atoms: C8_13  and  O3_14 
ROOT
HETATM    1  C2  UNL     1      13.478 -12.470  24.033  1.00  0.00     0.113 C 
HETATM    2  C3  UNL     1      12.467 -12.945  25.051  1.00  0.00     0.028 C 
HETATM    3  C4  UNL     1      11.600 -11.763  25.394  1.00  0.00     0.009 C 
HETATM    4  C5  UNL     1      12.454 -10.705  26.019  1.00  0.00     0.012 C 
HETATM    5  C7  UNL     1      13.689 -10.371  25.250  1.00  0.00     0.040 C 
HETATM    6  C8  UNL     1      14.454 -11.570  24.768  1.00  0.00     0.141 C 
ENDROOT
BRANCH   1   7
HETATM    7  N1  UNL     1      14.113 -13.531  23.321  1.00  0.00    -0.354 N 
HETATM    8  C1  UNL     1      14.089 -13.658  21.895  1.00  0.00     0.222 C 
HETATM    9  O1  UNL     1      13.484 -12.803  21.207  1.00  0.00    -0.273 OA
ATOM     10  H1  UNL     1      14.612 -14.240  23.858  1.00  0.00     0.163 HD
BRANCH   8  11
HETATM   11  C9  UNL     1      14.763 -14.775  21.208  1.00  0.00     0.078 C 
HETATM   12  C10 UNL     1      15.524 -14.330  19.985  1.00  0.00     0.014 C 
HETATM   13  C11 UNL     1      16.966 -14.011  20.271  1.00  0.00     0.001 C 
HETATM   14  C12 UNL     1      17.669 -15.104  21.030  1.00  0.00     0.000 C 
HETATM   15  C13 UNL     1      16.724 -16.203  21.456  1.00  0.00     0.001 C 
HETATM   16  C14 UNL     1      15.572 -15.568  22.172  1.00  0.00     0.014 C 
ENDBRANCH   8  11
ENDBRANCH   1   7
BRANCH   6  17
HETATM   17  O3  UNL     1      15.489 -11.148  23.958  1.00  0.00    -0.394 OA
ATOM     18  H3  UNL     1      15.551 -11.655  23.157  1.00  0.00     0.210 HD
ENDBRANCH   6  17
BRANCH   4  19
HETATM   19  C6  UNL     1      11.607  -9.451  26.152  1.00  0.00     0.168 C 
BRANCH  19  20
HETATM   20  O2  UNL     1      12.360  -8.300  25.884  1.00  0.00    -0.400 OA
ATOM     21  H2  UNL     1      11.991  -7.540  26.318  1.00  0.00     0.209 HD
ENDBRANCH  19  20
ENDBRANCH   4  19
TORSDOF 5
ENDMDL
MODEL 3
REMARK VINA RESULT: -7.169865678      1.995      2.551
REMARK  5 active torsions:
REMARK  status: ('A' for Active; 'I' for Inactive)
REMARK       I    between atoms: C1_2  and  N1_3 
REMARK    1  A    between atoms: C1_2  and  C9_16 
REMARK    2  A    between atoms: N1_3  and  C2_5 
REMARK    3  A    between atoms: C5_8  and  C6_9 
REMARK    4  A    between atoms: C6_9  and  O2_10 
REMARK    5  A    between atoms: C8_13  and  O3_14 
ROOT
HETATM    1  C2  UNL     1      13.127 -13.949  22.297  1.00  0.00     0.113 C 
HETATM    2  C3  UNL     1      11.677 -14.194  22.652  1.00  0.00     0.028 C 
HETATM    3  C4  UNL     1      10.995 -12.852  22.661  1.00  0.00     0.009 C 
HETATM    4  C5  UNL     1      11.616 -12.004  23.726  1.00  0.00     0.012 C 
HETATM    5  C7  UNL     1      13.107 -11.945  23.681  1.00  0.00     0.040 C 
HETATM    6  C8  UNL     1      13.768 -13.282  23.500  1.00  0.00     0.141 C 
ENDROOT
BRANCH   1   7
HETATM    7  N1  UNL     1      13.815 -15.122  21.867  1.00  0.00    -0.354 N 
HETATM    8  C1  UNL     1      14.864 -15.117  20.893  1.00  0.00     0.222 C 
HETATM    9  O1  UNL     1      15.218 -14.034  20.371  1.00  0.00    -0.273 OA
ATOM     10  H1  UNL     1      13.546 -16.016  22.278  1.00  0.00     0.163 HD
BRANCH   8  11
HETATM   11  C9  UNL     1      15.545 -16.360  20.484  1.00  0.00     0.078 C 
HETATM   12  C10 UNL     1      16.500 -16.870  21.532  1.00  0.00     0.014 C 
HETATM   13  C11 UNL     1      15.871 -17.862  22.473  1.00  0.00     0.001 C 
HETATM   14  C12 UNL     1      15.143 -18.968  21.757  1.00  0.00     0.000 C 
HETATM   15  C13 UNL     1      15.091 -18.745  20.264  1.00  0.00     0.001 C 
HETATM   16  C14 UNL     1      14.554 -17.369  20.022  1.00  0.00     0.014 C 
ENDBRANCH   8  11
ENDBRANCH   1   7
BRANCH   6  17
HETATM   17  O3  UNL     1      15.125 -13.093  23.333  1.00  0.00    -0.394 OA
ATOM     18  H3  UNL     1      15.320 -12.341  22.786  1.00  0.00     0.210 HD
ENDBRANCH   6  17
BRANCH   4  19
HETATM   19  C6  UNL     1      11.066 -10.596  23.570  1.00  0.00     0.168 C 
BRANCH  19  20
HETATM   20  O2  UNL     1      10.268 -10.487  22.424  1.00  0.00    -0.400 OA
ATOM     21  H2  UNL     1      10.643  -9.877  21.800  1.00  0.00     0.209 HD
ENDBRANCH  19  20
ENDBRANCH   4  19
TORSDOF 5
ENDMDL
MODEL 4
REMARK VINA RESULT: -7.077358469      4.625      6.022
REMARK  5 active torsions:
REMARK  status: ('A' for Active; 'I' for Inactive)
REMARK       I    between atoms: C1_2  and  N1_3 
REMARK    1  A    between atoms: C1_2  and  C9_16 
REMARK    2  A    between atoms: N1_3  and  C2_5 
REMARK    3  A    between atoms: C5_8  and  C6_9 
REMARK    4  A    between atoms: C6_9  and  O2_10 
REMARK    5  A    between atoms: C8_13  and  O3_14 
ROOT
HETATM    1  C2  UNL     1       8.265 -12.374  25.439  1.00  0.00     0.113 C 
HETATM    2  C3  UNL     1       8.832 -12.063  26.806  1.00  0.00     0.028 C 
HETATM    3  C4  UNL     1       7.725 -12.289  27.802  1.00  0.00     0.009 C 
HETATM    4  C5  UNL     1       6.614 -11.332  27.511  1.00  0.00     0.012 C 
HETATM    5  C7  UNL     1       6.173 -11.307  26.085  1.00  0.00     0.040 C 
HETATM    6  C8  UNL     1       7.303 -11.252  25.096  1.00  0.00     0.141 C 
ENDROOT
BRANCH   1   7
HETATM    7  N1  UNL     1       9.264 -12.587  24.443  1.00  0.00    -0.354 N 
HETATM    8  C1  UNL     1       9.567 -13.869  23.882  1.00  0.00     0.222 C 
HETATM    9  O1  UNL     1       8.934 -14.879  24.269  1.00  0.00    -0.273 OA
ATOM     10  H1  UNL     1       9.793 -11.781  24.111  1.00  0.00     0.163 HD
BRANCH   8  11
HETATM   11  C9  UNL     1      10.610 -14.035  22.852  1.00  0.00     0.078 C 
HETATM   12  C10 UNL     1      11.346 -12.752  22.560  1.00  0.00     0.014 C 
HETATM   13  C11 UNL     1      12.592 -12.585  23.388  1.00  0.00     0.001 C 
HETATM   14  C12 UNL     1      13.487 -13.795  23.351  1.00  0.00     0.000 C 
HETATM   15  C13 UNL     1      12.857 -14.950  22.609  1.00  0.00     0.001 C 
HETATM   16  C14 UNL     1      11.495 -15.181  23.188  1.00  0.00     0.014 C 
ENDBRANCH   8  11
ENDBRANCH   1   7
BRANCH   6  17
HETATM   17  O3  UNL     1       6.790 -11.374  23.820  1.00  0.00    -0.394 OA
ATOM     18  H3  UNL     1       5.950 -10.938  23.726  1.00  0.00     0.210 HD
ENDBRANCH   6  17
BRANCH   4  19
HETATM   19  C6  UNL     1       5.431 -11.725  28.380  1.00  0.00     0.168 C 
BRANCH  19  20
HETATM   20  O2  UNL     1       5.324 -10.889  29.500  1.00  0.00    -0.400 OA
ATOM     21  H2  UNL     1       4.572 -11.121  30.031  1.00  0.00     0.209 HD
ENDBRANCH  19  20
ENDBRANCH   4  19
TORSDOF 5
ENDMDL
MODEL 5
REMARK VINA RESULT: -7.043517669      2.190      3.203
REMARK  5 active torsions:
REMARK  status: ('A' for Active; 'I' for Inactive)
REMARK       I    between atoms: C1_2  and  N1_3 
REMARK    1  A    between atoms: C1_2  and  C9_16 
REMARK    2  A    between atoms: N1_3  and  C2_5 
REMARK    3  A    between atoms: C5_8  and  C6_9 
REMARK    4  A    between atoms: C6_9  and  O2_10 
REMARK    5  A    between atoms: C8_13  and  O3_14 
ROOT
HETATM    1  C2  UNL     1      11.803 -11.083  24.203  1.00  0.00     0.113 C 
HETATM    2  C3  UNL     1      12.767 -10.756  25.321  1.00  0.00     0.028 C 
HETATM    3  C4  UNL     1      11.938 -10.348  26.510  1.00  0.00     0.009 C 
HETATM    4  C5  UNL     1      11.168  -9.114  26.160  1.00  0.00     0.012 C 
HETATM    5  C7  UNL     1      10.415  -9.198  24.873  1.00  0.00     0.040 C 
HETATM    6  C8  UNL     1      11.211  -9.768  23.733  1.00  0.00     0.141 C 
ENDROOT
BRANCH   1   7
HETATM    7  N1  UNL     1      12.389 -11.848  23.150  1.00  0.00    -0.354 N 
HETATM    8  C1  UNL     1      12.447 -13.278  23.144  1.00  0.00     0.222 C 
HETATM    9  O1  UNL     1      11.963 -13.922  24.104  1.00  0.00    -0.273 OA
ATOM     10  H1  UNL     1      12.790 -11.347  22.357  1.00  0.00     0.163 HD
BRANCH   8  11
HETATM   11  C9  UNL     1      13.064 -14.021  22.029  1.00  0.00     0.078 C 
HETATM   12  C10 UNL     1      14.215 -13.276  21.402  1.00  0.00     0.014 C 
HETATM   13  C11 UNL     1      15.547 -13.635  22.003  1.00  0.00     0.001 C 
HETATM   14  C12 UNL     1      15.780 -15.121  22.069  1.00  0.00     0.000 C 
HETATM   15  C13 UNL     1      14.560 -15.909  21.652  1.00  0.00     0.001 C 
HETATM   16  C14 UNL     1      13.394 -15.409  22.448  1.00  0.00     0.014 C 
ENDBRANCH   8  11
ENDBRANCH   1   7
BRANCH   6  17
HETATM   17  O3  UNL     1      10.381  -9.927  22.642  1.00  0.00    -0.394 OA
ATOM     18  H3  UNL     1      10.430 -10.803  22.276  1.00  0.00     0.210 HD
ENDBRANCH   6  17
BRANCH   4  19
HETATM   19  C6  UNL     1      10.183  -8.853  27.286  1.00  0.00     0.168 C 
BRANCH  19  20
HETATM   20  O2  UNL     1       9.077  -8.121  26.832  1.00  0.00    -0.400 OA
ATOM     21  H2  UNL     1       8.384  -8.109  27.482  1.00  0.00     0.209 HD
ENDBRANCH  19  20
ENDBRANCH   4  19
TORSDOF 5
ENDMDL
