MODEL 1
REMARK VINA RESULT: -6.736850069      0.000      0.000
REMARK  13 active torsions:
REMARK  status: ('A' for Active; 'I' for Inactive)
REMARK    1  A    between atoms: C2_2  and  O1_3 
REMARK    2  A    between atoms: C2_2  and  C3_5 
REMARK    3  A    between atoms: C3_5  and  O2_6 
REMARK    4  A    between atoms: C3_5  and  C4_8 
REMARK    5  A    between atoms: C4_8  and  C5_10 
REMARK    6  A    between atoms: C5_10  and  C8_13 
REMARK    7  A    between atoms: C8_13  and  C9_14 
REMARK    8  A    between atoms: C8_13  and  N9_37 
REMARK    9  A    between atoms: C9_14  and  C10_15 
REMARK   10  A    between atoms: C12_21  and  N3_22 
REMARK   11  A    between atoms: C14_26  and  N4_27 
REMARK   12  A    between atoms: C19_44  and  N12_45 
REMARK   13  A    between atoms: C20_50  and  N14_51 
ROOT
HETATM    1  C8  UNL     1       0.064 -25.582  96.573  1.00  0.00     0.113 C 
ENDROOT
BRANCH   1   2
HETATM    2  C5  UNL     1       0.687 -26.342  97.675  1.00  0.00     0.037 C 
HETATM    3  C6  UNL     1       0.964 -27.814  97.325  1.00  0.00     0.025 C 
HETATM    4  C7  UNL     1       2.079 -25.839  98.084  1.00  0.00     0.025 C 
BRANCH   2   5
HETATM    5  C4  UNL     1      -0.125 -26.401  98.915  1.00  0.00     0.167 C 
HETATM    6  O3  UNL     1      -1.152 -27.061  98.868  1.00  0.00    -0.294 OA
BRANCH   5   7
HETATM    7  C3  UNL     1       0.175 -25.758 100.208  1.00  0.00     0.216 C 
BRANCH   7   8
HETATM    8  C2  UNL     1      -0.758 -24.564 100.462  1.00  0.00     0.150 C 
HETATM    9  C1  UNL     1      -1.383 -24.811 101.828  1.00  0.00     0.042 C 
BRANCH   8  10
HETATM   10  O1  UNL     1      -1.805 -24.652  99.515  1.00  0.00    -0.393 OA
ATOM     11  H1  UNL     1      -1.495 -24.223  98.726  1.00  0.00     0.210 HD
ENDBRANCH   8  10
ENDBRANCH   7   8
BRANCH   7  12
HETATM   12  O2  UNL     1      -0.201 -26.639 101.279  1.00  0.00    -0.385 OA
ATOM     13  H2  UNL     1       0.639 -27.018 101.510  1.00  0.00     0.210 HD
ENDBRANCH   7  12
ENDBRANCH   5   7
ENDBRANCH   2   5
ENDBRANCH   1   2
BRANCH   1  14
HETATM   14  C9  UNL     1       0.702 -24.193  96.371  1.00  0.00     0.105 C 
BRANCH  14  15
HETATM   15  C10 UNL     1      -0.321 -23.113  96.438  1.00  0.00     0.115 A 
HETATM   16  N1  UNL     1      -0.369 -22.097  95.563  1.00  0.00    -0.177 N 
HETATM   17  C11 UNL     1      -1.403 -21.320  95.903  1.00  0.00     0.708 A 
ATOM     18  H1  UNL     1       0.267 -21.945  94.781  1.00  0.00     0.185 HD
HETATM   19  N2  UNL     1      -1.924 -20.169  95.380  1.00  0.00    -0.175 N 
HETATM   20  N7  UNL     1      -1.996 -21.848  96.982  1.00  0.00    -0.066 N 
HETATM   21  C12 UNL     1      -2.994 -19.556  95.906  1.00  0.00     0.118 A 
ATOM     22  H2  UNL     1      -1.480 -19.760  94.558  1.00  0.00     0.186 HD
HETATM   23  C13 UNL     1      -3.575 -20.143  97.029  1.00  0.00     0.101 A 
HETATM   24  C14 UNL     1      -3.074 -21.302  97.575  1.00  0.00     0.171 A 
HETATM   25  N8  UNL     1      -1.335 -22.925  97.293  1.00  0.00    -0.266 N 
ATOM     26  H8  UNL     1      -1.557 -23.538  98.077  1.00  0.00     0.189 HD
BRANCH  21  27
HETATM   27  N3  UNL     1      -3.447 -18.481  95.385  1.00  0.00    -0.385 N 
ATOM     28  H32 UNL     1      -4.322 -18.455  94.861  1.00  0.00     0.157 HD
ATOM     29  H31 UNL     1      -2.937 -17.603  95.480  1.00  0.00     0.157 HD
ENDBRANCH  21  27
BRANCH  24  30
HETATM   30  N4  UNL     1      -3.677 -21.888  98.720  1.00  0.00    -0.233 N 
HETATM   31  C15 UNL     1      -4.854 -22.535  98.750  1.00  0.00     0.138 A 
HETATM   32  C16 UNL     1      -5.133 -22.975 100.024  1.00  0.00     0.128 A 
HETATM   33  N5  UNL     1      -4.067 -22.561 100.760  1.00  0.00    -0.296 N 
HETATM   34  N6  UNL     1      -3.224 -21.921  99.959  1.00  0.00    -0.235 N 
ATOM     35  H5  UNL     1      -3.936 -22.716 101.759  1.00  0.00     0.187 HD
ATOM     36  H6  UNL     1      -2.341 -21.508 100.260  1.00  0.00     0.209 HD
ENDBRANCH  24  30
ENDBRANCH  14  15
ENDBRANCH   1  14
BRANCH   1  37
HETATM   37  N9  UNL     1       0.139 -26.239  95.322  1.00  0.00    -0.331 N 
HETATM   38  C17 UNL     1       1.255 -26.828  94.850  1.00  0.00     0.185 A 
HETATM   39  N10 UNL     1       1.065 -27.366  93.664  1.00  0.00    -0.336 N 
HETATM   40  C18 UNL     1      -0.200 -27.141  93.320  1.00  0.00     0.152 A 
ATOM     41  H10 UNL     1       1.762 -27.865  93.109  1.00  0.00     0.168 HD
HETATM   42  N11 UNL     1      -0.907 -27.468  92.216  1.00  0.00    -0.174 N 
HETATM   43  C21 UNL     1      -0.778 -26.437  94.353  1.00  0.00     0.125 A 
HETATM   44  C19 UNL     1      -2.192 -27.097  92.135  1.00  0.00     0.679 A 
ATOM     45  H11 UNL     1      -0.470 -27.989  91.457  1.00  0.00     0.186 HD
HETATM   46  N13 UNL     1      -2.787 -26.408  93.123  1.00  0.00    -0.175 N 
HETATM   47  C20 UNL     1      -2.074 -26.075  94.245  1.00  0.00     0.145 A 
ATOM     48  H13 UNL     1      -3.765 -26.134  93.039  1.00  0.00     0.186 HD
BRANCH  44  49
HETATM   49  N12 UNL     1      -2.826 -27.436  91.054  1.00  0.00    -0.234 N 
ATOM     50 2H12 UNL     1      -2.698 -26.939  90.172  1.00  0.00     0.174 HD
ATOM     51 1H12 UNL     1      -3.461 -28.230  91.129  1.00  0.00     0.174 HD
ENDBRANCH  44  49
BRANCH  47  52
HETATM   52  N14 UNL     1      -2.680 -25.416  95.134  1.00  0.00    -0.383 N 
ATOM     53 2H14 UNL     1      -3.668 -25.548  95.347  1.00  0.00     0.157 HD
ATOM     54 1H14 UNL     1      -2.131 -24.735  95.661  1.00  0.00     0.157 HD
ENDBRANCH  47  52
ENDBRANCH   1  37
TORSDOF 13
ENDMDL
MODEL 2
REMARK VINA RESULT: -6.696863864      2.998      5.691
REMARK  13 active torsions:
REMARK  status: ('A' for Active; 'I' for Inactive)
REMARK    1  A    between atoms: C2_2  and  O1_3 
REMARK    2  A    between atoms: C2_2  and  C3_5 
REMARK    3  A    between atoms: C3_5  and  O2_6 
REMARK    4  A    between atoms: C3_5  and  C4_8 
REMARK    5  A    between atoms: C4_8  and  C5_10 
REMARK    6  A    between atoms: C5_10  and  C8_13 
REMARK    7  A    between atoms: C8_13  and  C9_14 
REMARK    8  A    between atoms: C8_13  and  N9_37 
REMARK    9  A    between atoms: C9_14  and  C10_15 
REMARK   10  A    between atoms: C12_21  and  N3_22 
REMARK   11  A    between atoms: C14_26  and  N4_27 
REMARK   12  A    between atoms: C19_44  and  N12_45 
REMARK   13  A    between atoms: C20_50  and  N14_51 
ROOT
HETATM    1  C8  UNL     1      -0.310 -25.374  94.233  1.00  0.00     0.113 C 
ENDROOT
BRANCH   1   2
HETATM    2  C5  UNL     1      -0.433 -24.405  93.125  1.00  0.00     0.037 C 
HETATM    3  C6  UNL     1       0.714 -24.495  92.104  1.00  0.00     0.025 C 
HETATM    4  C7  UNL     1      -1.670 -24.607  92.240  1.00  0.00     0.025 C 
BRANCH   2   5
HETATM    5  C4  UNL     1      -0.441 -22.985  93.551  1.00  0.00     0.167 C 
HETATM    6  O3  UNL     1      -0.331 -22.770  94.749  1.00  0.00    -0.294 OA
BRANCH   5   7
HETATM    7  C3  UNL     1      -0.556 -21.795  92.686  1.00  0.00     0.216 C 
BRANCH   7   8
HETATM    8  C2  UNL     1      -1.703 -20.883  93.149  1.00  0.00     0.150 C 
HETATM    9  C1  UNL     1      -1.961 -19.925  91.995  1.00  0.00     0.042 C 
BRANCH   8  10
HETATM   10  O1  UNL     1      -1.202 -20.105  94.219  1.00  0.00    -0.393 OA
ATOM     11  H1  UNL     1      -0.279 -19.964  94.045  1.00  0.00     0.210 HD
ENDBRANCH   8  10
ENDBRANCH   7   8
BRANCH   7  12
HETATM   12  O2  UNL     1       0.581 -20.941  92.893  1.00  0.00    -0.385 OA
ATOM     13  H2  UNL     1       0.899 -21.257  93.730  1.00  0.00     0.210 HD
ENDBRANCH   7  12
ENDBRANCH   5   7
ENDBRANCH   2   5
ENDBRANCH   1   2
BRANCH   1  14
HETATM   14  C9  UNL     1      -1.647 -26.064  94.572  1.00  0.00     0.105 C 
BRANCH  14  15
HETATM   15  C10 UNL     1      -2.221 -25.537  95.840  1.00  0.00     0.115 A 
HETATM   16  N1  UNL     1      -2.524 -26.322  96.886  1.00  0.00    -0.177 N 
HETATM   17  C11 UNL     1      -3.006 -25.536  97.854  1.00  0.00     0.708 A 
ATOM     18  H1  UNL     1      -2.407 -27.334  96.934  1.00  0.00     0.185 HD
HETATM   19  N2  UNL     1      -3.466 -25.779  99.119  1.00  0.00    -0.175 N 
HETATM   20  N7  UNL     1      -3.004 -24.270  97.416  1.00  0.00    -0.066 N 
HETATM   21  C12 UNL     1      -3.910 -24.806  99.926  1.00  0.00     0.118 A 
ATOM     22  H2  UNL     1      -3.470 -26.740  99.462  1.00  0.00     0.186 HD
HETATM   23  C13 UNL     1      -3.889 -23.505  99.425  1.00  0.00     0.101 A 
HETATM   24  C14 UNL     1      -3.432 -23.230  98.157  1.00  0.00     0.171 A 
HETATM   25  N8  UNL     1      -2.531 -24.286  96.204  1.00  0.00    -0.266 N 
ATOM     26  H8  UNL     1      -2.412 -23.462  95.615  1.00  0.00     0.189 HD
BRANCH  21  27
HETATM   27  N3  UNL     1      -4.331 -25.078 101.102  1.00  0.00    -0.385 N 
ATOM     28  H32 UNL     1      -4.507 -24.355 101.799  1.00  0.00     0.157 HD
ATOM     29  H31 UNL     1      -4.504 -26.044 101.380  1.00  0.00     0.157 HD
ENDBRANCH  21  27
BRANCH  24  30
HETATM   30  N4  UNL     1      -3.417 -21.900  97.660  1.00  0.00    -0.233 N 
HETATM   31  C15 UNL     1      -4.095 -20.858  98.168  1.00  0.00     0.138 A 
HETATM   32  C16 UNL     1      -3.848 -19.716  97.439  1.00  0.00     0.128 A 
HETATM   33  N5  UNL     1      -2.989 -20.123  96.467  1.00  0.00    -0.296 N 
HETATM   34  N6  UNL     1      -2.753 -21.419  96.625  1.00  0.00    -0.235 N 
ATOM     35  H5  UNL     1      -2.591 -19.530  95.738  1.00  0.00     0.187 HD
ATOM     36  H6  UNL     1      -2.140 -21.972  96.026  1.00  0.00     0.209 HD
ENDBRANCH  24  30
ENDBRANCH  14  15
ENDBRANCH   1  14
BRANCH   1  37
HETATM   37  N9  UNL     1       0.618 -26.410  93.976  1.00  0.00    -0.331 N 
HETATM   38  C17 UNL     1       0.298 -27.569  93.367  1.00  0.00     0.185 A 
HETATM   39  N10 UNL     1       1.338 -28.368  93.249  1.00  0.00    -0.336 N 
HETATM   40  C18 UNL     1       2.384 -27.745  93.787  1.00  0.00     0.152 A 
ATOM     41  H10 UNL     1       1.342 -29.295  92.823  1.00  0.00     0.168 HD
HETATM   42  N11 UNL     1       3.675 -28.113  93.935  1.00  0.00    -0.174 N 
HETATM   43  C21 UNL     1       1.935 -26.525  94.242  1.00  0.00     0.125 A 
HETATM   44  C19 UNL     1       4.526 -27.270  94.536  1.00  0.00     0.679 A 
ATOM     45  H11 UNL     1       3.998 -29.019  93.595  1.00  0.00     0.186 HD
HETATM   46  N13 UNL     1       4.121 -26.073  94.992  1.00  0.00    -0.175 N 
HETATM   47  C20 UNL     1       2.813 -25.695  94.844  1.00  0.00     0.145 A 
ATOM     48  H13 UNL     1       4.786 -25.448  95.448  1.00  0.00     0.186 HD
BRANCH  44  49
HETATM   49  N12 UNL     1       5.755 -27.672  94.652  1.00  0.00    -0.234 N 
ATOM     50 2H12 UNL     1       6.010 -28.475  95.226  1.00  0.00     0.174 HD
ATOM     51 1H12 UNL     1       6.458 -27.143  94.135  1.00  0.00     0.174 HD
ENDBRANCH  44  49
BRANCH  47  52
HETATM   52  N14 UNL     1       2.487 -24.566  95.304  1.00  0.00    -0.383 N 
ATOM     53 2H14 UNL     1       2.094 -23.823  94.727  1.00  0.00     0.157 HD
ATOM     54 1H14 UNL     1       2.620 -24.419  96.305  1.00  0.00     0.157 HD
ENDBRANCH  47  52
ENDBRANCH   1  37
TORSDOF 13
ENDMDL
MODEL 3
REMARK VINA RESULT: -6.640746025      2.469      5.035
REMARK  13 active torsions:
REMARK  status: ('A' for Active; 'I' for Inactive)
REMARK    1  A    between atoms: C2_2  and  O1_3 
REMARK    2  A    between atoms: C2_2  and  C3_5 
REMARK    3  A    between atoms: C3_5  and  O2_6 
REMARK    4  A    between atoms: C3_5  and  C4_8 
REMARK    5  A    between atoms: C4_8  and  C5_10 
REMARK    6  A    between atoms: C5_10  and  C8_13 
REMARK    7  A    between atoms: C8_13  and  C9_14 
REMARK    8  A    between atoms: C8_13  and  N9_37 
REMARK    9  A    between atoms: C9_14  and  C10_15 
REMARK   10  A    between atoms: C12_21  and  N3_22 
REMARK   11  A    between atoms: C14_26  and  N4_27 
REMARK   12  A    between atoms: C19_44  and  N12_45 
REMARK   13  A    between atoms: C20_50  and  N14_51 
ROOT
HETATM    1  C8  UNL     1      -0.676 -24.732  97.663  1.00  0.00     0.113 C 
ENDROOT
BRANCH   1   2
HETATM    2  C5  UNL     1      -1.030 -25.046  99.062  1.00  0.00     0.037 C 
HETATM    3  C6  UNL     1      -0.082 -26.064  99.719  1.00  0.00     0.025 C 
HETATM    4  C7  UNL     1      -0.939 -23.853 100.023  1.00  0.00     0.025 C 
BRANCH   2   5
HETATM    5  C4  UNL     1      -2.382 -25.630  99.236  1.00  0.00     0.167 C 
HETATM    6  O3  UNL     1      -2.557 -26.754  98.788  1.00  0.00    -0.294 OA
BRANCH   5   7
HETATM    7  C3  UNL     1      -3.542 -25.009  99.902  1.00  0.00     0.216 C 
BRANCH   7   8
HETATM    8  C2  UNL     1      -4.406 -24.231  98.898  1.00  0.00     0.150 C 
HETATM    9  C1  UNL     1      -5.385 -23.421  99.735  1.00  0.00     0.042 C 
BRANCH   8  10
HETATM   10  O1  UNL     1      -5.171 -25.185  98.188  1.00  0.00    -0.393 OA
ATOM     11  H1  UNL     1      -4.867 -26.041  98.467  1.00  0.00     0.210 HD
ENDBRANCH   8  10
ENDBRANCH   7   8
BRANCH   7  12
HETATM   12  O2  UNL     1      -4.458 -26.034 100.322  1.00  0.00    -0.385 OA
ATOM     13  H2  UNL     1      -4.127 -26.233 101.190  1.00  0.00     0.210 HD
ENDBRANCH   7  12
ENDBRANCH   5   7
ENDBRANCH   2   5
ENDBRANCH   1   2
BRANCH   1  14
HETATM   14  C9  UNL     1      -0.917 -23.251  97.306  1.00  0.00     0.105 C 
BRANCH  14  15
HETATM   15  C10 UNL     1      -1.004 -23.057  95.833  1.00  0.00     0.115 A 
HETATM   16  N1  UNL     1      -0.850 -21.861  95.244  1.00  0.00    -0.177 N 
HETATM   17  C11 UNL     1      -0.979 -22.042  93.925  1.00  0.00     0.708 A 
ATOM     18  H1  UNL     1      -0.667 -20.976  95.715  1.00  0.00     0.185 HD
HETATM   19  N2  UNL     1      -0.918 -21.196  92.852  1.00  0.00    -0.175 N 
HETATM   20  N7  UNL     1      -1.211 -23.340  93.693  1.00  0.00    -0.066 N 
HETATM   21  C12 UNL     1      -1.083 -21.618  91.590  1.00  0.00     0.118 A 
ATOM     22  H2  UNL     1      -0.741 -20.206  93.017  1.00  0.00     0.186 HD
HETATM   23  C13 UNL     1      -1.323 -22.978  91.400  1.00  0.00     0.101 A 
HETATM   24  C14 UNL     1      -1.388 -23.852  92.461  1.00  0.00     0.171 A 
HETATM   25  N8  UNL     1      -1.224 -23.938  94.849  1.00  0.00    -0.266 N 
ATOM     26  H8  UNL     1      -1.380 -24.937  94.986  1.00  0.00     0.189 HD
BRANCH  21  27
HETATM   27  N3  UNL     1      -1.018 -20.793  90.616  1.00  0.00    -0.385 N 
ATOM     28  H32 UNL     1      -0.252 -20.127  90.515  1.00  0.00     0.157 HD
ATOM     29  H31 UNL     1      -1.745 -20.777  89.900  1.00  0.00     0.157 HD
ENDBRANCH  21  27
BRANCH  24  30
HETATM   30  N4  UNL     1      -1.634 -25.235  92.251  1.00  0.00    -0.233 N 
HETATM   31  C15 UNL     1      -0.728 -26.223  92.345  1.00  0.00     0.138 A 
HETATM   32  C16 UNL     1      -1.310 -27.441  92.080  1.00  0.00     0.128 A 
HETATM   33  N5  UNL     1      -2.610 -27.139  91.821  1.00  0.00    -0.296 N 
HETATM   34  N6  UNL     1      -2.769 -25.826  91.931  1.00  0.00    -0.235 N 
ATOM     35  H5  UNL     1      -3.341 -27.809  91.583  1.00  0.00     0.187 HD
ATOM     36  H6  UNL     1      -3.653 -25.337  91.787  1.00  0.00     0.209 HD
ENDBRANCH  24  30
ENDBRANCH  14  15
ENDBRANCH   1  14
BRANCH   1  37
HETATM   37  N9  UNL     1       0.676 -25.001  97.349  1.00  0.00    -0.331 N 
HETATM   38  C17 UNL     1       1.712 -24.266  97.799  1.00  0.00     0.185 A 
HETATM   39  N10 UNL     1       2.868 -24.722  97.363  1.00  0.00    -0.336 N 
HETATM   40  C18 UNL     1       2.617 -25.784  96.601  1.00  0.00     0.152 A 
ATOM     41  H10 UNL     1       3.787 -24.332  97.571  1.00  0.00     0.168 HD
HETATM   42  N11 UNL     1       3.431 -26.612  95.911  1.00  0.00    -0.174 N 
HETATM   43  C21 UNL     1       1.251 -25.958  96.591  1.00  0.00     0.125 A 
HETATM   44  C19 UNL     1       2.891 -27.617  95.209  1.00  0.00     0.679 A 
ATOM     45  H11 UNL     1       4.442 -26.475  95.926  1.00  0.00     0.186 HD
HETATM   46  N13 UNL     1       1.563 -27.815  95.176  1.00  0.00    -0.175 N 
HETATM   47  C20 UNL     1       0.733 -26.978  95.874  1.00  0.00     0.145 A 
ATOM     48  H13 UNL     1       1.173 -28.585  94.633  1.00  0.00     0.186 HD
BRANCH  44  49
HETATM   49  N12 UNL     1       3.718 -28.383  94.565  1.00  0.00    -0.234 N 
ATOM     50 2H12 UNL     1       4.331 -28.024  93.834  1.00  0.00     0.174 HD
ATOM     51 1H12 UNL     1       3.725 -29.369  94.829  1.00  0.00     0.174 HD
ENDBRANCH  44  49
BRANCH  47  52
HETATM   52  N14 UNL     1      -0.506 -27.203  95.795  1.00  0.00    -0.383 N 
ATOM     53 2H14 UNL     1      -0.980 -27.402  94.915  1.00  0.00     0.157 HD
ATOM     54 1H14 UNL     1      -1.035 -27.192  96.668  1.00  0.00     0.157 HD
ENDBRANCH  47  52
ENDBRANCH   1  37
TORSDOF 13
ENDMDL
MODEL 4
REMARK VINA RESULT: -6.584962992      1.770      6.746
REMARK  13 active torsions:
REMARK  status: ('A' for Active; 'I' for Inactive)
REMARK    1  A    between atoms: C2_2  and  O1_3 
REMARK    2  A    between atoms: C2_2  and  C3_5 
REMARK    3  A    between atoms: C3_5  and  O2_6 
REMARK    4  A    between atoms: C3_5  and  C4_8 
REMARK    5  A    between atoms: C4_8  and  C5_10 
REMARK    6  A    between atoms: C5_10  and  C8_13 
REMARK    7  A    between atoms: C8_13  and  C9_14 
REMARK    8  A    between atoms: C8_13  and  N9_37 
REMARK    9  A    between atoms: C9_14  and  C10_15 
REMARK   10  A    between atoms: C12_21  and  N3_22 
REMARK   11  A    between atoms: C14_26  and  N4_27 
REMARK   12  A    between atoms: C19_44  and  N12_45 
REMARK   13  A    between atoms: C20_50  and  N14_51 
ROOT
HETATM    1  C8  UNL     1      -2.164 -24.465  99.383  1.00  0.00     0.113 C 
ENDROOT
BRANCH   1   2
HETATM    2  C5  UNL     1      -2.369 -24.404 100.844  1.00  0.00     0.037 C 
HETATM    3  C6  UNL     1      -2.469 -22.970 101.390  1.00  0.00     0.025 C 
HETATM    4  C7  UNL     1      -3.687 -25.027 101.326  1.00  0.00     0.025 C 
BRANCH   2   5
HETATM    5  C4  UNL     1      -1.286 -25.031 101.641  1.00  0.00     0.167 C 
HETATM    6  O3  UNL     1      -1.631 -25.791 102.533  1.00  0.00    -0.294 OA
BRANCH   5   7
HETATM    7  C3  UNL     1       0.167 -24.847 101.469  1.00  0.00     0.216 C 
BRANCH   7   8
HETATM    8  C2  UNL     1       0.912 -26.186 101.591  1.00  0.00     0.150 C 
HETATM    9  C1  UNL     1       2.192 -26.022 100.784  1.00  0.00     0.042 C 
BRANCH   8  10
HETATM   10  O1  UNL     1       0.129 -27.154 100.920  1.00  0.00    -0.393 OA
ATOM     11  H1  UNL     1       0.171 -27.947 101.440  1.00  0.00     0.210 HD
ENDBRANCH   8  10
ENDBRANCH   7   8
BRANCH   7  12
HETATM   12  O2  UNL     1       0.448 -24.495 100.104  1.00  0.00    -0.385 OA
ATOM     13  H2  UNL     1      -0.280 -24.908  99.654  1.00  0.00     0.210 HD
ENDBRANCH   7  12
ENDBRANCH   5   7
ENDBRANCH   2   5
ENDBRANCH   1   2
BRANCH   1  14
HETATM   14  C9  UNL     1      -2.533 -25.837  98.785  1.00  0.00     0.105 C 
BRANCH  14  15
HETATM   15  C10 UNL     1      -1.570 -26.242  97.725  1.00  0.00     0.115 A 
HETATM   16  N1  UNL     1      -0.399 -26.843  97.993  1.00  0.00    -0.177 N 
HETATM   17  C11 UNL     1       0.211 -27.074  96.826  1.00  0.00     0.708 A 
ATOM     18  H1  UNL     1      -0.041 -27.079  98.918  1.00  0.00     0.185 HD
HETATM   19  N2  UNL     1       1.405 -27.650  96.490  1.00  0.00    -0.175 N 
HETATM   20  N7  UNL     1      -0.572 -26.623  95.838  1.00  0.00    -0.066 N 
HETATM   21  C12 UNL     1       1.815 -27.776  95.219  1.00  0.00     0.118 A 
ATOM     22  H2  UNL     1       2.008 -27.998  97.235  1.00  0.00     0.186 HD
HETATM   23  C13 UNL     1       0.965 -27.290  94.226  1.00  0.00     0.101 A 
HETATM   24  C14 UNL     1      -0.243 -26.707  94.535  1.00  0.00     0.171 A 
HETATM   25  N8  UNL     1      -1.639 -26.125  96.393  1.00  0.00    -0.266 N 
ATOM     26  H8  UNL     1      -2.417 -25.704  95.885  1.00  0.00     0.189 HD
BRANCH  21  27
HETATM   27  N3  UNL     1       2.939 -28.321  94.950  1.00  0.00    -0.385 N 
ATOM     28  H32 UNL     1       3.769 -27.774  94.724  1.00  0.00     0.157 HD
ATOM     29  H31 UNL     1       3.037 -29.335  94.953  1.00  0.00     0.157 HD
ENDBRANCH  21  27
BRANCH  24  30
HETATM   30  N4  UNL     1      -1.097 -26.216  93.512  1.00  0.00    -0.233 N 
HETATM   31  C15 UNL     1      -0.889 -25.119  92.766  1.00  0.00     0.138 A 
HETATM   32  C16 UNL     1      -1.918 -24.939  91.870  1.00  0.00     0.128 A 
HETATM   33  N5  UNL     1      -2.756 -25.982  92.114  1.00  0.00    -0.296 N 
HETATM   34  N6  UNL     1      -2.242 -26.718  93.091  1.00  0.00    -0.235 N 
ATOM     35  H5  UNL     1      -3.634 -26.167  91.627  1.00  0.00     0.187 HD
ATOM     36  H6  UNL     1      -2.675 -27.562  93.467  1.00  0.00     0.209 HD
ENDBRANCH  24  30
ENDBRANCH  14  15
ENDBRANCH   1  14
BRANCH   1  37
HETATM   37  N9  UNL     1      -2.917 -23.504  98.668  1.00  0.00    -0.331 N 
HETATM   38  C17 UNL     1      -4.227 -23.641  98.381  1.00  0.00     0.185 A 
HETATM   39  N10 UNL     1      -4.694 -22.611  97.705  1.00  0.00    -0.336 N 
HETATM   40  C18 UNL     1      -3.688 -21.760  97.527  1.00  0.00     0.152 A 
ATOM     41  H10 UNL     1      -5.653 -22.490  97.378  1.00  0.00     0.168 HD
HETATM   42  N11 UNL     1      -3.617 -20.564  96.902  1.00  0.00    -0.174 N 
HETATM   43  C21 UNL     1      -2.579 -22.316  98.125  1.00  0.00     0.125 A 
HETATM   44  C19 UNL     1      -2.444 -19.917  96.869  1.00  0.00     0.679 A 
ATOM     45  H11 UNL     1      -4.444 -20.161  96.461  1.00  0.00     0.186 HD
HETATM   46  N13 UNL     1      -1.343 -20.431  97.442  1.00  0.00    -0.175 N 
HETATM   47  C20 UNL     1      -1.410 -21.643  98.077  1.00  0.00     0.145 A 
ATOM     48  H13 UNL     1      -0.461 -19.922  97.404  1.00  0.00     0.186 HD
BRANCH  44  49
HETATM   49  N12 UNL     1      -2.432 -18.772  96.257  1.00  0.00    -0.234 N 
ATOM     50 2H12 UNL     1      -1.575 -18.234  96.132  1.00  0.00     0.174 HD
ATOM     51 1H12 UNL     1      -3.327 -18.435  95.903  1.00  0.00     0.174 HD
ENDBRANCH  44  49
BRANCH  47  52
HETATM   52  N14 UNL     1      -0.342 -22.084  98.585  1.00  0.00    -0.383 N 
ATOM     53 2H14 UNL     1       0.483 -21.504  98.733  1.00  0.00     0.157 HD
ATOM     54 1H14 UNL     1      -0.332 -23.065  98.864  1.00  0.00     0.157 HD
ENDBRANCH  47  52
ENDBRANCH   1  37
TORSDOF 13
ENDMDL
MODEL 5
REMARK VINA RESULT: -6.577561970      1.617      3.145
REMARK  13 active torsions:
REMARK  status: ('A' for Active; 'I' for Inactive)
REMARK    1  A    between atoms: C2_2  and  O1_3 
REMARK    2  A    between atoms: C2_2  and  C3_5 
REMARK    3  A    between atoms: C3_5  and  O2_6 
REMARK    4  A    between atoms: C3_5  and  C4_8 
REMARK    5  A    between atoms: C4_8  and  C5_10 
REMARK    6  A    between atoms: C5_10  and  C8_13 
REMARK    7  A    between atoms: C8_13  and  C9_14 
REMARK    8  A    between atoms: C8_13  and  N9_37 
REMARK    9  A    between atoms: C9_14  and  C10_15 
REMARK   10  A    between atoms: C12_21  and  N3_22 
REMARK   11  A    between atoms: C14_26  and  N4_27 
REMARK   12  A    between atoms: C19_44  and  N12_45 
REMARK   13  A    between atoms: C20_50  and  N14_51 
ROOT
HETATM    1  C8  UNL     1       0.608 -25.211  97.062  1.00  0.00     0.113 C 
ENDROOT
BRANCH   1   2
HETATM    2  C5  UNL     1       1.830 -25.953  97.434  1.00  0.00     0.037 C 
HETATM    3  C6  UNL     1       1.996 -27.280  96.674  1.00  0.00     0.025 C 
HETATM    4  C7  UNL     1       3.140 -25.224  97.103  1.00  0.00     0.025 C 
BRANCH   2   5
HETATM    5  C4  UNL     1       1.904 -26.333  98.866  1.00  0.00     0.167 C 
HETATM    6  O3  UNL     1       2.887 -25.954  99.484  1.00  0.00    -0.294 OA
BRANCH   5   7
HETATM    7  C3  UNL     1       0.913 -27.111  99.634  1.00  0.00     0.216 C 
BRANCH   7   8
HETATM    8  C2  UNL     1       0.706 -26.513 101.034  1.00  0.00     0.150 C 
HETATM    9  C1  UNL     1       0.878 -27.669 102.008  1.00  0.00     0.042 C 
BRANCH   8  10
HETATM   10  O1  UNL     1      -0.649 -26.114 101.113  1.00  0.00    -0.393 OA
ATOM     11  H1  UNL     1      -0.806 -25.534 100.378  1.00  0.00     0.210 HD
ENDBRANCH   8  10
ENDBRANCH   7   8
BRANCH   7  12
HETATM   12  O2  UNL     1      -0.390 -26.929  99.057  1.00  0.00    -0.385 OA
ATOM     13  H2  UNL     1      -0.772 -27.789  99.191  1.00  0.00     0.210 HD
ENDBRANCH   7  12
ENDBRANCH   5   7
ENDBRANCH   2   5
ENDBRANCH   1   2
BRANCH   1  14
HETATM   14  C9  UNL     1       0.567 -23.791  97.661  1.00  0.00     0.105 C 
BRANCH  14  15
HETATM   15  C10 UNL     1      -0.817 -23.409  98.053  1.00  0.00     0.115 A 
HETATM   16  N1  UNL     1      -1.561 -24.132  98.904  1.00  0.00    -0.177 N 
HETATM   17  C11 UNL     1      -2.736 -23.509  99.042  1.00  0.00     0.708 A 
ATOM     18  H1  UNL     1      -1.281 -24.999  99.363  1.00  0.00     0.185 HD
HETATM   19  N2  UNL     1      -3.862 -23.780  99.769  1.00  0.00    -0.175 N 
HETATM   20  N7  UNL     1      -2.725 -22.406  98.283  1.00  0.00    -0.066 N 
HETATM   21  C12 UNL     1      -4.944 -22.989  99.748  1.00  0.00     0.118 A 
ATOM     22  H2  UNL     1      -3.880 -24.618 100.351  1.00  0.00     0.186 HD
HETATM   23  C13 UNL     1      -4.885 -21.853  98.942  1.00  0.00     0.101 A 
HETATM   24  C14 UNL     1      -3.765 -21.554  98.200  1.00  0.00     0.171 A 
HETATM   25  N8  UNL     1      -1.566 -22.359  97.694  1.00  0.00    -0.266 N 
ATOM     26  H8  UNL     1      -1.270 -21.626  97.049  1.00  0.00     0.189 HD
BRANCH  21  27
HETATM   27  N3  UNL     1      -5.976 -23.280 100.443  1.00  0.00    -0.385 N 
ATOM     28  H32 UNL     1      -6.453 -24.177 100.360  1.00  0.00     0.157 HD
ATOM     29  H31 UNL     1      -6.358 -22.611 101.111  1.00  0.00     0.157 HD
ENDBRANCH  21  27
BRANCH  24  30
HETATM   30  N4  UNL     1      -3.720 -20.393  97.383  1.00  0.00    -0.233 N 
HETATM   31  C15 UNL     1      -3.971 -19.135  97.782  1.00  0.00     0.138 A 
HETATM   32  C16 UNL     1      -3.834 -18.257  96.731  1.00  0.00     0.128 A 
HETATM   33  N5  UNL     1      -3.489 -19.048  95.680  1.00  0.00    -0.296 N 
HETATM   34  N6  UNL     1      -3.430 -20.306  96.099  1.00  0.00    -0.235 N 
ATOM     35  H5  UNL     1      -3.306 -18.728  94.729  1.00  0.00     0.187 HD
ATOM     36  H6  UNL     1      -3.192 -21.101  95.507  1.00  0.00     0.209 HD
ENDBRANCH  24  30
ENDBRANCH  14  15
ENDBRANCH   1  14
BRANCH   1  37
HETATM   37  N9  UNL     1       0.445 -25.058  95.665  1.00  0.00    -0.331 N 
HETATM   38  C17 UNL     1       1.320 -24.405  94.875  1.00  0.00     0.185 A 
HETATM   39  N10 UNL     1       0.939 -24.401  93.615  1.00  0.00    -0.336 N 
HETATM   40  C18 UNL     1      -0.214 -25.059  93.543  1.00  0.00     0.152 A 
ATOM     41  H10 UNL     1       1.438 -23.971  92.836  1.00  0.00     0.168 HD
HETATM   42  N11 UNL     1      -1.030 -25.340  92.504  1.00  0.00    -0.174 N 
HETATM   43  C21 UNL     1      -0.524 -25.468  94.821  1.00  0.00     0.125 A 
HETATM   44  C19 UNL     1      -2.157 -26.028  92.730  1.00  0.00     0.679 A 
ATOM     45  H11 UNL     1      -0.792 -25.033  91.561  1.00  0.00     0.186 HD
HETATM   46  N13 UNL     1      -2.490 -26.441  93.964  1.00  0.00    -0.175 N 
HETATM   47  C20 UNL     1      -1.666 -26.160  95.022  1.00  0.00     0.145 A 
ATOM     48  H13 UNL     1      -3.354 -26.962  94.114  1.00  0.00     0.186 HD
BRANCH  44  49
HETATM   49  N12 UNL     1      -2.905 -26.271  91.697  1.00  0.00    -0.234 N 
ATOM     50 2H12 UNL     1      -3.606 -25.608  91.368  1.00  0.00     0.174 HD
ATOM     51 1H12 UNL     1      -2.755 -27.164  91.227  1.00  0.00     0.174 HD
ENDBRANCH  44  49
BRANCH  47  52
HETATM   52  N14 UNL     1      -2.036 -26.560  96.160  1.00  0.00    -0.383 N 
ATOM     53 2H14 UNL     1      -3.011 -26.562  96.458  1.00  0.00     0.157 HD
ATOM     54 1H14 UNL     1      -1.310 -26.905  96.788  1.00  0.00     0.157 HD
ENDBRANCH  47  52
ENDBRANCH   1  37
TORSDOF 13
ENDMDL
