MODEL 1
REMARK VINA RESULT: -7.455872136      0.000      0.000
REMARK  15 active torsions:
REMARK  status: ('A' for Active; 'I' for Inactive)
REMARK    1  A    between atoms: O1_2  and  C2_3 
REMARK    2  A    between atoms: C4_5  and  O2_6 
REMARK    3  A    between atoms: C7_11  and  C8_12 
REMARK    4  A    between atoms: C13_21  and  C14_22 
REMARK       I    between atoms: C14_22  and  N3_24 
REMARK    5  A    between atoms: N3_24  and  C15_26 
REMARK    6  A    between atoms: C15_26  and  C16_27 
REMARK    7  A    between atoms: C15_26  and  C18_33 
REMARK    8  A    between atoms: C16_27  and  O6_28 
REMARK    9  A    between atoms: C16_27  and  C17_30 
REMARK   10  A    between atoms: C17_30  and  O7_31 
REMARK   11  A    between atoms: C18_33  and  O8_34 
REMARK   12  A    between atoms: C18_33  and  C19_36 
REMARK   13  A    between atoms: C19_36  and  O9_38 
REMARK   14  A    between atoms: C21_40  and  O10_41 
REMARK   15  A    between atoms: C21_40  and  O11_43 
ROOT
HETATM    1  C8  UNL     1       2.740 -26.705  93.675  1.00  0.00     0.084 A 
HETATM    2  C9  UNL     1       1.451 -26.239  93.628  1.00  0.00     0.066 A 
HETATM    3  C10 UNL     1       0.812 -26.560  94.804  1.00  0.00     0.095 A 
HETATM    4  N1  UNL     1       1.726 -27.211  95.538  1.00  0.00    -0.288 N 
HETATM    5  N2  UNL     1       2.872 -27.301  94.873  1.00  0.00    -0.295 N 
ATOM      6  H2  UNL     1       3.720 -27.751  95.218  1.00  0.00     0.187 HD
HETATM    7  C11 UNL     1       1.615 -27.778  96.884  1.00  0.00     0.175 C 
HETATM    8  C12 UNL     1       0.478 -27.150  97.642  1.00  0.00     0.191 C 
HETATM    9  O4  UNL     1       0.374 -25.826  97.327  1.00  0.00    -0.369 OA
HETATM   10  C13 UNL     1      -0.631 -25.494  96.453  1.00  0.00     0.281 C 
HETATM   11  C21 UNL     1      -0.591 -26.242  95.137  1.00  0.00     0.242 C 
ENDROOT
BRANCH  10  12
HETATM   12  C14 UNL     1      -1.943 -25.459  97.064  1.00  0.00     0.253 C 
HETATM   13  O5  UNL     1      -2.840 -26.292  96.681  1.00  0.00    -0.270 OA
HETATM   14  N3  UNL     1      -2.314 -24.554  98.067  1.00  0.00    -0.349 N 
ATOM     15  H3  UNL     1      -1.634 -23.871  98.401  1.00  0.00     0.163 HD
BRANCH  14  16
HETATM   16  C15 UNL     1      -3.691 -24.571  98.657  1.00  0.00     0.146 C 
BRANCH  16  17
HETATM   17  C16 UNL     1      -4.143 -23.158  98.756  1.00  0.00     0.167 C 
BRANCH  17  18
HETATM   18  O6  UNL     1      -4.039 -22.717  97.358  1.00  0.00    -0.391 OA
ATOM     19  H6  UNL     1      -4.547 -21.914  97.373  1.00  0.00     0.210 HD
ENDBRANCH  17  18
BRANCH  17  20
HETATM   20  C17 UNL     1      -5.602 -22.905  99.017  1.00  0.00     0.197 C 
BRANCH  20  21
HETATM   21  O7  UNL     1      -6.513 -23.654  98.366  1.00  0.00    -0.398 OA
ATOM     22  H7  UNL     1      -6.933 -23.291  97.594  1.00  0.00     0.209 HD
ENDBRANCH  20  21
ENDBRANCH  17  20
ENDBRANCH  16  17
BRANCH  16  23
HETATM   23  C18 UNL     1      -3.779 -25.498  99.777  1.00  0.00     0.171 C 
BRANCH  23  24
HETATM   24  O8  UNL     1      -4.418 -26.705  99.468  1.00  0.00    -0.391 OA
ATOM     25  H8  UNL     1      -4.786 -27.152 100.221  1.00  0.00     0.210 HD
ENDBRANCH  23  24
BRANCH  23  26
HETATM   26  C19 UNL     1      -4.302 -25.098 101.100  1.00  0.00     0.145 C 
HETATM   27  C20 UNL     1      -3.209 -25.173 102.176  1.00  0.00     0.042 C 
BRANCH  26  28
HETATM   28  O9  UNL     1      -5.484 -25.596 101.539  1.00  0.00    -0.393 OA
ATOM     29  H9  UNL     1      -5.668 -25.628 102.470  1.00  0.00     0.210 HD
ENDBRANCH  26  28
ENDBRANCH  23  26
ENDBRANCH  16  23
ENDBRANCH  14  16
ENDBRANCH  10  12
BRANCH  11  30
HETATM   30  O10 UNL     1      -1.335 -27.387  95.116  1.00  0.00    -0.358 OA
ATOM     31  H10 UNL     1      -2.127 -27.242  94.612  1.00  0.00     0.213 HD
ENDBRANCH  11  30
BRANCH  11  32
HETATM   32  O11 UNL     1      -1.081 -25.402  94.114  1.00  0.00    -0.358 OA
ATOM     33  H11 UNL     1      -1.708 -25.910  93.611  1.00  0.00     0.213 HD
ENDBRANCH  11  32
BRANCH   1  34
HETATM   34  C7  UNL     1       3.796 -26.586  92.669  1.00  0.00     0.105 A 
HETATM   35  O3  UNL     1       3.793 -27.059  91.466  1.00  0.00    -0.307 OA
HETATM   36  C6  UNL     1       4.894 -26.784  90.802  1.00  0.00     0.091 A 
HETATM   37  C5  UNL     1       5.335 -27.069  89.522  1.00  0.00     0.074 A 
HETATM   38  C23 UNL     1       5.686 -26.062  91.665  1.00  0.00     0.034 A 
HETATM   39  C4  UNL     1       6.563 -26.645  89.077  1.00  0.00     0.071 A 
HETATM   40  C3  UNL     1       7.362 -25.922  89.938  1.00  0.00     0.074 A 
HETATM   41  C2  UNL     1       6.921 -25.638  91.215  1.00  0.00     0.084 A 
HETATM   42  C22 UNL     1       5.010 -25.925  92.854  1.00  0.00     0.057 A 
BRANCH  39  43
HETATM   43  O2  UNL     1       7.050 -26.910  87.796  1.00  0.00    -0.361 OA
ATOM     44  H2  UNL     1       6.424 -26.975  87.084  1.00  0.00     0.217 HD
ENDBRANCH  39  43
BRANCH  41  45
HETATM   45  O1  UNL     1       7.692 -24.913  92.119  1.00  0.00    -0.355 OA
HETATM   46  C1  UNL     1       9.096 -24.893  91.949  1.00  0.00     0.210 C 
ENDBRANCH  41  45
ENDBRANCH   1  34
TORSDOF 15
ENDMDL
MODEL 2
REMARK VINA RESULT: -7.417258861      1.290      1.702
REMARK  15 active torsions:
REMARK  status: ('A' for Active; 'I' for Inactive)
REMARK    1  A    between atoms: O1_2  and  C2_3 
REMARK    2  A    between atoms: C4_5  and  O2_6 
REMARK    3  A    between atoms: C7_11  and  C8_12 
REMARK    4  A    between atoms: C13_21  and  C14_22 
REMARK       I    between atoms: C14_22  and  N3_24 
REMARK    5  A    between atoms: N3_24  and  C15_26 
REMARK    6  A    between atoms: C15_26  and  C16_27 
REMARK    7  A    between atoms: C15_26  and  C18_33 
REMARK    8  A    between atoms: C16_27  and  O6_28 
REMARK    9  A    between atoms: C16_27  and  C17_30 
REMARK   10  A    between atoms: C17_30  and  O7_31 
REMARK   11  A    between atoms: C18_33  and  O8_34 
REMARK   12  A    between atoms: C18_33  and  C19_36 
REMARK   13  A    between atoms: C19_36  and  O9_38 
REMARK   14  A    between atoms: C21_40  and  O10_41 
REMARK   15  A    between atoms: C21_40  and  O11_43 
ROOT
HETATM    1  C8  UNL     1       1.734 -26.433  94.328  1.00  0.00     0.084 A 
HETATM    2  C9  UNL     1       0.493 -25.850  94.269  1.00  0.00     0.066 A 
HETATM    3  C10 UNL     1      -0.178 -26.097  95.444  1.00  0.00     0.095 A 
HETATM    4  N1  UNL     1       0.669 -26.821  96.191  1.00  0.00    -0.288 N 
HETATM    5  N2  UNL     1       1.805 -27.024  95.534  1.00  0.00    -0.295 N 
ATOM      6  H2  UNL     1       2.606 -27.546  95.888  1.00  0.00     0.187 HD
HETATM    7  C11 UNL     1       0.499 -27.359  97.542  1.00  0.00     0.175 C 
HETATM    8  C12 UNL     1      -0.578 -26.619  98.287  1.00  0.00     0.191 C 
HETATM    9  O4  UNL     1      -0.559 -25.295  97.956  1.00  0.00    -0.369 OA
HETATM   10  C13 UNL     1      -1.524 -24.883  97.072  1.00  0.00     0.281 C 
HETATM   11  C21 UNL     1      -1.547 -25.647  95.765  1.00  0.00     0.242 C 
ENDROOT
BRANCH  10  12
HETATM   12  C14 UNL     1      -2.830 -24.719  97.675  1.00  0.00     0.253 C 
HETATM   13  O5  UNL     1      -3.770 -25.539  97.377  1.00  0.00    -0.270 OA
HETATM   14  N3  UNL     1      -3.150 -23.701  98.582  1.00  0.00    -0.349 N 
ATOM     15  H3  UNL     1      -2.435 -23.024  98.847  1.00  0.00     0.163 HD
BRANCH  14  16
HETATM   16  C15 UNL     1      -4.524 -23.587  99.169  1.00  0.00     0.146 C 
BRANCH  16  17
HETATM   17  C16 UNL     1      -5.160 -22.385  98.569  1.00  0.00     0.167 C 
BRANCH  17  18
HETATM   18  O6  UNL     1      -6.014 -21.922  99.671  1.00  0.00    -0.391 OA
ATOM     19  H6  UNL     1      -6.880 -22.006  99.290  1.00  0.00     0.210 HD
ENDBRANCH  17  18
BRANCH  17  20
HETATM   20  C17 UNL     1      -4.301 -21.170  98.357  1.00  0.00     0.197 C 
BRANCH  20  21
HETATM   21  O7  UNL     1      -3.283 -20.942  99.209  1.00  0.00    -0.398 OA
ATOM     22  H7  UNL     1      -2.964 -20.053  99.310  1.00  0.00     0.209 HD
ENDBRANCH  20  21
ENDBRANCH  17  20
ENDBRANCH  16  17
BRANCH  16  23
HETATM   23  C18 UNL     1      -4.510 -23.827 100.606  1.00  0.00     0.171 C 
BRANCH  23  24
HETATM   24  O8  UNL     1      -3.664 -22.970 101.319  1.00  0.00    -0.391 OA
ATOM     25  H8  UNL     1      -2.758 -23.252 101.344  1.00  0.00     0.210 HD
ENDBRANCH  23  24
BRANCH  23  26
HETATM   26  C19 UNL     1      -4.294 -25.171 101.184  1.00  0.00     0.145 C 
HETATM   27  C20 UNL     1      -3.057 -25.192 102.094  1.00  0.00     0.042 C 
BRANCH  26  28
HETATM   28  O9  UNL     1      -4.361 -26.267 100.390  1.00  0.00    -0.393 OA
ATOM     29  H9  UNL     1      -4.229 -27.131 100.762  1.00  0.00     0.210 HD
ENDBRANCH  26  28
ENDBRANCH  23  26
ENDBRANCH  16  23
ENDBRANCH  14  16
ENDBRANCH  10  12
BRANCH  11  30
HETATM   30  O10 UNL     1      -2.394 -26.719  95.753  1.00  0.00    -0.358 OA
ATOM     31  H10 UNL     1      -2.223 -27.267  96.510  1.00  0.00     0.213 HD
ENDBRANCH  11  30
BRANCH  11  32
HETATM   32  O11 UNL     1      -1.953 -24.778  94.730  1.00  0.00    -0.358 OA
ATOM     33  H11 UNL     1      -2.172 -23.946  95.132  1.00  0.00     0.213 HD
ENDBRANCH  11  32
BRANCH   1  34
HETATM   34  C7  UNL     1       2.800 -26.424  93.327  1.00  0.00     0.105 A 
HETATM   35  O3  UNL     1       2.799 -27.002  92.170  1.00  0.00    -0.307 OA
HETATM   36  C6  UNL     1       3.911 -26.808  91.497  1.00  0.00     0.091 A 
HETATM   37  C5  UNL     1       4.358 -27.213  90.252  1.00  0.00     0.074 A 
HETATM   38  C23 UNL     1       4.710 -26.027  92.301  1.00  0.00     0.034 A 
HETATM   39  C4  UNL     1       5.598 -26.854  89.784  1.00  0.00     0.071 A 
HETATM   40  C3  UNL     1       6.403 -26.073  90.586  1.00  0.00     0.074 A 
HETATM   41  C2  UNL     1       5.957 -25.669  91.828  1.00  0.00     0.084 A 
HETATM   42  C22 UNL     1       4.026 -25.773  93.465  1.00  0.00     0.057 A 
BRANCH  39  43
HETATM   43  O2  UNL     1       6.091 -27.241  88.537  1.00  0.00    -0.361 OA
ATOM     44  H2  UNL     1       5.840 -26.727  87.778  1.00  0.00     0.217 HD
ENDBRANCH  39  43
BRANCH  41  45
HETATM   45  O1  UNL     1       6.734 -24.881  92.673  1.00  0.00    -0.355 OA
HETATM   46  C1  UNL     1       7.763 -25.500  93.419  1.00  0.00     0.210 C 
ENDBRANCH  41  45
ENDBRANCH   1  34
TORSDOF 15
ENDMDL
MODEL 3
REMARK VINA RESULT: -7.149605692      1.409      1.761
REMARK  15 active torsions:
REMARK  status: ('A' for Active; 'I' for Inactive)
REMARK    1  A    between atoms: O1_2  and  C2_3 
REMARK    2  A    between atoms: C4_5  and  O2_6 
REMARK    3  A    between atoms: C7_11  and  C8_12 
REMARK    4  A    between atoms: C13_21  and  C14_22 
REMARK       I    between atoms: C14_22  and  N3_24 
REMARK    5  A    between atoms: N3_24  and  C15_26 
REMARK    6  A    between atoms: C15_26  and  C16_27 
REMARK    7  A    between atoms: C15_26  and  C18_33 
REMARK    8  A    between atoms: C16_27  and  O6_28 
REMARK    9  A    between atoms: C16_27  and  C17_30 
REMARK   10  A    between atoms: C17_30  and  O7_31 
REMARK   11  A    between atoms: C18_33  and  O8_34 
REMARK   12  A    between atoms: C18_33  and  C19_36 
REMARK   13  A    between atoms: C19_36  and  O9_38 
REMARK   14  A    between atoms: C21_40  and  O10_41 
REMARK   15  A    between atoms: C21_40  and  O11_43 
ROOT
HETATM    1  C8  UNL     1       2.221 -26.341  92.902  1.00  0.00     0.084 A 
HETATM    2  C9  UNL     1       0.915 -25.935  93.008  1.00  0.00     0.066 A 
HETATM    3  C10 UNL     1       0.427 -26.300  94.241  1.00  0.00     0.095 A 
HETATM    4  N1  UNL     1       1.446 -26.917  94.857  1.00  0.00    -0.288 N 
HETATM    5  N2  UNL     1       2.513 -26.945  94.067  1.00  0.00    -0.295 N 
ATOM      6  H2  UNL     1       3.413 -27.360  94.307  1.00  0.00     0.187 HD
HETATM    7  C11 UNL     1       1.512 -27.506  96.197  1.00  0.00     0.175 C 
HETATM    8  C12 UNL     1       0.441 -26.940  97.089  1.00  0.00     0.191 C 
HETATM    9  O4  UNL     1       0.243 -25.619  96.810  1.00  0.00    -0.369 OA
HETATM   10  C13 UNL     1      -0.868 -25.323  96.060  1.00  0.00     0.281 C 
HETATM   11  C21 UNL     1      -0.942 -26.052  94.735  1.00  0.00     0.242 C 
ENDROOT
BRANCH  10  12
HETATM   12  C14 UNL     1      -2.103 -25.356  96.814  1.00  0.00     0.253 C 
HETATM   13  O5  UNL     1      -2.957 -26.285  96.586  1.00  0.00    -0.270 OA
HETATM   14  N3  UNL     1      -2.442 -24.420  97.799  1.00  0.00    -0.349 N 
ATOM     15  H3  UNL     1      -1.795 -23.662  98.013  1.00  0.00     0.163 HD
BRANCH  14  16
HETATM   16  C15 UNL     1      -3.740 -24.511  98.544  1.00  0.00     0.146 C 
BRANCH  16  17
HETATM   17  C16 UNL     1      -4.214 -23.121  98.770  1.00  0.00     0.167 C 
BRANCH  17  18
HETATM   18  O6  UNL     1      -4.050 -22.532  97.434  1.00  0.00    -0.391 OA
ATOM     19  H6  UNL     1      -4.937 -22.574  97.097  1.00  0.00     0.210 HD
ENDBRANCH  17  18
BRANCH  17  20
HETATM   20  C17 UNL     1      -5.687 -22.909  98.986  1.00  0.00     0.197 C 
BRANCH  20  21
HETATM   21  O7  UNL     1      -6.557 -23.667  98.290  1.00  0.00    -0.398 OA
ATOM     22  H7  UNL     1      -7.072 -24.314  98.757  1.00  0.00     0.209 HD
ENDBRANCH  20  21
ENDBRANCH  17  20
ENDBRANCH  16  17
BRANCH  16  23
HETATM   23  C18 UNL     1      -3.671 -25.497  99.614  1.00  0.00     0.171 C 
BRANCH  23  24
HETATM   24  O8  UNL     1      -4.217 -26.742  99.279  1.00  0.00    -0.391 OA
ATOM     25  H8  UNL     1      -4.068 -27.418  99.929  1.00  0.00     0.210 HD
ENDBRANCH  23  24
BRANCH  23  26
HETATM   26  C19 UNL     1      -4.141 -25.212 100.986  1.00  0.00     0.145 C 
HETATM   27  C20 UNL     1      -2.961 -24.991 101.944  1.00  0.00     0.042 C 
BRANCH  26  28
HETATM   28  O9  UNL     1      -5.111 -25.980 101.541  1.00  0.00    -0.393 OA
ATOM     29  H9  UNL     1      -5.411 -25.799 102.424  1.00  0.00     0.210 HD
ENDBRANCH  26  28
ENDBRANCH  23  26
ENDBRANCH  16  23
ENDBRANCH  14  16
ENDBRANCH  10  12
BRANCH  11  30
HETATM   30  O10 UNL     1      -1.633 -27.230  94.777  1.00  0.00    -0.358 OA
ATOM     31  H10 UNL     1      -1.167 -27.851  95.325  1.00  0.00     0.213 HD
ENDBRANCH  11  30
BRANCH  11  32
HETATM   32  O11 UNL     1      -1.582 -25.223  93.788  1.00  0.00    -0.358 OA
ATOM     33  H11 UNL     1      -1.601 -24.345  94.151  1.00  0.00     0.213 HD
ENDBRANCH  11  32
BRANCH   1  34
HETATM   34  C7  UNL     1       3.150 -26.161  91.787  1.00  0.00     0.105 A 
HETATM   35  O3  UNL     1       4.016 -27.010  91.339  1.00  0.00    -0.307 OA
HETATM   36  C6  UNL     1       4.708 -26.551  90.319  1.00  0.00     0.091 A 
HETATM   37  C5  UNL     1       5.713 -27.081  89.530  1.00  0.00     0.074 A 
HETATM   38  C23 UNL     1       4.241 -25.277  90.088  1.00  0.00     0.034 A 
HETATM   39  C4  UNL     1       6.271 -26.361  88.503  1.00  0.00     0.071 A 
HETATM   40  C3  UNL     1       5.808 -25.083  88.266  1.00  0.00     0.074 A 
HETATM   41  C2  UNL     1       4.805 -24.556  89.055  1.00  0.00     0.084 A 
HETATM   42  C22 UNL     1       3.254 -25.011  91.006  1.00  0.00     0.057 A 
BRANCH  39  43
HETATM   43  O2  UNL     1       7.287 -26.852  87.682  1.00  0.00    -0.361 OA
ATOM     44  H2  UNL     1       7.059 -27.503  87.029  1.00  0.00     0.217 HD
ENDBRANCH  39  43
BRANCH  41  45
HETATM   45  O1  UNL     1       4.306 -23.271  88.855  1.00  0.00    -0.355 OA
HETATM   46  C1  UNL     1       3.708 -22.964  87.611  1.00  0.00     0.210 C 
ENDBRANCH  41  45
ENDBRANCH   1  34
TORSDOF 15
ENDMDL
MODEL 4
REMARK VINA RESULT: -7.127113885      1.238      2.017
REMARK  15 active torsions:
REMARK  status: ('A' for Active; 'I' for Inactive)
REMARK    1  A    between atoms: O1_2  and  C2_3 
REMARK    2  A    between atoms: C4_5  and  O2_6 
REMARK    3  A    between atoms: C7_11  and  C8_12 
REMARK    4  A    between atoms: C13_21  and  C14_22 
REMARK       I    between atoms: C14_22  and  N3_24 
REMARK    5  A    between atoms: N3_24  and  C15_26 
REMARK    6  A    between atoms: C15_26  and  C16_27 
REMARK    7  A    between atoms: C15_26  and  C18_33 
REMARK    8  A    between atoms: C16_27  and  O6_28 
REMARK    9  A    between atoms: C16_27  and  C17_30 
REMARK   10  A    between atoms: C17_30  and  O7_31 
REMARK   11  A    between atoms: C18_33  and  O8_34 
REMARK   12  A    between atoms: C18_33  and  C19_36 
REMARK   13  A    between atoms: C19_36  and  O9_38 
REMARK   14  A    between atoms: C21_40  and  O10_41 
REMARK   15  A    between atoms: C21_40  and  O11_43 
ROOT
HETATM    1  C8  UNL     1       3.498 -25.988  94.623  1.00  0.00     0.084 A 
HETATM    2  C9  UNL     1       2.164 -26.075  94.314  1.00  0.00     0.066 A 
HETATM    3  C10 UNL     1       1.437 -26.180  95.478  1.00  0.00     0.095 A 
HETATM    4  N1  UNL     1       2.343 -26.153  96.466  1.00  0.00    -0.288 N 
HETATM    5  N2  UNL     1       3.568 -26.039  95.965  1.00  0.00    -0.295 N 
ATOM      6  H2  UNL     1       4.427 -25.997  96.513  1.00  0.00     0.187 HD
HETATM    7  C11 UNL     1       2.149 -26.217  97.916  1.00  0.00     0.175 C 
HETATM    8  C12 UNL     1       0.745 -25.829  98.291  1.00  0.00     0.191 C 
HETATM    9  O4  UNL     1       0.295 -24.834  97.472  1.00  0.00    -0.369 OA
HETATM   10  C13 UNL     1      -0.567 -25.219  96.476  1.00  0.00     0.281 C 
HETATM   11  C21 UNL     1      -0.031 -26.305  95.568  1.00  0.00     0.242 C 
ENDROOT
BRANCH  10  12
HETATM   12  C14 UNL     1      -1.918 -25.458  96.938  1.00  0.00     0.253 C 
HETATM   13  O5  UNL     1      -2.630 -26.358  96.367  1.00  0.00    -0.270 OA
HETATM   14  N3  UNL     1      -2.520 -24.756  97.991  1.00  0.00    -0.349 N 
ATOM     15  H3  UNL     1      -1.992 -24.029  98.473  1.00  0.00     0.163 HD
BRANCH  14  16
HETATM   16  C15 UNL     1      -3.925 -25.054  98.419  1.00  0.00     0.146 C 
BRANCH  16  17
HETATM   17  C16 UNL     1      -4.720 -23.817  98.205  1.00  0.00     0.167 C 
BRANCH  17  18
HETATM   18  O6  UNL     1      -3.817 -23.029  97.354  1.00  0.00    -0.391 OA
ATOM     19  H6  UNL     1      -2.996 -23.104  97.826  1.00  0.00     0.210 HD
ENDBRANCH  17  18
BRANCH  17  20
HETATM   20  C17 UNL     1      -5.928 -23.905  97.315  1.00  0.00     0.197 C 
BRANCH  20  21
HETATM   21  O7  UNL     1      -7.150 -23.794  97.873  1.00  0.00    -0.398 OA
ATOM     22  H7  UNL     1      -7.552 -24.570  98.246  1.00  0.00     0.209 HD
ENDBRANCH  20  21
ENDBRANCH  17  20
ENDBRANCH  16  17
BRANCH  16  23
HETATM   23  C18 UNL     1      -3.953 -25.792  99.675  1.00  0.00     0.171 C 
BRANCH  23  24
HETATM   24  O8  UNL     1      -4.632 -27.014  99.602  1.00  0.00    -0.391 OA
ATOM     25  H8  UNL     1      -4.274 -27.690 100.165  1.00  0.00     0.210 HD
ENDBRANCH  23  24
BRANCH  23  26
HETATM   26  C19 UNL     1      -4.378 -25.175 100.949  1.00  0.00     0.145 C 
HETATM   27  C20 UNL     1      -3.176 -24.915 101.869  1.00  0.00     0.042 C 
BRANCH  26  28
HETATM   28  O9  UNL     1      -5.437 -25.683 101.625  1.00  0.00    -0.393 OA
ATOM     29  H9  UNL     1      -5.681 -25.317 102.468  1.00  0.00     0.210 HD
ENDBRANCH  26  28
ENDBRANCH  23  26
ENDBRANCH  16  23
ENDBRANCH  14  16
ENDBRANCH  10  12
BRANCH  11  30
HETATM   30  O10 UNL     1      -0.358 -27.574  95.953  1.00  0.00    -0.358 OA
ATOM     31  H10 UNL     1      -1.287 -27.718  95.817  1.00  0.00     0.213 HD
ENDBRANCH  11  30
BRANCH  11  32
HETATM   32  O11 UNL     1      -0.546 -26.114  94.267  1.00  0.00    -0.358 OA
ATOM     33  H11 UNL     1      -1.476 -26.302  94.304  1.00  0.00     0.213 HD
ENDBRANCH  11  32
BRANCH   1  34
HETATM   34  C7  UNL     1       4.641 -25.846  93.722  1.00  0.00     0.105 A 
HETATM   35  O3  UNL     1       5.846 -25.492  94.029  1.00  0.00    -0.307 OA
HETATM   36  C6  UNL     1       6.653 -25.457  92.992  1.00  0.00     0.091 A 
HETATM   37  C5  UNL     1       7.992 -25.149  92.831  1.00  0.00     0.074 A 
HETATM   38  C23 UNL     1       5.890 -25.825  91.906  1.00  0.00     0.034 A 
HETATM   39  C4  UNL     1       8.596 -25.198  91.599  1.00  0.00     0.071 A 
HETATM   40  C3  UNL     1       7.836 -25.565  90.508  1.00  0.00     0.074 A 
HETATM   41  C2  UNL     1       6.500 -25.873  90.669  1.00  0.00     0.084 A 
HETATM   42  C22 UNL     1       4.613 -26.075  92.347  1.00  0.00     0.057 A 
BRANCH  39  43
HETATM   43  O2  UNL     1       9.941 -24.893  91.389  1.00  0.00    -0.361 OA
ATOM     44  H2  UNL     1      10.595 -25.459  91.785  1.00  0.00     0.217 HD
ENDBRANCH  39  43
BRANCH  41  45
HETATM   45  O1  UNL     1       5.693 -26.247  89.597  1.00  0.00    -0.355 OA
HETATM   46  C1  UNL     1       5.417 -25.292  88.592  1.00  0.00     0.210 C 
ENDBRANCH  41  45
ENDBRANCH   1  34
TORSDOF 15
ENDMDL
MODEL 5
REMARK VINA RESULT: -7.079435380      1.910      2.382
REMARK  15 active torsions:
REMARK  status: ('A' for Active; 'I' for Inactive)
REMARK    1  A    between atoms: O1_2  and  C2_3 
REMARK    2  A    between atoms: C4_5  and  O2_6 
REMARK    3  A    between atoms: C7_11  and  C8_12 
REMARK    4  A    between atoms: C13_21  and  C14_22 
REMARK       I    between atoms: C14_22  and  N3_24 
REMARK    5  A    between atoms: N3_24  and  C15_26 
REMARK    6  A    between atoms: C15_26  and  C16_27 
REMARK    7  A    between atoms: C15_26  and  C18_33 
REMARK    8  A    between atoms: C16_27  and  O6_28 
REMARK    9  A    between atoms: C16_27  and  C17_30 
REMARK   10  A    between atoms: C17_30  and  O7_31 
REMARK   11  A    between atoms: C18_33  and  O8_34 
REMARK   12  A    between atoms: C18_33  and  C19_36 
REMARK   13  A    between atoms: C19_36  and  O9_38 
REMARK   14  A    between atoms: C21_40  and  O10_41 
REMARK   15  A    between atoms: C21_40  and  O11_43 
ROOT
HETATM    1  C8  UNL     1       1.417 -26.066  93.714  1.00  0.00     0.084 A 
HETATM    2  C9  UNL     1       0.175 -25.525  93.931  1.00  0.00     0.066 A 
HETATM    3  C10 UNL     1      -0.305 -25.968  95.142  1.00  0.00     0.095 A 
HETATM    4  N1  UNL     1       0.655 -26.765  95.634  1.00  0.00    -0.288 N 
HETATM    5  N2  UNL     1       1.679 -26.827  94.791  1.00  0.00    -0.295 N 
ATOM      6  H2  UNL     1       2.530 -27.369  94.938  1.00  0.00     0.187 HD
HETATM    7  C11 UNL     1       0.701 -27.504  96.898  1.00  0.00     0.175 C 
HETATM    8  C12 UNL     1      -0.258 -26.921  97.900  1.00  0.00     0.191 C 
HETATM    9  O4  UNL     1      -0.305 -25.563  97.775  1.00  0.00    -0.369 OA
HETATM   10  C13 UNL     1      -1.399 -25.057  97.120  1.00  0.00     0.281 C 
HETATM   11  C21 UNL     1      -1.613 -25.618  95.730  1.00  0.00     0.242 C 
ENDROOT
BRANCH  10  12
HETATM   12  C14 UNL     1      -2.599 -25.030  97.930  1.00  0.00     0.253 C 
HETATM   13  O5  UNL     1      -3.254 -26.116  98.124  1.00  0.00    -0.270 OA
HETATM   14  N3  UNL     1      -3.112 -23.873  98.529  1.00  0.00    -0.349 N 
ATOM     15  H3  UNL     1      -2.626 -22.985  98.400  1.00  0.00     0.163 HD
BRANCH  14  16
HETATM   16  C15 UNL     1      -4.361 -23.914  99.356  1.00  0.00     0.146 C 
BRANCH  16  17
HETATM   17  C16 UNL     1      -5.399 -23.146  98.620  1.00  0.00     0.167 C 
BRANCH  17  18
HETATM   18  O6  UNL     1      -4.594 -22.092  97.989  1.00  0.00    -0.391 OA
ATOM     19  H6  UNL     1      -4.745 -22.264  97.067  1.00  0.00     0.210 HD
ENDBRANCH  17  18
BRANCH  17  20
HETATM   20  C17 UNL     1      -6.016 -23.785  97.407  1.00  0.00     0.197 C 
BRANCH  20  21
HETATM   21  O7  UNL     1      -7.325 -24.101  97.439  1.00  0.00    -0.398 OA
ATOM     22  H7  UNL     1      -7.816 -23.927  98.234  1.00  0.00     0.209 HD
ENDBRANCH  20  21
ENDBRANCH  17  20
ENDBRANCH  16  17
BRANCH  16  23
HETATM   23  C18 UNL     1      -4.074 -23.687 100.766  1.00  0.00     0.171 C 
BRANCH  23  24
HETATM   24  O8  UNL     1      -4.041 -22.335 101.130  1.00  0.00    -0.391 OA
ATOM     25  H8  UNL     1      -3.347 -22.115 101.739  1.00  0.00     0.210 HD
ENDBRANCH  23  24
BRANCH  23  26
HETATM   26  C19 UNL     1      -2.925 -24.312 101.453  1.00  0.00     0.145 C 
HETATM   27  C20 UNL     1      -1.731 -23.347 101.530  1.00  0.00     0.042 C 
BRANCH  26  28
HETATM   28  O9  UNL     1      -2.542 -25.570 101.123  1.00  0.00    -0.393 OA
ATOM     29  H9  UNL     1      -1.689 -25.719 100.732  1.00  0.00     0.210 HD
ENDBRANCH  26  28
ENDBRANCH  23  26
ENDBRANCH  16  23
ENDBRANCH  14  16
ENDBRANCH  10  12
BRANCH  11  30
HETATM   30  O10 UNL     1      -2.440 -26.705  95.682  1.00  0.00    -0.358 OA
ATOM     31  H10 UNL     1      -3.180 -26.515  95.117  1.00  0.00     0.213 HD
ENDBRANCH  11  30
BRANCH  11  32
HETATM   32  O11 UNL     1      -2.184 -24.619  94.912  1.00  0.00    -0.358 OA
ATOM     33  H11 UNL     1      -1.850 -23.783  95.217  1.00  0.00     0.213 HD
ENDBRANCH  11  32
BRANCH   1  34
HETATM   34  C7  UNL     1       2.317 -25.871  92.578  1.00  0.00     0.105 A 
HETATM   35  O3  UNL     1       3.269 -26.653  92.185  1.00  0.00    -0.307 OA
HETATM   36  C6  UNL     1       3.903 -26.200  91.126  1.00  0.00     0.091 A 
HETATM   37  C5  UNL     1       4.957 -26.676  90.367  1.00  0.00     0.074 A 
HETATM   38  C23 UNL     1       3.299 -25.005  90.805  1.00  0.00     0.034 A 
HETATM   39  C4  UNL     1       5.430 -25.979  89.282  1.00  0.00     0.071 A 
HETATM   40  C3  UNL     1       4.829 -24.781  88.956  1.00  0.00     0.074 A 
HETATM   41  C2  UNL     1       3.778 -24.307  89.714  1.00  0.00     0.084 A 
HETATM   42  C22 UNL     1       2.292 -24.779  91.713  1.00  0.00     0.057 A 
BRANCH  39  43
HETATM   43  O2  UNL     1       6.490 -26.418  88.489  1.00  0.00    -0.361 OA
ATOM     44  H2  UNL     1       7.199 -26.889  88.911  1.00  0.00     0.217 HD
ENDBRANCH  39  43
BRANCH  41  45
HETATM   45  O1  UNL     1       3.141 -23.103  89.425  1.00  0.00    -0.355 OA
HETATM   46  C1  UNL     1       3.378 -22.497  88.170  1.00  0.00     0.210 C 
ENDBRANCH  41  45
ENDBRANCH   1  34
TORSDOF 15
ENDMDL
