MODEL 1
REMARK VINA RESULT: -6.248486154      0.000      0.000
REMARK  17 active torsions:
REMARK  status: ('A' for Active; 'I' for Inactive)
REMARK    1  A    between atoms: C3_7  and  N3_8 
REMARK    2  A    between atoms: N3_8  and  C4_10 
REMARK    3  A    between atoms: C4_10  and  N4_11 
REMARK    4  A    between atoms: C4_10  and  C11_35 
REMARK    5  A    between atoms: N4_11  and  O1_13 
REMARK    6  A    between atoms: O1_13  and  C5_14 
REMARK    7  A    between atoms: C5_14  and  C6_15 
REMARK    8  A    between atoms: C6_15  and  N5_16 
REMARK    9  A    between atoms: C6_15  and  N7_21 
REMARK   10  A    between atoms: N5_16  and  N6_18 
REMARK   11  A    between atoms: N7_21  and  C7_23 
REMARK   12  A    between atoms: C8_28  and  S1_29 
REMARK   13  A    between atoms: S1_29  and  C9_30 
REMARK   14  A    between atoms: C9_30  and  C10_31 
REMARK   15  A    between atoms: C14_38  and  O3_39 
REMARK   16  A    between atoms: C15_41  and  O4_42 
REMARK   17  A    between atoms: C17_45  and  O5_46 
ROOT
HETATM    1  C4  UNL     1      -2.145 -23.955  97.380  1.00  0.00     0.137 C 
ENDROOT
BRANCH   1   2
HETATM    2  N3  UNL     1      -1.929 -25.292  97.053  1.00  0.00    -0.325 N 
ATOM      3  H3  UNL     1      -2.015 -25.979  97.803  1.00  0.00     0.169 HD
BRANCH   2   4
HETATM    4  C3  UNL     1      -1.630 -25.730  95.882  1.00  0.00     0.147 C 
HETATM    5  N2  UNL     1      -2.498 -25.463  94.788  1.00  0.00    -0.284 N 
HETATM    6  N1  UNL     1      -2.505 -26.255  93.634  1.00  0.00    -0.288 N 
ATOM      7  H2  UNL     1      -3.135 -24.668  94.847  1.00  0.00     0.188 HD
HETATM    8  C2  UNL     1      -1.681 -27.265  93.587  1.00  0.00     0.089 C 
ATOM      9  H1  UNL     1      -3.132 -26.050  92.857  1.00  0.00     0.188 HD
HETATM   10  C1  UNL     1      -1.620 -28.165  92.395  1.00  0.00     0.090 C 
HETATM   11  N11 UNL     1      -0.800 -27.560  94.661  1.00  0.00    -0.347 N 
HETATM   12  C17 UNL     1      -0.399 -26.523  95.590  1.00  0.00     0.289 C 
ATOM     13  H11 UNL     1      -0.447 -28.510  94.779  1.00  0.00     0.163 HD
BRANCH  12  14
HETATM   14  O5  UNL     1       0.461 -25.669  94.864  1.00  0.00    -0.369 OA
ATOM     15  H5  UNL     1       0.182 -25.717  93.957  1.00  0.00     0.212 HD
ENDBRANCH  12  14
ENDBRANCH   2   4
ENDBRANCH   1   2
BRANCH   1  16
HETATM   16  N4  UNL     1      -1.357 -23.020  96.989  1.00  0.00    -0.249 N 
ATOM     17  H4  UNL     1      -0.702 -22.633  97.668  1.00  0.00     0.196 HD
BRANCH  16  18
HETATM   18  O1  UNL     1      -1.341 -22.513  95.728  1.00  0.00    -0.271 OA
BRANCH  18  19
HETATM   19  C5  UNL     1      -0.191 -22.150  95.002  1.00  0.00     0.279 C 
BRANCH  19  20
HETATM   20  C6  UNL     1      -0.655 -21.773  93.620  1.00  0.00     0.124 C 
BRANCH  20  21
HETATM   21  N5  UNL     1      -1.835 -21.315  93.430  1.00  0.00    -0.294 N 
ATOM     22  H5  UNL     1      -2.404 -21.771  92.717  1.00  0.00     0.187 HD
BRANCH  21  23
HETATM   23  N6  UNL     1      -2.401 -20.257  94.109  1.00  0.00    -0.344 N 
ATOM     24  H62 UNL     1      -1.788 -19.754  94.750  1.00  0.00     0.176 HD
ATOM     25  H61 UNL     1      -3.369 -19.947  94.020  1.00  0.00     0.176 HD
ENDBRANCH  21  23
ENDBRANCH  20  21
BRANCH  20  26
HETATM   26  N7  UNL     1       0.202 -21.914  92.501  1.00  0.00    -0.322 N 
ATOM     27  H7  UNL     1       0.406 -21.113  91.903  1.00  0.00     0.169 HD
BRANCH  26  28
HETATM   28  C7  UNL     1       0.729 -23.086  92.243  1.00  0.00     0.167 A 
HETATM   29  N8  UNL     1       0.119 -24.276  92.242  1.00  0.00    -0.278 N 
HETATM   30  N9  UNL     1       0.805 -25.310  91.964  1.00  0.00    -0.286 N 
ATOM     31  H8  UNL     1      -0.875 -24.353  92.460  1.00  0.00     0.189 HD
HETATM   32  C8  UNL     1       2.094 -25.199  91.682  1.00  0.00     0.130 A 
ATOM     33  H9  UNL     1       0.362 -26.228  91.958  1.00  0.00     0.188 HD
HETATM   34  S2  UNL     1       2.329 -23.513  91.828  1.00  0.00    -0.026 SA
BRANCH  32  35
HETATM   35  S1  UNL     1       3.259 -26.517  91.259  1.00  0.00    -0.095 SA
BRANCH  35  36
HETATM   36  C9  UNL     1       4.098 -27.007  92.777  1.00  0.00     0.180 C 
BRANCH  36  37
HETATM   37  C10 UNL     1       3.104 -27.283  93.845  1.00  0.00     0.240 C 
HETATM   38  N10 UNL     1       3.321 -26.896  95.201  1.00  0.00    -0.061 NA
HETATM   39  O2  UNL     1       2.037 -27.876  93.552  1.00  0.00    -0.276 OA
ENDBRANCH  36  37
ENDBRANCH  35  36
ENDBRANCH  32  35
ENDBRANCH  26  28
ENDBRANCH  20  26
ENDBRANCH  19  20
ENDBRANCH  18  19
ENDBRANCH  16  18
ENDBRANCH   1  16
BRANCH   1  40
HETATM   40  C11 UNL     1      -3.295 -23.589  98.187  1.00  0.00     0.013 A 
HETATM   41  C12 UNL     1      -3.108 -23.024  99.441  1.00  0.00     0.018 A 
HETATM   42  C13 UNL     1      -4.210 -22.689 100.182  1.00  0.00     0.040 A 
HETATM   43  C14 UNL     1      -5.501 -22.882  99.756  1.00  0.00     0.098 A 
HETATM   44  C15 UNL     1      -5.664 -23.451  98.494  1.00  0.00     0.099 A 
HETATM   45  C16 UNL     1      -4.571 -23.792  97.739  1.00  0.00     0.054 A 
BRANCH  43  46
HETATM   46  O3  UNL     1      -6.622 -22.547 100.497  1.00  0.00    -0.358 OA
ATOM     47  H3  UNL     1      -7.010 -23.108 101.159  1.00  0.00     0.217 HD
ENDBRANCH  43  46
BRANCH  44  48
HETATM   48  O4  UNL     1      -6.967 -23.663  98.025  1.00  0.00    -0.358 OA
ATOM     49  H4  UNL     1      -7.097 -23.767  97.089  1.00  0.00     0.217 HD
ENDBRANCH  44  48
ENDBRANCH   1  40
TORSDOF 17
ENDMDL
MODEL 2
REMARK VINA RESULT: -6.147302133      1.777      3.592
REMARK  17 active torsions:
REMARK  status: ('A' for Active; 'I' for Inactive)
REMARK    1  A    between atoms: C3_7  and  N3_8 
REMARK    2  A    between atoms: N3_8  and  C4_10 
REMARK    3  A    between atoms: C4_10  and  N4_11 
REMARK    4  A    between atoms: C4_10  and  C11_35 
REMARK    5  A    between atoms: N4_11  and  O1_13 
REMARK    6  A    between atoms: O1_13  and  C5_14 
REMARK    7  A    between atoms: C5_14  and  C6_15 
REMARK    8  A    between atoms: C6_15  and  N5_16 
REMARK    9  A    between atoms: C6_15  and  N7_21 
REMARK   10  A    between atoms: N5_16  and  N6_18 
REMARK   11  A    between atoms: N7_21  and  C7_23 
REMARK   12  A    between atoms: C8_28  and  S1_29 
REMARK   13  A    between atoms: S1_29  and  C9_30 
REMARK   14  A    between atoms: C9_30  and  C10_31 
REMARK   15  A    between atoms: C14_38  and  O3_39 
REMARK   16  A    between atoms: C15_41  and  O4_42 
REMARK   17  A    between atoms: C17_45  and  O5_46 
ROOT
HETATM    1  C4  UNL     1      -2.242 -24.819  97.208  1.00  0.00     0.137 C 
ENDROOT
BRANCH   1   2
HETATM    2  N3  UNL     1      -1.069 -24.104  96.977  1.00  0.00    -0.325 N 
ATOM      3  H3  UNL     1      -0.387 -24.064  97.734  1.00  0.00     0.169 HD
BRANCH   2   4
HETATM    4  C3  UNL     1      -0.777 -23.491  95.886  1.00  0.00     0.147 C 
HETATM    5  N2  UNL     1      -1.534 -22.353  95.494  1.00  0.00    -0.284 N 
HETATM    6  N1  UNL     1      -1.598 -21.926  94.162  1.00  0.00    -0.288 N 
ATOM      7  H2  UNL     1      -2.045 -21.832  96.207  1.00  0.00     0.188 HD
HETATM    8  C2  UNL     1      -0.936 -22.611  93.273  1.00  0.00     0.089 C 
ATOM      9  H1  UNL     1      -2.144 -21.106  93.897  1.00  0.00     0.188 HD
HETATM   10  C1  UNL     1      -0.947 -22.228  91.828  1.00  0.00     0.090 C 
HETATM   11  N11 UNL     1      -0.169 -23.752  93.630  1.00  0.00    -0.347 N 
HETATM   12  C17 UNL     1       0.333 -23.909  94.979  1.00  0.00     0.289 C 
ATOM     13  H11 UNL     1       0.029 -24.467  92.929  1.00  0.00     0.163 HD
BRANCH  12  14
HETATM   14  O5  UNL     1       1.351 -22.940  95.125  1.00  0.00    -0.369 OA
ATOM     15  H5  UNL     1       1.901 -23.235  95.840  1.00  0.00     0.212 HD
ENDBRANCH  12  14
ENDBRANCH   2   4
ENDBRANCH   1   2
BRANCH   1  16
HETATM   16  N4  UNL     1      -2.398 -26.027  96.805  1.00  0.00    -0.249 N 
ATOM     17  H4  UNL     1      -2.691 -26.726  97.488  1.00  0.00     0.196 HD
BRANCH  16  18
HETATM   18  O1  UNL     1      -2.195 -26.436  95.524  1.00  0.00    -0.271 OA
BRANCH  18  19
HETATM   19  C5  UNL     1      -1.048 -27.093  95.042  1.00  0.00     0.279 C 
BRANCH  19  20
HETATM   20  C6  UNL     1      -1.353 -27.510  93.627  1.00  0.00     0.124 C 
BRANCH  20  21
HETATM   21  N5  UNL     1      -2.421 -27.112  93.045  1.00  0.00    -0.294 N 
ATOM     22  H5  UNL     1      -3.240 -27.715  93.109  1.00  0.00     0.187 HD
BRANCH  21  23
HETATM   23  N6  UNL     1      -2.555 -25.934  92.339  1.00  0.00    -0.344 N 
ATOM     24  H62 UNL     1      -3.314 -25.901  91.659  1.00  0.00     0.176 HD
ATOM     25  H61 UNL     1      -1.962 -25.111  92.445  1.00  0.00     0.176 HD
ENDBRANCH  21  23
ENDBRANCH  20  21
BRANCH  20  26
HETATM   26  N7  UNL     1      -0.466 -28.349  92.908  1.00  0.00    -0.322 N 
ATOM     27  H7  UNL     1      -0.788 -29.241  92.534  1.00  0.00     0.169 HD
BRANCH  26  28
HETATM   28  C7  UNL     1       0.774 -27.963  92.729  1.00  0.00     0.167 A 
HETATM   29  N8  UNL     1       1.821 -28.172  93.535  1.00  0.00    -0.278 N 
HETATM   30  N9  UNL     1       2.956 -27.717  93.186  1.00  0.00    -0.286 N 
ATOM     31  H8  UNL     1       1.711 -28.686  94.409  1.00  0.00     0.189 HD
HETATM   32  C8  UNL     1       3.087 -27.053  92.049  1.00  0.00     0.130 A 
ATOM     33  H9  UNL     1       3.769 -27.864  93.784  1.00  0.00     0.188 HD
HETATM   34  S2  UNL     1       1.487 -27.085  91.450  1.00  0.00    -0.026 SA
BRANCH  32  35
HETATM   35  S1  UNL     1       4.588 -26.321  91.353  1.00  0.00    -0.095 SA
BRANCH  35  36
HETATM   36  C9  UNL     1       4.417 -24.530  91.455  1.00  0.00     0.180 C 
BRANCH  36  37
HETATM   37  C10 UNL     1       3.520 -24.166  92.582  1.00  0.00     0.240 C 
HETATM   38  N10 UNL     1       3.823 -24.509  93.933  1.00  0.00    -0.061 NA
HETATM   39  O2  UNL     1       2.459 -23.538  92.343  1.00  0.00    -0.276 OA
ENDBRANCH  36  37
ENDBRANCH  35  36
ENDBRANCH  32  35
ENDBRANCH  26  28
ENDBRANCH  20  26
ENDBRANCH  19  20
ENDBRANCH  18  19
ENDBRANCH  16  18
ENDBRANCH   1  16
BRANCH   1  40
HETATM   40  C11 UNL     1      -3.335 -24.193  97.931  1.00  0.00     0.013 A 
HETATM   41  C12 UNL     1      -3.077 -23.490  99.100  1.00  0.00     0.018 A 
HETATM   42  C13 UNL     1      -4.125 -22.909  99.764  1.00  0.00     0.040 A 
HETATM   43  C14 UNL     1      -5.428 -22.981  99.338  1.00  0.00     0.098 A 
HETATM   44  C15 UNL     1      -5.663 -23.692  98.162  1.00  0.00     0.099 A 
HETATM   45  C16 UNL     1      -4.624 -24.279  97.486  1.00  0.00     0.054 A 
BRANCH  43  46
HETATM   46  O3  UNL     1      -6.495 -22.398 100.000  1.00  0.00    -0.358 OA
ATOM     47  H3  UNL     1      -6.940 -22.790 100.743  1.00  0.00     0.217 HD
ENDBRANCH  43  46
BRANCH  44  48
HETATM   48  O4  UNL     1      -6.981 -23.788  97.696  1.00  0.00    -0.358 OA
ATOM     49  H4  UNL     1      -7.211 -24.527  97.145  1.00  0.00     0.217 HD
ENDBRANCH  44  48
ENDBRANCH   1  40
TORSDOF 17
ENDMDL
MODEL 3
REMARK VINA RESULT: -6.058143235      3.480      7.030
REMARK  17 active torsions:
REMARK  status: ('A' for Active; 'I' for Inactive)
REMARK    1  A    between atoms: C3_7  and  N3_8 
REMARK    2  A    between atoms: N3_8  and  C4_10 
REMARK    3  A    between atoms: C4_10  and  N4_11 
REMARK    4  A    between atoms: C4_10  and  C11_35 
REMARK    5  A    between atoms: N4_11  and  O1_13 
REMARK    6  A    between atoms: O1_13  and  C5_14 
REMARK    7  A    between atoms: C5_14  and  C6_15 
REMARK    8  A    between atoms: C6_15  and  N5_16 
REMARK    9  A    between atoms: C6_15  and  N7_21 
REMARK   10  A    between atoms: N5_16  and  N6_18 
REMARK   11  A    between atoms: N7_21  and  C7_23 
REMARK   12  A    between atoms: C8_28  and  S1_29 
REMARK   13  A    between atoms: S1_29  and  C9_30 
REMARK   14  A    between atoms: C9_30  and  C10_31 
REMARK   15  A    between atoms: C14_38  and  O3_39 
REMARK   16  A    between atoms: C15_41  and  O4_42 
REMARK   17  A    between atoms: C17_45  and  O5_46 
ROOT
HETATM    1  C4  UNL     1       0.595 -25.727  94.395  1.00  0.00     0.137 C 
ENDROOT
BRANCH   1   2
HETATM    2  N3  UNL     1       1.301 -26.388  95.398  1.00  0.00    -0.325 N 
ATOM      3  H3  UNL     1       2.026 -27.044  95.108  1.00  0.00     0.169 HD
BRANCH   2   4
HETATM    4  C3  UNL     1       1.111 -26.238  96.660  1.00  0.00     0.147 C 
HETATM    5  N2  UNL     1       2.228 -26.087  97.527  1.00  0.00    -0.284 N 
HETATM    6  N1  UNL     1       2.153 -26.379  98.894  1.00  0.00    -0.288 N 
ATOM      7  H2  UNL     1       3.112 -25.757  97.139  1.00  0.00     0.188 HD
HETATM    8  C2  UNL     1       1.012 -26.802  99.362  1.00  0.00     0.089 C 
ATOM      9  H1  UNL     1       2.962 -26.265  99.503  1.00  0.00     0.188 HD
HETATM   10  C1  UNL     1       0.839 -27.137 100.809  1.00  0.00     0.090 C 
HETATM   11  N11 UNL     1      -0.124 -26.962  98.525  1.00  0.00    -0.347 N 
HETATM   12  C17 UNL     1      -0.242 -26.212  97.291  1.00  0.00     0.289 C 
ATOM     13  H11 UNL     1      -0.864 -27.611  98.795  1.00  0.00     0.163 HD
BRANCH  12  14
HETATM   14  O5  UNL     1      -0.474 -24.873  97.678  1.00  0.00    -0.369 OA
ATOM     15  H5  UNL     1      -1.272 -24.602  97.238  1.00  0.00     0.212 HD
ENDBRANCH  12  14
ENDBRANCH   2   4
ENDBRANCH   1   2
BRANCH   1  16
HETATM   16  N4  UNL     1       0.747 -24.474  94.165  1.00  0.00    -0.249 N 
ATOM     17  H4  UNL     1       1.313 -24.201  93.362  1.00  0.00     0.196 HD
BRANCH  16  18
HETATM   18  O1  UNL     1       0.201 -23.487  94.924  1.00  0.00    -0.271 OA
BRANCH  18  19
HETATM   19  C5  UNL     1       0.437 -22.108  94.774  1.00  0.00     0.279 C 
BRANCH  19  20
HETATM   20  C6  UNL     1      -0.913 -21.439  94.755  1.00  0.00     0.124 C 
BRANCH  20  21
HETATM   21  N5  UNL     1      -1.591 -21.369  93.672  1.00  0.00    -0.294 N 
ATOM     22  H5  UNL     1      -2.407 -20.758  93.671  1.00  0.00     0.187 HD
BRANCH  21  23
HETATM   23  N6  UNL     1      -1.310 -22.052  92.507  1.00  0.00    -0.344 N 
ATOM     24  H62 UNL     1      -0.438 -21.806  92.040  1.00  0.00     0.176 HD
ATOM     25  H61 UNL     1      -1.899 -22.771  92.087  1.00  0.00     0.176 HD
ENDBRANCH  21  23
ENDBRANCH  20  21
BRANCH  20  26
HETATM   26  N7  UNL     1      -1.463 -20.876  95.933  1.00  0.00    -0.322 N 
ATOM     27  H7  UNL     1      -1.222 -19.925  96.212  1.00  0.00     0.169 HD
BRANCH  26  28
HETATM   28  C7  UNL     1      -2.286 -21.593  96.660  1.00  0.00     0.167 A 
HETATM   29  N8  UNL     1      -2.431 -22.922  96.662  1.00  0.00    -0.278 N 
HETATM   30  N9  UNL     1      -3.289 -23.438  97.446  1.00  0.00    -0.286 N 
ATOM     31  H8  UNL     1      -1.865 -23.509  96.049  1.00  0.00     0.189 HD
HETATM   32  C8  UNL     1      -4.017 -22.667  98.238  1.00  0.00     0.130 A 
ATOM     33  H9  UNL     1      -3.418 -24.450  97.464  1.00  0.00     0.188 HD
HETATM   34  S2  UNL     1      -3.433 -21.114  97.830  1.00  0.00    -0.026 SA
BRANCH  32  35
HETATM   35  S1  UNL     1      -5.285 -23.172  99.425  1.00  0.00    -0.095 SA
BRANCH  35  36
HETATM   36  C9  UNL     1      -4.451 -23.996 100.793  1.00  0.00     0.180 C 
BRANCH  36  37
HETATM   37  C10 UNL     1      -3.950 -25.326 100.361  1.00  0.00     0.240 C 
HETATM   38  N10 UNL     1      -2.621 -25.514  99.878  1.00  0.00    -0.061 NA
HETATM   39  O2  UNL     1      -4.716 -26.319 100.419  1.00  0.00    -0.276 OA
ENDBRANCH  36  37
ENDBRANCH  35  36
ENDBRANCH  32  35
ENDBRANCH  26  28
ENDBRANCH  20  26
ENDBRANCH  19  20
ENDBRANCH  18  19
ENDBRANCH  16  18
ENDBRANCH   1  16
BRANCH   1  40
HETATM   40  C11 UNL     1      -0.345 -26.466  93.572  1.00  0.00     0.013 A 
HETATM   41  C12 UNL     1      -0.222 -27.843  93.448  1.00  0.00     0.018 A 
HETATM   42  C13 UNL     1      -1.121 -28.517  92.664  1.00  0.00     0.040 A 
HETATM   43  C14 UNL     1      -2.147 -27.905  91.987  1.00  0.00     0.098 A 
HETATM   44  C15 UNL     1      -2.251 -26.523  92.126  1.00  0.00     0.099 A 
HETATM   45  C16 UNL     1      -1.359 -25.834  92.907  1.00  0.00     0.054 A 
BRANCH  43  46
HETATM   46  O3  UNL     1      -3.062 -28.576  91.192  1.00  0.00    -0.358 OA
ATOM     47  H3  UNL     1      -4.004 -28.488  91.274  1.00  0.00     0.217 HD
ENDBRANCH  43  46
BRANCH  44  48
HETATM   48  O4  UNL     1      -3.286 -25.863  91.450  1.00  0.00    -0.358 OA
ATOM     49  H4  UNL     1      -3.148 -24.961  91.186  1.00  0.00     0.217 HD
ENDBRANCH  44  48
ENDBRANCH   1  40
TORSDOF 17
ENDMDL
MODEL 4
REMARK VINA RESULT: -6.048105050      1.775      3.949
REMARK  17 active torsions:
REMARK  status: ('A' for Active; 'I' for Inactive)
REMARK    1  A    between atoms: C3_7  and  N3_8 
REMARK    2  A    between atoms: N3_8  and  C4_10 
REMARK    3  A    between atoms: C4_10  and  N4_11 
REMARK    4  A    between atoms: C4_10  and  C11_35 
REMARK    5  A    between atoms: N4_11  and  O1_13 
REMARK    6  A    between atoms: O1_13  and  C5_14 
REMARK    7  A    between atoms: C5_14  and  C6_15 
REMARK    8  A    between atoms: C6_15  and  N5_16 
REMARK    9  A    between atoms: C6_15  and  N7_21 
REMARK   10  A    between atoms: N5_16  and  N6_18 
REMARK   11  A    between atoms: N7_21  and  C7_23 
REMARK   12  A    between atoms: C8_28  and  S1_29 
REMARK   13  A    between atoms: S1_29  and  C9_30 
REMARK   14  A    between atoms: C9_30  and  C10_31 
REMARK   15  A    between atoms: C14_38  and  O3_39 
REMARK   16  A    between atoms: C15_41  and  O4_42 
REMARK   17  A    between atoms: C17_45  and  O5_46 
ROOT
HETATM    1  C4  UNL     1      -2.467 -24.731  97.036  1.00  0.00     0.137 C 
ENDROOT
BRANCH   1   2
HETATM    2  N3  UNL     1      -2.608 -24.816  95.652  1.00  0.00    -0.325 N 
ATOM      3  H3  UNL     1      -3.369 -25.393  95.292  1.00  0.00     0.169 HD
BRANCH   2   4
HETATM    4  C3  UNL     1      -1.857 -24.227  94.792  1.00  0.00     0.147 C 
HETATM    5  N2  UNL     1      -1.604 -22.834  94.918  1.00  0.00    -0.284 N 
HETATM    6  N1  UNL     1      -1.210 -22.049  93.827  1.00  0.00    -0.288 N 
ATOM      7  H2  UNL     1      -1.712 -22.393  95.831  1.00  0.00     0.188 HD
HETATM    8  C2  UNL     1      -1.080 -22.638  92.672  1.00  0.00     0.089 C 
ATOM      9  H1  UNL     1      -1.030 -21.051  93.933  1.00  0.00     0.188 HD
HETATM   10  C1  UNL     1      -0.665 -21.879  91.453  1.00  0.00     0.090 C 
HETATM   11  N11 UNL     1      -1.324 -24.027  92.511  1.00  0.00    -0.347 N 
HETATM   12  C17 UNL     1      -1.218 -24.929  93.640  1.00  0.00     0.289 C 
ATOM     13  H11 UNL     1      -1.576 -24.394  91.593  1.00  0.00     0.163 HD
BRANCH  12  14
HETATM   14  O5  UNL     1       0.161 -25.008  93.938  1.00  0.00    -0.369 OA
ATOM     15  H5  UNL     1       0.247 -25.646  94.638  1.00  0.00     0.212 HD
ENDBRANCH  12  14
ENDBRANCH   2   4
ENDBRANCH   1   2
BRANCH   1  16
HETATM   16  N4  UNL     1      -1.432 -25.181  97.646  1.00  0.00    -0.249 N 
ATOM     17  H4  UNL     1      -0.671 -24.530  97.839  1.00  0.00     0.196 HD
BRANCH  16  18
HETATM   18  O1  UNL     1      -1.285 -26.471  98.052  1.00  0.00    -0.271 OA
BRANCH  18  19
HETATM   19  C5  UNL     1      -0.106 -27.043  98.563  1.00  0.00     0.279 C 
BRANCH  19  20
HETATM   20  C6  UNL     1       0.752 -27.395  97.376  1.00  0.00     0.124 C 
BRANCH  20  21
HETATM   21  N5  UNL     1       0.292 -28.127  96.433  1.00  0.00    -0.294 N 
ATOM     22  H5  UNL     1       0.570 -29.107  96.425  1.00  0.00     0.187 HD
BRANCH  21  23
HETATM   23  N6  UNL     1      -0.548 -27.699  95.426  1.00  0.00    -0.344 N 
ATOM     24  H62 UNL     1      -0.628 -26.690  95.304  1.00  0.00     0.176 HD
ATOM     25  H61 UNL     1      -1.084 -28.306  94.806  1.00  0.00     0.176 HD
ENDBRANCH  21  23
ENDBRANCH  20  21
BRANCH  20  26
HETATM   26  N7  UNL     1       2.084 -26.922  97.276  1.00  0.00    -0.322 N 
ATOM     27  H7  UNL     1       2.656 -26.810  98.112  1.00  0.00     0.169 HD
BRANCH  26  28
HETATM   28  C7  UNL     1       2.571 -26.631  96.094  1.00  0.00     0.167 A 
HETATM   29  N8  UNL     1       2.594 -25.439  95.488  1.00  0.00    -0.278 N 
HETATM   30  N9  UNL     1       3.115 -25.356  94.331  1.00  0.00    -0.286 N 
ATOM     31  H8  UNL     1       2.201 -24.616  95.944  1.00  0.00     0.189 HD
HETATM   32  C8  UNL     1       3.622 -26.432  93.750  1.00  0.00     0.130 A 
ATOM     33  H9  UNL     1       3.143 -24.458  93.849  1.00  0.00     0.188 HD
HETATM   34  S2  UNL     1       3.330 -27.628  94.934  1.00  0.00    -0.026 SA
BRANCH  32  35
HETATM   35  S1  UNL     1       4.409 -26.552  92.125  1.00  0.00    -0.095 SA
BRANCH  35  36
HETATM   36  C9  UNL     1       3.121 -26.945  90.927  1.00  0.00     0.180 C 
BRANCH  36  37
HETATM   37  C10 UNL     1       1.834 -26.329  91.339  1.00  0.00     0.240 C 
HETATM   38  N10 UNL     1       1.646 -24.915  91.365  1.00  0.00    -0.061 NA
HETATM   39  O2  UNL     1       0.879 -27.070  91.676  1.00  0.00    -0.276 OA
ENDBRANCH  36  37
ENDBRANCH  35  36
ENDBRANCH  32  35
ENDBRANCH  26  28
ENDBRANCH  20  26
ENDBRANCH  19  20
ENDBRANCH  18  19
ENDBRANCH  16  18
ENDBRANCH   1  16
BRANCH   1  40
HETATM   40  C11 UNL     1      -3.516 -24.114  97.828  1.00  0.00     0.013 A 
HETATM   41  C12 UNL     1      -3.188 -23.410  98.979  1.00  0.00     0.018 A 
HETATM   42  C13 UNL     1      -4.196 -22.838  99.709  1.00  0.00     0.040 A 
HETATM   43  C14 UNL     1      -5.524 -22.920  99.368  1.00  0.00     0.098 A 
HETATM   44  C15 UNL     1      -5.828 -23.631  98.209  1.00  0.00     0.099 A 
HETATM   45  C16 UNL     1      -4.830 -24.210  97.466  1.00  0.00     0.054 A 
BRANCH  43  46
HETATM   46  O3  UNL     1      -6.550 -22.345 100.099  1.00  0.00    -0.358 OA
ATOM     47  H3  UNL     1      -6.609 -21.418 100.298  1.00  0.00     0.217 HD
ENDBRANCH  43  46
BRANCH  44  48
HETATM   48  O4  UNL     1      -7.172 -23.736  97.828  1.00  0.00    -0.358 OA
ATOM     49  H4  UNL     1      -7.585 -24.592  97.865  1.00  0.00     0.217 HD
ENDBRANCH  44  48
ENDBRANCH   1  40
TORSDOF 17
ENDMDL
MODEL 5
REMARK VINA RESULT: -6.038343381      2.024      3.631
REMARK  17 active torsions:
REMARK  status: ('A' for Active; 'I' for Inactive)
REMARK    1  A    between atoms: C3_7  and  N3_8 
REMARK    2  A    between atoms: N3_8  and  C4_10 
REMARK    3  A    between atoms: C4_10  and  N4_11 
REMARK    4  A    between atoms: C4_10  and  C11_35 
REMARK    5  A    between atoms: N4_11  and  O1_13 
REMARK    6  A    between atoms: O1_13  and  C5_14 
REMARK    7  A    between atoms: C5_14  and  C6_15 
REMARK    8  A    between atoms: C6_15  and  N5_16 
REMARK    9  A    between atoms: C6_15  and  N7_21 
REMARK   10  A    between atoms: N5_16  and  N6_18 
REMARK   11  A    between atoms: N7_21  and  C7_23 
REMARK   12  A    between atoms: C8_28  and  S1_29 
REMARK   13  A    between atoms: S1_29  and  C9_30 
REMARK   14  A    between atoms: C9_30  and  C10_31 
REMARK   15  A    between atoms: C14_38  and  O3_39 
REMARK   16  A    between atoms: C15_41  and  O4_42 
REMARK   17  A    between atoms: C17_45  and  O5_46 
ROOT
HETATM    1  C4  UNL     1      -1.925 -23.464  97.313  1.00  0.00     0.137 C 
ENDROOT
BRANCH   1   2
HETATM    2  N3  UNL     1      -2.115 -23.489  95.933  1.00  0.00    -0.325 N 
ATOM      3  H3  UNL     1      -2.518 -22.658  95.499  1.00  0.00     0.169 HD
BRANCH   2   4
HETATM    4  C3  UNL     1      -1.823 -24.474  95.162  1.00  0.00     0.147 C 
HETATM    5  N2  UNL     1      -1.024 -24.251  94.007  1.00  0.00    -0.284 N 
HETATM    6  N1  UNL     1      -1.047 -25.121  92.909  1.00  0.00    -0.288 N 
ATOM      7  H2  UNL     1      -0.417 -23.432  93.977  1.00  0.00     0.188 HD
HETATM    8  C2  UNL     1      -1.833 -26.158  92.973  1.00  0.00     0.089 C 
ATOM      9  H1  UNL     1      -0.467 -24.948  92.088  1.00  0.00     0.188 HD
HETATM   10  C1  UNL     1      -1.922 -27.139  91.848  1.00  0.00     0.090 C 
HETATM   11  N11 UNL     1      -2.643 -26.412  94.112  1.00  0.00    -0.347 N 
HETATM   12  C17 UNL     1      -2.279 -25.874  95.408  1.00  0.00     0.289 C 
ATOM     13  H11 UNL     1      -3.486 -26.977  94.017  1.00  0.00     0.163 HD
BRANCH  12  14
HETATM   14  O5  UNL     1      -1.138 -26.599  95.817  1.00  0.00    -0.369 OA
ATOM     15  H5  UNL     1      -0.520 -26.555  95.096  1.00  0.00     0.212 HD
ENDBRANCH  12  14
ENDBRANCH   2   4
ENDBRANCH   1   2
BRANCH   1  16
HETATM   16  N4  UNL     1      -0.760 -23.551  97.844  1.00  0.00    -0.249 N 
ATOM     17  H4  UNL     1      -0.349 -22.702  98.235  1.00  0.00     0.196 HD
BRANCH  16  18
HETATM   18  O1  UNL     1      -0.039 -24.700  97.919  1.00  0.00    -0.271 OA
BRANCH  18  19
HETATM   19  C5  UNL     1       1.346 -24.818  97.701  1.00  0.00     0.279 C 
BRANCH  19  20
HETATM   20  C6  UNL     1       1.666 -26.289  97.747  1.00  0.00     0.124 C 
BRANCH  20  21
HETATM   21  N5  UNL     1       1.075 -27.060  98.581  1.00  0.00    -0.294 N 
ATOM     22  H5  UNL     1       1.531 -27.213  99.480  1.00  0.00     0.187 HD
BRANCH  21  23
HETATM   23  N6  UNL     1      -0.127 -27.700  98.364  1.00  0.00    -0.344 N 
ATOM     24  H62 UNL     1      -0.072 -28.646  97.989  1.00  0.00     0.176 HD
ATOM     25  H61 UNL     1      -1.049 -27.304  98.548  1.00  0.00     0.176 HD
ENDBRANCH  21  23
ENDBRANCH  20  21
BRANCH  20  26
HETATM   26  N7  UNL     1       2.624 -26.854  96.870  1.00  0.00    -0.322 N 
ATOM     27  H7  UNL     1       3.541 -27.135  97.217  1.00  0.00     0.169 HD
BRANCH  26  28
HETATM   28  C7  UNL     1       2.317 -27.011  95.605  1.00  0.00     0.167 A 
HETATM   29  N8  UNL     1       1.326 -27.746  95.088  1.00  0.00    -0.278 N 
HETATM   30  N9  UNL     1       1.186 -27.773  93.824  1.00  0.00    -0.286 N 
ATOM     31  H8  UNL     1       0.697 -28.273  95.694  1.00  0.00     0.189 HD
HETATM   32  C8  UNL     1       2.007 -27.084  93.048  1.00  0.00     0.130 A 
ATOM     33  H9  UNL     1       0.438 -28.327  93.407  1.00  0.00     0.188 HD
HETATM   34  S2  UNL     1       3.038 -26.360  94.201  1.00  0.00    -0.026 SA
BRANCH  32  35
HETATM   35  S1  UNL     1       1.999 -26.971  91.242  1.00  0.00    -0.095 SA
BRANCH  35  36
HETATM   36  C9  UNL     1       3.079 -25.605  90.779  1.00  0.00     0.180 C 
BRANCH  36  37
HETATM   37  C10 UNL     1       2.377 -24.310  90.973  1.00  0.00     0.240 C 
HETATM   38  N10 UNL     1       2.929 -23.075  90.521  1.00  0.00    -0.061 NA
HETATM   39  O2  UNL     1       1.264 -24.296  91.553  1.00  0.00    -0.276 OA
ENDBRANCH  36  37
ENDBRANCH  35  36
ENDBRANCH  32  35
ENDBRANCH  26  28
ENDBRANCH  20  26
ENDBRANCH  19  20
ENDBRANCH  18  19
ENDBRANCH  16  18
ENDBRANCH   1  16
BRANCH   1  40
HETATM   40  C11 UNL     1      -3.072 -23.334  98.194  1.00  0.00     0.013 A 
HETATM   41  C12 UNL     1      -2.885 -22.995  99.527  1.00  0.00     0.018 A 
HETATM   42  C13 UNL     1      -3.983 -22.880 100.337  1.00  0.00     0.040 A 
HETATM   43  C14 UNL     1      -5.271 -23.081  99.906  1.00  0.00     0.098 A 
HETATM   44  C15 UNL     1      -5.434 -23.420  98.564  1.00  0.00     0.099 A 
HETATM   45  C16 UNL     1      -4.345 -23.539  97.739  1.00  0.00     0.054 A 
BRANCH  43  46
HETATM   46  O3  UNL     1      -6.388 -22.967 100.715  1.00  0.00    -0.358 OA
ATOM     47  H3  UNL     1      -6.794 -22.141 100.950  1.00  0.00     0.217 HD
ENDBRANCH  43  46
BRANCH  44  48
HETATM   48  O4  UNL     1      -6.734 -23.633  98.086  1.00  0.00    -0.358 OA
ATOM     49  H4  UNL     1      -7.142 -22.948  97.569  1.00  0.00     0.217 HD
ENDBRANCH  44  48
ENDBRANCH   1  40
TORSDOF 17
ENDMDL
