MODEL 1
REMARK VINA RESULT: -7.686472416      0.000      0.000
REMARK  5 active torsions:
REMARK  status: ('A' for Active; 'I' for Inactive)
REMARK    1  A    between atoms: N1_1  and  C1_4 
REMARK    2  A    between atoms: C3_6  and  C4_7 
REMARK    3  A    between atoms: C11_16  and  N3_17 
REMARK    4  A    between atoms: N3_17  and  C12_19 
REMARK    5  A    between atoms: C12_19  and  C13_20 
ROOT
HETATM    1  C1  UNL     1      31.560 -15.171  18.583  1.00  0.00     0.056 A 
HETATM    2  C2  UNL     1      32.644 -15.747  17.958  1.00  0.00     0.061 A 
HETATM    3  C3  UNL     1      32.692 -17.098  17.605  1.00  0.00     0.044 A 
HETATM    4  N2  UNL     1      31.602 -17.813  17.918  1.00  0.00    -0.363 N 
ATOM      5  H2  UNL     1      31.589 -18.805  17.683  1.00  0.00     0.165 HD
HETATM    6  C10 UNL     1      30.511 -17.281  18.536  1.00  0.00     0.119 A 
HETATM    7  C11 UNL     1      30.483 -15.960  18.872  1.00  0.00     0.070 A 
ENDROOT
BRANCH   7   8
HETATM    8  N3  UNL     1      29.335 -15.424  19.516  1.00  0.00    -0.381 N 
ATOM      9  H3  UNL     1      28.764 -14.730  19.033  1.00  0.00     0.160 HD
BRANCH   8  10
HETATM   10  C12 UNL     1      28.967 -15.852  20.848  1.00  0.00     0.184 C 
BRANCH  10  11
HETATM   11  C13 UNL     1      30.093 -15.602  21.791  1.00  0.00     0.070 A 
HETATM   12  C14 UNL     1      30.819 -16.478  22.561  1.00  0.00     0.036 A 
HETATM   13  C15 UNL     1      31.774 -15.752  23.283  1.00  0.00     0.027 A 
HETATM   14  C16 UNL     1      31.566 -14.450  22.903  1.00  0.00     0.142 A 
HETATM   15  O1  UNL     1      30.598 -14.389  22.047  1.00  0.00    -0.325 OA
ENDBRANCH  10  11
ENDBRANCH   8  10
ENDBRANCH   7   8
BRANCH   1  16
HETATM   16  N1  UNL     1      31.547 -13.934  18.891  1.00  0.00    -0.397 N 
ATOM     17  H12 UNL     1      30.776 -13.552  19.438  1.00  0.00     0.156 HD
ATOM     18  H11 UNL     1      32.296 -13.304  18.604  1.00  0.00     0.156 HD
ENDBRANCH   1  16
BRANCH   3  19
HETATM   19  C4  UNL     1      33.854 -17.661  16.948  1.00  0.00    -0.009 A 
HETATM   20  C5  UNL     1      33.759 -18.868  16.289  1.00  0.00     0.013 A 
HETATM   21  C6  UNL     1      34.875 -19.425  15.648  1.00  0.00     0.001 A 
HETATM   22  C7  UNL     1      36.081 -18.799  15.655  1.00  0.00     0.000 A 
HETATM   23  C8  UNL     1      36.201 -17.599  16.302  1.00  0.00     0.001 A 
HETATM   24  C9  UNL     1      35.079 -17.052  16.939  1.00  0.00     0.013 A 
ENDBRANCH   3  19
TORSDOF 5
ENDMDL
MODEL 2
REMARK VINA RESULT: -7.681957627      0.187      1.063
REMARK  5 active torsions:
REMARK  status: ('A' for Active; 'I' for Inactive)
REMARK    1  A    between atoms: N1_1  and  C1_4 
REMARK    2  A    between atoms: C3_6  and  C4_7 
REMARK    3  A    between atoms: C11_16  and  N3_17 
REMARK    4  A    between atoms: N3_17  and  C12_19 
REMARK    5  A    between atoms: C12_19  and  C13_20 
ROOT
HETATM    1  C1  UNL     1      31.419 -15.261  18.615  1.00  0.00     0.056 A 
HETATM    2  C2  UNL     1      32.498 -15.840  17.983  1.00  0.00     0.061 A 
HETATM    3  C3  UNL     1      32.520 -17.178  17.584  1.00  0.00     0.044 A 
HETATM    4  N2  UNL     1      31.411 -17.879  17.859  1.00  0.00    -0.363 N 
ATOM      5  H2  UNL     1      31.379 -18.862  17.589  1.00  0.00     0.165 HD
HETATM    6  C10 UNL     1      30.325 -17.344  18.482  1.00  0.00     0.119 A 
HETATM    7  C11 UNL     1      30.321 -16.035  18.864  1.00  0.00     0.070 A 
ENDROOT
BRANCH   7   8
HETATM    8  N3  UNL     1      29.178 -15.496  19.512  1.00  0.00    -0.381 N 
ATOM      9  H3  UNL     1      28.610 -14.796  19.034  1.00  0.00     0.160 HD
BRANCH   8  10
HETATM   10  C12 UNL     1      28.809 -15.929  20.842  1.00  0.00     0.184 C 
BRANCH  10  11
HETATM   11  C13 UNL     1      29.948 -15.718  21.780  1.00  0.00     0.070 A 
HETATM   12  C14 UNL     1      30.668 -16.622  22.522  1.00  0.00     0.036 A 
HETATM   13  C15 UNL     1      31.642 -15.927  23.250  1.00  0.00     0.027 A 
HETATM   14  C16 UNL     1      31.451 -14.614  22.901  1.00  0.00     0.142 A 
HETATM   15  O1  UNL     1      30.475 -14.519  22.057  1.00  0.00    -0.325 OA
ENDBRANCH  10  11
ENDBRANCH   8  10
ENDBRANCH   7   8
BRANCH   1  16
HETATM   16  N1  UNL     1      31.430 -14.036  18.966  1.00  0.00    -0.397 N 
ATOM     17  H12 UNL     1      31.767 -13.322  18.320  1.00  0.00     0.156 HD
ATOM     18  H11 UNL     1      31.105 -13.741  19.887  1.00  0.00     0.156 HD
ENDBRANCH   1  16
BRANCH   3  19
HETATM   19  C4  UNL     1      33.678 -17.745  16.921  1.00  0.00    -0.009 A 
HETATM   20  C5  UNL     1      34.905 -17.123  17.022  1.00  0.00     0.013 A 
HETATM   21  C6  UNL     1      36.034 -17.661  16.387  1.00  0.00     0.001 A 
HETATM   22  C7  UNL     1      35.959 -18.803  15.655  1.00  0.00     0.000 A 
HETATM   23  C8  UNL     1      34.752 -19.438  15.541  1.00  0.00     0.001 A 
HETATM   24  C9  UNL     1      33.630 -18.893  16.180  1.00  0.00     0.013 A 
ENDBRANCH   3  19
TORSDOF 5
ENDMDL
MODEL 3
REMARK VINA RESULT: -7.616487189      1.097      1.834
REMARK  5 active torsions:
REMARK  status: ('A' for Active; 'I' for Inactive)
REMARK    1  A    between atoms: N1_1  and  C1_4 
REMARK    2  A    between atoms: C3_6  and  C4_7 
REMARK    3  A    between atoms: C11_16  and  N3_17 
REMARK    4  A    between atoms: N3_17  and  C12_19 
REMARK    5  A    between atoms: C12_19  and  C13_20 
ROOT
HETATM    1  C1  UNL     1      30.717 -18.290  18.317  1.00  0.00     0.056 A 
HETATM    2  C2  UNL     1      31.961 -18.528  17.775  1.00  0.00     0.061 A 
HETATM    3  C3  UNL     1      32.825 -17.507  17.371  1.00  0.00     0.044 A 
HETATM    4  N2  UNL     1      32.364 -16.260  17.545  1.00  0.00    -0.363 N 
ATOM      5  H2  UNL     1      32.958 -15.480  17.265  1.00  0.00     0.165 HD
HETATM    6  C10 UNL     1      31.141 -15.984  18.077  1.00  0.00     0.119 A 
HETATM    7  C11 UNL     1      30.311 -16.994  18.465  1.00  0.00     0.070 A 
ENDROOT
BRANCH   7   8
HETATM    8  N3  UNL     1      29.040 -16.683  19.018  1.00  0.00    -0.381 N 
ATOM      9  H3  UNL     1      28.239 -17.280  18.808  1.00  0.00     0.160 HD
BRANCH   8  10
HETATM   10  C12 UNL     1      28.867 -15.531  19.874  1.00  0.00     0.184 C 
BRANCH  10  11
HETATM   11  C13 UNL     1      29.589 -15.741  21.161  1.00  0.00     0.070 A 
HETATM   12  C14 UNL     1      29.815 -16.891  21.877  1.00  0.00     0.036 A 
HETATM   13  C15 UNL     1      30.546 -16.566  23.026  1.00  0.00     0.027 A 
HETATM   14  C16 UNL     1      30.724 -15.208  22.939  1.00  0.00     0.142 A 
HETATM   15  O1  UNL     1      30.168 -14.758  21.862  1.00  0.00    -0.325 OA
ENDBRANCH  10  11
ENDBRANCH   8  10
ENDBRANCH   7   8
BRANCH   1  16
HETATM   16  N1  UNL     1      29.952 -19.244  18.676  1.00  0.00    -0.397 N 
ATOM     17  H12 UNL     1      30.169 -19.788  19.511  1.00  0.00     0.156 HD
ATOM     18  H11 UNL     1      29.113 -19.484  18.147  1.00  0.00     0.156 HD
ENDBRANCH   1  16
BRANCH   3  19
HETATM   19  C4  UNL     1      34.126 -17.805  16.806  1.00  0.00    -0.009 A 
HETATM   20  C5  UNL     1      34.335 -18.995  16.140  1.00  0.00     0.013 A 
HETATM   21  C6  UNL     1      35.588 -19.296  15.587  1.00  0.00     0.001 A 
HETATM   22  C7  UNL     1      36.632 -18.432  15.687  1.00  0.00     0.000 A 
HETATM   23  C8  UNL     1      36.449 -17.244  16.342  1.00  0.00     0.001 A 
HETATM   24  C9  UNL     1      35.193 -16.954  16.891  1.00  0.00     0.013 A 
ENDBRANCH   3  19
TORSDOF 5
ENDMDL
MODEL 4
REMARK VINA RESULT: -7.604271729      1.104      2.108
REMARK  5 active torsions:
REMARK  status: ('A' for Active; 'I' for Inactive)
REMARK    1  A    between atoms: N1_1  and  C1_4 
REMARK    2  A    between atoms: C3_6  and  C4_7 
REMARK    3  A    between atoms: C11_16  and  N3_17 
REMARK    4  A    between atoms: N3_17  and  C12_19 
REMARK    5  A    between atoms: C12_19  and  C13_20 
ROOT
HETATM    1  C1  UNL     1      30.658 -18.295  18.340  1.00  0.00     0.056 A 
HETATM    2  C2  UNL     1      31.896 -18.550  17.793  1.00  0.00     0.061 A 
HETATM    3  C3  UNL     1      32.759 -17.543  17.357  1.00  0.00     0.044 A 
HETATM    4  N2  UNL     1      32.303 -16.290  17.504  1.00  0.00    -0.363 N 
ATOM      5  H2  UNL     1      32.896 -15.519  17.199  1.00  0.00     0.165 HD
HETATM    6  C10 UNL     1      31.086 -15.997  18.039  1.00  0.00     0.119 A 
HETATM    7  C11 UNL     1      30.257 -16.995  18.460  1.00  0.00     0.070 A 
ENDROOT
BRANCH   7   8
HETATM    8  N3  UNL     1      28.991 -16.667  19.016  1.00  0.00    -0.381 N 
ATOM      9  H3  UNL     1      28.182 -17.254  18.810  1.00  0.00     0.160 HD
BRANCH   8  10
HETATM   10  C12 UNL     1      28.836 -15.511  19.871  1.00  0.00     0.184 C 
BRANCH  10  11
HETATM   11  C13 UNL     1      29.560 -15.728  21.156  1.00  0.00     0.070 A 
HETATM   12  C14 UNL     1      29.775 -16.880  21.872  1.00  0.00     0.036 A 
HETATM   13  C15 UNL     1      30.513 -16.563  23.018  1.00  0.00     0.027 A 
HETATM   14  C16 UNL     1      30.706 -15.208  22.931  1.00  0.00     0.142 A 
HETATM   15  O1  UNL     1      30.151 -14.752  21.854  1.00  0.00    -0.325 OA
ENDBRANCH  10  11
ENDBRANCH   8  10
ENDBRANCH   7   8
BRANCH   1  16
HETATM   16  N1  UNL     1      29.893 -19.238  18.729  1.00  0.00    -0.397 N 
ATOM     17  H12 UNL     1      29.926 -20.146  18.267  1.00  0.00     0.156 HD
ATOM     18  H11 UNL     1      29.240 -19.111  19.503  1.00  0.00     0.156 HD
ENDBRANCH   1  16
BRANCH   3  19
HETATM   19  C4  UNL     1      34.054 -17.858  16.787  1.00  0.00    -0.009 A 
HETATM   20  C5  UNL     1      35.092 -16.955  16.886  1.00  0.00     0.013 A 
HETATM   21  C6  UNL     1      36.350 -17.247  16.340  1.00  0.00     0.001 A 
HETATM   22  C7  UNL     1      36.589 -18.421  15.699  1.00  0.00     0.000 A 
HETATM   23  C8  UNL     1      35.575 -19.334  15.588  1.00  0.00     0.001 A 
HETATM   24  C9  UNL     1      34.322 -19.032  16.137  1.00  0.00     0.013 A 
ENDBRANCH   3  19
TORSDOF 5
ENDMDL
MODEL 5
REMARK VINA RESULT: -7.602317535      1.377      1.873
REMARK  5 active torsions:
REMARK  status: ('A' for Active; 'I' for Inactive)
REMARK    1  A    between atoms: N1_1  and  C1_4 
REMARK    2  A    between atoms: C3_6  and  C4_7 
REMARK    3  A    between atoms: C11_16  and  N3_17 
REMARK    4  A    between atoms: N3_17  and  C12_19 
REMARK    5  A    between atoms: C12_19  and  C13_20 
ROOT
HETATM    1  C1  UNL     1      32.084 -16.423  18.051  1.00  0.00     0.056 A 
HETATM    2  C2  UNL     1      33.361 -16.465  17.536  1.00  0.00     0.061 A 
HETATM    3  C3  UNL     1      33.950 -17.636  17.055  1.00  0.00     0.044 A 
HETATM    4  N2  UNL     1      33.187 -18.736  17.126  1.00  0.00    -0.363 N 
ATOM      5  H2  UNL     1      33.574 -19.617  16.788  1.00  0.00     0.165 HD
HETATM    6  C10 UNL     1      31.922 -18.736  17.628  1.00  0.00     0.119 A 
HETATM    7  C11 UNL     1      31.363 -17.582  18.094  1.00  0.00     0.070 A 
ENDROOT
BRANCH   7   8
HETATM    8  N3  UNL     1      30.041 -17.603  18.613  1.00  0.00    -0.381 N 
ATOM      9  H3  UNL     1      29.290 -17.136  18.103  1.00  0.00     0.160 HD
BRANCH   8  10
HETATM   10  C12 UNL     1      29.746 -18.279  19.858  1.00  0.00     0.184 C 
BRANCH  10  11
HETATM   11  C13 UNL     1      30.077 -17.393  21.009  1.00  0.00     0.070 A 
HETATM   12  C14 UNL     1      30.602 -17.695  22.241  1.00  0.00     0.036 A 
HETATM   13  C15 UNL     1      30.729 -16.510  22.976  1.00  0.00     0.027 A 
HETATM   14  C16 UNL     1      30.261 -15.537  22.129  1.00  0.00     0.142 A 
HETATM   15  O1  UNL     1      29.894 -16.067  21.008  1.00  0.00    -0.325 OA
ENDBRANCH  10  11
ENDBRANCH   8  10
ENDBRANCH   7   8
BRANCH   1  16
HETATM   16  N1  UNL     1      31.574 -15.337  18.482  1.00  0.00    -0.397 N 
ATOM     17  H12 UNL     1      30.903 -14.825  17.910  1.00  0.00     0.156 HD
ATOM     18  H11 UNL     1      31.818 -14.959  19.398  1.00  0.00     0.156 HD
ENDBRANCH   1  16
BRANCH   3  19
HETATM   19  C4  UNL     1      35.298 -17.633  16.521  1.00  0.00    -0.009 A 
HETATM   20  C5  UNL     1      35.820 -18.777  15.955  1.00  0.00     0.013 A 
HETATM   21  C6  UNL     1      37.122 -18.789  15.434  1.00  0.00     0.001 A 
HETATM   22  C7  UNL     1      37.909 -17.682  15.468  1.00  0.00     0.000 A 
HETATM   23  C8  UNL     1      37.413 -16.534  16.024  1.00  0.00     0.001 A 
HETATM   24  C9  UNL     1      36.110 -16.533  16.542  1.00  0.00     0.013 A 
ENDBRANCH   3  19
TORSDOF 5
ENDMDL
