MODEL 1
REMARK VINA RESULT: -7.760454968      0.000      0.000
REMARK  4 active torsions:
REMARK  status: ('A' for Active; 'I' for Inactive)
REMARK    1  A    between atoms: C5_8  and  C6_9 
REMARK    2  A    between atoms: C6_9  and  N3_10 
REMARK    3  A    between atoms: N3_10  and  C7_12 
REMARK    4  A    between atoms: C9_18  and  C10_19 
ROOT
HETATM    1  N1  UNL     1      30.931 -20.153  17.265  1.00  0.00    -0.191 NA
HETATM    2  C1  UNL     1      31.875 -19.580  16.964  1.00  0.00     0.101 C 
HETATM    3  C2  UNL     1      33.073 -18.838  16.620  1.00  0.00     0.069 A 
HETATM    4  C3  UNL     1      34.293 -19.378  16.315  1.00  0.00     0.111 A 
HETATM    5  N2  UNL     1      35.136 -18.379  16.127  1.00  0.00    -0.373 N 
ATOM      6  H2  UNL     1      36.122 -18.473  15.883  1.00  0.00     0.164 HD
HETATM    7  C4  UNL     1      34.473 -17.197  16.313  1.00  0.00     0.098 A 
HETATM    8  C5  UNL     1      33.170 -17.464  16.625  1.00  0.00    -0.003 A 
ENDROOT
BRANCH   8   9
HETATM    9  C6  UNL     1      32.049 -16.519  16.684  1.00  0.00     0.161 C 
BRANCH   9  10
HETATM   10  N3  UNL     1      31.758 -16.097  18.050  1.00  0.00    -0.383 N 
ATOM     11  H3  UNL     1      32.156 -15.220  18.387  1.00  0.00     0.160 HD
BRANCH  10  12
HETATM   12  C7  UNL     1      30.942 -16.859  18.925  1.00  0.00     0.074 A 
HETATM   13  C8  UNL     1      29.561 -17.033  18.691  1.00  0.00     0.138 A 
HETATM   14  N4  UNL     1      29.053 -17.735  19.685  1.00  0.00    -0.309 N 
HETATM   15  N5  UNL     1      30.016 -18.022  20.526  1.00  0.00    -0.298 N 
ATOM     16  H4  UNL     1      28.075 -18.009  19.783  1.00  0.00     0.186 HD
HETATM   17  C9  UNL     1      31.209 -17.477  20.066  1.00  0.00     0.086 A 
ATOM     18  H5  UNL     1      29.907 -18.560  21.385  1.00  0.00     0.187 HD
BRANCH  17  19
HETATM   19  C10 UNL     1      32.469 -17.688  20.790  1.00  0.00    -0.006 A 
HETATM   20  C11 UNL     1      32.617 -17.347  22.141  1.00  0.00     0.014 A 
HETATM   21  C12 UNL     1      33.742 -17.546  22.853  1.00  0.00     0.001 A 
HETATM   22  C13 UNL     1      34.865 -18.120  22.267  1.00  0.00     0.000 A 
HETATM   23  C14 UNL     1      34.793 -18.474  20.936  1.00  0.00     0.001 A 
HETATM   24  C15 UNL     1      33.575 -18.257  20.199  1.00  0.00     0.014 A 
ENDBRANCH  17  19
ENDBRANCH  10  12
ENDBRANCH   9  10
ENDBRANCH   8   9
TORSDOF 4
ENDMDL
MODEL 2
REMARK VINA RESULT: -7.736746018      0.121      1.063
REMARK  4 active torsions:
REMARK  status: ('A' for Active; 'I' for Inactive)
REMARK    1  A    between atoms: C5_8  and  C6_9 
REMARK    2  A    between atoms: C6_9  and  N3_10 
REMARK    3  A    between atoms: N3_10  and  C7_12 
REMARK    4  A    between atoms: C9_18  and  C10_19 
ROOT
HETATM    1  N1  UNL     1      30.936 -20.032  17.201  1.00  0.00    -0.191 NA
HETATM    2  C1  UNL     1      31.893 -19.455  16.950  1.00  0.00     0.101 C 
HETATM    3  C2  UNL     1      33.106 -18.709  16.671  1.00  0.00     0.069 A 
HETATM    4  C3  UNL     1      34.333 -19.246  16.392  1.00  0.00     0.111 A 
HETATM    5  N2  UNL     1      35.186 -18.246  16.264  1.00  0.00    -0.373 N 
ATOM      6  H2  UNL     1      36.180 -18.339  16.052  1.00  0.00     0.164 HD
HETATM    7  C4  UNL     1      34.522 -17.067  16.463  1.00  0.00     0.098 A 
HETATM    8  C5  UNL     1      33.208 -17.336  16.721  1.00  0.00    -0.003 A 
ENDROOT
BRANCH   8   9
HETATM    9  C6  UNL     1      32.090 -16.388  16.770  1.00  0.00     0.161 C 
BRANCH   9  10
HETATM   10  N3  UNL     1      31.759 -15.998  18.137  1.00  0.00    -0.383 N 
ATOM     11  H3  UNL     1      32.137 -15.124  18.503  1.00  0.00     0.160 HD
BRANCH  10  12
HETATM   12  C7  UNL     1      30.932 -16.789  18.975  1.00  0.00     0.074 A 
HETATM   13  C8  UNL     1      29.554 -16.951  18.719  1.00  0.00     0.138 A 
HETATM   14  N4  UNL     1      29.033 -17.688  19.682  1.00  0.00    -0.309 N 
HETATM   15  N5  UNL     1      29.986 -18.006  20.523  1.00  0.00    -0.298 N 
ATOM     16  H4  UNL     1      28.053 -17.962  19.759  1.00  0.00     0.186 HD
HETATM   17  C9  UNL     1      31.184 -17.449  20.096  1.00  0.00     0.086 A 
ATOM     18  H5  UNL     1      29.866 -18.575  21.361  1.00  0.00     0.187 HD
BRANCH  17  19
HETATM   19  C10 UNL     1      32.436 -17.688  20.826  1.00  0.00    -0.006 A 
HETATM   20  C11 UNL     1      33.563 -18.248  20.211  1.00  0.00     0.014 A 
HETATM   21  C12 UNL     1      34.738 -18.461  20.831  1.00  0.00     0.001 A 
HETATM   22  C13 UNL     1      34.907 -18.128  22.171  1.00  0.00     0.000 A 
HETATM   23  C14 UNL     1      33.836 -17.578  22.843  1.00  0.00     0.001 A 
HETATM   24  C15 UNL     1      32.592 -17.354  22.154  1.00  0.00     0.014 A 
ENDBRANCH  17  19
ENDBRANCH  10  12
ENDBRANCH   9  10
ENDBRANCH   8   9
TORSDOF 4
ENDMDL
MODEL 3
REMARK VINA RESULT: -7.589676625      1.516      2.617
REMARK  4 active torsions:
REMARK  status: ('A' for Active; 'I' for Inactive)
REMARK    1  A    between atoms: C5_8  and  C6_9 
REMARK    2  A    between atoms: C6_9  and  N3_10 
REMARK    3  A    between atoms: N3_10  and  C7_12 
REMARK    4  A    between atoms: C9_18  and  C10_19 
ROOT
HETATM    1  N1  UNL     1      31.991 -16.661  16.140  1.00  0.00    -0.191 NA
HETATM    2  C1  UNL     1      32.181 -17.648  16.687  1.00  0.00     0.101 C 
HETATM    3  C2  UNL     1      32.398 -18.919  17.353  1.00  0.00     0.069 A 
HETATM    4  C3  UNL     1      33.593 -19.578  17.456  1.00  0.00     0.111 A 
HETATM    5  N2  UNL     1      33.364 -20.724  18.071  1.00  0.00    -0.373 N 
ATOM      6  H2  UNL     1      34.069 -21.428  18.293  1.00  0.00     0.164 HD
HETATM    7  C4  UNL     1      32.031 -20.815  18.362  1.00  0.00     0.098 A 
HETATM    8  C5  UNL     1      31.403 -19.686  17.917  1.00  0.00    -0.003 A 
ENDROOT
BRANCH   8   9
HETATM    9  C6  UNL     1      30.033 -19.247  18.208  1.00  0.00     0.161 C 
BRANCH   9  10
HETATM   10  N3  UNL     1      29.913 -18.670  19.543  1.00  0.00    -0.383 N 
ATOM     11  H3  UNL     1      29.706 -19.288  20.327  1.00  0.00     0.160 HD
BRANCH  10  12
HETATM   12  C7  UNL     1      30.073 -17.282  19.790  1.00  0.00     0.074 A 
HETATM   13  C8  UNL     1      29.173 -16.326  19.272  1.00  0.00     0.138 A 
HETATM   14  N4  UNL     1      29.595 -15.125  19.615  1.00  0.00    -0.309 N 
HETATM   15  N5  UNL     1      30.694 -15.255  20.317  1.00  0.00    -0.298 N 
ATOM     16  H4  UNL     1      29.143 -14.243  19.374  1.00  0.00     0.186 HD
HETATM   17  C9  UNL     1      31.010 -16.603  20.435  1.00  0.00     0.086 A 
ATOM     18  H5  UNL     1      31.233 -14.487  20.715  1.00  0.00     0.187 HD
BRANCH  17  19
HETATM   19  C10 UNL     1      32.171 -17.044  21.218  1.00  0.00    -0.006 A 
HETATM   20  C11 UNL     1      33.194 -17.823  20.660  1.00  0.00     0.014 A 
HETATM   21  C12 UNL     1      34.289 -18.228  21.330  1.00  0.00     0.001 A 
HETATM   22  C13 UNL     1      34.474 -17.887  22.666  1.00  0.00     0.000 A 
HETATM   23  C14 UNL     1      33.502 -17.128  23.283  1.00  0.00     0.001 A 
HETATM   24  C15 UNL     1      32.343 -16.702  22.541  1.00  0.00     0.014 A 
ENDBRANCH  17  19
ENDBRANCH  10  12
ENDBRANCH   9  10
ENDBRANCH   8   9
TORSDOF 4
ENDMDL
MODEL 4
REMARK VINA RESULT: -7.553700026      1.727      5.017
REMARK  4 active torsions:
REMARK  status: ('A' for Active; 'I' for Inactive)
REMARK    1  A    between atoms: C5_8  and  C6_9 
REMARK    2  A    between atoms: C6_9  and  N3_10 
REMARK    3  A    between atoms: N3_10  and  C7_12 
REMARK    4  A    between atoms: C9_18  and  C10_19 
ROOT
HETATM    1  N1  UNL     1      34.464 -18.451  20.231  1.00  0.00    -0.191 NA
HETATM    2  C1  UNL     1      33.573 -18.034  20.816  1.00  0.00     0.101 C 
HETATM    3  C2  UNL     1      32.431 -17.545  21.565  1.00  0.00     0.069 A 
HETATM    4  C3  UNL     1      32.481 -16.842  22.738  1.00  0.00     0.111 A 
HETATM    5  N2  UNL     1      31.238 -16.640  23.136  1.00  0.00    -0.373 N 
ATOM      6  H2  UNL     1      30.959 -16.139  23.980  1.00  0.00     0.164 HD
HETATM    7  C4  UNL     1      30.383 -17.211  22.232  1.00  0.00     0.098 A 
HETATM    8  C5  UNL     1      31.116 -17.787  21.233  1.00  0.00    -0.003 A 
ENDROOT
BRANCH   8   9
HETATM    9  C6  UNL     1      30.631 -18.309  19.951  1.00  0.00     0.161 C 
BRANCH   9  10
HETATM   10  N3  UNL     1      30.112 -17.252  19.088  1.00  0.00    -0.383 N 
ATOM     11  H3  UNL     1      29.189 -17.370  18.669  1.00  0.00     0.160 HD
BRANCH  10  12
HETATM   12  C7  UNL     1      30.842 -16.068  18.811  1.00  0.00     0.074 A 
HETATM   13  C8  UNL     1      30.434 -14.810  19.306  1.00  0.00     0.138 A 
HETATM   14  N4  UNL     1      31.265 -13.892  18.851  1.00  0.00    -0.309 N 
HETATM   15  N5  UNL     1      32.171 -14.482  18.110  1.00  0.00    -0.298 N 
ATOM     16  H4  UNL     1      31.211 -12.892  19.043  1.00  0.00     0.186 HD
HETATM   17  C9  UNL     1      31.920 -15.847  18.072  1.00  0.00     0.086 A 
ATOM     18  H5  UNL     1      32.941 -14.011  17.635  1.00  0.00     0.187 HD
BRANCH  17  19
HETATM   19  C10 UNL     1      32.813 -16.764  17.352  1.00  0.00    -0.006 A 
HETATM   20  C11 UNL     1      34.203 -16.585  17.330  1.00  0.00     0.014 A 
HETATM   21  C12 UNL     1      35.062 -17.413  16.708  1.00  0.00     0.001 A 
HETATM   22  C13 UNL     1      34.604 -18.533  16.021  1.00  0.00     0.000 A 
HETATM   23  C14 UNL     1      33.245 -18.767  15.995  1.00  0.00     0.001 A 
HETATM   24  C15 UNL     1      32.348 -17.870  16.675  1.00  0.00     0.014 A 
ENDBRANCH  17  19
ENDBRANCH  10  12
ENDBRANCH   9  10
ENDBRANCH   8   9
TORSDOF 4
ENDMDL
MODEL 5
REMARK VINA RESULT: -7.548911279      2.449      5.510
REMARK  4 active torsions:
REMARK  status: ('A' for Active; 'I' for Inactive)
REMARK    1  A    between atoms: C5_8  and  C6_9 
REMARK    2  A    between atoms: C6_9  and  N3_10 
REMARK    3  A    between atoms: N3_10  and  C7_12 
REMARK    4  A    between atoms: C9_18  and  C10_19 
ROOT
HETATM    1  N1  UNL     1      32.046 -13.434  18.669  1.00  0.00    -0.191 NA
HETATM    2  C1  UNL     1      31.274 -14.110  19.176  1.00  0.00     0.101 C 
HETATM    3  C2  UNL     1      30.288 -14.936  19.847  1.00  0.00     0.069 A 
HETATM    4  C3  UNL     1      29.095 -15.350  19.320  1.00  0.00     0.111 A 
HETATM    5  N2  UNL     1      28.456 -16.024  20.260  1.00  0.00    -0.373 N 
ATOM      6  H2  UNL     1      27.539 -16.458  20.158  1.00  0.00     0.164 HD
HETATM    7  C4  UNL     1      29.224 -16.044  21.392  1.00  0.00     0.098 A 
HETATM    8  C5  UNL     1      30.384 -15.364  21.153  1.00  0.00    -0.003 A 
ENDROOT
BRANCH   8   9
HETATM    9  C6  UNL     1      31.589 -15.321  21.990  1.00  0.00     0.161 C 
BRANCH   9  10
HETATM   10  N3  UNL     1      31.958 -16.640  22.490  1.00  0.00    -0.383 N 
ATOM     11  H3  UNL     1      31.423 -17.040  23.261  1.00  0.00     0.160 HD
BRANCH  10  12
HETATM   12  C7  UNL     1      33.033 -17.388  21.944  1.00  0.00     0.074 A 
HETATM   13  C8  UNL     1      34.199 -17.666  22.690  1.00  0.00     0.138 A 
HETATM   14  N4  UNL     1      35.041 -18.326  21.919  1.00  0.00    -0.309 N 
HETATM   15  N5  UNL     1      34.487 -18.490  20.742  1.00  0.00    -0.298 N 
ATOM     16  H4  UNL     1      35.968 -18.654  22.192  1.00  0.00     0.186 HD
HETATM   17  C9  UNL     1      33.227 -17.905  20.740  1.00  0.00     0.086 A 
ATOM     18  H5  UNL     1      34.915 -18.971  19.952  1.00  0.00     0.187 HD
BRANCH  17  19
HETATM   19  C10 UNL     1      32.357 -17.982  19.559  1.00  0.00    -0.006 A 
HETATM   20  C11 UNL     1      31.148 -18.691  19.570  1.00  0.00     0.014 A 
HETATM   21  C12 UNL     1      30.306 -18.767  18.523  1.00  0.00     0.001 A 
HETATM   22  C13 UNL     1      30.599 -18.126  17.323  1.00  0.00     0.000 A 
HETATM   23  C14 UNL     1      31.778 -17.415  17.239  1.00  0.00     0.001 A 
HETATM   24  C15 UNL     1      32.658 -17.344  18.376  1.00  0.00     0.014 A 
ENDBRANCH  17  19
ENDBRANCH  10  12
ENDBRANCH   9  10
ENDBRANCH   8   9
TORSDOF 4
ENDMDL
