MODEL 1
REMARK VINA RESULT: -8.255434877      0.000      0.000
REMARK  5 active torsions:
REMARK  status: ('A' for Active; 'I' for Inactive)
REMARK    1  A    between atoms: N1_1  and  C1_4 
REMARK    2  A    between atoms: C3_10  and  C4_11 
REMARK    3  A    between atoms: C4_11  and  C5_12 
REMARK    4  A    between atoms: C9_16  and  O1_17 
REMARK    5  A    between atoms: O1_17  and  C10_18 
ROOT
HETATM    1  C5  UNL     1      30.955 -18.176  20.014  1.00  0.00    -0.051 A 
HETATM    2  C6  UNL     1      29.703 -18.268  19.440  1.00  0.00     0.007 A 
HETATM    3  C7  UNL     1      29.453 -17.910  18.138  1.00  0.00     0.003 A 
HETATM    4  C8  UNL     1      30.490 -17.432  17.348  1.00  0.00     0.037 A 
HETATM    5  C9  UNL     1      31.759 -17.327  17.896  1.00  0.00     0.076 A 
HETATM    6  C16 UNL     1      31.957 -17.702  19.213  1.00  0.00     0.044 A 
ENDROOT
BRANCH   1   7
HETATM    7  C4  UNL     1      31.168 -18.581  21.398  1.00  0.00     0.082 C 
BRANCH   7   8
HETATM    8  C3  UNL     1      31.446 -17.450  22.342  1.00  0.00     0.008 A 
HETATM    9  C1  UNL     1      32.670 -17.093  22.838  1.00  0.00     0.121 A 
HETATM   10  N2  UNL     1      32.448 -15.994  23.623  1.00  0.00    -0.286 N 
HETATM   11  N3  UNL     1      31.168 -15.688  23.616  1.00  0.00    -0.310 N 
ATOM     12  H2  UNL     1      33.168 -15.486  24.137  1.00  0.00     0.188 HD
HETATM   13  C2  UNL     1      30.522 -16.558  22.842  1.00  0.00     0.118 A 
ATOM     14  H3  UNL     1      30.740 -14.912  24.120  1.00  0.00     0.186 HD
BRANCH   9  15
HETATM   15  N1  UNL     1      33.849 -17.619  22.681  1.00  0.00    -0.384 N 
ATOM     16  H12 UNL     1      34.783 -17.241  22.844  1.00  0.00     0.157 HD
ATOM     17  H11 UNL     1      33.988 -18.566  22.328  1.00  0.00     0.157 HD
ENDBRANCH   9  15
ENDBRANCH   7   8
ENDBRANCH   1   7
BRANCH   5  18
HETATM   18  O1  UNL     1      32.739 -16.844  17.056  1.00  0.00    -0.311 OA
BRANCH  18  19
HETATM   19  C10 UNL     1      33.832 -17.538  16.593  1.00  0.00     0.076 A 
HETATM   20  C11 UNL     1      33.710 -18.748  15.920  1.00  0.00     0.037 A 
HETATM   21  C12 UNL     1      34.857 -19.391  15.480  1.00  0.00     0.003 A 
HETATM   22  C13 UNL     1      36.133 -18.866  15.689  1.00  0.00     0.000 A 
HETATM   23  C14 UNL     1      36.244 -17.662  16.359  1.00  0.00     0.003 A 
HETATM   24  C15 UNL     1      35.100 -17.036  16.788  1.00  0.00     0.037 A 
ENDBRANCH  18  19
ENDBRANCH   5  18
TORSDOF 5
ENDMDL
MODEL 2
REMARK VINA RESULT: -8.240740099      0.093      1.067
REMARK  5 active torsions:
REMARK  status: ('A' for Active; 'I' for Inactive)
REMARK    1  A    between atoms: N1_1  and  C1_4 
REMARK    2  A    between atoms: C3_10  and  C4_11 
REMARK    3  A    between atoms: C4_11  and  C5_12 
REMARK    4  A    between atoms: C9_16  and  O1_17 
REMARK    5  A    between atoms: O1_17  and  C10_18 
ROOT
HETATM    1  C5  UNL     1      30.995 -18.227  20.001  1.00  0.00    -0.051 A 
HETATM    2  C6  UNL     1      29.719 -18.335  19.489  1.00  0.00     0.007 A 
HETATM    3  C7  UNL     1      29.403 -17.983  18.199  1.00  0.00     0.003 A 
HETATM    4  C8  UNL     1      30.395 -17.494  17.359  1.00  0.00     0.037 A 
HETATM    5  C9  UNL     1      31.687 -17.374  17.845  1.00  0.00     0.076 A 
HETATM    6  C16 UNL     1      31.952 -17.744  19.152  1.00  0.00     0.044 A 
ENDROOT
BRANCH   1   7
HETATM    7  C4  UNL     1      31.279 -18.627  21.374  1.00  0.00     0.082 C 
BRANCH   7   8
HETATM    8  C3  UNL     1      31.470 -17.486  22.328  1.00  0.00     0.008 A 
HETATM    9  C1  UNL     1      32.659 -17.061  22.855  1.00  0.00     0.121 A 
HETATM   10  N2  UNL     1      32.355 -15.980  23.637  1.00  0.00    -0.286 N 
HETATM   11  N3  UNL     1      31.060 -15.748  23.600  1.00  0.00    -0.310 N 
ATOM     12  H2  UNL     1      33.033 -15.434  24.169  1.00  0.00     0.188 HD
HETATM   13  C2  UNL     1      30.484 -16.650  22.808  1.00  0.00     0.118 A 
ATOM     14  H3  UNL     1      30.577 -14.999  24.096  1.00  0.00     0.186 HD
BRANCH   9  15
HETATM   15  N1  UNL     1      33.869 -17.518  22.725  1.00  0.00    -0.384 N 
ATOM     16  H12 UNL     1      34.361 -17.906  21.920  1.00  0.00     0.157 HD
ATOM     17  H11 UNL     1      34.531 -17.556  23.500  1.00  0.00     0.157 HD
ENDBRANCH   9  15
ENDBRANCH   7   8
ENDBRANCH   1   7
BRANCH   5  18
HETATM   18  O1  UNL     1      32.620 -16.882  16.958  1.00  0.00    -0.311 OA
BRANCH  18  19
HETATM   19  C10 UNL     1      33.777 -17.508  16.560  1.00  0.00     0.076 A 
HETATM   20  C11 UNL     1      35.034 -16.968  16.804  1.00  0.00     0.037 A 
HETATM   21  C12 UNL     1      36.158 -17.657  16.375  1.00  0.00     0.003 A 
HETATM   22  C13 UNL     1      36.073 -18.877  15.704  1.00  0.00     0.000 A 
HETATM   23  C14 UNL     1      34.818 -19.407  15.465  1.00  0.00     0.003 A 
HETATM   24  C15 UNL     1      33.714 -18.714  15.897  1.00  0.00     0.037 A 
ENDBRANCH  18  19
ENDBRANCH   5  18
TORSDOF 5
ENDMDL
MODEL 3
REMARK VINA RESULT: -8.206889750      1.421      2.143
REMARK  5 active torsions:
REMARK  status: ('A' for Active; 'I' for Inactive)
REMARK    1  A    between atoms: N1_1  and  C1_4 
REMARK    2  A    between atoms: C3_10  and  C4_11 
REMARK    3  A    between atoms: C4_11  and  C5_12 
REMARK    4  A    between atoms: C9_16  and  O1_17 
REMARK    5  A    between atoms: O1_17  and  C10_18 
ROOT
HETATM    1  C5  UNL     1      31.461 -16.217  19.777  1.00  0.00    -0.051 A 
HETATM    2  C6  UNL     1      31.328 -14.846  19.689  1.00  0.00     0.007 A 
HETATM    3  C7  UNL     1      31.608 -14.142  18.543  1.00  0.00     0.003 A 
HETATM    4  C8  UNL     1      32.045 -14.820  17.413  1.00  0.00     0.037 A 
HETATM    5  C9  UNL     1      32.190 -16.197  17.469  1.00  0.00     0.076 A 
HETATM    6  C16 UNL     1      31.894 -16.858  18.648  1.00  0.00     0.044 A 
ENDROOT
BRANCH   1   7
HETATM    7  C4  UNL     1      31.139 -16.916  21.015  1.00  0.00     0.082 C 
BRANCH   7   8
HETATM    8  C3  UNL     1      32.275 -17.014  21.988  1.00  0.00     0.008 A 
HETATM    9  C1  UNL     1      32.380 -16.349  23.179  1.00  0.00     0.121 A 
HETATM   10  N2  UNL     1      33.554 -16.771  23.740  1.00  0.00    -0.286 N 
HETATM   11  N3  UNL     1      34.143 -17.641  22.947  1.00  0.00    -0.310 N 
ATOM     12  H2  UNL     1      33.919 -16.457  24.639  1.00  0.00     0.188 HD
HETATM   13  C2  UNL     1      33.389 -17.815  21.864  1.00  0.00     0.118 A 
ATOM     14  H3  UNL     1      35.032 -18.106  23.133  1.00  0.00     0.186 HD
BRANCH   9  15
HETATM   15  N1  UNL     1      31.604 -15.473  23.747  1.00  0.00    -0.384 N 
ATOM     16  H12 UNL     1      31.636 -14.454  23.764  1.00  0.00     0.157 HD
ATOM     17  H11 UNL     1      30.795 -15.736  24.310  1.00  0.00     0.157 HD
ENDBRANCH   9  15
ENDBRANCH   7   8
ENDBRANCH   1   7
BRANCH   5  18
HETATM   18  O1  UNL     1      32.628 -16.804  16.312  1.00  0.00    -0.311 OA
BRANCH  18  19
HETATM   19  C10 UNL     1      33.815 -17.478  16.143  1.00  0.00     0.076 A 
HETATM   20  C11 UNL     1      33.871 -18.755  15.598  1.00  0.00     0.037 A 
HETATM   21  C12 UNL     1      35.104 -19.373  15.455  1.00  0.00     0.003 A 
HETATM   22  C13 UNL     1      36.295 -18.756  15.841  1.00  0.00     0.000 A 
HETATM   23  C14 UNL     1      36.230 -17.485  16.382  1.00  0.00     0.003 A 
HETATM   24  C15 UNL     1      35.002 -16.886  16.516  1.00  0.00     0.037 A 
ENDBRANCH  18  19
ENDBRANCH   5  18
TORSDOF 5
ENDMDL
MODEL 4
REMARK VINA RESULT: -8.026340824      0.497      1.285
REMARK  5 active torsions:
REMARK  status: ('A' for Active; 'I' for Inactive)
REMARK    1  A    between atoms: N1_1  and  C1_4 
REMARK    2  A    between atoms: C3_10  and  C4_11 
REMARK    3  A    between atoms: C4_11  and  C5_12 
REMARK    4  A    between atoms: C9_16  and  O1_17 
REMARK    5  A    between atoms: O1_17  and  C10_18 
ROOT
HETATM    1  C5  UNL     1      30.893 -18.118  20.081  1.00  0.00    -0.051 A 
HETATM    2  C6  UNL     1      29.675 -18.235  19.443  1.00  0.00     0.007 A 
HETATM    3  C7  UNL     1      29.490 -17.898  18.124  1.00  0.00     0.003 A 
HETATM    4  C8  UNL     1      30.561 -17.416  17.383  1.00  0.00     0.037 A 
HETATM    5  C9  UNL     1      31.797 -17.287  17.996  1.00  0.00     0.076 A 
HETATM    6  C16 UNL     1      31.930 -17.642  19.327  1.00  0.00     0.044 A 
ENDROOT
BRANCH   1   7
HETATM    7  C4  UNL     1      31.037 -18.502  21.480  1.00  0.00     0.082 C 
BRANCH   7   8
HETATM    8  C3  UNL     1      31.728 -17.484  22.336  1.00  0.00     0.008 A 
HETATM    9  C1  UNL     1      31.227 -16.267  22.711  1.00  0.00     0.121 A 
HETATM   10  N2  UNL     1      32.182 -15.700  23.511  1.00  0.00    -0.286 N 
HETATM   11  N3  UNL     1      33.211 -16.513  23.625  1.00  0.00    -0.310 N 
ATOM     12  H2  UNL     1      32.107 -14.784  23.953  1.00  0.00     0.188 HD
HETATM   13  C2  UNL     1      32.970 -17.615  22.920  1.00  0.00     0.118 A 
ATOM     14  H3  UNL     1      34.056 -16.328  24.166  1.00  0.00     0.186 HD
BRANCH   9  15
HETATM   15  N1  UNL     1      30.110 -15.669  22.418  1.00  0.00    -0.384 N 
ATOM     16  H12 UNL     1      29.362 -15.309  23.011  1.00  0.00     0.157 HD
ATOM     17  H11 UNL     1      29.818 -15.485  21.458  1.00  0.00     0.157 HD
ENDBRANCH   9  15
ENDBRANCH   7   8
ENDBRANCH   1   7
BRANCH   5  18
HETATM   18  O1  UNL     1      32.815 -16.803  17.203  1.00  0.00    -0.311 OA
BRANCH  18  19
HETATM   19  C10 UNL     1      33.862 -17.528  16.684  1.00  0.00     0.076 A 
HETATM   20  C11 UNL     1      33.670 -18.728  16.011  1.00  0.00     0.037 A 
HETATM   21  C12 UNL     1      34.773 -19.404  15.513  1.00  0.00     0.003 A 
HETATM   22  C13 UNL     1      36.073 -18.922  15.664  1.00  0.00     0.000 A 
HETATM   23  C14 UNL     1      36.255 -17.727  16.335  1.00  0.00     0.003 A 
HETATM   24  C15 UNL     1      35.153 -17.068  16.822  1.00  0.00     0.037 A 
ENDBRANCH  18  19
ENDBRANCH   5  18
TORSDOF 5
ENDMDL
MODEL 5
REMARK VINA RESULT: -8.015517526      1.593      2.210
REMARK  5 active torsions:
REMARK  status: ('A' for Active; 'I' for Inactive)
REMARK    1  A    between atoms: N1_1  and  C1_4 
REMARK    2  A    between atoms: C3_10  and  C4_11 
REMARK    3  A    between atoms: C4_11  and  C5_12 
REMARK    4  A    between atoms: C9_16  and  O1_17 
REMARK    5  A    between atoms: O1_17  and  C10_18 
ROOT
HETATM    1  C5  UNL     1      30.813 -15.712  19.577  1.00  0.00    -0.051 A 
HETATM    2  C6  UNL     1      31.137 -14.387  19.368  1.00  0.00     0.007 A 
HETATM    3  C7  UNL     1      31.809 -13.952  18.252  1.00  0.00     0.003 A 
HETATM    4  C8  UNL     1      32.188 -14.869  17.279  1.00  0.00     0.037 A 
HETATM    5  C9  UNL     1      31.877 -16.207  17.461  1.00  0.00     0.076 A 
HETATM    6  C16 UNL     1      31.198 -16.592  18.604  1.00  0.00     0.044 A 
ENDROOT
BRANCH   1   7
HETATM    7  C4  UNL     1      30.088 -16.118  20.775  1.00  0.00     0.082 C 
BRANCH   7   8
HETATM    8  C3  UNL     1      30.844 -15.926  22.055  1.00  0.00     0.008 A 
HETATM    9  C1  UNL     1      31.953 -16.622  22.452  1.00  0.00     0.121 A 
HETATM   10  N2  UNL     1      32.317 -16.087  23.658  1.00  0.00    -0.286 N 
HETATM   11  N3  UNL     1      31.487 -15.122  23.990  1.00  0.00    -0.310 N 
ATOM     12  H2  UNL     1      33.115 -16.392  24.216  1.00  0.00     0.188 HD
HETATM   13  C2  UNL     1      30.571 -14.994  23.033  1.00  0.00     0.118 A 
ATOM     14  H3  UNL     1      31.537 -14.563  24.842  1.00  0.00     0.186 HD
BRANCH   9  15
HETATM   15  N1  UNL     1      32.596 -17.605  21.896  1.00  0.00    -0.384 N 
ATOM     16  H12 UNL     1      32.324 -18.572  21.714  1.00  0.00     0.157 HD
ATOM     17  H11 UNL     1      33.553 -17.516  21.553  1.00  0.00     0.157 HD
ENDBRANCH   9  15
ENDBRANCH   7   8
ENDBRANCH   1   7
BRANCH   5  18
HETATM   18  O1  UNL     1      32.284 -17.061  16.458  1.00  0.00    -0.311 OA
BRANCH  18  19
HETATM   19  C10 UNL     1      33.546 -17.582  16.291  1.00  0.00     0.076 A 
HETATM   20  C11 UNL     1      34.682 -16.930  16.755  1.00  0.00     0.037 A 
HETATM   21  C12 UNL     1      35.923 -17.516  16.552  1.00  0.00     0.003 A 
HETATM   22  C13 UNL     1      36.071 -18.739  15.899  1.00  0.00     0.000 A 
HETATM   23  C14 UNL     1      34.935 -19.380  15.441  1.00  0.00     0.003 A 
HETATM   24  C15 UNL     1      33.713 -18.788  15.649  1.00  0.00     0.037 A 
ENDBRANCH  18  19
ENDBRANCH   5  18
TORSDOF 5
ENDMDL
