MODEL 1
REMARK VINA RESULT: -9.818227487      0.000      0.000
REMARK  4 active torsions:
REMARK  status: ('A' for Active; 'I' for Inactive)
REMARK    1  A    between atoms: C7_7  and  N1_8 
REMARK    2  A    between atoms: N1_8  and  C8_10 
REMARK    3  A    between atoms: C16_24  and  N5_25 
REMARK    4  A    between atoms: C26_38  and  N7_39 
ROOT
HETATM    1  C1  UNL     1     -39.383  26.045 -25.979  1.00  0.00     0.018 C 
HETATM    2  C2  UNL     1     -39.789  26.944 -25.288  1.00  0.00    -0.078 C 
HETATM    3  C3  UNL     1     -40.255  28.028 -24.478  1.00  0.00     0.019 A 
HETATM    4  C4  UNL     1     -39.941  29.314 -24.843  1.00  0.00     0.021 A 
HETATM    5  C5  UNL     1     -40.387  30.359 -24.064  1.00  0.00     0.004 A 
HETATM    6  C6  UNL     1     -41.130  30.109 -22.944  1.00  0.00     0.029 A 
HETATM    7  C7  UNL     1     -41.465  28.825 -22.548  1.00  0.00     0.035 A 
HETATM    8  C29 UNL     1     -41.005  27.799 -23.347  1.00  0.00     0.050 A 
ENDROOT
BRANCH   7   9
HETATM    9  N1  UNL     1     -42.235  28.622 -21.385  1.00  0.00    -0.342 N 
ATOM     10  H1  UNL     1     -43.171  29.027 -21.345  1.00  0.00     0.167 HD
BRANCH   9  11
HETATM   11  C8  UNL     1     -41.813  27.949 -20.368  1.00  0.00     0.120 A 
HETATM   12  N2  UNL     1     -40.518  27.870 -20.023  1.00  0.00    -0.338 N 
HETATM   13  C9  UNL     1     -40.148  27.149 -18.940  1.00  0.00     0.183 A 
ATOM     14  H2  UNL     1     -39.812  28.354 -20.579  1.00  0.00     0.168 HD
HETATM   15  N3  UNL     1     -41.022  26.494 -18.176  1.00  0.00    -0.338 N 
HETATM   16  C10 UNL     1     -42.323  26.541 -18.477  1.00  0.00     0.120 A 
ATOM     17  H3  UNL     1     -40.700  25.962 -17.367  1.00  0.00     0.168 HD
HETATM   18  N4  UNL     1     -43.225  25.890 -17.713  1.00  0.00    -0.339 N 
HETATM   19  C28 UNL     1     -42.727  27.269 -19.575  1.00  0.00     0.055 A 
HETATM   20  C11 UNL     1     -44.547  25.904 -17.966  1.00  0.00     0.077 A 
ATOM     21  H4  UNL     1     -42.889  25.362 -16.906  1.00  0.00     0.167 HD
HETATM   22  C12 UNL     1     -45.419  25.185 -17.072  1.00  0.00    -0.005 A 
HETATM   23  C26 UNL     1     -45.008  26.604 -19.042  1.00  0.00     0.131 A 
HETATM   24  C13 UNL     1     -46.512  25.825 -16.530  1.00  0.00     0.014 A 
HETATM   25  C25 UNL     1     -45.166  23.849 -16.746  1.00  0.00     0.044 A 
HETATM   26  C14 UNL     1     -47.359  25.167 -15.673  1.00  0.00     0.003 A 
HETATM   27  C15 UNL     1     -47.088  23.871 -15.376  1.00  0.00     0.030 A 
HETATM   28  C16 UNL     1     -46.006  23.192 -15.893  1.00  0.00     0.046 A 
HETATM   29  C27 UNL     1     -44.071  27.295 -19.851  1.00  0.00     0.057 A 
BRANCH  28  30
HETATM   30  N5  UNL     1     -45.786  21.809 -15.516  1.00  0.00    -0.244 N 
HETATM   31  C17 UNL     1     -46.263  20.646 -16.176  1.00  0.00     0.266 A 
HETATM   32  O1  UNL     1     -46.969  20.602 -17.200  1.00  0.00    -0.267 OA
HETATM   33  C18 UNL     1     -45.773  19.476 -15.431  1.00  0.00     0.048 A 
HETATM   34  C19 UNL     1     -45.931  18.106 -15.627  1.00  0.00     0.020 A 
HETATM   35  C23 UNL     1     -45.023  19.895 -14.354  1.00  0.00     0.050 A 
HETATM   36  C20 UNL     1     -45.356  17.195 -14.771  1.00  0.00     0.027 A 
HETATM   37  C21 UNL     1     -44.601  17.604 -13.687  1.00  0.00     0.047 A 
HETATM   38  N6  UNL     1     -44.040  16.608 -12.853  1.00  0.00    -0.102 NA
HETATM   39  C22 UNL     1     -44.455  18.955 -13.508  1.00  0.00     0.044 A 
HETATM   40  C24 UNL     1     -45.029  21.351 -14.403  1.00  0.00     0.266 A 
HETATM   41  O2  UNL     1     -44.446  22.108 -13.578  1.00  0.00    -0.267 OA
ENDBRANCH  28  30
BRANCH  23  42
HETATM   42  N7  UNL     1     -46.354  26.706 -19.464  1.00  0.00    -0.113 N 
HETATM   43  O3  UNL     1     -46.977  25.827 -20.057  1.00  0.00    -0.532 OA
HETATM   44  O4  UNL     1     -47.023  27.909 -19.232  1.00  0.00    -0.532 OA
ENDBRANCH  23  42
ENDBRANCH   9  11
ENDBRANCH   7   9
TORSDOF 4
ENDMDL
MODEL 2
REMARK VINA RESULT: -9.711685197      4.689     10.744
REMARK  4 active torsions:
REMARK  status: ('A' for Active; 'I' for Inactive)
REMARK    1  A    between atoms: C7_7  and  N1_8 
REMARK    2  A    between atoms: N1_8  and  C8_10 
REMARK    3  A    between atoms: C16_24  and  N5_25 
REMARK    4  A    between atoms: C26_38  and  N7_39 
ROOT
HETATM    1  C1  UNL     1     -56.291  29.528 -11.363  1.00  0.00     0.018 C 
HETATM    2  C2  UNL     1     -55.318  29.325 -12.043  1.00  0.00    -0.078 C 
HETATM    3  C3  UNL     1     -54.172  29.100 -12.869  1.00  0.00     0.019 A 
HETATM    4  C4  UNL     1     -53.901  29.980 -13.888  1.00  0.00     0.021 A 
HETATM    5  C5  UNL     1     -52.799  29.765 -14.685  1.00  0.00     0.004 A 
HETATM    6  C6  UNL     1     -51.991  28.685 -14.459  1.00  0.00     0.029 A 
HETATM    7  C7  UNL     1     -52.235  27.777 -13.441  1.00  0.00     0.035 A 
HETATM    8  C29 UNL     1     -53.346  28.019 -12.659  1.00  0.00     0.050 A 
ENDROOT
BRANCH   7   9
HETATM    9  N1  UNL     1     -51.371  26.681 -13.250  1.00  0.00    -0.342 N 
ATOM     10  H1  UNL     1     -51.776  25.746 -13.202  1.00  0.00     0.167 HD
BRANCH   9  11
HETATM   11  C8  UNL     1     -50.091  26.803 -13.134  1.00  0.00     0.120 A 
HETATM   12  N2  UNL     1     -49.507  27.563 -12.194  1.00  0.00    -0.338 N 
HETATM   13  C9  UNL     1     -48.158  27.640 -12.128  1.00  0.00     0.183 A 
ATOM     14  H2  UNL     1     -50.080  28.083 -11.530  1.00  0.00     0.168 HD
HETATM   15  N3  UNL     1     -47.355  26.985 -12.968  1.00  0.00    -0.338 N 
HETATM   16  C10 UNL     1     -47.888  26.216 -13.921  1.00  0.00     0.120 A 
ATOM     17  H3  UNL     1     -46.342  27.071 -12.883  1.00  0.00     0.168 HD
HETATM   18  N4  UNL     1     -47.093  25.541 -14.778  1.00  0.00    -0.339 N 
HETATM   19  C28 UNL     1     -49.260  26.119 -14.011  1.00  0.00     0.055 A 
HETATM   20  C11 UNL     1     -47.573  24.749 -15.756  1.00  0.00     0.077 A 
ATOM     21  H4  UNL     1     -46.082  25.635 -14.681  1.00  0.00     0.167 HD
HETATM   22  C12 UNL     1     -46.630  24.064 -16.602  1.00  0.00    -0.005 A 
HETATM   23  C26 UNL     1     -48.924  24.616 -15.897  1.00  0.00     0.131 A 
HETATM   24  C13 UNL     1     -46.750  22.704 -16.790  1.00  0.00     0.014 A 
HETATM   25  C25 UNL     1     -45.594  24.762 -17.231  1.00  0.00     0.044 A 
HETATM   26  C14 UNL     1     -45.864  22.023 -17.588  1.00  0.00     0.003 A 
HETATM   27  C15 UNL     1     -44.870  22.728 -18.185  1.00  0.00     0.030 A 
HETATM   28  C16 UNL     1     -44.711  24.087 -18.025  1.00  0.00     0.046 A 
HETATM   29  C27 UNL     1     -49.769  25.318 -15.001  1.00  0.00     0.057 A 
BRANCH  28  30
HETATM   30  N5  UNL     1     -43.614  24.761 -18.693  1.00  0.00    -0.244 N 
HETATM   31  C17 UNL     1     -42.371  25.155 -18.132  1.00  0.00     0.266 A 
HETATM   32  O1  UNL     1     -41.997  25.000 -16.955  1.00  0.00    -0.267 OA
HETATM   33  C18 UNL     1     -41.580  25.791 -19.198  1.00  0.00     0.048 A 
HETATM   34  C19 UNL     1     -40.306  26.351 -19.212  1.00  0.00     0.020 A 
HETATM   35  C23 UNL     1     -42.303  25.792 -20.371  1.00  0.00     0.050 A 
HETATM   36  C20 UNL     1     -39.779  26.891 -20.364  1.00  0.00     0.027 A 
HETATM   37  C21 UNL     1     -40.496  26.897 -21.547  1.00  0.00     0.047 A 
HETATM   38  N6  UNL     1     -39.887  27.467 -22.690  1.00  0.00    -0.102 NA
HETATM   39  C22 UNL     1     -41.749  26.342 -21.516  1.00  0.00     0.044 A 
HETATM   40  C24 UNL     1     -43.574  25.150 -20.060  1.00  0.00     0.266 A 
HETATM   41  O2  UNL     1     -44.512  24.961 -20.883  1.00  0.00    -0.267 OA
ENDBRANCH  28  30
BRANCH  23  42
HETATM   42  N7  UNL     1     -49.594  23.849 -16.877  1.00  0.00    -0.113 N 
HETATM   43  O3  UNL     1     -50.119  22.754 -16.680  1.00  0.00    -0.532 OA
HETATM   44  O4  UNL     1     -49.632  24.343 -18.181  1.00  0.00    -0.532 OA
ENDBRANCH  23  42
ENDBRANCH   9  11
ENDBRANCH   7   9
TORSDOF 4
ENDMDL
MODEL 3
REMARK VINA RESULT: -9.501217521      4.626     10.719
REMARK  4 active torsions:
REMARK  status: ('A' for Active; 'I' for Inactive)
REMARK    1  A    between atoms: C7_7  and  N1_8 
REMARK    2  A    between atoms: N1_8  and  C8_10 
REMARK    3  A    between atoms: C16_24  and  N5_25 
REMARK    4  A    between atoms: C26_38  and  N7_39 
ROOT
HETATM    1  C1  UNL     1     -54.031  31.650 -15.037  1.00  0.00     0.018 C 
HETATM    2  C2  UNL     1     -53.866  30.652 -14.383  1.00  0.00    -0.078 C 
HETATM    3  C3  UNL     1     -53.683  29.479 -13.586  1.00  0.00     0.019 A 
HETATM    4  C4  UNL     1     -54.462  29.303 -12.469  1.00  0.00     0.021 A 
HETATM    5  C5  UNL     1     -54.287  28.174 -11.699  1.00  0.00     0.004 A 
HETATM    6  C6  UNL     1     -53.346  27.247 -12.050  1.00  0.00     0.029 A 
HETATM    7  C7  UNL     1     -52.543  27.392 -13.170  1.00  0.00     0.035 A 
HETATM    8  C29 UNL     1     -52.741  28.532 -13.921  1.00  0.00     0.050 A 
ENDROOT
BRANCH   7   9
HETATM    9  N1  UNL     1     -51.589  26.405 -13.488  1.00  0.00    -0.342 N 
ATOM     10  H1  UNL     1     -51.917  25.512 -13.856  1.00  0.00     0.167 HD
BRANCH   9  11
HETATM   11  C8  UNL     1     -50.319  26.577 -13.336  1.00  0.00     0.120 A 
HETATM   12  N2  UNL     1     -49.791  27.365 -12.386  1.00  0.00    -0.338 N 
HETATM   13  C9  UNL     1     -48.449  27.495 -12.282  1.00  0.00     0.183 A 
ATOM     14  H2  UNL     1     -50.403  27.867 -11.742  1.00  0.00     0.168 HD
HETATM   15  N3  UNL     1     -47.597  26.866 -13.094  1.00  0.00    -0.338 N 
HETATM   16  C10 UNL     1     -48.073  26.071 -14.055  1.00  0.00     0.120 A 
ATOM     17  H3  UNL     1     -46.591  26.992 -12.980  1.00  0.00     0.168 HD
HETATM   18  N4  UNL     1     -47.228  25.421 -14.884  1.00  0.00    -0.339 N 
HETATM   19  C28 UNL     1     -49.437  25.920 -14.183  1.00  0.00     0.055 A 
HETATM   20  C11 UNL     1     -47.649  24.605 -15.869  1.00  0.00     0.077 A 
ATOM     21  H4  UNL     1     -46.224  25.555 -14.759  1.00  0.00     0.167 HD
HETATM   22  C12 UNL     1     -46.656  23.951 -16.682  1.00  0.00    -0.005 A 
HETATM   23  C26 UNL     1     -48.989  24.419 -16.048  1.00  0.00     0.131 A 
HETATM   24  C13 UNL     1     -46.718  22.586 -16.863  1.00  0.00     0.014 A 
HETATM   25  C25 UNL     1     -45.630  24.684 -17.287  1.00  0.00     0.044 A 
HETATM   26  C14 UNL     1     -45.785  21.935 -17.630  1.00  0.00     0.003 A 
HETATM   27  C15 UNL     1     -44.801  22.673 -18.204  1.00  0.00     0.030 A 
HETATM   28  C16 UNL     1     -44.699  24.039 -18.050  1.00  0.00     0.046 A 
HETATM   29  C27 UNL     1     -49.886  25.094 -15.182  1.00  0.00     0.057 A 
BRANCH  28  30
HETATM   30  N5  UNL     1     -43.611  24.750 -18.692  1.00  0.00    -0.244 N 
HETATM   31  C17 UNL     1     -42.380  25.154 -18.111  1.00  0.00     0.266 A 
HETATM   32  O1  UNL     1     -42.013  24.976 -16.935  1.00  0.00    -0.267 OA
HETATM   33  C18 UNL     1     -41.593  25.831 -19.154  1.00  0.00     0.048 A 
HETATM   34  C19 UNL     1     -40.330  26.416 -19.143  1.00  0.00     0.020 A 
HETATM   35  C23 UNL     1     -42.306  25.847 -20.333  1.00  0.00     0.050 A 
HETATM   36  C20 UNL     1     -39.805  26.994 -20.277  1.00  0.00     0.027 A 
HETATM   37  C21 UNL     1     -40.511  27.016 -21.466  1.00  0.00     0.047 A 
HETATM   38  N6  UNL     1     -39.905  27.626 -22.588  1.00  0.00    -0.102 NA
HETATM   39  C22 UNL     1     -41.754  26.436 -21.459  1.00  0.00     0.044 A 
HETATM   40  C24 UNL     1     -43.567  25.173 -20.049  1.00  0.00     0.266 A 
HETATM   41  O2  UNL     1     -44.495  24.987 -20.884  1.00  0.00    -0.267 OA
ENDBRANCH  28  30
BRANCH  23  42
HETATM   42  N7  UNL     1     -49.601  23.619 -17.041  1.00  0.00    -0.113 N 
HETATM   43  O3  UNL     1     -49.707  23.925 -18.227  1.00  0.00    -0.532 OA
HETATM   44  O4  UNL     1     -50.169  22.408 -16.646  1.00  0.00    -0.532 OA
ENDBRANCH  23  42
ENDBRANCH   9  11
ENDBRANCH   7   9
TORSDOF 4
ENDMDL
MODEL 4
REMARK VINA RESULT: -9.378680262      4.851      9.835
REMARK  4 active torsions:
REMARK  status: ('A' for Active; 'I' for Inactive)
REMARK    1  A    between atoms: C7_7  and  N1_8 
REMARK    2  A    between atoms: N1_8  and  C8_10 
REMARK    3  A    between atoms: C16_24  and  N5_25 
REMARK    4  A    between atoms: C26_38  and  N7_39 
ROOT
HETATM    1  C1  UNL     1     -47.369  26.986 -11.354  1.00  0.00     0.018 C 
HETATM    2  C2  UNL     1     -46.246  26.556 -11.415  1.00  0.00    -0.078 C 
HETATM    3  C3  UNL     1     -44.905  26.062 -11.470  1.00  0.00     0.019 A 
HETATM    4  C4  UNL     1     -44.066  26.293 -10.408  1.00  0.00     0.021 A 
HETATM    5  C5  UNL     1     -42.773  25.820 -10.459  1.00  0.00     0.004 A 
HETATM    6  C6  UNL     1     -42.340  25.131 -11.558  1.00  0.00     0.029 A 
HETATM    7  C7  UNL     1     -43.159  24.880 -12.646  1.00  0.00     0.035 A 
HETATM    8  C29 UNL     1     -44.448  25.366 -12.567  1.00  0.00     0.050 A 
ENDROOT
BRANCH   7   9
HETATM    9  N1  UNL     1     -42.663  24.164 -13.754  1.00  0.00    -0.342 N 
ATOM     10  H1  UNL     1     -42.283  23.230 -13.598  1.00  0.00     0.167 HD
BRANCH   9  11
HETATM   11  C8  UNL     1     -42.667  24.633 -14.956  1.00  0.00     0.120 A 
HETATM   12  N2  UNL     1     -41.710  25.444 -15.433  1.00  0.00    -0.338 N 
HETATM   13  C9  UNL     1     -41.776  25.894 -16.707  1.00  0.00     0.183 A 
ATOM     14  H2  UNL     1     -40.932  25.723 -14.834  1.00  0.00     0.168 HD
HETATM   15  N3  UNL     1     -42.767  25.568 -17.538  1.00  0.00    -0.338 N 
HETATM   16  C10 UNL     1     -43.744  24.763 -17.111  1.00  0.00     0.120 A 
ATOM     17  H3  UNL     1     -42.778  25.930 -18.491  1.00  0.00     0.168 HD
HETATM   18  N4  UNL     1     -44.753  24.417 -17.937  1.00  0.00    -0.339 N 
HETATM   19  C28 UNL     1     -43.701  24.290 -15.817  1.00  0.00     0.055 A 
HETATM   20  C11 UNL     1     -45.762  23.607 -17.564  1.00  0.00     0.077 A 
ATOM     21  H4  UNL     1     -44.751  24.785 -18.889  1.00  0.00     0.167 HD
HETATM   22  C12 UNL     1     -46.778  23.292 -18.536  1.00  0.00    -0.005 A 
HETATM   23  C26 UNL     1     -45.777  23.110 -16.293  1.00  0.00     0.131 A 
HETATM   24  C13 UNL     1     -47.112  21.975 -18.765  1.00  0.00     0.014 A 
HETATM   25  C25 UNL     1     -47.423  24.305 -19.251  1.00  0.00     0.044 A 
HETATM   26  C14 UNL     1     -48.073  21.643 -19.687  1.00  0.00     0.003 A 
HETATM   27  C15 UNL     1     -48.683  22.648 -20.365  1.00  0.00     0.030 A 
HETATM   28  C16 UNL     1     -48.380  23.978 -20.170  1.00  0.00     0.046 A 
HETATM   29  C27 UNL     1     -44.721  23.465 -15.416  1.00  0.00     0.057 A 
BRANCH  28  30
HETATM   30  N5  UNL     1     -49.074  24.989 -20.944  1.00  0.00    -0.244 N 
HETATM   31  C17 UNL     1     -50.133  25.831 -20.514  1.00  0.00     0.266 A 
HETATM   32  O1  UNL     1     -50.667  25.849 -19.390  1.00  0.00    -0.267 OA
HETATM   33  C18 UNL     1     -50.502  26.698 -21.644  1.00  0.00     0.048 A 
HETATM   34  C19 UNL     1     -51.459  27.700 -21.784  1.00  0.00     0.020 A 
HETATM   35  C23 UNL     1     -49.705  26.406 -22.730  1.00  0.00     0.050 A 
HETATM   36  C20 UNL     1     -51.607  28.381 -22.971  1.00  0.00     0.027 A 
HETATM   37  C21 UNL     1     -50.813  28.097 -24.067  1.00  0.00     0.047 A 
HETATM   38  N6  UNL     1     -51.023  28.841 -25.251  1.00  0.00    -0.102 NA
HETATM   39  C22 UNL     1     -49.876  27.108 -23.913  1.00  0.00     0.044 A 
HETATM   40  C24 UNL     1     -48.812  25.339 -22.297  1.00  0.00     0.266 A 
HETATM   41  O2  UNL     1     -47.928  24.797 -23.015  1.00  0.00    -0.267 OA
ENDBRANCH  28  30
BRANCH  23  42
HETATM   42  N7  UNL     1     -46.766  22.270 -15.731  1.00  0.00    -0.113 N 
HETATM   43  O3  UNL     1     -46.618  21.076 -15.479  1.00  0.00    -0.532 OA
HETATM   44  O4  UNL     1     -48.023  22.819 -15.478  1.00  0.00    -0.532 OA
ENDBRANCH  23  42
ENDBRANCH   9  11
ENDBRANCH   7   9
TORSDOF 4
ENDMDL
MODEL 5
REMARK VINA RESULT: -9.349396238      4.534     10.655
REMARK  4 active torsions:
REMARK  status: ('A' for Active; 'I' for Inactive)
REMARK    1  A    between atoms: C7_7  and  N1_8 
REMARK    2  A    between atoms: N1_8  and  C8_10 
REMARK    3  A    between atoms: C16_24  and  N5_25 
REMARK    4  A    between atoms: C26_38  and  N7_39 
ROOT
HETATM    1  C1  UNL     1     -56.162  28.688 -11.375  1.00  0.00     0.018 C 
HETATM    2  C2  UNL     1     -55.143  28.640 -12.014  1.00  0.00    -0.078 C 
HETATM    3  C3  UNL     1     -53.943  28.600 -12.791  1.00  0.00     0.019 A 
HETATM    4  C4  UNL     1     -53.727  29.574 -13.735  1.00  0.00     0.021 A 
HETATM    5  C5  UNL     1     -52.572  29.537 -14.485  1.00  0.00     0.004 A 
HETATM    6  C6  UNL     1     -51.660  28.538 -14.287  1.00  0.00     0.029 A 
HETATM    7  C7  UNL     1     -51.846  27.540 -13.345  1.00  0.00     0.035 A 
HETATM    8  C29 UNL     1     -53.011  27.603 -12.608  1.00  0.00     0.050 A 
ENDROOT
BRANCH   7   9
HETATM    9  N1  UNL     1     -50.874  26.533 -13.181  1.00  0.00    -0.342 N 
ATOM     10  H1  UNL     1     -51.187  25.584 -12.976  1.00  0.00     0.167 HD
BRANCH   9  11
HETATM   11  C8  UNL     1     -49.606  26.754 -13.277  1.00  0.00     0.120 A 
HETATM   12  N2  UNL     1     -48.950  27.629 -12.498  1.00  0.00    -0.338 N 
HETATM   13  C9  UNL     1     -47.618  27.806 -12.652  1.00  0.00     0.183 A 
ATOM     14  H2  UNL     1     -49.456  28.161 -11.790  1.00  0.00     0.168 HD
HETATM   15  N3  UNL     1     -46.901  27.142 -13.559  1.00  0.00    -0.338 N 
HETATM   16  C10 UNL     1     -47.507  26.260 -14.358  1.00  0.00     0.120 A 
ATOM     17  H3  UNL     1     -45.897  27.305 -13.641  1.00  0.00     0.168 HD
HETATM   18  N4  UNL     1     -46.798  25.574 -15.280  1.00  0.00    -0.339 N 
HETATM   19  C28 UNL     1     -48.864  26.060 -14.223  1.00  0.00     0.055 A 
HETATM   20  C11 UNL     1     -47.355  24.671 -16.110  1.00  0.00     0.077 A 
ATOM     21  H4  UNL     1     -45.796  25.746 -15.351  1.00  0.00     0.167 HD
HETATM   22  C12 UNL     1     -46.498  23.985 -17.043  1.00  0.00    -0.005 A 
HETATM   23  C26 UNL     1     -48.696  24.432 -16.026  1.00  0.00     0.131 A 
HETATM   24  C13 UNL     1     -46.532  22.610 -17.112  1.00  0.00     0.014 A 
HETATM   25  C25 UNL     1     -45.631  24.699 -17.876  1.00  0.00     0.044 A 
HETATM   26  C14 UNL     1     -45.725  21.928 -17.989  1.00  0.00     0.003 A 
HETATM   27  C15 UNL     1     -44.895  22.649 -18.784  1.00  0.00     0.030 A 
HETATM   28  C16 UNL     1     -44.826  24.025 -18.749  1.00  0.00     0.046 A 
HETATM   29  C27 UNL     1     -49.450  25.145 -15.061  1.00  0.00     0.057 A 
BRANCH  28  30
HETATM   30  N5  UNL     1     -43.903  24.716 -19.629  1.00  0.00    -0.244 N 
HETATM   31  C17 UNL     1     -44.144  25.167 -20.953  1.00  0.00     0.266 A 
HETATM   32  O1  UNL     1     -45.196  25.043 -21.607  1.00  0.00    -0.267 OA
HETATM   33  C18 UNL     1     -42.916  25.819 -21.434  1.00  0.00     0.048 A 
HETATM   34  C19 UNL     1     -42.593  26.435 -22.641  1.00  0.00     0.020 A 
HETATM   35  C23 UNL     1     -41.953  25.775 -20.450  1.00  0.00     0.050 A 
HETATM   36  C20 UNL     1     -41.348  26.985 -22.847  1.00  0.00     0.027 A 
HETATM   37  C21 UNL     1     -40.374  26.946 -21.866  1.00  0.00     0.047 A 
HETATM   38  N6  UNL     1     -39.120  27.535 -22.151  1.00  0.00    -0.102 NA
HETATM   39  C22 UNL     1     -40.708  26.337 -20.684  1.00  0.00     0.044 A 
HETATM   40  C24 UNL     1     -42.565  25.086 -19.320  1.00  0.00     0.266 A 
HETATM   41  O2  UNL     1     -41.995  24.848 -18.220  1.00  0.00    -0.267 OA
ENDBRANCH  28  30
BRANCH  23  42
HETATM   42  N7  UNL     1     -49.442  23.540 -16.831  1.00  0.00    -0.113 N 
HETATM   43  O3  UNL     1     -49.779  22.404 -16.500  1.00  0.00    -0.532 OA
HETATM   44  O4  UNL     1     -49.792  23.955 -18.115  1.00  0.00    -0.532 OA
ENDBRANCH  23  42
ENDBRANCH   9  11
ENDBRANCH   7   9
TORSDOF 4
ENDMDL
