MODEL 1
REMARK VINA RESULT: -9.215952185      0.000      0.000
REMARK  3 active torsions:
REMARK  status: ('A' for Active; 'I' for Inactive)
REMARK    1  A    between atoms: C2_2  and  C3_3 
REMARK    2  A    between atoms: C14_15  and  O1_16 
REMARK    3  A    between atoms: C14_15  and  C15_18 
ROOT
HETATM    1  C3  UNL     1      13.886  -9.802  33.706  1.00  0.00     0.020 C 
HETATM    2  S1  UNL     1      13.619 -10.440  35.420  1.00  0.00    -0.157 SA
HETATM    3  C4  UNL     1      14.972 -11.433  34.787  1.00  0.00     0.085 C 
HETATM    4  C5  UNL     1      15.254 -10.312  33.773  1.00  0.00    -0.018 C 
HETATM    5  C6  UNL     1      15.881 -10.865  32.512  1.00  0.00     0.018 C 
HETATM    6  C7  UNL     1      16.252  -9.400  34.441  1.00  0.00     0.012 C 
HETATM    7  C8  UNL     1      15.680  -8.174  35.067  1.00  0.00     0.007 C 
HETATM    8  C9  UNL     1      14.911  -7.493  33.972  1.00  0.00    -0.000 C 
HETATM    9  C10 UNL     1      13.716  -8.299  33.638  1.00  0.00     0.010 C 
HETATM   10  C11 UNL     1      13.288  -7.847  32.245  1.00  0.00     0.007 C 
HETATM   11  C12 UNL     1      13.471  -6.350  32.071  1.00  0.00     0.009 C 
HETATM   12  C13 UNL     1      13.372  -5.719  33.405  1.00  0.00     0.035 C 
HETATM   13  C14 UNL     1      13.025  -4.255  33.384  1.00  0.00     0.115 C 
HETATM   14  C16 UNL     1      13.283  -3.577  34.682  1.00  0.00     0.045 C 
HETATM   15  C17 UNL     1      13.711  -4.376  35.826  1.00  0.00     0.004 C 
HETATM   16  C18 UNL     1      14.230  -5.734  35.620  1.00  0.00     0.010 C 
HETATM   17  C19 UNL     1      14.606  -6.053  34.198  1.00  0.00    -0.033 C 
HETATM   18  C20 UNL     1      15.811  -5.253  33.808  1.00  0.00     0.016 C 
ENDROOT
BRANCH  13  19
HETATM   19  O1  UNL     1      11.638  -4.215  33.079  1.00  0.00    -0.382 OA
ATOM     20  H1  UNL     1      11.580  -4.504  32.176  1.00  0.00     0.211 HD
ENDBRANCH  13  19
BRANCH  13  21
HETATM   21  C15 UNL     1      13.678  -3.566  32.236  1.00  0.00     0.269 C 
HETATM   22  O2  UNL     1      14.169  -2.457  32.347  1.00  0.00    -0.304 OA
ENDBRANCH  13  21
BRANCH   1  23
HETATM   23  C2  UNL     1      12.853 -10.400  32.832  1.00  0.00     0.017 C 
HETATM   24  C1  UNL     1      11.971 -11.456  33.392  1.00  0.00     0.006 C 
ENDBRANCH   1  23
TORSDOF 3
ENDMDL
MODEL 2
REMARK VINA RESULT: -9.130129803      1.650      2.713
REMARK  3 active torsions:
REMARK  status: ('A' for Active; 'I' for Inactive)
REMARK    1  A    between atoms: C2_2  and  C3_3 
REMARK    2  A    between atoms: C14_15  and  O1_16 
REMARK    3  A    between atoms: C14_15  and  C15_18 
ROOT
HETATM    1  C3  UNL     1      15.082  -9.338  33.629  1.00  0.00     0.020 C 
HETATM    2  S1  UNL     1      13.748 -10.187  32.673  1.00  0.00    -0.157 SA
HETATM    3  C4  UNL     1      14.045 -11.272  34.069  1.00  0.00     0.085 C 
HETATM    4  C5  UNL     1      14.637 -10.065  34.815  1.00  0.00    -0.018 C 
HETATM    5  C6  UNL     1      15.676 -10.505  35.824  1.00  0.00     0.018 C 
HETATM    6  C7  UNL     1      13.484  -9.441  35.561  1.00  0.00     0.012 C 
HETATM    7  C8  UNL     1      12.866  -8.253  34.906  1.00  0.00     0.007 C 
HETATM    8  C9  UNL     1      13.998  -7.294  34.677  1.00  0.00    -0.000 C 
HETATM    9  C10 UNL     1      14.895  -7.835  33.633  1.00  0.00     0.010 C 
HETATM   10  C11 UNL     1      16.224  -7.107  33.810  1.00  0.00     0.007 C 
HETATM   11  C12 UNL     1      16.009  -5.650  34.179  1.00  0.00     0.009 C 
HETATM   12  C13 UNL     1      14.699  -5.229  33.636  1.00  0.00     0.035 C 
HETATM   13  C14 UNL     1      14.540  -3.744  33.456  1.00  0.00     0.115 C 
HETATM   14  C16 UNL     1      13.126  -3.329  33.260  1.00  0.00     0.045 C 
HETATM   15  C17 UNL     1      12.096  -4.356  33.146  1.00  0.00     0.004 C 
HETATM   16  C18 UNL     1      12.378  -5.731  33.580  1.00  0.00     0.010 C 
HETATM   17  C19 UNL     1      13.605  -5.878  34.439  1.00  0.00    -0.033 C 
HETATM   18  C20 UNL     1      13.365  -5.230  35.769  1.00  0.00     0.016 C 
ENDROOT
BRANCH  13  19
HETATM   19  O1  UNL     1      15.306  -3.435  32.299  1.00  0.00    -0.382 OA
ATOM     20  H1  UNL     1      14.774  -3.733  31.571  1.00  0.00     0.211 HD
ENDBRANCH  13  19
BRANCH  13  21
HETATM   21  C15 UNL     1      15.212  -2.997  34.556  1.00  0.00     0.269 C 
HETATM   22  O2  UNL     1      16.108  -2.201  34.338  1.00  0.00    -0.304 OA
ENDBRANCH  13  21
BRANCH   1  23
HETATM   23  C2  UNL     1      16.371  -9.618  32.957  1.00  0.00     0.017 C 
HETATM   24  C1  UNL     1      16.354 -10.053  31.537  1.00  0.00     0.006 C 
ENDBRANCH   1  23
TORSDOF 3
ENDMDL
MODEL 3
REMARK VINA RESULT: -8.842104300      2.933      5.938
REMARK  3 active torsions:
REMARK  status: ('A' for Active; 'I' for Inactive)
REMARK    1  A    between atoms: C2_2  and  C3_3 
REMARK    2  A    between atoms: C14_15  and  O1_16 
REMARK    3  A    between atoms: C14_15  and  C15_18 
ROOT
HETATM    1  C3  UNL     1      13.971  -4.820  33.533  1.00  0.00     0.020 C 
HETATM    2  S1  UNL     1      14.552  -4.283  31.863  1.00  0.00    -0.157 SA
HETATM    3  C4  UNL     1      15.326  -3.123  32.990  1.00  0.00     0.085 C 
HETATM    4  C5  UNL     1      15.145  -4.165  34.106  1.00  0.00    -0.018 C 
HETATM    5  C6  UNL     1      15.012  -3.497  35.457  1.00  0.00     0.018 C 
HETATM    6  C7  UNL     1      16.410  -4.988  34.104  1.00  0.00     0.012 C 
HETATM    7  C8  UNL     1      16.323  -6.293  33.389  1.00  0.00     0.007 C 
HETATM    8  C9  UNL     1      15.163  -7.010  34.015  1.00  0.00    -0.000 C 
HETATM    9  C10 UNL     1      13.905  -6.329  33.641  1.00  0.00     0.010 C 
HETATM   10  C11 UNL     1      12.871  -6.770  34.674  1.00  0.00     0.007 C 
HETATM   11  C12 UNL     1      13.055  -8.230  35.048  1.00  0.00     0.009 C 
HETATM   12  C13 UNL     1      13.686  -8.920  33.903  1.00  0.00     0.035 C 
HETATM   13  C14 UNL     1      13.488 -10.411  33.879  1.00  0.00     0.115 C 
HETATM   14  C16 UNL     1      14.412 -11.107  32.945  1.00  0.00     0.045 C 
HETATM   15  C17 UNL     1      15.294 -10.312  32.097  1.00  0.00     0.004 C 
HETATM   16  C18 UNL     1      15.535  -8.897  32.411  1.00  0.00     0.010 C 
HETATM   17  C19 UNL     1      15.122  -8.483  33.798  1.00  0.00    -0.033 C 
HETATM   18  C20 UNL     1      16.026  -9.130  34.803  1.00  0.00     0.016 C 
ENDROOT
BRANCH  13  19
HETATM   19  O1  UNL     1      12.142 -10.591  33.460  1.00  0.00    -0.382 OA
ATOM     20  H1  UNL     1      12.188 -11.244  32.772  1.00  0.00     0.211 HD
ENDBRANCH  13  19
BRANCH  13  21
HETATM   21  C15 UNL     1      13.527 -10.978  35.256  1.00  0.00     0.269 C 
HETATM   22  O2  UNL     1      12.680 -11.758  35.654  1.00  0.00    -0.304 OA
ENDBRANCH  13  21
BRANCH   1  23
HETATM   23  C2  UNL     1      12.598  -4.305  33.723  1.00  0.00     0.017 C 
HETATM   24  C1  UNL     1      11.911  -3.666  32.572  1.00  0.00     0.006 C 
ENDBRANCH   1  23
TORSDOF 3
ENDMDL
MODEL 4
REMARK VINA RESULT: -8.765379869      2.954      6.047
REMARK  3 active torsions:
REMARK  status: ('A' for Active; 'I' for Inactive)
REMARK    1  A    between atoms: C2_2  and  C3_3 
REMARK    2  A    between atoms: C14_15  and  O1_16 
REMARK    3  A    between atoms: C14_15  and  C15_18 
ROOT
HETATM    1  C3  UNL     1      14.594  -4.408  33.929  1.00  0.00     0.020 C 
HETATM    2  S1  UNL     1      13.217  -3.674  32.939  1.00  0.00    -0.157 SA
HETATM    3  C4  UNL     1      14.653  -2.703  32.480  1.00  0.00     0.085 C 
HETATM    4  C5  UNL     1      15.531  -3.878  32.941  1.00  0.00    -0.018 C 
HETATM    5  C6  UNL     1      16.883  -3.392  33.416  1.00  0.00     0.018 C 
HETATM    6  C7  UNL     1      15.736  -4.738  31.718  1.00  0.00     0.012 C 
HETATM    7  C8  UNL     1      14.849  -5.932  31.620  1.00  0.00     0.007 C 
HETATM    8  C9  UNL     1      15.055  -6.684  32.902  1.00  0.00    -0.000 C 
HETATM    9  C10 UNL     1      14.472  -5.914  34.022  1.00  0.00     0.010 C 
HETATM   10  C11 UNL     1      15.138  -6.452  35.286  1.00  0.00     0.007 C 
HETATM   11  C12 UNL     1      15.340  -7.954  35.205  1.00  0.00     0.009 C 
HETATM   12  C13 UNL     1      14.309  -8.508  34.301  1.00  0.00     0.035 C 
HETATM   13  C14 UNL     1      14.030  -9.974  34.488  1.00  0.00     0.115 C 
HETATM   14  C16 UNL     1      13.274 -10.572  33.356  1.00  0.00     0.045 C 
HETATM   15  C17 UNL     1      12.796  -9.703  32.286  1.00  0.00     0.004 C 
HETATM   16  C18 UNL     1      13.353  -8.352  32.132  1.00  0.00     0.010 C 
HETATM   17  C19 UNL     1      14.633  -8.112  32.887  1.00  0.00    -0.033 C 
HETATM   18  C20 UNL     1      15.735  -8.919  32.271  1.00  0.00     0.016 C 
ENDROOT
BRANCH  13  19
HETATM   19  O1  UNL     1      13.262 -10.048  35.681  1.00  0.00    -0.382 OA
ATOM     20  H1  UNL     1      13.902 -10.158  36.375  1.00  0.00     0.211 HD
ENDBRANCH  13  19
BRANCH  13  21
HETATM   21  C15 UNL     1      15.280 -10.721  34.803  1.00  0.00     0.269 C 
HETATM   22  O2  UNL     1      15.418 -11.328  35.850  1.00  0.00    -0.304 OA
ENDBRANCH  13  21
BRANCH   1  23
HETATM   23  C2  UNL     1      14.499  -3.874  35.306  1.00  0.00     0.017 C 
HETATM   24  C1  UNL     1      13.171  -3.848  35.969  1.00  0.00     0.006 C 
ENDBRANCH   1  23
TORSDOF 3
ENDMDL
MODEL 5
REMARK VINA RESULT: -8.578265117      1.777      3.109
REMARK  3 active torsions:
REMARK  status: ('A' for Active; 'I' for Inactive)
REMARK    1  A    between atoms: C2_2  and  C3_3 
REMARK    2  A    between atoms: C14_15  and  O1_16 
REMARK    3  A    between atoms: C14_15  and  C15_18 
ROOT
HETATM    1  C3  UNL     1      15.130  -9.257  33.825  1.00  0.00     0.020 C 
HETATM    2  S1  UNL     1      16.641  -9.851  32.942  1.00  0.00    -0.157 SA
HETATM    3  C4  UNL     1      15.341 -10.948  32.374  1.00  0.00     0.085 C 
HETATM    4  C5  UNL     1      14.325  -9.864  32.767  1.00  0.00    -0.018 C 
HETATM    5  C6  UNL     1      12.992 -10.478  33.137  1.00  0.00     0.018 C 
HETATM    6  C7  UNL     1      14.133  -9.017  31.534  1.00  0.00     0.012 C 
HETATM    7  C8  UNL     1      14.909  -7.745  31.504  1.00  0.00     0.007 C 
HETATM    8  C9  UNL     1      14.536  -7.025  32.768  1.00  0.00    -0.000 C 
HETATM    9  C10 UNL     1      15.103  -7.747  33.928  1.00  0.00     0.010 C 
HETATM   10  C11 UNL     1      14.296  -7.284  35.138  1.00  0.00     0.007 C 
HETATM   11  C12 UNL     1      13.960  -5.807  35.043  1.00  0.00     0.009 C 
HETATM   12  C13 UNL     1      15.000  -5.152  34.221  1.00  0.00     0.035 C 
HETATM   13  C14 UNL     1      15.126  -3.667  34.430  1.00  0.00     0.115 C 
HETATM   14  C16 UNL     1      15.906  -2.992  33.359  1.00  0.00     0.045 C 
HETATM   15  C17 UNL     1      16.543  -3.804  32.328  1.00  0.00     0.004 C 
HETATM   16  C18 UNL     1      16.128  -5.200  32.131  1.00  0.00     0.010 C 
HETATM   17  C19 UNL     1      14.823  -5.564  32.786  1.00  0.00    -0.033 C 
HETATM   18  C20 UNL     1      13.700  -4.859  32.088  1.00  0.00     0.016 C 
ENDROOT
BRANCH  13  19
HETATM   19  O1  UNL     1      15.790  -3.532  35.679  1.00  0.00    -0.382 OA
ATOM     20  H1  UNL     1      16.662  -3.878  35.528  1.00  0.00     0.211 HD
ENDBRANCH  13  19
BRANCH  13  21
HETATM   21  C15 UNL     1      13.791  -3.043  34.650  1.00  0.00     0.269 C 
HETATM   22  O2  UNL     1      13.444  -2.040  34.052  1.00  0.00    -0.304 OA
ENDBRANCH  13  21
BRANCH   1  23
HETATM   23  C2  UNL     1      15.170  -9.791  35.204  1.00  0.00     0.017 C 
HETATM   24  C1  UNL     1      16.478 -10.215  35.766  1.00  0.00     0.006 C 
ENDBRANCH   1  23
TORSDOF 3
ENDMDL
