MODEL 1
REMARK VINA RESULT: -9.777450554      0.000      0.000
REMARK  3 active torsions:
REMARK  status: ('A' for Active; 'I' for Inactive)
REMARK    1  A    between atoms: C2_2  and  O1_4 
REMARK    2  A    between atoms: O1_4  and  C4_5 
REMARK    3  A    between atoms: C4_5  and  C5_7 
ROOT
HETATM    1  C5  UNL     1      14.071  -8.071  34.234  1.00  0.00     0.103 C 
HETATM    2  C6  UNL     1      13.924  -6.873  35.157  1.00  0.00     0.016 C 
HETATM    3  C7  UNL     1      12.560  -6.286  34.965  1.00  0.00     0.001 C 
HETATM    4  C8  UNL     1      12.267  -5.115  35.841  1.00  0.00     0.000 C 
HETATM    5  C9  UNL     1      13.374  -4.134  35.998  1.00  0.00     0.000 C 
HETATM    6  C10 UNL     1      13.301  -2.993  35.012  1.00  0.00     0.000 C 
HETATM    7  C11 UNL     1      13.978  -3.243  33.719  1.00  0.00     0.000 C 
HETATM    8  C12 UNL     1      15.392  -2.681  33.692  1.00  0.00     0.000 C 
HETATM    9  C13 UNL     1      15.970  -2.683  32.316  1.00  0.00     0.000 C 
HETATM   10  C14 UNL     1      15.663  -3.927  31.525  1.00  0.00     0.000 C 
HETATM   11  C15 UNL     1      16.462  -5.127  31.992  1.00  0.00     0.000 C 
HETATM   12  C16 UNL     1      16.557  -6.108  30.864  1.00  0.00     0.009 C 
HETATM   13  C17 UNL     1      15.245  -6.737  30.493  1.00  0.00     0.103 C 
HETATM   14  C18 UNL     1      15.159  -8.128  31.005  1.00  0.00     0.217 C 
HETATM   15  O3  UNL     1      16.062  -8.929  30.647  1.00  0.00    -0.274 OA
HETATM   16  N1  UNL     1      14.124  -8.591  31.864  1.00  0.00    -0.360 N 
ATOM     17  H1  UNL     1      13.809  -9.557  31.770  1.00  0.00     0.162 HD
HETATM   18  C19 UNL     1      13.497  -7.751  32.869  1.00  0.00     0.137 C 
ENDROOT
BRANCH   1  19
HETATM   19  C4  UNL     1      13.543  -9.310  34.802  1.00  0.00     0.265 C 
HETATM   20  O2  UNL     1      12.408  -9.723  34.449  1.00  0.00    -0.265 OA
BRANCH  19  21
HETATM   21  O1  UNL     1      14.202 -10.100  35.729  1.00  0.00    -0.316 OA
BRANCH  21  22
HETATM   22  C2  UNL     1      15.333 -10.869  35.478  1.00  0.00     0.123 C 
HETATM   23  C1  UNL     1      15.586 -11.160  34.030  1.00  0.00     0.040 C 
HETATM   24  C3  UNL     1      16.592 -10.194  36.020  1.00  0.00     0.040 C 
ENDBRANCH  21  22
ENDBRANCH  19  21
ENDBRANCH   1  19
TORSDOF 3
ENDMDL
MODEL 2
REMARK VINA RESULT: -9.326428347      1.056      1.655
REMARK  3 active torsions:
REMARK  status: ('A' for Active; 'I' for Inactive)
REMARK    1  A    between atoms: C2_2  and  O1_4 
REMARK    2  A    between atoms: O1_4  and  C4_5 
REMARK    3  A    between atoms: C4_5  and  C5_7 
ROOT
HETATM    1  C5  UNL     1      14.396  -7.975  34.222  1.00  0.00     0.103 C 
HETATM    2  C6  UNL     1      14.178  -6.781  35.137  1.00  0.00     0.016 C 
HETATM    3  C7  UNL     1      12.762  -6.318  34.991  1.00  0.00     0.001 C 
HETATM    4  C8  UNL     1      12.400  -5.166  35.865  1.00  0.00     0.000 C 
HETATM    5  C9  UNL     1      13.422  -4.089  35.969  1.00  0.00     0.000 C 
HETATM    6  C10 UNL     1      13.212  -2.972  34.974  1.00  0.00     0.000 C 
HETATM    7  C11 UNL     1      13.859  -3.181  33.659  1.00  0.00     0.000 C 
HETATM    8  C12 UNL     1      15.217  -2.498  33.572  1.00  0.00     0.000 C 
HETATM    9  C13 UNL     1      15.741  -2.469  32.175  1.00  0.00     0.000 C 
HETATM   10  C14 UNL     1      15.515  -3.745  31.409  1.00  0.00     0.000 C 
HETATM   11  C15 UNL     1      16.433  -4.864  31.858  1.00  0.00     0.000 C 
HETATM   12  C16 UNL     1      16.573  -5.849  30.738  1.00  0.00     0.009 C 
HETATM   13  C17 UNL     1      15.307  -6.595  30.425  1.00  0.00     0.103 C 
HETATM   14  C18 UNL     1      15.363  -7.981  30.954  1.00  0.00     0.217 C 
HETATM   15  O3  UNL     1      16.320  -8.705  30.570  1.00  0.00    -0.274 OA
HETATM   16  N1  UNL     1      14.406  -8.521  31.857  1.00  0.00    -0.360 N 
ATOM     17  H1  UNL     1      14.174  -9.512  31.785  1.00  0.00     0.162 HD
HETATM   18  C19 UNL     1      13.746  -7.724  32.876  1.00  0.00     0.137 C 
ENDROOT
BRANCH   1  19
HETATM   19  C4  UNL     1      14.000  -9.246  34.822  1.00  0.00     0.265 C 
HETATM   20  O2  UNL     1      14.768  -9.817  35.638  1.00  0.00    -0.265 OA
BRANCH  19  21
HETATM   21  O1  UNL     1      12.809  -9.906  34.564  1.00  0.00    -0.316 OA
BRANCH  21  22
HETATM   22  C2  UNL     1      12.687 -11.245  34.209  1.00  0.00     0.123 C 
HETATM   23  C1  UNL     1      11.291 -11.787  34.274  1.00  0.00     0.040 C 
HETATM   24  C3  UNL     1      13.189 -11.487  32.786  1.00  0.00     0.040 C 
ENDBRANCH  21  22
ENDBRANCH  19  21
ENDBRANCH   1  19
TORSDOF 3
ENDMDL
MODEL 3
REMARK VINA RESULT: -9.163625067      2.184      5.920
REMARK  3 active torsions:
REMARK  status: ('A' for Active; 'I' for Inactive)
REMARK    1  A    between atoms: C2_2  and  O1_4 
REMARK    2  A    between atoms: O1_4  and  C4_5 
REMARK    3  A    between atoms: C4_5  and  C5_7 
ROOT
HETATM    1  C5  UNL     1      14.526  -6.839  34.680  1.00  0.00     0.103 C 
HETATM    2  C6  UNL     1      15.525  -6.372  33.634  1.00  0.00     0.016 C 
HETATM    3  C7  UNL     1      14.780  -6.029  32.381  1.00  0.00     0.001 C 
HETATM    4  C8  UNL     1      15.640  -5.520  31.275  1.00  0.00     0.000 C 
HETATM    5  C9  UNL     1      16.933  -6.232  31.082  1.00  0.00     0.000 C 
HETATM    6  C10 UNL     1      16.852  -7.342  30.061  1.00  0.00     0.000 C 
HETATM    7  C11 UNL     1      16.440  -8.657  30.603  1.00  0.00     0.000 C 
HETATM    8  C12 UNL     1      17.633  -9.546  30.923  1.00  0.00     0.000 C 
HETATM    9  C13 UNL     1      17.224 -10.955  31.201  1.00  0.00     0.000 C 
HETATM   10  C14 UNL     1      15.977 -11.077  32.036  1.00  0.00     0.000 C 
HETATM   11  C15 UNL     1      16.214 -10.732  33.492  1.00  0.00     0.000 C 
HETATM   12  C16 UNL     1      15.165 -11.406  34.323  1.00  0.00     0.009 C 
HETATM   13  C17 UNL     1      13.779 -10.871  34.102  1.00  0.00     0.103 C 
HETATM   14  C18 UNL     1      13.363  -9.995  35.225  1.00  0.00     0.217 C 
HETATM   15  O3  UNL     1      13.382 -10.495  36.381  1.00  0.00    -0.274 OA
HETATM   16  N1  UNL     1      12.950  -8.645  35.062  1.00  0.00    -0.360 N 
ATOM     17  H1  UNL     1      12.230  -8.277  35.685  1.00  0.00     0.162 HD
HETATM   18  C19 UNL     1      13.507  -7.766  34.049  1.00  0.00     0.137 C 
ENDROOT
BRANCH   1  19
HETATM   19  C4  UNL     1      13.918  -5.745  35.432  1.00  0.00     0.265 C 
HETATM   20  O2  UNL     1      12.673  -5.723  35.605  1.00  0.00    -0.265 OA
BRANCH  19  21
HETATM   21  O1  UNL     1      14.615  -4.687  35.994  1.00  0.00    -0.316 OA
BRANCH  21  22
HETATM   22  C2  UNL     1      14.738  -3.416  35.444  1.00  0.00     0.123 C 
HETATM   23  C1  UNL     1      16.072  -3.126  34.826  1.00  0.00     0.040 C 
HETATM   24  C3  UNL     1      13.688  -3.179  34.360  1.00  0.00     0.040 C 
ENDBRANCH  21  22
ENDBRANCH  19  21
ENDBRANCH   1  19
TORSDOF 3
ENDMDL
MODEL 4
REMARK VINA RESULT: -9.055960411      2.437      6.329
REMARK  3 active torsions:
REMARK  status: ('A' for Active; 'I' for Inactive)
REMARK    1  A    between atoms: C2_2  and  O1_4 
REMARK    2  A    between atoms: O1_4  and  C4_5 
REMARK    3  A    between atoms: C4_5  and  C5_7 
ROOT
HETATM    1  C5  UNL     1      14.564  -6.661  32.815  1.00  0.00     0.103 C 
HETATM    2  C6  UNL     1      15.737  -6.542  31.856  1.00  0.00     0.016 C 
HETATM    3  C7  UNL     1      15.239  -6.757  30.460  1.00  0.00     0.001 C 
HETATM    4  C8  UNL     1      16.287  -6.632  29.408  1.00  0.00     0.000 C 
HETATM    5  C9  UNL     1      17.599  -7.259  29.727  1.00  0.00     0.000 C 
HETATM    6  C10 UNL     1      17.722  -8.674  29.213  1.00  0.00     0.000 C 
HETATM    7  C11 UNL     1      17.227  -9.717  30.140  1.00  0.00     0.000 C 
HETATM    8  C12 UNL     1      18.346 -10.322  30.976  1.00  0.00     0.000 C 
HETATM    9  C13 UNL     1      17.905 -11.550  31.699  1.00  0.00     0.000 C 
HETATM   10  C14 UNL     1      16.524 -11.450  32.290  1.00  0.00     0.000 C 
HETATM   11  C15 UNL     1      16.480 -10.565  33.520  1.00  0.00     0.000 C 
HETATM   12  C16 UNL     1      15.300 -10.960  34.354  1.00  0.00     0.009 C 
HETATM   13  C17 UNL     1      13.976 -10.661  33.711  1.00  0.00     0.103 C 
HETATM   14  C18 UNL     1      13.347  -9.464  34.323  1.00  0.00     0.217 C 
HETATM   15  O3  UNL     1      13.152  -9.489  35.567  1.00  0.00    -0.274 OA
HETATM   16  N1  UNL     1      12.960  -8.311  33.586  1.00  0.00    -0.360 N 
ATOM     17  H1  UNL     1      12.133  -7.795  33.887  1.00  0.00     0.162 HD
HETATM   18  C19 UNL     1      13.689  -7.836  32.424  1.00  0.00     0.137 C 
ENDROOT
BRANCH   1  19
HETATM   19  C4  UNL     1      13.815  -5.417  32.973  1.00  0.00     0.265 C 
HETATM   20  O2  UNL     1      12.650  -5.326  32.508  1.00  0.00    -0.265 OA
BRANCH  19  21
HETATM   21  O1  UNL     1      14.289  -4.283  33.613  1.00  0.00    -0.316 OA
BRANCH  21  22
HETATM   22  C2  UNL     1      14.986  -4.265  34.815  1.00  0.00     0.123 C 
HETATM   23  C1  UNL     1      15.938  -3.119  34.973  1.00  0.00     0.040 C 
HETATM   24  C3  UNL     1      14.031  -4.213  36.007  1.00  0.00     0.040 C 
ENDBRANCH  21  22
ENDBRANCH  19  21
ENDBRANCH   1  19
TORSDOF 3
ENDMDL
MODEL 5
REMARK VINA RESULT: -8.876602123      2.343      6.207
REMARK  3 active torsions:
REMARK  status: ('A' for Active; 'I' for Inactive)
REMARK    1  A    between atoms: C2_2  and  O1_4 
REMARK    2  A    between atoms: O1_4  and  C4_5 
REMARK    3  A    between atoms: C4_5  and  C5_7 
ROOT
HETATM    1  C5  UNL     1      14.303  -6.817  32.673  1.00  0.00     0.103 C 
HETATM    2  C6  UNL     1      15.440  -6.597  31.689  1.00  0.00     0.016 C 
HETATM    3  C7  UNL     1      14.941  -6.885  30.307  1.00  0.00     0.001 C 
HETATM    4  C8  UNL     1      15.952  -6.674  29.232  1.00  0.00     0.000 C 
HETATM    5  C9  UNL     1      17.326  -7.159  29.535  1.00  0.00     0.000 C 
HETATM    6  C10 UNL     1      17.582  -8.563  29.041  1.00  0.00     0.000 C 
HETATM    7  C11 UNL     1      17.212  -9.635  29.993  1.00  0.00     0.000 C 
HETATM    8  C12 UNL     1      18.402 -10.109  30.816  1.00  0.00     0.000 C 
HETATM    9  C13 UNL     1      18.100 -11.363  31.567  1.00  0.00     0.000 C 
HETATM   10  C14 UNL     1      16.727 -11.392  32.184  1.00  0.00     0.000 C 
HETATM   11  C15 UNL     1      16.616 -10.495  33.400  1.00  0.00     0.000 C 
HETATM   12  C16 UNL     1      15.497 -10.992  34.264  1.00  0.00     0.009 C 
HETATM   13  C17 UNL     1      14.138 -10.839  33.643  1.00  0.00     0.103 C 
HETATM   14  C18 UNL     1      13.403  -9.701  34.249  1.00  0.00     0.217 C 
HETATM   15  O3  UNL     1      13.235  -9.723  35.497  1.00  0.00    -0.274 OA
HETATM   16  N1  UNL     1      12.888  -8.606  33.502  1.00  0.00    -0.360 N 
ATOM     17  H1  UNL     1      12.019  -8.171  33.812  1.00  0.00     0.162 HD
HETATM   18  C19 UNL     1      13.545  -8.080  32.318  1.00  0.00     0.137 C 
ENDROOT
BRANCH   1  19
HETATM   19  C4  UNL     1      13.435  -5.651  32.827  1.00  0.00     0.265 C 
HETATM   20  O2  UNL     1      12.393  -5.553  32.130  1.00  0.00    -0.265 OA
BRANCH  19  21
HETATM   21  O1  UNL     1      13.664  -4.604  33.704  1.00  0.00    -0.316 OA
BRANCH  21  22
HETATM   22  C2  UNL     1      13.105  -4.471  34.970  1.00  0.00     0.123 C 
HETATM   23  C1  UNL     1      12.267  -5.632  35.411  1.00  0.00     0.040 C 
HETATM   24  C3  UNL     1      14.185  -4.276  36.033  1.00  0.00     0.040 C 
ENDBRANCH  21  22
ENDBRANCH  19  21
ENDBRANCH   1  19
TORSDOF 3
ENDMDL
