MODEL 1
REMARK VINA RESULT: -8.788132099      0.000      0.000
REMARK  4 active torsions:
REMARK  status: ('A' for Active; 'I' for Inactive)
REMARK    1  A    between atoms: C7_7  and  N1_8 
REMARK    2  A    between atoms: N1_8  and  C8_10 
REMARK    3  A    between atoms: C10_13  and  C11_14 
REMARK    4  A    between atoms: C11_14  and  N3_18 
ROOT
HETATM    1  C8  UNL     1      13.098  -4.029  31.639  1.00  0.00     0.113 A 
HETATM    2  S1  UNL     1      12.870  -2.361  31.680  1.00  0.00    -0.076 SA
HETATM    3  C9  UNL     1      12.584  -1.769  30.082  1.00  0.00     0.075 A 
HETATM    4  C10 UNL     1      12.618  -2.823  29.191  1.00  0.00     0.057 A 
HETATM    5  S2  UNL     1      12.929  -4.318  29.991  1.00  0.00    -0.061 SA
ENDROOT
BRANCH   1   6
HETATM    6  N1  UNL     1      13.326  -4.811  32.576  1.00  0.00    -0.374 N 
ATOM      7  H1  UNL     1      13.108  -5.791  32.394  1.00  0.00     0.161 HD
BRANCH   6   8
HETATM    8  C7  UNL     1      13.850  -4.529  33.871  1.00  0.00     0.086 C 
HETATM    9  C5  UNL     1      12.803  -4.477  34.951  1.00  0.00     0.004 C 
HETATM   10  C4  UNL     1      12.232  -5.818  35.295  1.00  0.00     0.007 C 
HETATM   11  C6  UNL     1      13.402  -3.810  36.162  1.00  0.00     0.012 C 
HETATM   12  C3  UNL     1      13.162  -6.957  35.028  1.00  0.00     0.005 C 
HETATM   13  C2  UNL     1      14.610  -6.529  35.191  1.00  0.00    -0.017 C 
HETATM   14  C1  UNL     1      15.467  -7.752  34.944  1.00  0.00     0.010 C 
HETATM   15  C17 UNL     1      14.965  -5.483  34.175  1.00  0.00     0.029 C 
ENDBRANCH   6   8
ENDBRANCH   1   6
BRANCH   4  16
HETATM   16  C11 UNL     1      12.423  -2.732  27.753  1.00  0.00     0.114 C 
HETATM   17  N2  UNL     1      12.788  -3.688  27.006  1.00  0.00    -0.384 N 
ATOM     18  H22 UNL     1      13.213  -4.506  27.444  1.00  0.00     0.157 HD
ATOM     19  H21 UNL     1      12.652  -3.624  25.997  1.00  0.00     0.157 HD
BRANCH  16  20
HETATM   20  N3  UNL     1      11.827  -1.586  27.141  1.00  0.00    -0.367 N 
HETATM   21  C12 UNL     1      10.449  -1.222  27.373  1.00  0.00     0.124 C 
HETATM   22  C13 UNL     1       9.922  -0.564  26.119  1.00  0.00     0.020 C 
HETATM   23  C14 UNL     1      10.559  -1.270  24.931  1.00  0.00     0.003 C 
HETATM   24  C15 UNL     1      12.032  -0.906  24.846  1.00  0.00     0.020 C 
HETATM   25  C16 UNL     1      12.605  -0.741  26.247  1.00  0.00     0.124 C 
ENDBRANCH  16  20
ENDBRANCH   4  16
TORSDOF 4
ENDMDL
MODEL 2
REMARK VINA RESULT: -8.782246101      4.253      6.498
REMARK  4 active torsions:
REMARK  status: ('A' for Active; 'I' for Inactive)
REMARK    1  A    between atoms: C7_7  and  N1_8 
REMARK    2  A    between atoms: N1_8  and  C8_10 
REMARK    3  A    between atoms: C10_13  and  C11_14 
REMARK    4  A    between atoms: C11_14  and  N3_18 
ROOT
HETATM    1  C8  UNL     1      13.520  -7.611  31.742  1.00  0.00     0.113 A 
HETATM    2  S1  UNL     1      14.507  -7.188  30.445  1.00  0.00    -0.076 SA
HETATM    3  C9  UNL     1      14.765  -5.479  30.436  1.00  0.00     0.075 A 
HETATM    4  C10 UNL     1      14.092  -4.909  31.498  1.00  0.00     0.057 A 
HETATM    5  S2  UNL     1      13.254  -6.097  32.427  1.00  0.00    -0.061 SA
ENDROOT
BRANCH   1   6
HETATM    6  N1  UNL     1      13.113  -8.732  32.083  1.00  0.00    -0.374 N 
ATOM      7  H1  UNL     1      12.100  -8.852  32.079  1.00  0.00     0.161 HD
BRANCH   6   8
HETATM    8  C7  UNL     1      13.865  -9.876  32.480  1.00  0.00     0.086 C 
HETATM    9  C5  UNL     1      14.917  -9.580  33.515  1.00  0.00     0.004 C 
HETATM   10  C4  UNL     1      14.355  -9.277  34.870  1.00  0.00     0.007 C 
HETATM   11  C6  UNL     1      15.873 -10.743  33.567  1.00  0.00     0.012 C 
HETATM   12  C3  UNL     1      13.024  -9.907  35.126  1.00  0.00     0.005 C 
HETATM   13  C2  UNL     1      12.884 -11.215  34.367  1.00  0.00    -0.017 C 
HETATM   14  C1  UNL     1      11.532 -11.795  34.722  1.00  0.00     0.010 C 
HETATM   15  C17 UNL     1      12.928 -10.972  32.888  1.00  0.00     0.029 C 
ENDBRANCH   6   8
ENDBRANCH   1   6
BRANCH   4  16
HETATM   16  C11 UNL     1      14.062  -3.494  31.830  1.00  0.00     0.114 C 
HETATM   17  N2  UNL     1      13.675  -2.653  30.966  1.00  0.00    -0.384 N 
ATOM     18  H22 UNL     1      13.391  -2.999  30.050  1.00  0.00     0.157 HD
ATOM     19  H21 UNL     1      13.654  -1.660  31.200  1.00  0.00     0.157 HD
BRANCH  16  20
HETATM   20  N3  UNL     1      14.460  -3.010  33.115  1.00  0.00    -0.367 N 
HETATM   21  C12 UNL     1      15.839  -3.017  33.544  1.00  0.00     0.124 C 
HETATM   22  C13 UNL     1      15.862  -3.217  35.040  1.00  0.00     0.020 C 
HETATM   23  C14 UNL     1      14.724  -4.165  35.392  1.00  0.00     0.003 C 
HETATM   24  C15 UNL     1      13.392  -3.455  35.220  1.00  0.00     0.020 C 
HETATM   25  C16 UNL     1      13.469  -2.490  34.045  1.00  0.00     0.124 C 
ENDBRANCH  16  20
ENDBRANCH   4  16
TORSDOF 4
ENDMDL
MODEL 3
REMARK VINA RESULT: -8.614589264      5.354      8.329
REMARK  4 active torsions:
REMARK  status: ('A' for Active; 'I' for Inactive)
REMARK    1  A    between atoms: C7_7  and  N1_8 
REMARK    2  A    between atoms: N1_8  and  C8_10 
REMARK    3  A    between atoms: C10_13  and  C11_14 
REMARK    4  A    between atoms: C11_14  and  N3_18 
ROOT
HETATM    1  C8  UNL     1      15.017  -6.262  32.410  1.00  0.00     0.113 A 
HETATM    2  S1  UNL     1      13.610  -6.723  31.606  1.00  0.00    -0.076 SA
HETATM    3  C9  UNL     1      13.430  -8.440  31.677  1.00  0.00     0.075 A 
HETATM    4  C10 UNL     1      14.490  -8.983  32.377  1.00  0.00     0.057 A 
HETATM    5  S2  UNL     1      15.586  -7.763  32.911  1.00  0.00    -0.061 SA
ENDROOT
BRANCH   1   6
HETATM    6  N1  UNL     1      15.487  -5.125  32.575  1.00  0.00    -0.374 N 
ATOM      7  H1  UNL     1      15.546  -4.547  31.736  1.00  0.00     0.161 HD
BRANCH   6   8
HETATM    8  C7  UNL     1      15.955  -4.515  33.775  1.00  0.00     0.086 C 
HETATM    9  C5  UNL     1      16.124  -3.024  33.672  1.00  0.00     0.004 C 
HETATM   10  C4  UNL     1      14.827  -2.278  33.606  1.00  0.00     0.007 C 
HETATM   11  C6  UNL     1      16.964  -2.558  34.833  1.00  0.00     0.012 C 
HETATM   12  C3  UNL     1      13.687  -2.989  34.262  1.00  0.00     0.005 C 
HETATM   13  C2  UNL     1      14.172  -3.847  35.417  1.00  0.00    -0.017 C 
HETATM   14  C1  UNL     1      12.951  -4.488  36.040  1.00  0.00     0.010 C 
HETATM   15  C17 UNL     1      15.081  -4.932  34.919  1.00  0.00     0.029 C 
ENDBRANCH   6   8
ENDBRANCH   1   6
BRANCH   4  16
HETATM   16  C11 UNL     1      14.699 -10.395  32.650  1.00  0.00     0.114 C 
HETATM   17  N2  UNL     1      15.582 -11.037  32.008  1.00  0.00    -0.384 N 
ATOM     18  H22 UNL     1      16.128 -10.536  31.308  1.00  0.00     0.157 HD
ATOM     19  H21 UNL     1      15.728 -12.029  32.200  1.00  0.00     0.157 HD
BRANCH  16  20
HETATM   20  N3  UNL     1      13.933 -11.097  33.632  1.00  0.00    -0.367 N 
HETATM   21  C12 UNL     1      12.569 -11.506  33.392  1.00  0.00     0.124 C 
HETATM   22  C13 UNL     1      11.832 -11.473  34.710  1.00  0.00     0.020 C 
HETATM   23  C14 UNL     1      12.373 -10.295  35.507  1.00  0.00     0.003 C 
HETATM   24  C15 UNL     1      13.786 -10.598  35.976  1.00  0.00     0.020 C 
HETATM   25  C16 UNL     1      14.515 -11.423  34.926  1.00  0.00     0.124 C 
ENDBRANCH  16  20
ENDBRANCH   4  16
TORSDOF 4
ENDMDL
MODEL 4
REMARK VINA RESULT: -8.450688329      5.332      8.311
REMARK  4 active torsions:
REMARK  status: ('A' for Active; 'I' for Inactive)
REMARK    1  A    between atoms: C7_7  and  N1_8 
REMARK    2  A    between atoms: N1_8  and  C8_10 
REMARK    3  A    between atoms: C10_13  and  C11_14 
REMARK    4  A    between atoms: C11_14  and  N3_18 
ROOT
HETATM    1  C8  UNL     1      14.714  -6.120  32.330  1.00  0.00     0.113 A 
HETATM    2  S1  UNL     1      13.864  -6.637  30.971  1.00  0.00    -0.076 SA
HETATM    3  C9  UNL     1      13.257  -8.235  31.230  1.00  0.00     0.075 A 
HETATM    4  C10 UNL     1      13.630  -8.667  32.487  1.00  0.00     0.057 A 
HETATM    5  S2  UNL     1      14.551  -7.470  33.321  1.00  0.00    -0.061 SA
ENDROOT
BRANCH   1   6
HETATM    6  N1  UNL     1      15.292  -5.040  32.527  1.00  0.00    -0.374 N 
ATOM      7  H1  UNL     1      15.404  -4.445  31.705  1.00  0.00     0.161 HD
BRANCH   6   8
HETATM    8  C7  UNL     1      15.821  -4.516  33.742  1.00  0.00     0.086 C 
HETATM    9  C5  UNL     1      16.060  -3.031  33.708  1.00  0.00     0.004 C 
HETATM   10  C4  UNL     1      14.799  -2.222  33.719  1.00  0.00     0.007 C 
HETATM   11  C6  UNL     1      16.953  -2.666  34.866  1.00  0.00     0.012 C 
HETATM   12  C3  UNL     1      13.645  -2.912  34.371  1.00  0.00     0.005 C 
HETATM   13  C2  UNL     1      14.119  -3.850  35.467  1.00  0.00    -0.017 C 
HETATM   14  C1  UNL     1      12.885  -4.465  36.093  1.00  0.00     0.010 C 
HETATM   15  C17 UNL     1      14.960  -4.950  34.888  1.00  0.00     0.029 C 
ENDBRANCH   6   8
ENDBRANCH   1   6
BRANCH   4  16
HETATM   16  C11 UNL     1      13.312  -9.957  33.076  1.00  0.00     0.114 C 
HETATM   17  N2  UNL     1      12.170 -10.472  32.887  1.00  0.00    -0.384 N 
ATOM     18  H22 UNL     1      11.498  -9.958  32.317  1.00  0.00     0.157 HD
ATOM     19  H21 UNL     1      11.947 -11.378  33.300  1.00  0.00     0.157 HD
BRANCH  16  20
HETATM   20  N3  UNL     1      14.254 -10.678  33.874  1.00  0.00    -0.367 N 
HETATM   21  C12 UNL     1      14.029 -10.942  35.276  1.00  0.00     0.124 C 
HETATM   22  C13 UNL     1      15.371 -10.968  35.968  1.00  0.00     0.020 C 
HETATM   23  C14 UNL     1      16.250  -9.920  35.300  1.00  0.00     0.003 C 
HETATM   24  C15 UNL     1      16.638 -10.387  33.908  1.00  0.00     0.020 C 
HETATM   25  C16 UNL     1      15.491 -11.171  33.287  1.00  0.00     0.124 C 
ENDBRANCH  16  20
ENDBRANCH   4  16
TORSDOF 4
ENDMDL
MODEL 5
REMARK VINA RESULT: -8.360806260      5.147      6.665
REMARK  4 active torsions:
REMARK  status: ('A' for Active; 'I' for Inactive)
REMARK    1  A    between atoms: C7_7  and  N1_8 
REMARK    2  A    between atoms: N1_8  and  C8_10 
REMARK    3  A    between atoms: C10_13  and  C11_14 
REMARK    4  A    between atoms: C11_14  and  N3_18 
ROOT
HETATM    1  C8  UNL     1      13.630  -7.708  33.364  1.00  0.00     0.113 A 
HETATM    2  S1  UNL     1      13.562  -7.732  31.681  1.00  0.00    -0.076 SA
HETATM    3  C9  UNL     1      14.702  -6.607  31.032  1.00  0.00     0.075 A 
HETATM    4  C10 UNL     1      15.371  -5.985  32.067  1.00  0.00     0.057 A 
HETATM    5  S2  UNL     1      14.827  -6.551  33.603  1.00  0.00    -0.061 SA
ENDROOT
BRANCH   1   6
HETATM    6  N1  UNL     1      12.972  -8.369  34.183  1.00  0.00    -0.374 N 
ATOM      7  H1  UNL     1      12.024  -8.034  34.358  1.00  0.00     0.161 HD
BRANCH   6   8
HETATM    8  C7  UNL     1      13.357  -9.531  34.912  1.00  0.00     0.086 C 
HETATM    9  C5  UNL     1      12.506 -10.738  34.623  1.00  0.00     0.004 C 
HETATM   10  C4  UNL     1      12.733 -11.319  33.262  1.00  0.00     0.007 C 
HETATM   11  C6  UNL     1      12.751 -11.762  35.702  1.00  0.00     0.012 C 
HETATM   12  C3  UNL     1      14.098 -11.056  32.713  1.00  0.00     0.005 C 
HETATM   13  C2  UNL     1      15.124 -10.954  33.828  1.00  0.00    -0.017 C 
HETATM   14  C1  UNL     1      16.472 -10.731  33.176  1.00  0.00     0.010 C 
HETATM   15  C17 UNL     1      14.821  -9.781  34.714  1.00  0.00     0.029 C 
ENDBRANCH   6   8
ENDBRANCH   1   6
BRANCH   4  16
HETATM   16  C11 UNL     1      16.406  -4.974  31.930  1.00  0.00     0.114 C 
HETATM   17  N2  UNL     1      17.377  -5.170  31.140  1.00  0.00    -0.384 N 
ATOM     18  H22 UNL     1      17.403  -6.045  30.616  1.00  0.00     0.157 HD
ATOM     19  H21 UNL     1      18.104  -4.461  31.045  1.00  0.00     0.157 HD
BRANCH  16  20
HETATM   20  N3  UNL     1      16.370  -3.749  32.665  1.00  0.00    -0.367 N 
HETATM   21  C12 UNL     1      17.241  -3.503  33.790  1.00  0.00     0.124 C 
HETATM   22  C13 UNL     1      16.507  -2.610  34.763  1.00  0.00     0.020 C 
HETATM   23  C14 UNL     1      15.039  -3.011  34.732  1.00  0.00     0.003 C 
HETATM   24  C15 UNL     1      14.415  -2.575  33.418  1.00  0.00     0.020 C 
HETATM   25  C16 UNL     1      15.435  -2.696  32.295  1.00  0.00     0.124 C 
ENDBRANCH  16  20
ENDBRANCH   4  16
TORSDOF 4
ENDMDL
