MODEL 1
REMARK VINA RESULT: -8.630369001      0.000      0.000
REMARK  5 active torsions:
REMARK  status: ('A' for Active; 'I' for Inactive)
REMARK    1  A    between atoms: C2_2  and  C4_4 
REMARK    2  A    between atoms: C9_9  and  C10_10 
REMARK    3  A    between atoms: C19_19  and  O1_20 
REMARK    4  A    between atoms: C19_19  and  C20_22 
REMARK    5  A    between atoms: C20_22  and  O3_24 
ROOT
HETATM    1  C4  UNL     1      14.071  -4.439  33.421  1.00  0.00     0.027 C 
HETATM    2  C5  UNL     1      15.376  -4.829  32.785  1.00  0.00     0.019 C 
HETATM    3  C6  UNL     1      15.565  -6.232  32.437  1.00  0.00     0.011 C 
HETATM    4  C7  UNL     1      14.562  -7.282  32.738  1.00  0.00    -0.036 C 
HETATM    5  C8  UNL     1      14.250  -7.880  31.338  1.00  0.00     0.016 C 
HETATM    6  C9  UNL     1      15.070  -8.339  33.662  1.00  0.00    -0.003 C 
HETATM    7  C13 UNL     1      14.094  -8.473  34.782  1.00  0.00     0.006 C 
HETATM    8  C14 UNL     1      13.016  -7.442  34.607  1.00  0.00     0.006 C 
HETATM    9  C15 UNL     1      13.219  -6.843  33.266  1.00  0.00    -0.001 C 
HETATM   10  C16 UNL     1      13.059  -5.424  33.044  1.00  0.00     0.007 C 
HETATM   11  C17 UNL     1      11.770  -4.769  33.465  1.00  0.00     0.010 C 
HETATM   12  C18 UNL     1      11.982  -3.408  32.821  1.00  0.00     0.050 C 
HETATM   13  C19 UNL     1      13.477  -3.202  32.693  1.00  0.00     0.157 C 
ENDROOT
BRANCH  13  14
HETATM   14  O1  UNL     1      13.935  -2.044  33.332  1.00  0.00    -0.378 OA
ATOM     15  H1  UNL     1      13.337  -1.332  33.136  1.00  0.00     0.211 HD
ENDBRANCH  13  14
BRANCH  13  16
HETATM   16  C20 UNL     1      13.902  -3.082  31.286  1.00  0.00     0.294 C 
HETATM   17  O2  UNL     1      14.768  -2.188  30.975  1.00  0.00    -0.262 OA
BRANCH  16  18
HETATM   18  O3  UNL     1      13.478  -3.827  30.209  1.00  0.00    -0.324 OA
HETATM   19  C21 UNL     1      12.695  -3.296  29.154  1.00  0.00     0.213 C 
ENDBRANCH  16  18
ENDBRANCH  13  16
BRANCH   1  20
HETATM   20  C2  UNL     1      14.232  -4.081  34.814  1.00  0.00    -0.081 C 
HETATM   21  C1  UNL     1      13.398  -4.159  35.818  1.00  0.00     0.015 C 
HETATM   22  C3  UNL     1      15.606  -3.571  35.242  1.00  0.00     0.043 C 
ENDBRANCH   1  20
BRANCH   6  23
HETATM   23  C10 UNL     1      15.319  -9.689  33.025  1.00  0.00    -0.018 C 
HETATM   24  C11 UNL     1      14.486 -10.738  33.796  1.00  0.00     0.010 C 
HETATM   25  C12 UNL     1      16.748 -10.156  33.159  1.00  0.00     0.010 C 
ENDBRANCH   6  23
TORSDOF 5
ENDMDL
MODEL 2
REMARK VINA RESULT: -8.600151431      1.404      1.889
REMARK  5 active torsions:
REMARK  status: ('A' for Active; 'I' for Inactive)
REMARK    1  A    between atoms: C2_2  and  C4_4 
REMARK    2  A    between atoms: C9_9  and  C10_10 
REMARK    3  A    between atoms: C19_19  and  O1_20 
REMARK    4  A    between atoms: C19_19  and  C20_22 
REMARK    5  A    between atoms: C20_22  and  O3_24 
ROOT
HETATM    1  C4  UNL     1      14.815  -3.593  32.946  1.00  0.00     0.027 C 
HETATM    2  C5  UNL     1      15.002  -4.396  31.690  1.00  0.00     0.019 C 
HETATM    3  C6  UNL     1      14.666  -5.814  31.738  1.00  0.00     0.011 C 
HETATM    4  C7  UNL     1      14.213  -6.496  32.974  1.00  0.00    -0.036 C 
HETATM    5  C8  UNL     1      12.829  -7.075  32.569  1.00  0.00     0.016 C 
HETATM    6  C9  UNL     1      15.130  -7.585  33.420  1.00  0.00    -0.003 C 
HETATM    7  C13 UNL     1      15.464  -7.343  34.853  1.00  0.00     0.006 C 
HETATM    8  C14 UNL     1      14.823  -6.055  35.286  1.00  0.00     0.006 C 
HETATM    9  C15 UNL     1      13.922  -5.643  34.184  1.00  0.00    -0.001 C 
HETATM   10  C16 UNL     1      13.814  -4.260  33.778  1.00  0.00     0.007 C 
HETATM   11  C17 UNL     1      13.493  -3.224  34.823  1.00  0.00     0.010 C 
HETATM   12  C18 UNL     1      13.250  -2.038  33.904  1.00  0.00     0.050 C 
HETATM   13  C19 UNL     1      14.027  -2.292  32.630  1.00  0.00     0.157 C 
ENDROOT
BRANCH  13  14
HETATM   14  O1  UNL     1      14.942  -1.278  32.325  1.00  0.00    -0.378 OA
ATOM     15  H1  UNL     1      15.470  -1.558  31.586  1.00  0.00     0.211 HD
ENDBRANCH  13  14
BRANCH  13  16
HETATM   16  C20 UNL     1      13.144  -2.406  31.455  1.00  0.00     0.294 C 
HETATM   17  O2  UNL     1      11.915  -2.730  31.634  1.00  0.00    -0.262 OA
BRANCH  16  18
HETATM   18  O3  UNL     1      13.467  -2.209  30.132  1.00  0.00    -0.324 OA
HETATM   19  C21 UNL     1      12.729  -2.763  29.058  1.00  0.00     0.213 C 
ENDBRANCH  16  18
ENDBRANCH  13  16
BRANCH   1  20
HETATM   20  C2  UNL     1      16.078  -3.198  33.531  1.00  0.00    -0.081 C 
HETATM   21  C1  UNL     1      16.379  -2.835  34.751  1.00  0.00     0.015 C 
HETATM   22  C3  UNL     1      17.306  -3.249  32.624  1.00  0.00     0.043 C 
ENDBRANCH   1  20
BRANCH   6  23
HETATM   23  C10 UNL     1      14.600  -8.991  33.239  1.00  0.00    -0.018 C 
HETATM   24  C11 UNL     1      14.767  -9.738  34.583  1.00  0.00     0.010 C 
HETATM   25  C12 UNL     1      15.394  -9.804  32.245  1.00  0.00     0.010 C 
ENDBRANCH   6  23
TORSDOF 5
ENDMDL
MODEL 3
REMARK VINA RESULT: -8.497820341      1.786      2.799
REMARK  5 active torsions:
REMARK  status: ('A' for Active; 'I' for Inactive)
REMARK    1  A    between atoms: C2_2  and  C4_4 
REMARK    2  A    between atoms: C9_9  and  C10_10 
REMARK    3  A    between atoms: C19_19  and  O1_20 
REMARK    4  A    between atoms: C19_19  and  C20_22 
REMARK    5  A    between atoms: C20_22  and  O3_24 
ROOT
HETATM    1  C4  UNL     1      13.992  -5.160  33.908  1.00  0.00     0.027 C 
HETATM    2  C5  UNL     1      14.757  -5.773  35.048  1.00  0.00     0.019 C 
HETATM    3  C6  UNL     1      15.350  -7.088  34.833  1.00  0.00     0.011 C 
HETATM    4  C7  UNL     1      15.178  -7.857  33.578  1.00  0.00    -0.036 C 
HETATM    5  C8  UNL     1      16.640  -8.084  33.102  1.00  0.00     0.016 C 
HETATM    6  C9  UNL     1      14.479  -9.162  33.775  1.00  0.00    -0.003 C 
HETATM    7  C13 UNL     1      13.346  -9.221  32.807  1.00  0.00     0.006 C 
HETATM    8  C14 UNL     1      13.281  -7.920  32.060  1.00  0.00     0.006 C 
HETATM    9  C15 UNL     1      14.509  -7.169  32.415  1.00  0.00    -0.001 C 
HETATM   10  C16 UNL     1      14.475  -5.745  32.658  1.00  0.00     0.007 C 
HETATM   11  C17 UNL     1      13.876  -4.847  31.607  1.00  0.00     0.010 C 
HETATM   12  C18 UNL     1      14.289  -3.505  32.189  1.00  0.00     0.050 C 
HETATM   13  C19 UNL     1      14.463  -3.698  33.681  1.00  0.00     0.157 C 
ENDROOT
BRANCH  13  14
HETATM   14  O1  UNL     1      13.662  -2.846  34.449  1.00  0.00    -0.378 OA
ATOM     15  H1  UNL     1      14.217  -2.188  34.852  1.00  0.00     0.211 HD
ENDBRANCH  13  14
BRANCH  13  16
HETATM   16  C20 UNL     1      15.850  -3.448  34.114  1.00  0.00     0.294 C 
HETATM   17  O2  UNL     1      16.052  -2.854  35.233  1.00  0.00    -0.262 OA
BRANCH  16  18
HETATM   18  O3  UNL     1      17.013  -3.775  33.455  1.00  0.00    -0.324 OA
HETATM   19  C21 UNL     1      17.540  -3.017  32.380  1.00  0.00     0.213 C 
ENDBRANCH  16  18
ENDBRANCH  13  16
BRANCH   1  20
HETATM   20  C2  UNL     1      12.570  -5.117  34.172  1.00  0.00    -0.081 C 
HETATM   21  C1  UNL     1      11.562  -4.854  33.381  1.00  0.00     0.015 C 
HETATM   22  C3  UNL     1      12.116  -5.487  35.582  1.00  0.00     0.043 C 
ENDBRANCH   1  20
BRANCH   6  23
HETATM   23  C10 UNL     1      15.351 -10.390  33.631  1.00  0.00    -0.018 C 
HETATM   24  C11 UNL     1      14.836 -11.199  32.418  1.00  0.00     0.010 C 
HETATM   25  C12 UNL     1      15.241 -11.338  34.801  1.00  0.00     0.010 C 
ENDBRANCH   6  23
TORSDOF 5
ENDMDL
MODEL 4
REMARK VINA RESULT: -8.289805523      1.145      1.391
REMARK  5 active torsions:
REMARK  status: ('A' for Active; 'I' for Inactive)
REMARK    1  A    between atoms: C2_2  and  C4_4 
REMARK    2  A    between atoms: C9_9  and  C10_10 
REMARK    3  A    between atoms: C19_19  and  O1_20 
REMARK    4  A    between atoms: C19_19  and  C20_22 
REMARK    5  A    between atoms: C20_22  and  O3_24 
ROOT
HETATM    1  C4  UNL     1      14.964  -4.053  33.031  1.00  0.00     0.027 C 
HETATM    2  C5  UNL     1      15.647  -4.614  31.816  1.00  0.00     0.019 C 
HETATM    3  C6  UNL     1      15.634  -6.062  31.641  1.00  0.00     0.011 C 
HETATM    4  C7  UNL     1      15.036  -6.990  32.630  1.00  0.00    -0.036 C 
HETATM    5  C8  UNL     1      13.971  -7.754  31.795  1.00  0.00     0.016 C 
HETATM    6  C9  UNL     1      16.023  -7.940  33.223  1.00  0.00    -0.003 C 
HETATM    7  C13 UNL     1      15.906  -7.851  34.707  1.00  0.00     0.006 C 
HETATM    8  C14 UNL     1      14.905  -6.785  35.049  1.00  0.00     0.006 C 
HETATM    9  C15 UNL     1      14.256  -6.393  33.775  1.00  0.00    -0.001 C 
HETATM   10  C16 UNL     1      13.955  -5.011  33.479  1.00  0.00     0.007 C 
HETATM   11  C17 UNL     1      13.148  -4.219  34.474  1.00  0.00     0.010 C 
HETATM   12  C18 UNL     1      12.898  -2.979  33.632  1.00  0.00     0.050 C 
HETATM   13  C19 UNL     1      14.018  -2.892  32.617  1.00  0.00     0.157 C 
ENDROOT
BRANCH  13  14
HETATM   14  O1  UNL     1      14.732  -1.690  32.678  1.00  0.00    -0.378 OA
ATOM     15  H1  UNL     1      15.659  -1.891  32.738  1.00  0.00     0.211 HD
ENDBRANCH  13  14
BRANCH  13  16
HETATM   16  C20 UNL     1      13.522  -2.998  31.233  1.00  0.00     0.294 C 
HETATM   17  O2  UNL     1      13.878  -2.110  30.378  1.00  0.00    -0.262 OA
BRANCH  16  18
HETATM   18  O3  UNL     1      12.688  -3.957  30.705  1.00  0.00    -0.324 OA
HETATM   19  C21 UNL     1      12.862  -4.518  29.416  1.00  0.00     0.213 C 
ENDBRANCH  16  18
ENDBRANCH  13  16
BRANCH   1  20
HETATM   20  C2  UNL     1      15.909  -3.517  33.986  1.00  0.00    -0.081 C 
HETATM   21  C1  UNL     1      15.792  -3.287  35.268  1.00  0.00     0.015 C 
HETATM   22  C3  UNL     1      17.311  -3.200  33.469  1.00  0.00     0.043 C 
ENDBRANCH   1  20
BRANCH   6  23
HETATM   23  C10 UNL     1      15.885  -9.379  32.775  1.00  0.00    -0.018 C 
HETATM   24  C11 UNL     1      15.833 -10.266  34.040  1.00  0.00     0.010 C 
HETATM   25  C12 UNL     1      17.080  -9.879  32.001  1.00  0.00     0.010 C 
ENDBRANCH   6  23
TORSDOF 5
ENDMDL
MODEL 5
REMARK VINA RESULT: -8.139904230      0.830      1.008
REMARK  5 active torsions:
REMARK  status: ('A' for Active; 'I' for Inactive)
REMARK    1  A    between atoms: C2_2  and  C4_4 
REMARK    2  A    between atoms: C9_9  and  C10_10 
REMARK    3  A    between atoms: C19_19  and  O1_20 
REMARK    4  A    between atoms: C19_19  and  C20_22 
REMARK    5  A    between atoms: C20_22  and  O3_24 
ROOT
HETATM    1  C4  UNL     1      14.469  -4.298  33.296  1.00  0.00     0.027 C 
HETATM    2  C5  UNL     1      15.685  -4.389  32.417  1.00  0.00     0.019 C 
HETATM    3  C6  UNL     1      16.062  -5.707  31.920  1.00  0.00     0.011 C 
HETATM    4  C7  UNL     1      15.341  -6.948  32.292  1.00  0.00    -0.036 C 
HETATM    5  C8  UNL     1      14.893  -7.518  30.917  1.00  0.00     0.016 C 
HETATM    6  C9  UNL     1      16.193  -7.933  33.020  1.00  0.00    -0.003 C 
HETATM    7  C13 UNL     1      15.479  -8.316  34.272  1.00  0.00     0.006 C 
HETATM    8  C14 UNL     1      14.216  -7.509  34.373  1.00  0.00     0.006 C 
HETATM    9  C15 UNL     1      14.059  -6.811  33.075  1.00  0.00    -0.001 C 
HETATM   10  C16 UNL     1      13.603  -5.441  33.009  1.00  0.00     0.007 C 
HETATM   11  C17 UNL     1      12.314  -5.075  33.698  1.00  0.00     0.010 C 
HETATM   12  C18 UNL     1      12.152  -3.666  33.149  1.00  0.00     0.050 C 
HETATM   13  C19 UNL     1      13.535  -3.164  32.790  1.00  0.00     0.157 C 
ENDROOT
BRANCH  13  14
HETATM   14  O1  UNL     1      13.881  -1.975  33.442  1.00  0.00    -0.378 OA
ATOM     15  H1  UNL     1      14.132  -1.332  32.789  1.00  0.00     0.211 HD
ENDBRANCH  13  14
BRANCH  13  16
HETATM   16  C20 UNL     1      13.667  -2.887  31.348  1.00  0.00     0.294 C 
HETATM   17  O2  UNL     1      14.242  -1.802  30.976  1.00  0.00    -0.262 OA
BRANCH  16  18
HETATM   18  O3  UNL     1      13.237  -3.663  30.295  1.00  0.00    -0.324 OA
HETATM   19  C21 UNL     1      12.585  -3.137  29.154  1.00  0.00     0.213 C 
ENDBRANCH  16  18
ENDBRANCH  13  16
BRANCH   1  20
HETATM   20  C2  UNL     1      14.812  -3.991  34.667  1.00  0.00    -0.081 C 
HETATM   21  C1  UNL     1      14.171  -4.229  35.782  1.00  0.00     0.015 C 
HETATM   22  C3  UNL     1      16.166  -3.326  34.909  1.00  0.00     0.043 C 
ENDBRANCH   1  20
BRANCH   6  23
HETATM   23  C10 UNL     1      16.566  -9.171  32.234  1.00  0.00    -0.018 C 
HETATM   24  C11 UNL     1      16.559 -10.372  33.208  1.00  0.00     0.010 C 
HETATM   25  C12 UNL     1      17.971  -9.127  31.685  1.00  0.00     0.010 C 
ENDBRANCH   6  23
TORSDOF 5
ENDMDL
