MODEL 1
REMARK VINA RESULT: -10.986049691      0.000      0.000
REMARK  3 active torsions:
REMARK  status: ('A' for Active; 'I' for Inactive)
REMARK    1  A    between atoms: O1_2  and  C2_3 
REMARK    2  A    between atoms: C12_13  and  C14_15 
REMARK    3  A    between atoms: C14_15  and  O2_16 
ROOT
HETATM    1  C2  UNL     1      13.080 -10.278  33.824  1.00  0.00     0.259 C 
HETATM    2  C3  UNL     1      13.944 -11.234  34.601  1.00  0.00     0.061 C 
HETATM    3  C4  UNL     1      14.666 -10.531  35.700  1.00  0.00     0.006 C 
HETATM    4  C5  UNL     1      15.742  -9.616  35.253  1.00  0.00     0.012 C 
HETATM    5  C6  UNL     1      15.423  -8.687  34.162  1.00  0.00    -0.013 C 
HETATM    6  C7  UNL     1      16.078  -9.043  32.844  1.00  0.00     0.018 C 
HETATM    7  C8  UNL     1      15.792  -7.245  34.565  1.00  0.00     0.003 C 
HETATM    8  C9  UNL     1      16.180  -6.444  33.389  1.00  0.00     0.006 C 
HETATM    9  C10 UNL     1      15.585  -5.042  33.397  1.00  0.00     0.007 C 
HETATM   10  C11 UNL     1      14.094  -5.057  33.610  1.00  0.00     0.004 C 
HETATM   11  C12 UNL     1      13.535  -3.702  33.484  1.00  0.00    -0.018 C 
HETATM   12  C13 UNL     1      12.239  -3.721  32.657  1.00  0.00     0.018 C 
HETATM   13  C15 UNL     1      13.390  -2.895  34.716  1.00  0.00     0.012 C 
HETATM   14  C16 UNL     1      13.462  -3.594  36.011  1.00  0.00     0.002 C 
HETATM   15  C17 UNL     1      14.162  -4.899  36.028  1.00  0.00     0.010 C 
HETATM   16  C18 UNL     1      13.750  -5.787  34.866  1.00  0.00    -0.033 C 
HETATM   17  C19 UNL     1      12.243  -6.082  34.917  1.00  0.00     0.016 C 
HETATM   18  C20 UNL     1      14.403  -7.095  35.035  1.00  0.00     0.029 C 
HETATM   19  C21 UNL     1      14.012  -8.204  34.084  1.00  0.00     0.138 C 
HETATM   20  O3  UNL     1      13.057  -9.067  34.511  1.00  0.00    -0.355 OA
ENDROOT
BRANCH  11  21
HETATM   21  C14 UNL     1      14.482  -2.907  32.557  1.00  0.00     0.173 C 
BRANCH  21  22
HETATM   22  O2  UNL     1      14.634  -1.660  33.210  1.00  0.00    -0.400 OA
ATOM     23  H2  UNL     1      14.046  -1.081  32.740  1.00  0.00     0.209 HD
ENDBRANCH  21  22
ENDBRANCH  11  21
BRANCH   1  24
HETATM   24  O1  UNL     1      11.741 -10.717  33.773  1.00  0.00    -0.366 OA
HETATM   25  C1  UNL     1      11.637 -12.040  34.194  1.00  0.00     0.204 C 
ENDBRANCH   1  24
TORSDOF 3
ENDMDL
MODEL 2
REMARK VINA RESULT: -10.046865153      1.668      6.378
REMARK  3 active torsions:
REMARK  status: ('A' for Active; 'I' for Inactive)
REMARK    1  A    between atoms: O1_2  and  C2_3 
REMARK    2  A    between atoms: C12_13  and  C14_15 
REMARK    3  A    between atoms: C14_15  and  O2_16 
ROOT
HETATM    1  C2  UNL     1      15.571  -3.682  32.612  1.00  0.00     0.259 C 
HETATM    2  C3  UNL     1      15.724  -2.585  33.631  1.00  0.00     0.061 C 
HETATM    3  C4  UNL     1      16.038  -3.144  34.977  1.00  0.00     0.006 C 
HETATM    4  C5  UNL     1      14.918  -3.861  35.630  1.00  0.00     0.012 C 
HETATM    5  C6  UNL     1      14.183  -4.840  34.819  1.00  0.00    -0.013 C 
HETATM    6  C7  UNL     1      12.795  -4.384  34.421  1.00  0.00     0.018 C 
HETATM    7  C8  UNL     1      14.106  -6.192  35.554  1.00  0.00     0.003 C 
HETATM    8  C9  UNL     1      12.873  -6.922  35.205  1.00  0.00     0.006 C 
HETATM    9  C10 UNL     1      13.106  -8.406  34.953  1.00  0.00     0.007 C 
HETATM   10  C11 UNL     1      14.213  -8.648  33.960  1.00  0.00     0.004 C 
HETATM   11  C12 UNL     1      14.324 -10.081  33.644  1.00  0.00    -0.018 C 
HETATM   12  C13 UNL     1      14.509 -10.293  32.132  1.00  0.00     0.018 C 
HETATM   13  C15 UNL     1      15.277 -10.892  34.434  1.00  0.00     0.012 C 
HETATM   14  C16 UNL     1      16.301 -10.183  35.221  1.00  0.00     0.002 C 
HETATM   15  C17 UNL     1      16.010  -8.776  35.581  1.00  0.00     0.010 C 
HETATM   16  C18 UNL     1      15.472  -7.981  34.404  1.00  0.00    -0.033 C 
HETATM   17  C19 UNL     1      16.494  -7.952  33.257  1.00  0.00     0.016 C 
HETATM   18  C20 UNL     1      15.328  -6.578  34.825  1.00  0.00     0.029 C 
HETATM   19  C21 UNL     1      14.963  -5.561  33.768  1.00  0.00     0.138 C 
HETATM   20  O3  UNL     1      15.985  -4.874  33.201  1.00  0.00    -0.355 OA
ENDROOT
BRANCH  11  21
HETATM   21  C14 UNL     1      12.930 -10.705  33.876  1.00  0.00     0.173 C 
BRANCH  21  22
HETATM   22  O2  UNL     1      12.307 -10.634  32.606  1.00  0.00    -0.400 OA
ATOM     23  H2  UNL     1      11.981  -9.742  32.560  1.00  0.00     0.209 HD
ENDBRANCH  21  22
ENDBRANCH  11  21
BRANCH   1  24
HETATM   24  O1  UNL     1      16.423  -3.482  31.507  1.00  0.00    -0.366 OA
HETATM   25  C1  UNL     1      17.672  -3.026  31.921  1.00  0.00     0.204 C 
ENDBRANCH   1  24
TORSDOF 3
ENDMDL
MODEL 3
REMARK VINA RESULT: -9.619699465      1.186      1.448
REMARK  3 active torsions:
REMARK  status: ('A' for Active; 'I' for Inactive)
REMARK    1  A    between atoms: O1_2  and  C2_3 
REMARK    2  A    between atoms: C12_13  and  C14_15 
REMARK    3  A    between atoms: C14_15  and  O2_16 
ROOT
HETATM    1  C2  UNL     1      13.467  -9.793  34.556  1.00  0.00     0.259 C 
HETATM    2  C3  UNL     1      14.514 -10.818  34.900  1.00  0.00     0.061 C 
HETATM    3  C4  UNL     1      15.797 -10.164  35.282  1.00  0.00     0.006 C 
HETATM    4  C5  UNL     1      16.522  -9.513  34.166  1.00  0.00     0.012 C 
HETATM    5  C6  UNL     1      15.742  -8.645  33.275  1.00  0.00    -0.013 C 
HETATM    6  C7  UNL     1      15.498  -9.239  31.903  1.00  0.00     0.018 C 
HETATM    7  C8  UNL     1      16.421  -7.268  33.143  1.00  0.00     0.003 C 
HETATM    8  C9  UNL     1      16.158  -6.666  31.822  1.00  0.00     0.006 C 
HETATM    9  C10 UNL     1      15.821  -5.183  31.896  1.00  0.00     0.007 C 
HETATM   10  C11 UNL     1      14.717  -4.898  32.881  1.00  0.00     0.004 C 
HETATM   11  C12 UNL     1      14.329  -3.480  32.833  1.00  0.00    -0.018 C 
HETATM   12  C13 UNL     1      12.798  -3.333  32.860  1.00  0.00     0.018 C 
HETATM   13  C15 UNL     1      14.988  -2.550  33.776  1.00  0.00     0.012 C 
HETATM   14  C16 UNL     1      15.705  -3.125  34.927  1.00  0.00     0.002 C 
HETATM   15  C17 UNL     1      16.153  -4.531  34.799  1.00  0.00     0.010 C 
HETATM   16  C18 UNL     1      15.068  -5.431  34.230  1.00  0.00    -0.033 C 
HETATM   17  C19 UNL     1      13.831  -5.432  35.142  1.00  0.00     0.016 C 
HETATM   18  C20 UNL     1      15.562  -6.816  34.253  1.00  0.00     0.029 C 
HETATM   19  C21 UNL     1      14.591  -7.916  33.887  1.00  0.00     0.138 C 
HETATM   20  O3  UNL     1      13.960  -8.541  34.912  1.00  0.00    -0.355 OA
ENDROOT
BRANCH  11  21
HETATM   21  C14 UNL     1      14.664  -2.967  31.415  1.00  0.00     0.173 C 
BRANCH  21  22
HETATM   22  O2  UNL     1      15.281  -1.712  31.642  1.00  0.00    -0.400 OA
ATOM     23  H2  UNL     1      15.495  -1.726  32.568  1.00  0.00     0.209 HD
ENDBRANCH  21  22
ENDBRANCH  11  21
BRANCH   1  24
HETATM   24  O1  UNL     1      12.295  -9.976  35.319  1.00  0.00    -0.366 OA
HETATM   25  C1  UNL     1      11.686 -11.189  35.009  1.00  0.00     0.204 C 
ENDBRANCH   1  24
TORSDOF 3
ENDMDL
MODEL 4
REMARK VINA RESULT: -9.054687884      2.098      6.209
REMARK  3 active torsions:
REMARK  status: ('A' for Active; 'I' for Inactive)
REMARK    1  A    between atoms: O1_2  and  C2_3 
REMARK    2  A    between atoms: C12_13  and  C14_15 
REMARK    3  A    between atoms: C14_15  and  O2_16 
ROOT
HETATM    1  C2  UNL     1      13.574  -4.674  30.453  1.00  0.00     0.259 C 
HETATM    2  C3  UNL     1      13.930  -3.248  30.773  1.00  0.00     0.061 C 
HETATM    3  C4  UNL     1      14.805  -3.172  31.977  1.00  0.00     0.006 C 
HETATM    4  C5  UNL     1      14.134  -3.496  33.258  1.00  0.00     0.012 C 
HETATM    5  C6  UNL     1      13.306  -4.707  33.293  1.00  0.00    -0.013 C 
HETATM    6  C7  UNL     1      11.818  -4.429  33.339  1.00  0.00     0.018 C 
HETATM    7  C8  UNL     1      13.716  -5.599  34.482  1.00  0.00     0.003 C 
HETATM    8  C9  UNL     1      12.567  -6.370  34.993  1.00  0.00     0.006 C 
HETATM    9  C10 UNL     1      12.910  -7.821  35.304  1.00  0.00     0.007 C 
HETATM   10  C11 UNL     1      13.587  -8.507  34.146  1.00  0.00     0.004 C 
HETATM   11  C12 UNL     1      13.787  -9.936  34.432  1.00  0.00    -0.018 C 
HETATM   12  C13 UNL     1      13.422 -10.794  33.208  1.00  0.00     0.018 C 
HETATM   13  C15 UNL     1      15.077 -10.349  35.028  1.00  0.00     0.012 C 
HETATM   14  C16 UNL     1      16.202  -9.399  34.967  1.00  0.00     0.002 C 
HETATM   15  C17 UNL     1      15.858  -7.968  34.800  1.00  0.00     0.010 C 
HETATM   16  C18 UNL     1      14.804  -7.751  33.727  1.00  0.00    -0.033 C 
HETATM   17  C19 UNL     1      15.304  -8.258  32.365  1.00  0.00     0.016 C 
HETATM   18  C20 UNL     1      14.619  -6.303  33.552  1.00  0.00     0.029 C 
HETATM   19  C21 UNL     1      13.734  -5.839  32.417  1.00  0.00     0.138 C 
HETATM   20  O3  UNL     1      14.353  -5.501  31.259  1.00  0.00    -0.355 OA
ENDROOT
BRANCH  11  21
HETATM   21  C14 UNL     1      12.693 -10.354  35.440  1.00  0.00     0.173 C 
BRANCH  21  22
HETATM   22  O2  UNL     1      13.415 -10.951  36.502  1.00  0.00    -0.400 OA
ATOM     23  H2  UNL     1      13.980 -11.581  36.069  1.00  0.00     0.209 HD
ENDBRANCH  21  22
ENDBRANCH  11  21
BRANCH   1  24
HETATM   24  O1  UNL     1      13.909  -5.004  29.124  1.00  0.00    -0.366 OA
HETATM   25  C1  UNL     1      12.765  -5.123  28.339  1.00  0.00     0.204 C 
ENDBRANCH   1  24
TORSDOF 3
ENDMDL
MODEL 5
REMARK VINA RESULT: -9.029451300      1.419      1.686
REMARK  3 active torsions:
REMARK  status: ('A' for Active; 'I' for Inactive)
REMARK    1  A    between atoms: O1_2  and  C2_3 
REMARK    2  A    between atoms: C12_13  and  C14_15 
REMARK    3  A    between atoms: C14_15  and  O2_16 
ROOT
HETATM    1  C2  UNL     1      14.161 -10.524  32.519  1.00  0.00     0.259 C 
HETATM    2  C3  UNL     1      15.468 -11.258  32.647  1.00  0.00     0.061 C 
HETATM    3  C4  UNL     1      16.409 -10.525  33.540  1.00  0.00     0.006 C 
HETATM    4  C5  UNL     1      16.949  -9.265  32.976  1.00  0.00     0.012 C 
HETATM    5  C6  UNL     1      15.990  -8.341  32.360  1.00  0.00    -0.013 C 
HETATM    6  C7  UNL     1      16.078  -8.286  30.849  1.00  0.00     0.018 C 
HETATM    7  C8  UNL     1      16.156  -6.927  32.952  1.00  0.00     0.003 C 
HETATM    8  C9  UNL     1      15.807  -5.889  31.964  1.00  0.00     0.006 C 
HETATM    9  C10 UNL     1      14.970  -4.760  32.552  1.00  0.00     0.007 C 
HETATM   10  C11 UNL     1      13.761  -5.273  33.291  1.00  0.00     0.004 C 
HETATM   11  C12 UNL     1      12.910  -4.158  33.733  1.00  0.00    -0.018 C 
HETATM   12  C13 UNL     1      11.426  -4.468  33.471  1.00  0.00     0.018 C 
HETATM   13  C15 UNL     1      13.127  -3.618  35.094  1.00  0.00     0.012 C 
HETATM   14  C16 UNL     1      13.904  -4.431  36.044  1.00  0.00     0.002 C 
HETATM   15  C17 UNL     1      14.822  -5.440  35.464  1.00  0.00     0.010 C 
HETATM   16  C18 UNL     1      14.167  -6.241  34.352  1.00  0.00    -0.033 C 
HETATM   17  C19 UNL     1      12.939  -6.999  34.881  1.00  0.00     0.016 C 
HETATM   18  C20 UNL     1      15.108  -7.288  33.925  1.00  0.00     0.029 C 
HETATM   19  C21 UNL     1      14.613  -8.320  32.937  1.00  0.00     0.138 C 
HETATM   20  O3  UNL     1      14.158  -9.489  33.451  1.00  0.00    -0.355 OA
ENDROOT
BRANCH  11  21
HETATM   21  C14 UNL     1      13.158  -2.985  32.758  1.00  0.00     0.173 C 
BRANCH  21  22
HETATM   22  O2  UNL     1      11.892  -2.759  32.165  1.00  0.00    -0.400 OA
ATOM     23  H2  UNL     1      12.007  -1.948  31.682  1.00  0.00     0.209 HD
ENDBRANCH  21  22
ENDBRANCH  11  21
BRANCH   1  24
HETATM   24  O1  UNL     1      13.069 -11.349  32.857  1.00  0.00    -0.366 OA
HETATM   25  C1  UNL     1      12.748 -11.217  34.206  1.00  0.00     0.204 C 
ENDBRANCH   1  24
TORSDOF 3
ENDMDL
