MODEL 1
REMARK VINA RESULT: -9.016246834      0.000      0.000
REMARK  16 active torsions:
REMARK  status: ('A' for Active; 'I' for Inactive)
REMARK    1  A    between atoms: C2_9  and  S1_10 
REMARK    2  A    between atoms: S1_10  and  C3_11 
REMARK    3  A    between atoms: C3_11  and  C4_12 
REMARK    4  A    between atoms: C4_12  and  N5_13 
REMARK    5  A    between atoms: C4_12  and  C8_26 
REMARK       I    between atoms: N5_13  and  C5_15 
REMARK    6  A    between atoms: C5_15  and  C6_17 
REMARK    7  A    between atoms: C6_17  and  C7_18 
REMARK    8  A    between atoms: C6_17  and  N6_21 
REMARK    9  A    between atoms: C7_18  and  O2_19 
REMARK   10  A    between atoms: N6_21  and  N7_23 
REMARK   11  A    between atoms: C9_28  and  N8_29 
REMARK   12  A    between atoms: C13_38  and  N12_39 
REMARK   13  A    between atoms: C15_45  and  O4_46 
REMARK   14  A    between atoms: C15_45  and  O5_48 
REMARK   15  A    between atoms: C16_50  and  O6_51 
REMARK   16  A    between atoms: C16_50  and  C17_53 
ROOT
HETATM    1  C8  UNL     1      58.179  42.177  55.653  1.00  0.00     0.199 C 
HETATM    2  O3  UNL     1      58.287  42.119  57.012  1.00  0.00    -0.349 OA
HETATM    3  C9  UNL     1      58.916  43.286  57.468  1.00  0.00     0.297 C 
HETATM    4  C15 UNL     1      58.519  44.287  56.455  1.00  0.00     0.251 C 
HETATM    5  C16 UNL     1      58.903  43.436  55.208  1.00  0.00     0.235 C 
ENDROOT
BRANCH   1   6
HETATM    6  C4  UNL     1      58.468  40.991  54.855  1.00  0.00     0.127 C 
BRANCH   6   7
HETATM    7  C3  UNL     1      57.379  40.173  54.257  1.00  0.00     0.110 C 
BRANCH   7   8
HETATM    8  S1  UNL     1      56.122  40.878  53.280  1.00  0.00    -0.089 SA
BRANCH   8   9
HETATM    9  C2  UNL     1      54.709  41.613  53.993  1.00  0.00     0.178 A 
HETATM   10  N1  UNL     1      53.609  42.095  53.357  1.00  0.00    -0.259 N 
HETATM   11  C1  UNL     1      53.443  42.131  51.945  1.00  0.00     0.181 C 
HETATM   12  N2  UNL     1      52.776  42.486  54.285  1.00  0.00    -0.224 N 
HETATM   13  N3  UNL     1      53.293  42.277  55.480  1.00  0.00    -0.226 N 
ATOM     14  H2  UNL     1      51.858  42.896  54.110  1.00  0.00     0.210 HD
HETATM   15  N4  UNL     1      54.480  41.742  55.324  1.00  0.00    -0.263 N 
ATOM     16  H3  UNL     1      52.847  42.493  56.371  1.00  0.00     0.210 HD
ATOM     17  H4  UNL     1      55.119  41.471  56.071  1.00  0.00     0.190 HD
ENDBRANCH   8   9
ENDBRANCH   7   8
ENDBRANCH   6   7
BRANCH   6  18
HETATM   18  N5  UNL     1      59.419  40.121  55.498  1.00  0.00    -0.351 N 
HETATM   19  C5  UNL     1      60.780  40.051  55.215  1.00  0.00     0.244 C 
HETATM   20  O1  UNL     1      61.347  40.768  54.335  1.00  0.00    -0.271 OA
ATOM     21  H5  UNL     1      59.064  39.501  56.226  1.00  0.00     0.163 HD
BRANCH  19  22
HETATM   22  C6  UNL     1      61.661  39.090  55.955  1.00  0.00     0.214 C 
BRANCH  22  23
HETATM   23  C7  UNL     1      61.875  39.718  57.350  1.00  0.00     0.200 C 
BRANCH  23  24
HETATM   24  O2  UNL     1      61.398  41.018  57.264  1.00  0.00    -0.398 OA
ATOM     25  H2  UNL     1      62.081  41.573  57.623  1.00  0.00     0.209 HD
ENDBRANCH  23  24
ENDBRANCH  22  23
BRANCH  22  26
HETATM   26  N6  UNL     1      62.930  39.005  55.317  1.00  0.00    -0.327 N 
ATOM     27  H6  UNL     1      63.115  38.344  54.562  1.00  0.00     0.180 HD
BRANCH  26  28
HETATM   28  N7  UNL     1      63.888  39.871  55.780  1.00  0.00    -0.349 N 
ATOM     29  H72 UNL     1      63.647  40.816  56.079  1.00  0.00     0.176 HD
ATOM     30  H71 UNL     1      64.839  39.506  55.805  1.00  0.00     0.176 HD
ENDBRANCH  26  28
ENDBRANCH  22  26
ENDBRANCH  19  22
ENDBRANCH   6  18
ENDBRANCH   1   6
BRANCH   5  31
HETATM   31  O6  UNL     1      60.259  43.354  55.232  1.00  0.00    -0.372 OA
ATOM     32  H6  UNL     1      60.647  43.405  56.097  1.00  0.00     0.211 HD
ENDBRANCH   5  31
BRANCH   5  33
HETATM   33  C17 UNL     1      58.403  44.031  53.983  1.00  0.00     0.217 C 
HETATM   34  O7  UNL     1      59.240  44.675  53.251  1.00  0.00    -0.645 OA
HETATM   35  O8  UNL     1      57.110  43.991  53.492  1.00  0.00    -0.645 OA
ENDBRANCH   5  33
BRANCH   3  36
HETATM   36  N8  UNL     1      58.739  43.549  58.829  1.00  0.00    -0.294 N 
HETATM   37  C10 UNL     1      57.833  42.840  59.573  1.00  0.00     0.188 A 
HETATM   38  N9  UNL     1      57.859  43.282  60.814  1.00  0.00    -0.346 N 
HETATM   39  C11 UNL     1      58.754  44.264  60.930  1.00  0.00     0.120 A 
ATOM     40  H9  UNL     1      57.280  42.924  61.575  1.00  0.00     0.167 HD
HETATM   41  C12 UNL     1      59.201  45.075  61.948  1.00  0.00     0.162 A 
HETATM   42  C14 UNL     1      59.300  44.423  59.680  1.00  0.00     0.157 A 
HETATM   43  N10 UNL     1      58.640  44.913  63.246  1.00  0.00    -0.080 NA
HETATM   44  N11 UNL     1      60.146  45.991  61.704  1.00  0.00    -0.177 N 
HETATM   45  C13 UNL     1      60.667  46.128  60.471  1.00  0.00     0.678 A 
ATOM     46  H11 UNL     1      60.475  46.591  62.461  1.00  0.00     0.185 HD
HETATM   47  N13 UNL     1      60.232  45.344  59.493  1.00  0.00    -0.174 N 
ATOM     48  H13 UNL     1      60.632  45.454  58.561  1.00  0.00     0.186 HD
BRANCH  45  49
HETATM   49  N12 UNL     1      61.592  47.041  60.277  1.00  0.00    -0.234 N 
ATOM     50 2H12 UNL     1      61.920  47.650  61.027  1.00  0.00     0.174 HD
ATOM     51 1H12 UNL     1      61.993  47.139  59.345  1.00  0.00     0.174 HD
ENDBRANCH  45  49
ENDBRANCH   3  36
BRANCH   4  52
HETATM   52  O4  UNL     1      59.213  45.458  56.429  1.00  0.00    -0.359 OA
ATOM     53  H4  UNL     1      59.101  46.047  57.166  1.00  0.00     0.213 HD
ENDBRANCH   4  52
BRANCH   4  54
HETATM   54  O5  UNL     1      57.145  44.444  56.279  1.00  0.00    -0.359 OA
ATOM     55  H5  UNL     1      56.829  44.297  55.395  1.00  0.00     0.213 HD
ENDBRANCH   4  54
TORSDOF 16
ENDMDL
MODEL 2
REMARK VINA RESULT: -8.978262080      2.958      7.338
REMARK  16 active torsions:
REMARK  status: ('A' for Active; 'I' for Inactive)
REMARK    1  A    between atoms: C2_9  and  S1_10 
REMARK    2  A    between atoms: S1_10  and  C3_11 
REMARK    3  A    between atoms: C3_11  and  C4_12 
REMARK    4  A    between atoms: C4_12  and  N5_13 
REMARK    5  A    between atoms: C4_12  and  C8_26 
REMARK       I    between atoms: N5_13  and  C5_15 
REMARK    6  A    between atoms: C5_15  and  C6_17 
REMARK    7  A    between atoms: C6_17  and  C7_18 
REMARK    8  A    between atoms: C6_17  and  N6_21 
REMARK    9  A    between atoms: C7_18  and  O2_19 
REMARK   10  A    between atoms: N6_21  and  N7_23 
REMARK   11  A    between atoms: C9_28  and  N8_29 
REMARK   12  A    between atoms: C13_38  and  N12_39 
REMARK   13  A    between atoms: C15_45  and  O4_46 
REMARK   14  A    between atoms: C15_45  and  O5_48 
REMARK   15  A    between atoms: C16_50  and  O6_51 
REMARK   16  A    between atoms: C16_50  and  C17_53 
ROOT
HETATM    1  C8  UNL     1      59.072  43.275  56.602  1.00  0.00     0.199 C 
HETATM    2  O3  UNL     1      59.288  41.958  56.885  1.00  0.00    -0.349 OA
HETATM    3  C9  UNL     1      58.264  41.195  56.304  1.00  0.00     0.297 C 
HETATM    4  C15 UNL     1      57.886  42.001  55.124  1.00  0.00     0.251 C 
HETATM    5  C16 UNL     1      57.739  43.357  55.877  1.00  0.00     0.235 C 
ENDROOT
BRANCH   1   6
HETATM    6  C4  UNL     1      59.265  44.278  57.643  1.00  0.00     0.127 C 
BRANCH   6   7
HETATM    7  C3  UNL     1      58.291  44.439  58.756  1.00  0.00     0.110 C 
BRANCH   7   8
HETATM    8  S1  UNL     1      58.485  43.622  60.281  1.00  0.00    -0.089 SA
BRANCH   8   9
HETATM    9  C2  UNL     1      58.642  44.503  61.780  1.00  0.00     0.178 A 
HETATM   10  N1  UNL     1      58.552  45.846  61.970  1.00  0.00    -0.259 N 
HETATM   11  C1  UNL     1      58.364  46.799  60.931  1.00  0.00     0.181 C 
HETATM   12  N2  UNL     1      58.661  46.053  63.256  1.00  0.00    -0.224 N 
HETATM   13  N3  UNL     1      58.815  44.909  63.892  1.00  0.00    -0.226 N 
ATOM     14  H2  UNL     1      58.632  46.970  63.704  1.00  0.00     0.210 HD
HETATM   15  N4  UNL     1      58.807  43.944  63.004  1.00  0.00    -0.263 N 
ATOM     16  H3  UNL     1      58.921  44.793  64.900  1.00  0.00     0.210 HD
ATOM     17  H4  UNL     1      58.907  42.948  63.200  1.00  0.00     0.190 HD
ENDBRANCH   8   9
ENDBRANCH   7   8
ENDBRANCH   6   7
BRANCH   6  18
HETATM   18  N5  UNL     1      59.586  45.572  57.099  1.00  0.00    -0.351 N 
HETATM   19  C5  UNL     1      60.511  46.470  57.624  1.00  0.00     0.244 C 
HETATM   20  O1  UNL     1      61.193  46.238  58.667  1.00  0.00    -0.271 OA
ATOM     21  H5  UNL     1      59.091  45.857  56.253  1.00  0.00     0.163 HD
BRANCH  19  22
HETATM   22  C6  UNL     1      60.742  47.795  56.961  1.00  0.00     0.214 C 
BRANCH  22  23
HETATM   23  C7  UNL     1      59.669  47.894  55.853  1.00  0.00     0.200 C 
BRANCH  23  24
HETATM   24  O2  UNL     1      60.315  47.591  54.664  1.00  0.00    -0.398 OA
ATOM     25  H2  UNL     1      60.957  48.279  54.530  1.00  0.00     0.209 HD
ENDBRANCH  23  24
ENDBRANCH  22  23
BRANCH  22  26
HETATM   26  N6  UNL     1      62.019  47.805  56.331  1.00  0.00    -0.327 N 
ATOM     27  H6  UNL     1      62.402  48.643  55.894  1.00  0.00     0.180 HD
BRANCH  26  28
HETATM   28  N7  UNL     1      62.702  46.615  56.351  1.00  0.00    -0.349 N 
ATOM     29  H72 UNL     1      63.560  46.507  56.892  1.00  0.00     0.176 HD
ATOM     30  H71 UNL     1      62.295  45.863  55.797  1.00  0.00     0.176 HD
ENDBRANCH  26  28
ENDBRANCH  22  26
ENDBRANCH  19  22
ENDBRANCH   6  18
ENDBRANCH   1   6
BRANCH   5  31
HETATM   31  O6  UNL     1      56.647  43.210  56.673  1.00  0.00    -0.372 OA
ATOM     32  H6  UNL     1      56.338  44.011  57.079  1.00  0.00     0.211 HD
ENDBRANCH   5  31
BRANCH   5  33
HETATM   33  C17 UNL     1      57.609  44.468  54.955  1.00  0.00     0.217 C 
HETATM   34  O7  UNL     1      56.438  44.969  54.790  1.00  0.00    -0.645 OA
HETATM   35  O8  UNL     1      58.610  45.070  54.212  1.00  0.00    -0.645 OA
ENDBRANCH   5  33
BRANCH   3  36
HETATM   36  N8  UNL     1      58.558  39.836  56.167  1.00  0.00    -0.294 N 
HETATM   37  C10 UNL     1      57.568  38.890  56.226  1.00  0.00     0.188 A 
HETATM   38  N9  UNL     1      58.106  37.697  56.073  1.00  0.00    -0.346 N 
HETATM   39  C11 UNL     1      59.426  37.809  55.913  1.00  0.00     0.120 A 
ATOM     40  H9  UNL     1      57.590  36.817  56.077  1.00  0.00     0.167 HD
HETATM   41  C12 UNL     1      60.472  36.936  55.716  1.00  0.00     0.162 A 
HETATM   42  C14 UNL     1      59.698  39.154  55.973  1.00  0.00     0.157 A 
HETATM   43  N10 UNL     1      60.195  35.542  55.651  1.00  0.00    -0.080 NA
HETATM   44  N11 UNL     1      61.718  37.409  55.590  1.00  0.00    -0.177 N 
HETATM   45  C13 UNL     1      61.961  38.732  55.652  1.00  0.00     0.678 A 
ATOM     46  H11 UNL     1      62.492  36.760  55.446  1.00  0.00     0.185 HD
HETATM   47  N13 UNL     1      60.948  39.568  55.841  1.00  0.00    -0.174 N 
ATOM     48  H13 UNL     1      61.140  40.568  55.887  1.00  0.00     0.186 HD
BRANCH  45  49
HETATM   49  N12 UNL     1      63.200  39.150  55.524  1.00  0.00    -0.234 N 
ATOM     50 2H12 UNL     1      63.925  38.578  55.090  1.00  0.00     0.174 HD
ATOM     51 1H12 UNL     1      63.440  40.079  55.871  1.00  0.00     0.174 HD
ENDBRANCH  45  49
ENDBRANCH   3  36
BRANCH   4  52
HETATM   52  O4  UNL     1      56.709  41.698  54.512  1.00  0.00    -0.359 OA
ATOM     53  H4  UNL     1      56.548  40.785  54.303  1.00  0.00     0.213 HD
ENDBRANCH   4  52
BRANCH   4  54
HETATM   54  O5  UNL     1      58.925  42.282  54.236  1.00  0.00    -0.359 OA
ATOM     55  H5  UNL     1      58.978  43.185  53.946  1.00  0.00     0.213 HD
ENDBRANCH   4  54
TORSDOF 16
ENDMDL
MODEL 3
REMARK VINA RESULT: -8.799198419      1.450      1.857
REMARK  16 active torsions:
REMARK  status: ('A' for Active; 'I' for Inactive)
REMARK    1  A    between atoms: C2_9  and  S1_10 
REMARK    2  A    between atoms: S1_10  and  C3_11 
REMARK    3  A    between atoms: C3_11  and  C4_12 
REMARK    4  A    between atoms: C4_12  and  N5_13 
REMARK    5  A    between atoms: C4_12  and  C8_26 
REMARK       I    between atoms: N5_13  and  C5_15 
REMARK    6  A    between atoms: C5_15  and  C6_17 
REMARK    7  A    between atoms: C6_17  and  C7_18 
REMARK    8  A    between atoms: C6_17  and  N6_21 
REMARK    9  A    between atoms: C7_18  and  O2_19 
REMARK   10  A    between atoms: N6_21  and  N7_23 
REMARK   11  A    between atoms: C9_28  and  N8_29 
REMARK   12  A    between atoms: C13_38  and  N12_39 
REMARK   13  A    between atoms: C15_45  and  O4_46 
REMARK   14  A    between atoms: C15_45  and  O5_48 
REMARK   15  A    between atoms: C16_50  and  O6_51 
REMARK   16  A    between atoms: C16_50  and  C17_53 
ROOT
HETATM    1  C8  UNL     1      57.849  42.478  55.832  1.00  0.00     0.199 C 
HETATM    2  O3  UNL     1      58.005  42.452  57.187  1.00  0.00    -0.349 OA
HETATM    3  C9  UNL     1      58.847  43.505  57.568  1.00  0.00     0.297 C 
HETATM    4  C15 UNL     1      58.588  44.523  56.527  1.00  0.00     0.251 C 
HETATM    5  C16 UNL     1      58.762  43.572  55.305  1.00  0.00     0.235 C 
ENDROOT
BRANCH   1   6
HETATM    6  C4  UNL     1      57.891  41.230  55.077  1.00  0.00     0.127 C 
BRANCH   6   7
HETATM    7  C3  UNL     1      56.645  40.535  54.656  1.00  0.00     0.110 C 
BRANCH   7   8
HETATM    8  S1  UNL     1      55.453  41.301  53.645  1.00  0.00    -0.089 SA
BRANCH   8   9
HETATM    9  C2  UNL     1      55.381  41.005  51.926  1.00  0.00     0.178 A 
HETATM   10  N1  UNL     1      56.389  41.111  51.020  1.00  0.00    -0.259 N 
HETATM   11  C1  UNL     1      57.706  41.551  51.324  1.00  0.00     0.181 C 
HETATM   12  N2  UNL     1      55.903  40.727  49.869  1.00  0.00    -0.224 N 
HETATM   13  N3  UNL     1      54.637  40.382  50.000  1.00  0.00    -0.226 N 
ATOM     14  H2  UNL     1      56.428  40.699  48.995  1.00  0.00     0.210 HD
HETATM   15  N4  UNL     1      54.296  40.546  51.255  1.00  0.00    -0.263 N 
ATOM     16  H3  UNL     1      54.028  40.045  49.254  1.00  0.00     0.210 HD
ATOM     17  H4  UNL     1      53.377  40.362  51.656  1.00  0.00     0.190 HD
ENDBRANCH   8   9
ENDBRANCH   7   8
ENDBRANCH   6   7
BRANCH   6  18
HETATM   18  N5  UNL     1      58.799  40.274  55.656  1.00  0.00    -0.351 N 
HETATM   19  C5  UNL     1      60.071  39.967  55.181  1.00  0.00     0.244 C 
HETATM   20  O1  UNL     1      60.584  40.513  54.158  1.00  0.00    -0.271 OA
ATOM     21  H5  UNL     1      58.482  39.778  56.489  1.00  0.00     0.163 HD
BRANCH  19  22
HETATM   22  C6  UNL     1      60.912  38.939  55.877  1.00  0.00     0.214 C 
BRANCH  22  23
HETATM   23  C7  UNL     1      61.489  39.652  57.120  1.00  0.00     0.200 C 
BRANCH  23  24
HETATM   24  O2  UNL     1      61.316  41.010  56.900  1.00  0.00    -0.398 OA
ATOM     25  H2  UNL     1      62.122  41.428  57.183  1.00  0.00     0.209 HD
ENDBRANCH  23  24
ENDBRANCH  22  23
BRANCH  22  26
HETATM   26  N6  UNL     1      62.005  38.564  55.045  1.00  0.00    -0.327 N 
ATOM     27  H6  UNL     1      61.906  37.878  54.296  1.00  0.00     0.180 HD
BRANCH  26  28
HETATM   28  N7  UNL     1      63.198  39.184  55.314  1.00  0.00    -0.349 N 
ATOM     29  H72 UNL     1      63.445  40.071  54.875  1.00  0.00     0.176 HD
ATOM     30  H71 UNL     1      63.808  38.702  55.974  1.00  0.00     0.176 HD
ENDBRANCH  26  28
ENDBRANCH  22  26
ENDBRANCH  19  22
ENDBRANCH   6  18
ENDBRANCH   1   6
BRANCH   5  31
HETATM   31  O6  UNL     1      60.083  43.253  55.283  1.00  0.00    -0.372 OA
ATOM     32  H6  UNL     1      60.291  42.447  54.825  1.00  0.00     0.211 HD
ENDBRANCH   5  31
BRANCH   5  33
HETATM   33  C17 UNL     1      58.322  44.200  54.075  1.00  0.00     0.217 C 
HETATM   34  O7  UNL     1      59.218  44.740  53.330  1.00  0.00    -0.645 OA
HETATM   35  O8  UNL     1      57.028  44.293  53.591  1.00  0.00    -0.645 OA
ENDBRANCH   5  33
BRANCH   3  36
HETATM   36  N8  UNL     1      58.779  43.845  58.921  1.00  0.00    -0.294 N 
HETATM   37  C10 UNL     1      57.922  43.195  59.770  1.00  0.00     0.188 A 
HETATM   38  N9  UNL     1      58.049  43.703  60.980  1.00  0.00    -0.346 N 
HETATM   39  C11 UNL     1      58.963  44.674  60.972  1.00  0.00     0.120 A 
ATOM     40  H9  UNL     1      57.525  43.399  61.800  1.00  0.00     0.167 HD
HETATM   41  C12 UNL     1      59.498  45.531  61.907  1.00  0.00     0.162 A 
HETATM   42  C14 UNL     1      59.414  44.755  59.678  1.00  0.00     0.157 A 
HETATM   43  N10 UNL     1      59.036  45.450  63.250  1.00  0.00    -0.080 NA
HETATM   44  N11 UNL     1      60.434  46.415  61.542  1.00  0.00    -0.177 N 
HETATM   45  C13 UNL     1      60.862  46.476  60.267  1.00  0.00     0.678 A 
ATOM     46  H11 UNL     1      60.828  47.050  62.237  1.00  0.00     0.185 HD
HETATM   47  N13 UNL     1      60.342  45.647  59.370  1.00  0.00    -0.174 N 
ATOM     48  H13 UNL     1      60.671  45.699  58.406  1.00  0.00     0.186 HD
BRANCH  45  49
HETATM   49  N12 UNL     1      61.782  47.360  59.953  1.00  0.00    -0.234 N 
ATOM     50 2H12 UNL     1      61.562  48.214  59.441  1.00  0.00     0.174 HD
ATOM     51 1H12 UNL     1      62.746  47.183  60.234  1.00  0.00     0.174 HD
ENDBRANCH  45  49
ENDBRANCH   3  36
BRANCH   4  52
HETATM   52  O4  UNL     1      59.474  45.551  56.425  1.00  0.00    -0.359 OA
ATOM     53  H4  UNL     1      59.118  46.431  56.379  1.00  0.00     0.213 HD
ENDBRANCH   4  52
BRANCH   4  54
HETATM   54  O5  UNL     1      57.256  44.914  56.394  1.00  0.00    -0.359 OA
ATOM     55  H5  UNL     1      56.701  44.308  55.917  1.00  0.00     0.213 HD
ENDBRANCH   4  54
TORSDOF 16
ENDMDL
MODEL 4
REMARK VINA RESULT: -8.744498989      0.996      1.276
REMARK  16 active torsions:
REMARK  status: ('A' for Active; 'I' for Inactive)
REMARK    1  A    between atoms: C2_9  and  S1_10 
REMARK    2  A    between atoms: S1_10  and  C3_11 
REMARK    3  A    between atoms: C3_11  and  C4_12 
REMARK    4  A    between atoms: C4_12  and  N5_13 
REMARK    5  A    between atoms: C4_12  and  C8_26 
REMARK       I    between atoms: N5_13  and  C5_15 
REMARK    6  A    between atoms: C5_15  and  C6_17 
REMARK    7  A    between atoms: C6_17  and  C7_18 
REMARK    8  A    between atoms: C6_17  and  N6_21 
REMARK    9  A    between atoms: C7_18  and  O2_19 
REMARK   10  A    between atoms: N6_21  and  N7_23 
REMARK   11  A    between atoms: C9_28  and  N8_29 
REMARK   12  A    between atoms: C13_38  and  N12_39 
REMARK   13  A    between atoms: C15_45  and  O4_46 
REMARK   14  A    between atoms: C15_45  and  O5_48 
REMARK   15  A    between atoms: C16_50  and  O6_51 
REMARK   16  A    between atoms: C16_50  and  C17_53 
ROOT
HETATM    1  C8  UNL     1      58.033  42.358  55.847  1.00  0.00     0.199 C 
HETATM    2  O3  UNL     1      58.192  42.353  57.202  1.00  0.00    -0.349 OA
HETATM    3  C9  UNL     1      58.937  43.481  57.576  1.00  0.00     0.297 C 
HETATM    4  C15 UNL     1      58.584  44.465  56.531  1.00  0.00     0.251 C 
HETATM    5  C16 UNL     1      58.842  43.528  55.313  1.00  0.00     0.235 C 
ENDROOT
BRANCH   1   6
HETATM    6  C4  UNL     1      58.186  41.116  55.098  1.00  0.00     0.127 C 
BRANCH   6   7
HETATM    7  C3  UNL     1      57.007  40.321  54.662  1.00  0.00     0.110 C 
BRANCH   7   8
HETATM    8  S1  UNL     1      55.803  40.967  53.582  1.00  0.00    -0.089 SA
BRANCH   8   9
HETATM    9  C2  UNL     1      55.245  42.616  53.713  1.00  0.00     0.178 A 
HETATM   10  N1  UNL     1      54.685  43.223  54.793  1.00  0.00    -0.259 N 
HETATM   11  C1  UNL     1      54.400  42.575  56.026  1.00  0.00     0.181 C 
HETATM   12  N2  UNL     1      54.489  44.473  54.464  1.00  0.00    -0.224 N 
HETATM   13  N3  UNL     1      54.897  44.690  53.229  1.00  0.00    -0.226 N 
ATOM     14  H2  UNL     1      54.079  45.179  55.075  1.00  0.00     0.210 HD
HETATM   15  N4  UNL     1      55.364  43.562  52.749  1.00  0.00    -0.263 N 
ATOM     16  H3  UNL     1      54.857  45.580  52.733  1.00  0.00     0.210 HD
ATOM     17  H4  UNL     1      55.748  43.422  51.815  1.00  0.00     0.190 HD
ENDBRANCH   8   9
ENDBRANCH   7   8
ENDBRANCH   6   7
BRANCH   6  18
HETATM   18  N5  UNL     1      59.159  40.237  55.696  1.00  0.00    -0.351 N 
HETATM   19  C5  UNL     1      60.456  40.026  55.238  1.00  0.00     0.244 C 
HETATM   20  O1  UNL     1      60.937  40.602  54.216  1.00  0.00    -0.271 OA
ATOM     21  H5  UNL     1      58.872  39.724  56.530  1.00  0.00     0.163 HD
BRANCH  19  22
HETATM   22  C6  UNL     1      61.366  39.071  55.951  1.00  0.00     0.214 C 
BRANCH  22  23
HETATM   23  C7  UNL     1      61.742  39.773  57.276  1.00  0.00     0.200 C 
BRANCH  23  24
HETATM   24  O2  UNL     1      61.475  41.121  57.086  1.00  0.00    -0.398 OA
ATOM     25  H2  UNL     1      60.686  41.162  56.559  1.00  0.00     0.209 HD
ENDBRANCH  23  24
ENDBRANCH  22  23
BRANCH  22  26
HETATM   26  N6  UNL     1      62.562  38.890  55.201  1.00  0.00    -0.327 N 
ATOM     27  H6  UNL     1      62.622  38.228  54.427  1.00  0.00     0.180 HD
BRANCH  26  28
HETATM   28  N7  UNL     1      63.628  39.664  55.585  1.00  0.00    -0.349 N 
ATOM     29  H72 UNL     1      64.417  39.263  56.092  1.00  0.00     0.176 HD
ATOM     30  H71 UNL     1      63.574  40.649  55.329  1.00  0.00     0.176 HD
ENDBRANCH  26  28
ENDBRANCH  22  26
ENDBRANCH  19  22
ENDBRANCH   6  18
ENDBRANCH   1   6
BRANCH   5  31
HETATM   31  O6  UNL     1      60.186  43.329  55.290  1.00  0.00    -0.372 OA
ATOM     32  H6  UNL     1      60.634  43.717  54.548  1.00  0.00     0.211 HD
ENDBRANCH   5  31
BRANCH   5  33
HETATM   33  C17 UNL     1      58.344  44.107  54.081  1.00  0.00     0.217 C 
HETATM   34  O7  UNL     1      58.511  43.434  52.999  1.00  0.00    -0.645 OA
HETATM   35  O8  UNL     1      57.697  45.320  53.919  1.00  0.00    -0.645 OA
ENDBRANCH   5  33
BRANCH   3  36
HETATM   36  N8  UNL     1      58.840  43.820  58.928  1.00  0.00    -0.294 N 
HETATM   37  C10 UNL     1      57.976  43.160  59.762  1.00  0.00     0.188 A 
HETATM   38  N9  UNL     1      58.075  43.670  60.973  1.00  0.00    -0.346 N 
HETATM   39  C11 UNL     1      58.978  44.652  60.981  1.00  0.00     0.120 A 
ATOM     40  H9  UNL     1      57.540  43.359  61.784  1.00  0.00     0.167 HD
HETATM   41  C12 UNL     1      59.485  45.515  61.925  1.00  0.00     0.162 A 
HETATM   42  C14 UNL     1      59.451  44.738  59.695  1.00  0.00     0.157 A 
HETATM   43  N10 UNL     1      59.000  45.429  63.260  1.00  0.00    -0.080 NA
HETATM   44  N11 UNL     1      60.418  46.410  61.576  1.00  0.00    -0.177 N 
HETATM   45  C13 UNL     1      60.867  46.476  60.309  1.00  0.00     0.678 A 
ATOM     46  H11 UNL     1      60.791  47.050  62.278  1.00  0.00     0.185 HD
HETATM   47  N13 UNL     1      60.373  45.640  59.403  1.00  0.00    -0.174 N 
ATOM     48  H13 UNL     1      60.719  45.696  58.445  1.00  0.00     0.186 HD
BRANCH  45  49
HETATM   49  N12 UNL     1      61.781  47.371  60.011  1.00  0.00    -0.234 N 
ATOM     50 2H12 UNL     1      62.254  47.923  60.726  1.00  0.00     0.174 HD
ATOM     51 1H12 UNL     1      62.024  47.513  59.031  1.00  0.00     0.174 HD
ENDBRANCH  45  49
ENDBRANCH   3  36
BRANCH   4  52
HETATM   52  O4  UNL     1      59.373  45.569  56.421  1.00  0.00    -0.359 OA
ATOM     53  H4  UNL     1      59.122  46.223  55.779  1.00  0.00     0.213 HD
ENDBRANCH   4  52
BRANCH   4  54
HETATM   54  O5  UNL     1      57.222  44.733  56.399  1.00  0.00    -0.359 OA
ATOM     55  H5  UNL     1      56.933  45.560  56.768  1.00  0.00     0.213 HD
ENDBRANCH   4  54
TORSDOF 16
ENDMDL
MODEL 5
REMARK VINA RESULT: -8.695280394      2.903      7.004
REMARK  16 active torsions:
REMARK  status: ('A' for Active; 'I' for Inactive)
REMARK    1  A    between atoms: C2_9  and  S1_10 
REMARK    2  A    between atoms: S1_10  and  C3_11 
REMARK    3  A    between atoms: C3_11  and  C4_12 
REMARK    4  A    between atoms: C4_12  and  N5_13 
REMARK    5  A    between atoms: C4_12  and  C8_26 
REMARK       I    between atoms: N5_13  and  C5_15 
REMARK    6  A    between atoms: C5_15  and  C6_17 
REMARK    7  A    between atoms: C6_17  and  C7_18 
REMARK    8  A    between atoms: C6_17  and  N6_21 
REMARK    9  A    between atoms: C7_18  and  O2_19 
REMARK   10  A    between atoms: N6_21  and  N7_23 
REMARK   11  A    between atoms: C9_28  and  N8_29 
REMARK   12  A    between atoms: C13_38  and  N12_39 
REMARK   13  A    between atoms: C15_45  and  O4_46 
REMARK   14  A    between atoms: C15_45  and  O5_48 
REMARK   15  A    between atoms: C16_50  and  O6_51 
REMARK   16  A    between atoms: C16_50  and  C17_53 
ROOT
HETATM    1  C8  UNL     1      57.920  43.503  54.513  1.00  0.00     0.199 C 
HETATM    2  O3  UNL     1      58.572  42.449  55.085  1.00  0.00    -0.349 OA
HETATM    3  C9  UNL     1      57.968  41.257  54.662  1.00  0.00     0.297 C 
HETATM    4  C15 UNL     1      57.450  41.611  53.323  1.00  0.00     0.251 C 
HETATM    5  C16 UNL     1      56.736  42.927  53.754  1.00  0.00     0.235 C 
ENDROOT
BRANCH   1   6
HETATM    6  C4  UNL     1      57.620  44.685  55.311  1.00  0.00     0.127 C 
BRANCH   6   7
HETATM    7  C3  UNL     1      58.016  46.047  54.863  1.00  0.00     0.110 C 
BRANCH   7   8
HETATM    8  S1  UNL     1      58.475  47.295  55.988  1.00  0.00    -0.089 SA
BRANCH   8   9
HETATM    9  C2  UNL     1      60.093  47.399  56.632  1.00  0.00     0.178 A 
HETATM   10  N1  UNL     1      60.499  47.163  57.907  1.00  0.00    -0.259 N 
HETATM   11  C1  UNL     1      59.631  46.832  58.984  1.00  0.00     0.181 C 
HETATM   12  N2  UNL     1      61.800  47.290  57.920  1.00  0.00    -0.224 N 
HETATM   13  N3  UNL     1      62.240  47.595  56.715  1.00  0.00    -0.226 N 
ATOM     14  H2  UNL     1      62.390  47.171  58.743  1.00  0.00     0.210 HD
HETATM   15  N4  UNL     1      61.208  47.668  55.909  1.00  0.00    -0.263 N 
ATOM     16  H3  UNL     1      63.215  47.747  56.455  1.00  0.00     0.210 HD
ATOM     17  H4  UNL     1      61.239  47.888  54.914  1.00  0.00     0.190 HD
ENDBRANCH   8   9
ENDBRANCH   7   8
ENDBRANCH   6   7
BRANCH   6  18
HETATM   18  N5  UNL     1      57.984  44.514  56.695  1.00  0.00    -0.351 N 
HETATM   19  C5  UNL     1      57.272  43.780  57.640  1.00  0.00     0.244 C 
HETATM   20  O1  UNL     1      56.195  43.164  57.377  1.00  0.00    -0.271 OA
ATOM     21  H5  UNL     1      58.839  44.971  57.011  1.00  0.00     0.163 HD
BRANCH  19  22
HETATM   22  C6  UNL     1      57.758  43.691  59.055  1.00  0.00     0.214 C 
BRANCH  22  23
HETATM   23  C7  UNL     1      59.197  43.136  58.961  1.00  0.00     0.200 C 
BRANCH  23  24
HETATM   24  O2  UNL     1      59.183  42.201  57.936  1.00  0.00    -0.398 OA
ATOM     25  H2  UNL     1      59.814  42.505  57.294  1.00  0.00     0.209 HD
ENDBRANCH  23  24
ENDBRANCH  22  23
BRANCH  22  26
HETATM   26  N6  UNL     1      56.974  42.749  59.778  1.00  0.00    -0.327 N 
ATOM     27  H6  UNL     1      56.304  42.134  59.317  1.00  0.00     0.180 HD
BRANCH  26  28
HETATM   28  N7  UNL     1      57.179  42.721  61.134  1.00  0.00    -0.349 N 
ATOM     29  H72 UNL     1      57.571  43.524  61.627  1.00  0.00     0.176 HD
ATOM     30  H71 UNL     1      56.915  41.856  61.604  1.00  0.00     0.176 HD
ENDBRANCH  26  28
ENDBRANCH  22  26
ENDBRANCH  19  22
ENDBRANCH   6  18
ENDBRANCH   1   6
BRANCH   5  31
HETATM   31  O6  UNL     1      55.695  42.533  54.535  1.00  0.00    -0.372 OA
ATOM     32  H6  UNL     1      54.954  42.177  54.061  1.00  0.00     0.211 HD
ENDBRANCH   5  31
BRANCH   5  33
HETATM   33  C17 UNL     1      56.307  43.702  52.607  1.00  0.00     0.217 C 
HETATM   34  O7  UNL     1      55.092  43.561  52.214  1.00  0.00    -0.645 OA
HETATM   35  O8  UNL     1      57.059  44.595  51.863  1.00  0.00    -0.645 OA
ENDBRANCH   5  33
BRANCH   3  36
HETATM   36  N8  UNL     1      58.752  40.114  54.836  1.00  0.00    -0.294 N 
HETATM   37  C10 UNL     1      58.180  38.872  54.928  1.00  0.00     0.188 A 
HETATM   38  N9  UNL     1      59.130  37.973  55.091  1.00  0.00    -0.346 N 
HETATM   39  C11 UNL     1      60.323  38.570  55.111  1.00  0.00     0.120 A 
ATOM     40  H9  UNL     1      58.976  36.970  55.187  1.00  0.00     0.167 HD
HETATM   41  C12 UNL     1      61.629  38.156  55.246  1.00  0.00     0.162 A 
HETATM   42  C14 UNL     1      60.075  39.911  54.950  1.00  0.00     0.157 A 
HETATM   43  N10 UNL     1      61.892  36.768  55.411  1.00  0.00    -0.080 NA
HETATM   44  N11 UNL     1      62.619  39.058  55.219  1.00  0.00    -0.177 N 
HETATM   45  C13 UNL     1      62.351  40.367  55.060  1.00  0.00     0.678 A 
ATOM     46  H11 UNL     1      63.586  38.749  55.321  1.00  0.00     0.185 HD
HETATM   47  N13 UNL     1      61.090  40.759  54.930  1.00  0.00    -0.174 N 
ATOM     48  H13 UNL     1      60.895  41.753  54.809  1.00  0.00     0.186 HD
BRANCH  45  49
HETATM   49  N12 UNL     1      63.354  41.216  55.041  1.00  0.00    -0.234 N 
ATOM     50 2H12 UNL     1      63.352  42.047  54.449  1.00  0.00     0.174 HD
ATOM     51 1H12 UNL     1      64.158  41.035  55.641  1.00  0.00     0.174 HD
ENDBRANCH  45  49
ENDBRANCH   3  36
BRANCH   4  52
HETATM   52  O4  UNL     1      56.537  40.770  52.764  1.00  0.00    -0.359 OA
ATOM     53  H4  UNL     1      56.470  40.768  51.816  1.00  0.00     0.213 HD
ENDBRANCH   4  52
BRANCH   4  54
HETATM   54  O5  UNL     1      58.402  42.087  52.422  1.00  0.00    -0.359 OA
ATOM     55  H5  UNL     1      58.894  41.418  51.960  1.00  0.00     0.213 HD
ENDBRANCH   4  54
TORSDOF 16
ENDMDL
