MODEL 1
REMARK VINA RESULT: -9.089011100      0.000      0.000
REMARK  16 active torsions:
REMARK  status: ('A' for Active; 'I' for Inactive)
REMARK    1  A    between atoms: C2_2  and  O1_3 
REMARK    2  A    between atoms: O1_3  and  C3_4 
REMARK       I    between atoms: C3_4  and  N1_6 
REMARK    3  A    between atoms: N1_6  and  C4_8 
REMARK    4  A    between atoms: C4_8  and  C5_9 
REMARK    5  A    between atoms: C4_8  and  C6_12 
REMARK    6  A    between atoms: C6_12  and  O5_13 
REMARK    7  A    between atoms: C6_12  and  O6_15 
REMARK    8  A    between atoms: O6_15  and  C7_16 
REMARK    9  A    between atoms: C8_18  and  O8_19 
REMARK   10  A    between atoms: C8_18  and  C9_21 
REMARK   11  A    between atoms: C9_21  and  O9_22 
REMARK   12  A    between atoms: C10_24  and  N2_25 
REMARK   13  A    between atoms: C13_30  and  N4_31 
REMARK   14  A    between atoms: N4_31  and  N5_32 
REMARK       I    between atoms: N4_31  and  C14_35 
REMARK       I    between atoms: C14_35  and  N6_36 
REMARK       I    between atoms: C14_35  and  N7_40 
REMARK   15  A    between atoms: C15_46  and  N9_47 
REMARK   16  A    between atoms: C17_54  and  C18_55 
ROOT
HETATM    1  C7  UNL     1      57.144  39.883  54.653  1.00  0.00     0.306 C 
HETATM    2  O7  UNL     1      57.395  40.153  56.024  1.00  0.00    -0.316 OA
HETATM    3  C8  UNL     1      56.625  41.326  56.254  1.00  0.00     0.233 C 
HETATM    4  C10 UNL     1      57.410  42.424  55.656  1.00  0.00     0.311 C 
HETATM    5  O10 UNL     1      58.191  42.031  54.530  1.00  0.00    -0.338 OA
HETATM    6  C17 UNL     1      57.669  40.981  53.816  1.00  0.00     0.280 C 
ENDROOT
BRANCH   4   7
HETATM    7  N2  UNL     1      58.476  42.953  56.528  1.00  0.00    -0.240 N 
HETATM    8  N3  UNL     1      59.389  42.280  57.192  1.00  0.00    -0.304 N 
HETATM    9  C11 UNL     1      60.262  43.158  57.753  1.00  0.00     0.126 A 
ATOM     10  H3  UNL     1      59.435  41.264  57.273  1.00  0.00     0.186 HD
HETATM   11  C12 UNL     1      59.835  44.418  57.407  1.00  0.00     0.073 A 
HETATM   12  C13 UNL     1      60.333  45.690  57.685  1.00  0.00     0.156 A 
HETATM   13  C16 UNL     1      58.709  44.263  56.634  1.00  0.00     0.155 A 
HETATM   14  N8  UNL     1      59.666  46.743  57.184  1.00  0.00    -0.174 N 
HETATM   15  C15 UNL     1      58.542  46.595  56.423  1.00  0.00     0.679 A 
ATOM     16  H8  UNL     1      60.011  47.683  57.378  1.00  0.00     0.186 HD
HETATM   17  N10 UNL     1      58.098  45.366  56.169  1.00  0.00    -0.174 N 
ATOM     18  H10 UNL     1      57.261  45.257  55.598  1.00  0.00     0.186 HD
BRANCH  12  19
HETATM   19  N4  UNL     1      61.573  45.836  58.364  1.00  0.00    -0.227 N 
HETATM   20  C14 UNL     1      61.544  46.325  59.734  1.00  0.00     0.502 C 
HETATM   21  N6  UNL     1      60.627  45.568  60.550  1.00  0.00    -0.031 N 
HETATM   22  N7  UNL     1      61.127  47.698  59.763  1.00  0.00    -0.031 N 
ATOM     23  H63 UNL     1      59.693  45.550  60.141  1.00  0.00     0.279 HD
ATOM     24  H62 UNL     1      60.835  44.570  60.515  1.00  0.00     0.279 HD
ATOM     25  H61 UNL     1      60.607  45.910  61.510  1.00  0.00     0.279 HD
ATOM     26  H73 UNL     1      61.707  48.284  59.162  1.00  0.00     0.279 HD
ATOM     27  H72 UNL     1      60.234  47.834  59.291  1.00  0.00     0.279 HD
ATOM     28  H71 UNL     1      61.107  48.040  60.723  1.00  0.00     0.279 HD
BRANCH  19  29
HETATM   29  N5  UNL     1      62.769  45.554  57.752  1.00  0.00    -0.338 N 
ATOM     30  H52 UNL     1      63.259  46.274  57.222  1.00  0.00     0.177 HD
ATOM     31  H51 UNL     1      63.186  44.625  57.793  1.00  0.00     0.177 HD
ENDBRANCH  19  29
ENDBRANCH  12  19
BRANCH  15  32
HETATM   32  N9  UNL     1      57.889  47.570  55.911  1.00  0.00    -0.234 N 
ATOM     33  H92 UNL     1      58.432  48.326  55.493  1.00  0.00     0.174 HD
ATOM     34  H91 UNL     1      56.872  47.639  55.914  1.00  0.00     0.174 HD
ENDBRANCH  15  32
ENDBRANCH   4   7
BRANCH   3  35
HETATM   35  O8  UNL     1      55.440  41.206  55.511  1.00  0.00    -0.360 OA
ATOM     36  H8  UNL     1      54.795  40.783  56.067  1.00  0.00     0.213 HD
ENDBRANCH   3  35
BRANCH   3  37
HETATM   37  C9  UNL     1      56.332  41.384  57.710  1.00  0.00     0.237 C 
BRANCH  37  38
HETATM   38  O9  UNL     1      56.037  40.060  58.116  1.00  0.00    -0.395 OA
ATOM     39  H9  UNL     1      56.839  39.702  58.478  1.00  0.00     0.209 HD
ENDBRANCH  37  38
ENDBRANCH   3  37
BRANCH   6  40
HETATM   40  C18 UNL     1      58.773  40.470  52.936  1.00  0.00     0.208 C 
HETATM   41  O11 UNL     1      59.942  40.378  53.378  1.00  0.00    -0.646 OA
HETATM   42  O12 UNL     1      58.500  40.093  51.616  1.00  0.00    -0.646 OA
ENDBRANCH   6  40
BRANCH   1  43
HETATM   43  O6  UNL     1      57.745  38.600  54.481  1.00  0.00    -0.326 OA
BRANCH  43  44
HETATM   44  C6  UNL     1      57.943  37.874  55.668  1.00  0.00     0.293 C 
BRANCH  44  45
HETATM   45  C4  UNL     1      59.167  37.456  56.306  1.00  0.00     0.242 C 
BRANCH  45  46
HETATM   46  N1  UNL     1      60.342  37.959  55.578  1.00  0.00    -0.318 N 
HETATM   47  C3  UNL     1      61.108  38.967  56.101  1.00  0.00     0.361 C 
HETATM   48  O2  UNL     1      60.789  39.547  57.202  1.00  0.00    -0.238 OA
ATOM     49  H1  UNL     1      60.589  37.553  54.676  1.00  0.00     0.165 HD
BRANCH  47  50
HETATM   50  O1  UNL     1      62.295  39.400  55.495  1.00  0.00    -0.304 OA
BRANCH  50  51
HETATM   51  C2  UNL     1      62.643  40.776  55.729  1.00  0.00     0.176 C 
HETATM   52  C1  UNL     1      64.186  40.786  55.859  1.00  0.00     0.034 C 
ENDBRANCH  50  51
ENDBRANCH  47  50
ENDBRANCH  45  46
BRANCH  45  53
HETATM   53  C5  UNL     1      59.289  35.931  55.758  1.00  0.00     0.201 C 
HETATM   54  O3  UNL     1      58.362  35.319  55.480  1.00  0.00    -0.646 OA
HETATM   55  O4  UNL     1      60.629  35.539  55.710  1.00  0.00    -0.646 OA
ENDBRANCH  45  53
ENDBRANCH  44  45
BRANCH  44  56
HETATM   56  O5  UNL     1      56.808  37.534  56.246  1.00  0.00    -0.368 OA
ATOM     57  H5  UNL     1      56.090  38.154  56.202  1.00  0.00     0.212 HD
ENDBRANCH  44  56
ENDBRANCH  43  44
ENDBRANCH   1  43
TORSDOF 16
ENDMDL
MODEL 2
REMARK VINA RESULT: -8.261236590      1.911      3.604
REMARK  16 active torsions:
REMARK  status: ('A' for Active; 'I' for Inactive)
REMARK    1  A    between atoms: C2_2  and  O1_3 
REMARK    2  A    between atoms: O1_3  and  C3_4 
REMARK       I    between atoms: C3_4  and  N1_6 
REMARK    3  A    between atoms: N1_6  and  C4_8 
REMARK    4  A    between atoms: C4_8  and  C5_9 
REMARK    5  A    between atoms: C4_8  and  C6_12 
REMARK    6  A    between atoms: C6_12  and  O5_13 
REMARK    7  A    between atoms: C6_12  and  O6_15 
REMARK    8  A    between atoms: O6_15  and  C7_16 
REMARK    9  A    between atoms: C8_18  and  O8_19 
REMARK   10  A    between atoms: C8_18  and  C9_21 
REMARK   11  A    between atoms: C9_21  and  O9_22 
REMARK   12  A    between atoms: C10_24  and  N2_25 
REMARK   13  A    between atoms: C13_30  and  N4_31 
REMARK   14  A    between atoms: N4_31  and  N5_32 
REMARK       I    between atoms: N4_31  and  C14_35 
REMARK       I    between atoms: C14_35  and  N6_36 
REMARK       I    between atoms: C14_35  and  N7_40 
REMARK   15  A    between atoms: C15_46  and  N9_47 
REMARK   16  A    between atoms: C17_54  and  C18_55 
ROOT
HETATM    1  C7  UNL     1      58.404  41.203  54.399  1.00  0.00     0.306 C 
HETATM    2  O7  UNL     1      58.569  40.910  55.778  1.00  0.00    -0.316 OA
HETATM    3  C8  UNL     1      57.238  40.634  56.196  1.00  0.00     0.233 C 
HETATM    4  C10 UNL     1      56.591  41.957  56.317  1.00  0.00     0.311 C 
HETATM    5  O10 UNL     1      57.097  42.933  55.411  1.00  0.00    -0.338 OA
HETATM    6  C17 UNL     1      57.581  42.418  54.234  1.00  0.00     0.280 C 
ENDROOT
BRANCH   4   7
HETATM    7  N2  UNL     1      56.851  42.643  57.597  1.00  0.00    -0.240 N 
HETATM    8  N3  UNL     1      56.115  42.634  58.686  1.00  0.00    -0.304 N 
HETATM    9  C11 UNL     1      56.789  43.276  59.678  1.00  0.00     0.126 A 
ATOM     10  H3  UNL     1      55.189  42.213  58.773  1.00  0.00     0.186 HD
HETATM   11  C12 UNL     1      57.984  43.692  59.141  1.00  0.00     0.073 A 
HETATM   12  C13 UNL     1      59.067  44.384  59.680  1.00  0.00     0.156 A 
HETATM   13  C16 UNL     1      58.000  43.281  57.829  1.00  0.00     0.155 A 
HETATM   14  N8  UNL     1      60.107  44.639  58.870  1.00  0.00    -0.174 N 
HETATM   15  C15 UNL     1      60.126  44.240  57.564  1.00  0.00     0.679 A 
ATOM     16  H8  UNL     1      60.909  45.147  59.242  1.00  0.00     0.186 HD
HETATM   17  N10 UNL     1      59.078  43.575  57.083  1.00  0.00    -0.174 N 
ATOM     18  H10 UNL     1      59.095  43.275  56.109  1.00  0.00     0.186 HD
BRANCH  12  19
HETATM   19  N4  UNL     1      59.102  44.680  61.069  1.00  0.00    -0.227 N 
HETATM   20  C14 UNL     1      58.963  46.071  61.470  1.00  0.00     0.502 C 
HETATM   21  N6  UNL     1      57.805  46.686  60.869  1.00  0.00    -0.031 N 
HETATM   22  N7  UNL     1      60.118  46.822  61.068  1.00  0.00    -0.031 N 
ATOM     23  H63 UNL     1      57.818  46.591  59.854  1.00  0.00     0.279 HD
ATOM     24  H62 UNL     1      56.957  46.155  61.068  1.00  0.00     0.279 HD
ATOM     25  H61 UNL     1      57.707  47.661  61.151  1.00  0.00     0.279 HD
ATOM     26  H73 UNL     1      60.982  46.410  61.419  1.00  0.00     0.279 HD
ATOM     27  H72 UNL     1      60.302  46.731  60.069  1.00  0.00     0.279 HD
ATOM     28  H71 UNL     1      60.020  47.797  61.349  1.00  0.00     0.279 HD
BRANCH  19  29
HETATM   29  N5  UNL     1      59.287  43.700  62.012  1.00  0.00    -0.338 N 
ATOM     30  H52 UNL     1      59.881  43.870  62.823  1.00  0.00     0.177 HD
ATOM     31  H51 UNL     1      58.857  42.780  61.921  1.00  0.00     0.177 HD
ENDBRANCH  19  29
ENDBRANCH  12  19
BRANCH  15  32
HETATM   32  N9  UNL     1      61.104  44.447  56.765  1.00  0.00    -0.234 N 
ATOM     33  H92 UNL     1      61.689  45.263  56.945  1.00  0.00     0.174 HD
ATOM     34  H91 UNL     1      61.317  43.860  55.959  1.00  0.00     0.174 HD
ENDBRANCH  15  32
ENDBRANCH   4   7
BRANCH   3  35
HETATM   35  O8  UNL     1      56.599  39.950  55.149  1.00  0.00    -0.360 OA
ATOM     36  H8  UNL     1      56.538  40.547  54.413  1.00  0.00     0.213 HD
ENDBRANCH   3  35
BRANCH   3  37
HETATM   37  C9  UNL     1      57.324  39.781  57.410  1.00  0.00     0.237 C 
BRANCH  37  38
HETATM   38  O9  UNL     1      55.999  39.612  57.880  1.00  0.00    -0.395 OA
ATOM     39  H9  UNL     1      55.756  38.714  57.690  1.00  0.00     0.209 HD
ENDBRANCH  37  38
ENDBRANCH   3  37
BRANCH   6  40
HETATM   40  C18 UNL     1      58.395  43.505  53.594  1.00  0.00     0.208 C 
HETATM   41  O11 UNL     1      59.234  44.147  54.268  1.00  0.00    -0.646 OA
HETATM   42  O12 UNL     1      58.222  43.805  52.237  1.00  0.00    -0.646 OA
ENDBRANCH   6  40
BRANCH   1  43
HETATM   43  O6  UNL     1      59.754  41.274  53.940  1.00  0.00    -0.326 OA
BRANCH  43  44
HETATM   44  C6  UNL     1      60.723  40.912  54.891  1.00  0.00     0.293 C 
BRANCH  44  45
HETATM   45  C4  UNL     1      61.408  39.658  55.085  1.00  0.00     0.242 C 
BRANCH  45  46
HETATM   46  N1  UNL     1      60.484  38.617  55.560  1.00  0.00    -0.318 N 
HETATM   47  C3  UNL     1      60.848  37.297  55.537  1.00  0.00     0.361 C 
HETATM   48  O2  UNL     1      61.973  36.923  55.042  1.00  0.00    -0.238 OA
ATOM     49  H1  UNL     1      59.563  38.881  55.909  1.00  0.00     0.165 HD
BRANCH  47  50
HETATM   50  O1  UNL     1      60.043  36.286  56.080  1.00  0.00    -0.304 OA
BRANCH  50  51
HETATM   51  C2  UNL     1      58.666  36.640  56.294  1.00  0.00     0.176 C 
HETATM   52  C1  UNL     1      57.863  35.751  55.315  1.00  0.00     0.034 C 
ENDBRANCH  50  51
ENDBRANCH  47  50
ENDBRANCH  45  46
BRANCH  45  53
HETATM   53  C5  UNL     1      62.106  39.913  56.530  1.00  0.00     0.201 C 
HETATM   54  O3  UNL     1      61.494  39.911  57.498  1.00  0.00    -0.646 OA
HETATM   55  O4  UNL     1      63.477  40.130  56.375  1.00  0.00    -0.646 OA
ENDBRANCH  45  53
ENDBRANCH  44  45
BRANCH  44  56
HETATM   56  O5  UNL     1      61.011  41.897  55.718  1.00  0.00    -0.368 OA
ATOM     57  H5  UNL     1      61.600  42.574  55.407  1.00  0.00     0.212 HD
ENDBRANCH  44  56
ENDBRANCH  43  44
ENDBRANCH   1  43
TORSDOF 16
ENDMDL
MODEL 3
REMARK VINA RESULT: -8.123321129      1.966      4.973
REMARK  16 active torsions:
REMARK  status: ('A' for Active; 'I' for Inactive)
REMARK    1  A    between atoms: C2_2  and  O1_3 
REMARK    2  A    between atoms: O1_3  and  C3_4 
REMARK       I    between atoms: C3_4  and  N1_6 
REMARK    3  A    between atoms: N1_6  and  C4_8 
REMARK    4  A    between atoms: C4_8  and  C5_9 
REMARK    5  A    between atoms: C4_8  and  C6_12 
REMARK    6  A    between atoms: C6_12  and  O5_13 
REMARK    7  A    between atoms: C6_12  and  O6_15 
REMARK    8  A    between atoms: O6_15  and  C7_16 
REMARK    9  A    between atoms: C8_18  and  O8_19 
REMARK   10  A    between atoms: C8_18  and  C9_21 
REMARK   11  A    between atoms: C9_21  and  O9_22 
REMARK   12  A    between atoms: C10_24  and  N2_25 
REMARK   13  A    between atoms: C13_30  and  N4_31 
REMARK   14  A    between atoms: N4_31  and  N5_32 
REMARK       I    between atoms: N4_31  and  C14_35 
REMARK       I    between atoms: C14_35  and  N6_36 
REMARK       I    between atoms: C14_35  and  N7_40 
REMARK   15  A    between atoms: C15_46  and  N9_47 
REMARK   16  A    between atoms: C17_54  and  C18_55 
ROOT
HETATM    1  C7  UNL     1      59.641  39.265  54.904  1.00  0.00     0.306 C 
HETATM    2  O7  UNL     1      60.239  40.533  54.688  1.00  0.00    -0.316 OA
HETATM    3  C8  UNL     1      61.386  40.481  55.526  1.00  0.00     0.233 C 
HETATM    4  C10 UNL     1      60.874  40.698  56.894  1.00  0.00     0.311 C 
HETATM    5  O10 UNL     1      59.550  40.212  57.099  1.00  0.00    -0.338 OA
HETATM    6  C17 UNL     1      59.209  39.141  56.311  1.00  0.00     0.280 C 
ENDROOT
BRANCH   4   7
HETATM    7  N2  UNL     1      60.679  42.116  57.250  1.00  0.00    -0.240 N 
HETATM    8  N3  UNL     1      61.455  43.138  56.964  1.00  0.00    -0.304 N 
HETATM    9  C11 UNL     1      60.835  44.284  57.353  1.00  0.00     0.126 A 
ATOM     10  H3  UNL     1      62.373  43.080  56.523  1.00  0.00     0.186 HD
HETATM   11  C12 UNL     1      59.630  43.916  57.905  1.00  0.00     0.073 A 
HETATM   12  C13 UNL     1      58.585  44.653  58.459  1.00  0.00     0.156 A 
HETATM   13  C16 UNL     1      59.555  42.546  57.828  1.00  0.00     0.155 A 
HETATM   14  N8  UNL     1      57.521  43.974  58.919  1.00  0.00    -0.174 N 
HETATM   15  C15 UNL     1      57.444  42.612  58.852  1.00  0.00     0.679 A 
ATOM     16  H8  UNL     1      56.746  44.493  59.332  1.00  0.00     0.186 HD
HETATM   17  N10 UNL     1      58.457  41.940  58.310  1.00  0.00    -0.174 N 
ATOM     18  H10 UNL     1      58.396  40.924  58.258  1.00  0.00     0.186 HD
BRANCH  12  19
HETATM   19  N4  UNL     1      58.610  46.073  58.407  1.00  0.00    -0.227 N 
HETATM   20  C14 UNL     1      58.867  46.793  59.643  1.00  0.00     0.502 C 
HETATM   21  N6  UNL     1      60.054  46.309  60.304  1.00  0.00    -0.031 N 
HETATM   22  N7  UNL     1      57.765  46.637  60.549  1.00  0.00    -0.031 N 
ATOM     23  H63 UNL     1      60.008  45.302  60.463  1.00  0.00     0.279 HD
ATOM     24  H62 UNL     1      60.863  46.334  59.683  1.00  0.00     0.279 HD
ATOM     25  H61 UNL     1      60.235  46.814  61.171  1.00  0.00     0.279 HD
ATOM     26  H73 UNL     1      56.881  46.915  60.124  1.00  0.00     0.279 HD
ATOM     27  H72 UNL     1      57.549  45.655  60.718  1.00  0.00     0.279 HD
ATOM     28  H71 UNL     1      57.946  47.142  61.416  1.00  0.00     0.279 HD
BRANCH  19  29
HETATM   29  N5  UNL     1      58.373  46.757  57.240  1.00  0.00    -0.338 N 
ATOM     30  H52 UNL     1      57.651  46.441  56.594  1.00  0.00     0.177 HD
ATOM     31  H51 UNL     1      58.919  47.579  56.980  1.00  0.00     0.177 HD
ENDBRANCH  19  29
ENDBRANCH  12  19
BRANCH  15  32
HETATM   32  N9  UNL     1      56.441  41.930  59.262  1.00  0.00    -0.234 N 
ATOM     33  H92 UNL     1      55.512  42.294  59.050  1.00  0.00     0.174 HD
ATOM     34  H91 UNL     1      56.519  41.065  59.796  1.00  0.00     0.174 HD
ENDBRANCH  15  32
ENDBRANCH   4   7
BRANCH   3  35
HETATM   35  O8  UNL     1      61.890  39.171  55.471  1.00  0.00    -0.360 OA
ATOM     36  H8  UNL     1      62.748  39.177  55.880  1.00  0.00     0.213 HD
ENDBRANCH   3  35
BRANCH   3  37
HETATM   37  C9  UNL     1      62.375  41.450  54.984  1.00  0.00     0.237 C 
BRANCH  37  38
HETATM   38  O9  UNL     1      63.617  41.139  55.587  1.00  0.00    -0.395 OA
ATOM     39  H9  UNL     1      63.877  41.905  56.085  1.00  0.00     0.209 HD
ENDBRANCH  37  38
ENDBRANCH   3  37
BRANCH   6  40
HETATM   40  C18 UNL     1      57.715  39.016  56.380  1.00  0.00     0.208 C 
HETATM   41  O11 UNL     1      57.008  40.020  56.626  1.00  0.00    -0.646 OA
HETATM   42  O12 UNL     1      57.104  37.775  56.165  1.00  0.00    -0.646 OA
ENDBRANCH   6  40
BRANCH   1  43
HETATM   43  O6  UNL     1      58.614  39.240  53.913  1.00  0.00    -0.326 OA
BRANCH  43  44
HETATM   44  C6  UNL     1      58.716  40.238  52.929  1.00  0.00     0.293 C 
BRANCH  44  45
HETATM   45  C4  UNL     1      57.905  41.411  52.713  1.00  0.00     0.242 C 
BRANCH  45  46
HETATM   46  N1  UNL     1      57.115  41.739  53.909  1.00  0.00    -0.318 N 
HETATM   47  C3  UNL     1      57.484  42.775  54.726  1.00  0.00     0.361 C 
HETATM   48  O2  UNL     1      58.558  43.445  54.513  1.00  0.00    -0.238 OA
ATOM     49  H1  UNL     1      56.286  41.189  54.132  1.00  0.00     0.165 HD
BRANCH  47  50
HETATM   50  O1  UNL     1      56.701  43.189  55.813  1.00  0.00    -0.304 OA
BRANCH  50  51
HETATM   51  C2  UNL     1      55.326  43.480  55.510  1.00  0.00     0.176 C 
HETATM   52  C1  UNL     1      54.506  42.457  56.332  1.00  0.00     0.034 C 
ENDBRANCH  50  51
ENDBRANCH  47  50
ENDBRANCH  45  46
BRANCH  45  53
HETATM   53  C5  UNL     1      56.664  40.773  51.880  1.00  0.00     0.201 C 
HETATM   54  O3  UNL     1      55.577  40.983  52.173  1.00  0.00    -0.646 OA
HETATM   55  O4  UNL     1      57.139  39.977  50.835  1.00  0.00    -0.646 OA
ENDBRANCH  45  53
ENDBRANCH  44  45
BRANCH  44  56
HETATM   56  O5  UNL     1      59.710  40.022  52.092  1.00  0.00    -0.368 OA
ATOM     57  H5  UNL     1      60.238  39.244  52.229  1.00  0.00     0.212 HD
ENDBRANCH  44  56
ENDBRANCH  43  44
ENDBRANCH   1  43
TORSDOF 16
ENDMDL
MODEL 4
REMARK VINA RESULT: -8.096187414      1.327      2.253
REMARK  16 active torsions:
REMARK  status: ('A' for Active; 'I' for Inactive)
REMARK    1  A    between atoms: C2_2  and  O1_3 
REMARK    2  A    between atoms: O1_3  and  C3_4 
REMARK       I    between atoms: C3_4  and  N1_6 
REMARK    3  A    between atoms: N1_6  and  C4_8 
REMARK    4  A    between atoms: C4_8  and  C5_9 
REMARK    5  A    between atoms: C4_8  and  C6_12 
REMARK    6  A    between atoms: C6_12  and  O5_13 
REMARK    7  A    between atoms: C6_12  and  O6_15 
REMARK    8  A    between atoms: O6_15  and  C7_16 
REMARK    9  A    between atoms: C8_18  and  O8_19 
REMARK   10  A    between atoms: C8_18  and  C9_21 
REMARK   11  A    between atoms: C9_21  and  O9_22 
REMARK   12  A    between atoms: C10_24  and  N2_25 
REMARK   13  A    between atoms: C13_30  and  N4_31 
REMARK   14  A    between atoms: N4_31  and  N5_32 
REMARK       I    between atoms: N4_31  and  C14_35 
REMARK       I    between atoms: C14_35  and  N6_36 
REMARK       I    between atoms: C14_35  and  N7_40 
REMARK   15  A    between atoms: C15_46  and  N9_47 
REMARK   16  A    between atoms: C17_54  and  C18_55 
ROOT
HETATM    1  C7  UNL     1      57.220  40.192  55.732  1.00  0.00     0.306 C 
HETATM    2  O7  UNL     1      57.802  40.785  56.883  1.00  0.00    -0.316 OA
HETATM    3  C8  UNL     1      56.722  41.536  57.422  1.00  0.00     0.233 C 
HETATM    4  C10 UNL     1      56.625  42.738  56.568  1.00  0.00     0.311 C 
HETATM    5  O10 UNL     1      57.022  42.519  55.217  1.00  0.00    -0.338 OA
HETATM    6  C17 UNL     1      56.826  41.238  54.767  1.00  0.00     0.280 C 
ENDROOT
BRANCH   4   7
HETATM    7  N2  UNL     1      57.559  43.818  56.934  1.00  0.00    -0.240 N 
HETATM    8  N3  UNL     1      57.302  44.923  57.597  1.00  0.00    -0.304 N 
HETATM    9  C11 UNL     1      58.472  45.572  57.842  1.00  0.00     0.126 A 
ATOM     10  H3  UNL     1      56.375  45.242  57.882  1.00  0.00     0.186 HD
HETATM   11  C12 UNL     1      59.472  44.811  57.287  1.00  0.00     0.073 A 
HETATM   12  C13 UNL     1      60.856  44.970  57.232  1.00  0.00     0.156 A 
HETATM   13  C16 UNL     1      58.873  43.711  56.721  1.00  0.00     0.155 A 
HETATM   14  N8  UNL     1      61.567  44.023  56.599  1.00  0.00    -0.174 N 
HETATM   15  C15 UNL     1      60.976  42.932  56.028  1.00  0.00     0.679 A 
ATOM     16  H8  UNL     1      62.580  44.121  56.543  1.00  0.00     0.186 HD
HETATM   17  N10 UNL     1      59.653  42.806  56.106  1.00  0.00    -0.174 N 
ATOM     18  H10 UNL     1      59.214  41.989  55.682  1.00  0.00     0.186 HD
BRANCH  12  19
HETATM   19  N4  UNL     1      61.478  46.035  57.939  1.00  0.00    -0.227 N 
HETATM   20  C14 UNL     1      61.824  47.235  57.193  1.00  0.00     0.502 C 
HETATM   21  N6  UNL     1      60.698  47.739  56.445  1.00  0.00    -0.031 N 
HETATM   22  N7  UNL     1      62.880  46.956  56.264  1.00  0.00    -0.031 N 
ATOM     23  H63 UNL     1      60.306  47.022  55.835  1.00  0.00     0.279 HD
ATOM     24  H62 UNL     1      59.890  47.894  57.047  1.00  0.00     0.279 HD
ATOM     25  H61 UNL     1      60.940  48.580  55.922  1.00  0.00     0.279 HD
ATOM     26  H73 UNL     1      63.694  46.546  56.724  1.00  0.00     0.279 HD
ATOM     27  H72 UNL     1      62.649  46.178  55.647  1.00  0.00     0.279 HD
ATOM     28  H71 UNL     1      63.122  47.797  55.742  1.00  0.00     0.279 HD
BRANCH  19  29
HETATM   29  N5  UNL     1      61.775  45.937  59.276  1.00  0.00    -0.338 N 
ATOM     30  H52 UNL     1      61.446  45.141  59.820  1.00  0.00     0.177 HD
ATOM     31  H51 UNL     1      62.308  46.659  59.761  1.00  0.00     0.177 HD
ENDBRANCH  19  29
ENDBRANCH  12  19
BRANCH  15  32
HETATM   32  N9  UNL     1      61.618  41.998  55.433  1.00  0.00    -0.234 N 
ATOM     33  H92 UNL     1      61.069  41.302  54.928  1.00  0.00     0.174 HD
ATOM     34  H91 UNL     1      62.633  41.902  55.451  1.00  0.00     0.174 HD
ENDBRANCH  15  32
ENDBRANCH   4   7
BRANCH   3  35
HETATM   35  O8  UNL     1      55.549  40.790  57.229  1.00  0.00    -0.360 OA
ATOM     36  H8  UNL     1      55.694  39.928  57.602  1.00  0.00     0.213 HD
ENDBRANCH   3  35
BRANCH   3  37
HETATM   37  C9  UNL     1      56.995  41.725  58.871  1.00  0.00     0.237 C 
BRANCH  37  38
HETATM   38  O9  UNL     1      56.001  42.609  59.358  1.00  0.00    -0.395 OA
ATOM     39  H9  UNL     1      55.772  43.183  58.636  1.00  0.00     0.209 HD
ENDBRANCH  37  38
ENDBRANCH   3  37
BRANCH   6  40
HETATM   40  C18 UNL     1      57.628  41.099  53.505  1.00  0.00     0.208 C 
HETATM   41  O11 UNL     1      57.149  40.498  52.515  1.00  0.00    -0.646 OA
HETATM   42  O12 UNL     1      58.915  41.644  53.429  1.00  0.00    -0.646 OA
ENDBRANCH   6  40
BRANCH   1  43
HETATM   43  O6  UNL     1      58.236  39.281  55.313  1.00  0.00    -0.326 OA
BRANCH  43  44
HETATM   44  C6  UNL     1      58.356  38.124  56.100  1.00  0.00     0.293 C 
BRANCH  44  45
HETATM   45  C4  UNL     1      59.532  37.492  56.647  1.00  0.00     0.242 C 
BRANCH  45  46
HETATM   46  N1  UNL     1      60.740  37.896  55.912  1.00  0.00    -0.318 N 
HETATM   47  C3  UNL     1      61.537  38.907  56.380  1.00  0.00     0.361 C 
HETATM   48  O2  UNL     1      61.221  39.575  57.431  1.00  0.00    -0.238 OA
ATOM     49  H1  UNL     1      60.987  37.418  55.046  1.00  0.00     0.165 HD
BRANCH  47  50
HETATM   50  O1  UNL     1      62.752  39.249  55.771  1.00  0.00    -0.304 OA
BRANCH  50  51
HETATM   51  C2  UNL     1      63.740  39.826  56.643  1.00  0.00     0.176 C 
HETATM   52  C1  UNL     1      64.678  40.632  55.712  1.00  0.00     0.034 C 
ENDBRANCH  50  51
ENDBRANCH  47  50
ENDBRANCH  45  46
BRANCH  45  53
HETATM   53  C5  UNL     1      59.427  36.018  55.971  1.00  0.00     0.201 C 
HETATM   54  O3  UNL     1      58.418  35.495  55.831  1.00  0.00    -0.646 OA
HETATM   55  O4  UNL     1      60.698  35.547  55.634  1.00  0.00    -0.646 OA
ENDBRANCH  45  53
ENDBRANCH  44  45
BRANCH  44  56
HETATM   56  O5  UNL     1      57.191  37.555  56.342  1.00  0.00    -0.368 OA
ATOM     57  H5  UNL     1      57.198  36.685  56.724  1.00  0.00     0.212 HD
ENDBRANCH  44  56
ENDBRANCH  43  44
ENDBRANCH   1  43
TORSDOF 16
ENDMDL
MODEL 5
REMARK VINA RESULT: -8.094795567      2.286      4.570
REMARK  16 active torsions:
REMARK  status: ('A' for Active; 'I' for Inactive)
REMARK    1  A    between atoms: C2_2  and  O1_3 
REMARK    2  A    between atoms: O1_3  and  C3_4 
REMARK       I    between atoms: C3_4  and  N1_6 
REMARK    3  A    between atoms: N1_6  and  C4_8 
REMARK    4  A    between atoms: C4_8  and  C5_9 
REMARK    5  A    between atoms: C4_8  and  C6_12 
REMARK    6  A    between atoms: C6_12  and  O5_13 
REMARK    7  A    between atoms: C6_12  and  O6_15 
REMARK    8  A    between atoms: O6_15  and  C7_16 
REMARK    9  A    between atoms: C8_18  and  O8_19 
REMARK   10  A    between atoms: C8_18  and  C9_21 
REMARK   11  A    between atoms: C9_21  and  O9_22 
REMARK   12  A    between atoms: C10_24  and  N2_25 
REMARK   13  A    between atoms: C13_30  and  N4_31 
REMARK   14  A    between atoms: N4_31  and  N5_32 
REMARK       I    between atoms: N4_31  and  C14_35 
REMARK       I    between atoms: C14_35  and  N6_36 
REMARK       I    between atoms: C14_35  and  N7_40 
REMARK   15  A    between atoms: C15_46  and  N9_47 
REMARK   16  A    between atoms: C17_54  and  C18_55 
ROOT
HETATM    1  C7  UNL     1      57.113  41.466  56.400  1.00  0.00     0.306 C 
HETATM    2  O7  UNL     1      58.160  42.175  55.755  1.00  0.00    -0.316 OA
HETATM    3  C8  UNL     1      59.000  42.543  56.841  1.00  0.00     0.233 C 
HETATM    4  C10 UNL     1      58.315  43.680  57.490  1.00  0.00     0.311 C 
HETATM    5  O10 UNL     1      56.895  43.633  57.388  1.00  0.00    -0.338 OA
HETATM    6  C17 UNL     1      56.372  42.367  57.305  1.00  0.00     0.280 C 
ENDROOT
BRANCH   4   7
HETATM    7  N2  UNL     1      58.571  44.984  56.852  1.00  0.00    -0.240 N 
HETATM    8  N3  UNL     1      59.430  45.911  57.215  1.00  0.00    -0.304 N 
HETATM    9  C11 UNL     1      59.447  46.890  56.271  1.00  0.00     0.126 A 
ATOM     10  H3  UNL     1      59.992  45.897  58.067  1.00  0.00     0.186 HD
HETATM   11  C12 UNL     1      58.544  46.523  55.302  1.00  0.00     0.073 A 
HETATM   12  C13 UNL     1      58.148  47.125  54.109  1.00  0.00     0.156 A 
HETATM   13  C16 UNL     1      58.005  45.319  55.689  1.00  0.00     0.155 A 
HETATM   14  N8  UNL     1      57.222  46.492  53.371  1.00  0.00    -0.174 N 
HETATM   15  C15 UNL     1      56.678  45.299  53.754  1.00  0.00     0.679 A 
ATOM     16  H8  UNL     1      56.915  46.916  52.495  1.00  0.00     0.186 HD
HETATM   17  N10 UNL     1      57.084  44.749  54.896  1.00  0.00    -0.174 N 
ATOM     18  H10 UNL     1      56.679  43.857  55.179  1.00  0.00     0.186 HD
BRANCH  12  19
HETATM   19  N4  UNL     1      58.810  48.295  53.648  1.00  0.00    -0.227 N 
HETATM   20  C14 UNL     1      58.185  49.580  53.921  1.00  0.00     0.502 C 
HETATM   21  N6  UNL     1      57.853  49.725  55.317  1.00  0.00    -0.031 N 
HETATM   22  N7  UNL     1      56.974  49.714  53.164  1.00  0.00    -0.031 N 
ATOM     23  H63 UNL     1      57.273  48.952  55.644  1.00  0.00     0.279 HD
ATOM     24  H62 UNL     1      58.668  49.574  55.911  1.00  0.00     0.279 HD
ATOM     25  H61 UNL     1      57.416  50.626  55.508  1.00  0.00     0.279 HD
ATOM     26  H73 UNL     1      57.130  49.571  52.167  1.00  0.00     0.279 HD
ATOM     27  H72 UNL     1      56.334  48.937  53.330  1.00  0.00     0.279 HD
ATOM     28  H71 UNL     1      56.536  50.615  53.355  1.00  0.00     0.279 HD
BRANCH  19  29
HETATM   29  N5  UNL     1      59.987  48.230  52.944  1.00  0.00    -0.338 N 
ATOM     30  H52 UNL     1      60.190  47.424  52.353  1.00  0.00     0.177 HD
ATOM     31  H51 UNL     1      60.691  48.965  53.007  1.00  0.00     0.177 HD
ENDBRANCH  19  29
ENDBRANCH  12  19
BRANCH  15  32
HETATM   32  N9  UNL     1      55.807  44.656  53.071  1.00  0.00    -0.234 N 
ATOM     33  H92 UNL     1      56.116  43.799  52.612  1.00  0.00     0.174 HD
ATOM     34  H91 UNL     1      54.841  44.958  52.948  1.00  0.00     0.174 HD
ENDBRANCH  15  32
ENDBRANCH   4   7
BRANCH   3  35
HETATM   35  O8  UNL     1      58.998  41.477  57.756  1.00  0.00    -0.360 OA
ATOM     36  H8  UNL     1      59.882  41.390  58.095  1.00  0.00     0.213 HD
ENDBRANCH   3  35
BRANCH   3  37
HETATM   37  C9  UNL     1      60.363  42.764  56.291  1.00  0.00     0.237 C 
BRANCH  37  38
HETATM   38  O9  UNL     1      60.223  42.837  54.884  1.00  0.00    -0.395 OA
ATOM     39  H9  UNL     1      61.086  43.032  54.536  1.00  0.00     0.209 HD
ENDBRANCH  37  38
ENDBRANCH   3  37
BRANCH   6  40
HETATM   40  C18 UNL     1      54.956  42.518  56.830  1.00  0.00     0.208 C 
HETATM   41  O11 UNL     1      54.022  41.942  57.434  1.00  0.00    -0.646 OA
HETATM   42  O12 UNL     1      54.673  43.308  55.708  1.00  0.00    -0.646 OA
ENDBRANCH   6  40
BRANCH   1  43
HETATM   43  O6  UNL     1      56.388  40.924  55.297  1.00  0.00    -0.326 OA
BRANCH  43  44
HETATM   44  C6  UNL     1      57.103  40.866  54.089  1.00  0.00     0.293 C 
BRANCH  44  45
HETATM   45  C4  UNL     1      57.969  39.834  53.573  1.00  0.00     0.242 C 
BRANCH  45  46
HETATM   46  N1  UNL     1      59.383  40.217  53.697  1.00  0.00    -0.318 N 
HETATM   47  C3  UNL     1      60.206  39.570  54.580  1.00  0.00     0.361 C 
HETATM   48  O2  UNL     1      59.758  38.661  55.369  1.00  0.00    -0.238 OA
ATOM     49  H1  UNL     1      59.754  40.972  53.121  1.00  0.00     0.165 HD
BRANCH  47  50
HETATM   50  O1  UNL     1      61.582  39.829  54.653  1.00  0.00    -0.304 OA
BRANCH  50  51
HETATM   51  C2  UNL     1      62.336  38.940  55.495  1.00  0.00     0.176 C 
HETATM   52  C1  UNL     1      62.820  39.815  56.676  1.00  0.00     0.034 C 
ENDBRANCH  50  51
ENDBRANCH  47  50
ENDBRANCH  45  46
BRANCH  45  53
HETATM   53  C5  UNL     1      57.871  40.126  51.976  1.00  0.00     0.201 C 
HETATM   54  O3  UNL     1      56.999  39.731  51.349  1.00  0.00    -0.646 OA
HETATM   55  O4  UNL     1      58.970  40.878  51.553  1.00  0.00    -0.646 OA
ENDBRANCH  45  53
ENDBRANCH  44  45
BRANCH  44  56
HETATM   56  O5  UNL     1      56.936  41.946  53.351  1.00  0.00    -0.368 OA
ATOM     57  H5  UNL     1      56.935  41.837  52.408  1.00  0.00     0.212 HD
ENDBRANCH  44  56
ENDBRANCH  43  44
ENDBRANCH   1  43
TORSDOF 16
ENDMDL
