MODEL 1
REMARK VINA RESULT: -8.505726117      0.000      0.000
REMARK  5 active torsions:
REMARK  status: ('A' for Active; 'I' for Inactive)
REMARK    1  A    between atoms: C6_8  and  N2_9 
REMARK    2  A    between atoms: C7_14  and  N4_15 
REMARK    3  A    between atoms: N4_15  and  C8_17 
REMARK    4  A    between atoms: C8_17  and  C9_18 
REMARK    5  A    between atoms: C9_18  and  N5_19 
ROOT
HETATM    1  C1  UNL     1      48.004   0.408  93.609  1.00  0.00     0.018 C 
HETATM    2  C2  UNL     1      47.219   0.816  92.786  1.00  0.00    -0.072 C 
HETATM    3  C3  UNL     1      46.279   1.283  91.817  1.00  0.00     0.083 A 
HETATM    4  C4  UNL     1      46.755   1.711  90.596  1.00  0.00     0.045 A 
HETATM    5  C5  UNL     1      48.198   1.714  90.245  1.00  0.00     0.070 C 
HETATM    6  N1  UNL     1      45.849   2.146  89.706  1.00  0.00    -0.195 N 
ATOM      7  H1  UNL     1      46.167   2.470  88.792  1.00  0.00     0.184 HD
HETATM    8  C6  UNL     1      44.528   2.166  89.988  1.00  0.00     0.677 A 
HETATM    9  N3  UNL     1      44.074   1.747  91.182  1.00  0.00    -0.176 N 
ATOM     10  H3  UNL     1      43.073   1.772  91.372  1.00  0.00     0.186 HD
HETATM   11  C7  UNL     1      44.913   1.295  92.131  1.00  0.00     0.137 A 
ENDROOT
BRANCH  11  12
HETATM   12  N4  UNL     1      44.556   0.879  93.292  1.00  0.00    -0.373 N 
ATOM     13  H4  UNL     1      45.211   0.378  93.893  1.00  0.00     0.161 HD
BRANCH  12  14
HETATM   14  C8  UNL     1      43.200   1.137  93.725  1.00  0.00     0.140 C 
BRANCH  14  15
HETATM   15  C9  UNL     1      42.444  -0.134  94.054  1.00  0.00     0.137 C 
BRANCH  15  16
HETATM   16  N5  UNL     1      41.557  -0.401  92.978  1.00  0.00    -0.407 N 
HETATM   17  C10 UNL     1      40.768   0.675  92.496  1.00  0.00     0.121 C 
HETATM   18  C11 UNL     1      39.278   0.451  92.710  1.00  0.00    -0.001 C 
HETATM   19  C12 UNL     1      38.495   1.662  92.359  1.00  0.00     0.011 C 
HETATM   20  C13 UNL     1      38.963  -0.765  91.838  1.00  0.00     0.008 C 
HETATM   21  C14 UNL     1      39.665  -1.925  92.537  1.00  0.00     0.025 C 
HETATM   22  C15 UNL     1      41.111  -1.704  92.774  1.00  0.00     0.075 C 
HETATM   23  C16 UNL     1      41.872  -2.316  91.589  1.00  0.00     0.032 C 
ENDBRANCH  15  16
ENDBRANCH  14  15
ENDBRANCH  12  14
ENDBRANCH  11  12
BRANCH   8  24
HETATM   24  N2  UNL     1      43.668   2.586  89.129  1.00  0.00    -0.234 N 
ATOM     25  H22 UNL     1      43.650   3.583  88.917  1.00  0.00     0.174 HD
ATOM     26  H21 UNL     1      43.021   1.945  88.670  1.00  0.00     0.174 HD
ENDBRANCH   8  24
TORSDOF 5
ENDMDL
MODEL 2
REMARK VINA RESULT: -8.481396772      1.394      6.860
REMARK  5 active torsions:
REMARK  status: ('A' for Active; 'I' for Inactive)
REMARK    1  A    between atoms: C6_8  and  N2_9 
REMARK    2  A    between atoms: C7_14  and  N4_15 
REMARK    3  A    between atoms: N4_15  and  C8_17 
REMARK    4  A    between atoms: C8_17  and  C9_18 
REMARK    5  A    between atoms: C9_18  and  N5_19 
ROOT
HETATM    1  C1  UNL     1      39.410   2.329  92.693  1.00  0.00     0.018 C 
HETATM    2  C2  UNL     1      39.954   1.255  92.787  1.00  0.00    -0.072 C 
HETATM    3  C3  UNL     1      40.615  -0.007  92.893  1.00  0.00     0.083 A 
HETATM    4  C4  UNL     1      39.950  -1.133  92.457  1.00  0.00     0.045 A 
HETATM    5  C5  UNL     1      38.578  -1.095  91.890  1.00  0.00     0.070 C 
HETATM    6  N1  UNL     1      40.594  -2.305  92.570  1.00  0.00    -0.195 N 
ATOM      7  H1  UNL     1      40.130  -3.159  92.257  1.00  0.00     0.184 HD
HETATM    8  C6  UNL     1      41.840  -2.385  93.086  1.00  0.00     0.677 A 
HETATM    9  N3  UNL     1      42.480  -1.281  93.509  1.00  0.00    -0.176 N 
ATOM     10  H3  UNL     1      43.420  -1.366  93.896  1.00  0.00     0.186 HD
HETATM   11  C7  UNL     1      41.907  -0.066  93.432  1.00  0.00     0.137 A 
ENDROOT
BRANCH  11  12
HETATM   12  N4  UNL     1      42.454   1.031  93.813  1.00  0.00    -0.373 N 
ATOM     13  H4  UNL     1      41.885   1.826  94.105  1.00  0.00     0.161 HD
BRANCH  12  14
HETATM   14  C8  UNL     1      43.898   1.111  93.817  1.00  0.00     0.140 C 
BRANCH  14  15
HETATM   15  C9  UNL     1      44.422   2.188  92.888  1.00  0.00     0.137 C 
BRANCH  15  16
HETATM   16  N5  UNL     1      45.413   1.599  92.060  1.00  0.00    -0.407 N 
HETATM   17  C10 UNL     1      46.369   0.751  92.678  1.00  0.00     0.121 C 
HETATM   18  C11 UNL     1      47.785   1.302  92.591  1.00  0.00    -0.001 C 
HETATM   19  C12 UNL     1      48.729   0.488  93.396  1.00  0.00     0.011 C 
HETATM   20  C13 UNL     1      48.085   1.301  91.093  1.00  0.00     0.008 C 
HETATM   21  C14 UNL     1      47.179   2.386  90.522  1.00  0.00     0.025 C 
HETATM   22  C15 UNL     1      45.745   2.215  90.856  1.00  0.00     0.075 C 
HETATM   23  C16 UNL     1      45.090   1.445  89.700  1.00  0.00     0.032 C 
ENDBRANCH  15  16
ENDBRANCH  14  15
ENDBRANCH  12  14
ENDBRANCH  11  12
BRANCH   8  24
HETATM   24  N2  UNL     1      42.449  -3.513  93.192  1.00  0.00    -0.234 N 
ATOM     25  H22 UNL     1      43.195  -3.719  92.527  1.00  0.00     0.174 HD
ATOM     26  H21 UNL     1      42.198  -4.185  93.917  1.00  0.00     0.174 HD
ENDBRANCH   8  24
TORSDOF 5
ENDMDL
MODEL 3
REMARK VINA RESULT: -8.357797905      2.891      4.669
REMARK  5 active torsions:
REMARK  status: ('A' for Active; 'I' for Inactive)
REMARK    1  A    between atoms: C6_8  and  N2_9 
REMARK    2  A    between atoms: C7_14  and  N4_15 
REMARK    3  A    between atoms: N4_15  and  C8_17 
REMARK    4  A    between atoms: C8_17  and  C9_18 
REMARK    5  A    between atoms: C9_18  and  N5_19 
ROOT
HETATM    1  C1  UNL     1      44.232   4.263  92.851  1.00  0.00     0.018 C 
HETATM    2  C2  UNL     1      43.119   3.794  92.816  1.00  0.00    -0.072 C 
HETATM    3  C3  UNL     1      41.805   3.237  92.754  1.00  0.00     0.083 A 
HETATM    4  C4  UNL     1      40.831   3.769  93.571  1.00  0.00     0.045 A 
HETATM    5  C5  UNL     1      41.085   4.887  94.515  1.00  0.00     0.070 C 
HETATM    6  N1  UNL     1      39.605   3.227  93.493  1.00  0.00    -0.195 N 
ATOM      7  H1  UNL     1      38.860   3.596  94.084  1.00  0.00     0.184 HD
HETATM    8  C6  UNL     1      39.333   2.205  92.653  1.00  0.00     0.677 A 
HETATM    9  N3  UNL     1      40.291   1.693  91.860  1.00  0.00    -0.176 N 
ATOM     10  H3  UNL     1      40.061   0.921  91.235  1.00  0.00     0.186 HD
HETATM   11  C7  UNL     1      41.545   2.178  91.876  1.00  0.00     0.137 A 
ENDROOT
BRANCH  11  12
HETATM   12  N4  UNL     1      42.511   1.743  91.149  1.00  0.00    -0.373 N 
ATOM     13  H4  UNL     1      42.843   2.277  90.346  1.00  0.00     0.161 HD
BRANCH  12  14
HETATM   14  C8  UNL     1      43.116   0.477  91.500  1.00  0.00     0.140 C 
BRANCH  14  15
HETATM   15  C9  UNL     1      42.987  -0.553  90.396  1.00  0.00     0.137 C 
BRANCH  15  16
HETATM   16  N5  UNL     1      42.380  -1.709  90.953  1.00  0.00    -0.407 N 
HETATM   17  C10 UNL     1      40.965  -1.721  91.060  1.00  0.00     0.121 C 
HETATM   18  C11 UNL     1      40.487  -1.771  92.504  1.00  0.00    -0.001 C 
HETATM   19  C12 UNL     1      39.015  -1.604  92.591  1.00  0.00     0.011 C 
HETATM   20  C13 UNL     1      40.989  -3.124  93.008  1.00  0.00     0.008 C 
HETATM   21  C14 UNL     1      42.504  -2.967  93.075  1.00  0.00     0.025 C 
HETATM   22  C15 UNL     1      43.123  -2.523  91.804  1.00  0.00     0.075 C 
HETATM   23  C16 UNL     1      43.562  -3.781  91.040  1.00  0.00     0.032 C 
ENDBRANCH  15  16
ENDBRANCH  14  15
ENDBRANCH  12  14
ENDBRANCH  11  12
BRANCH   8  24
HETATM   24  N2  UNL     1      38.156   1.690  92.586  1.00  0.00    -0.234 N 
ATOM     25  H22 UNL     1      38.024   0.871  91.993  1.00  0.00     0.174 HD
ATOM     26  H21 UNL     1      37.375   2.085  93.109  1.00  0.00     0.174 HD
ENDBRANCH   8  24
TORSDOF 5
ENDMDL
MODEL 4
REMARK VINA RESULT: -8.328331792      1.890      2.244
REMARK  5 active torsions:
REMARK  status: ('A' for Active; 'I' for Inactive)
REMARK    1  A    between atoms: C6_8  and  N2_9 
REMARK    2  A    between atoms: C7_14  and  N4_15 
REMARK    3  A    between atoms: N4_15  and  C8_17 
REMARK    4  A    between atoms: C8_17  and  C9_18 
REMARK    5  A    between atoms: C9_18  and  N5_19 
ROOT
HETATM    1  C1  UNL     1      44.553  -2.797  92.343  1.00  0.00     0.018 C 
HETATM    2  C2  UNL     1      44.429  -1.789  91.688  1.00  0.00    -0.072 C 
HETATM    3  C3  UNL     1      44.270  -0.592  90.926  1.00  0.00     0.083 A 
HETATM    4  C4  UNL     1      44.250  -0.689  89.550  1.00  0.00     0.045 A 
HETATM    5  C5  UNL     1      44.393  -1.978  88.827  1.00  0.00     0.070 C 
HETATM    6  N1  UNL     1      44.100   0.452  88.860  1.00  0.00    -0.195 N 
ATOM      7  H1  UNL     1      44.082   0.417  87.840  1.00  0.00     0.184 HD
HETATM    8  C6  UNL     1      43.974   1.647  89.479  1.00  0.00     0.677 A 
HETATM    9  N3  UNL     1      43.995   1.730  90.821  1.00  0.00    -0.176 N 
ATOM     10  H3  UNL     1      43.898   2.643  91.265  1.00  0.00     0.186 HD
HETATM   11  C7  UNL     1      44.141   0.636  91.589  1.00  0.00     0.137 A 
ENDROOT
BRANCH  11  12
HETATM   12  N4  UNL     1      44.169   0.636  92.872  1.00  0.00    -0.373 N 
ATOM     13  H4  UNL     1      45.010   0.357  93.377  1.00  0.00     0.161 HD
BRANCH  12  14
HETATM   14  C8  UNL     1      42.976   1.040  93.584  1.00  0.00     0.140 C 
BRANCH  14  15
HETATM   15  C9  UNL     1      42.054  -0.125  93.880  1.00  0.00     0.137 C 
BRANCH  15  16
HETATM   16  N5  UNL     1      41.092  -0.191  92.837  1.00  0.00    -0.407 N 
HETATM   17  C10 UNL     1      40.507   1.028  92.406  1.00  0.00     0.121 C 
HETATM   18  C11 UNL     1      39.010   1.088  92.678  1.00  0.00    -0.001 C 
HETATM   19  C12 UNL     1      38.462   2.434  92.380  1.00  0.00     0.011 C 
HETATM   20  C13 UNL     1      38.436  -0.024  91.800  1.00  0.00     0.008 C 
HETATM   21  C14 UNL     1      38.927  -1.313  92.450  1.00  0.00     0.025 C 
HETATM   22  C15 UNL     1      40.397  -1.379  92.630  1.00  0.00     0.075 C 
HETATM   23  C16 UNL     1      40.981  -2.096  91.405  1.00  0.00     0.032 C 
ENDBRANCH  15  16
ENDBRANCH  14  15
ENDBRANCH  12  14
ENDBRANCH  11  12
BRANCH   8  24
HETATM   24  N2  UNL     1      43.832   2.735  88.808  1.00  0.00    -0.234 N 
ATOM     25  H22 UNL     1      43.672   2.662  87.804  1.00  0.00     0.174 HD
ATOM     26  H21 UNL     1      43.875   3.647  89.263  1.00  0.00     0.174 HD
ENDBRANCH   8  24
TORSDOF 5
ENDMDL
MODEL 5
REMARK VINA RESULT: -8.288239549      2.525      5.114
REMARK  5 active torsions:
REMARK  status: ('A' for Active; 'I' for Inactive)
REMARK    1  A    between atoms: C6_8  and  N2_9 
REMARK    2  A    between atoms: C7_14  and  N4_15 
REMARK    3  A    between atoms: N4_15  and  C8_17 
REMARK    4  A    between atoms: C8_17  and  C9_18 
REMARK    5  A    between atoms: C9_18  and  N5_19 
ROOT
HETATM    1  C1  UNL     1      40.431  -2.908  93.083  1.00  0.00     0.018 C 
HETATM    2  C2  UNL     1      41.238  -2.406  92.338  1.00  0.00    -0.072 C 
HETATM    3  C3  UNL     1      42.178  -1.805  91.445  1.00  0.00     0.083 A 
HETATM    4  C4  UNL     1      43.300  -2.526  91.094  1.00  0.00     0.045 A 
HETATM    5  C5  UNL     1      43.579  -3.892  91.605  1.00  0.00     0.070 C 
HETATM    6  N1  UNL     1      44.167  -1.936  90.255  1.00  0.00    -0.195 N 
ATOM      7  H1  UNL     1      45.008  -2.441  89.975  1.00  0.00     0.184 HD
HETATM    8  C6  UNL     1      43.954  -0.692  89.773  1.00  0.00     0.677 A 
HETATM    9  N3  UNL     1      42.856   0.002  90.122  1.00  0.00    -0.176 N 
ATOM     10  H3  UNL     1      42.718   0.940  89.745  1.00  0.00     0.186 HD
HETATM   11  C7  UNL     1      41.938  -0.514  90.957  1.00  0.00     0.137 A 
ENDROOT
BRANCH  11  12
HETATM   12  N4  UNL     1      40.867   0.085  91.335  1.00  0.00    -0.373 N 
ATOM     13  H4  UNL     1      39.951  -0.340  91.192  1.00  0.00     0.161 HD
BRANCH  12  14
HETATM   14  C8  UNL     1      40.993   1.380  91.968  1.00  0.00     0.140 C 
BRANCH  14  15
HETATM   15  C9  UNL     1      41.469   1.280  93.403  1.00  0.00     0.137 C 
BRANCH  15  16
HETATM   16  N5  UNL     1      42.467   2.271  93.598  1.00  0.00    -0.407 N 
HETATM   17  C10 UNL     1      42.196   3.302  94.535  1.00  0.00     0.121 C 
HETATM   18  C11 UNL     1      42.112   4.676  93.886  1.00  0.00    -0.001 C 
HETATM   19  C12 UNL     1      41.655   5.702  94.855  1.00  0.00     0.011 C 
HETATM   20  C13 UNL     1      43.524   4.913  93.350  1.00  0.00     0.008 C 
HETATM   21  C14 UNL     1      43.668   3.918  92.204  1.00  0.00     0.025 C 
HETATM   22  C15 UNL     1      43.389   2.513  92.583  1.00  0.00     0.075 C 
HETATM   23  C16 UNL     1      44.728   1.860  92.954  1.00  0.00     0.032 C 
ENDBRANCH  15  16
ENDBRANCH  14  15
ENDBRANCH  12  14
ENDBRANCH  11  12
BRANCH   8  24
HETATM   24  N2  UNL     1      44.791  -0.134  88.970  1.00  0.00    -0.234 N 
ATOM     25  H22 UNL     1      45.454   0.535  89.359  1.00  0.00     0.174 HD
ATOM     26  H21 UNL     1      44.795  -0.353  87.974  1.00  0.00     0.174 HD
ENDBRANCH   8  24
TORSDOF 5
ENDMDL
