MODEL 1
REMARK VINA RESULT: -7.858496391      0.000      0.000
REMARK  7 active torsions:
REMARK  status: ('A' for Active; 'I' for Inactive)
REMARK    1  A    between atoms: C2_2  and  C4_5 
REMARK    2  A    between atoms: C5_6  and  C6_7 
REMARK    3  A    between atoms: C6_7  and  N1_8 
REMARK       I    between atoms: N1_8  and  C7_10 
REMARK    4  A    between atoms: C7_10  and  C8_12 
REMARK    5  A    between atoms: C8_12  and  O2_13 
REMARK    6  A    between atoms: O2_13  and  C9_14 
REMARK       I    between atoms: C9_14  and  N2_16 
REMARK    7  A    between atoms: N2_16  and  C10_18 
ROOT
HETATM    1  C8  UNL     1      43.494  -3.146  91.027  1.00  0.00     0.283 C 
ENDROOT
BRANCH   1   2
HETATM    2  C7  UNL     1      42.420  -2.855  92.007  1.00  0.00     0.242 C 
HETATM    3  N1  UNL     1      41.289  -2.112  91.572  1.00  0.00    -0.349 N 
ATOM      4  H1  UNL     1      41.238  -1.798  90.603  1.00  0.00     0.163 HD
HETATM    5  O1  UNL     1      42.468  -3.237  93.209  1.00  0.00    -0.271 OA
BRANCH   3   6
HETATM    6  C6  UNL     1      40.214  -1.797  92.476  1.00  0.00     0.217 C 
BRANCH   6   7
HETATM    7  C5  UNL     1      40.073  -0.329  92.557  1.00  0.00    -0.085 C 
HETATM    8  C4  UNL     1      39.977   0.878  92.620  1.00  0.00    -0.079 C 
BRANCH   8   9
HETATM    9  C2  UNL     1      39.886   2.336  92.691  1.00  0.00     0.093 C 
HETATM   10  C1  UNL     1      41.001   2.974  91.890  1.00  0.00     0.046 C 
HETATM   11  C3  UNL     1      39.889   2.804  94.133  1.00  0.00     0.046 C 
HETATM   12 CL1  UNL     1      38.318   2.837  91.987  1.00  0.00    -0.106 Cl
ENDBRANCH   8   9
ENDBRANCH   6   7
ENDBRANCH   3   6
ENDBRANCH   1   2
BRANCH   1  13
HETATM   13  O2  UNL     1      44.370  -2.046  90.984  1.00  0.00    -0.294 OA
BRANCH  13  14
HETATM   14  C9  UNL     1      44.344  -1.121  89.958  1.00  0.00     0.379 C 
HETATM   15  O3  UNL     1      44.791  -1.333  88.824  1.00  0.00    -0.238 OA
HETATM   16  N2  UNL     1      43.758   0.152  90.253  1.00  0.00    -0.135 N 
ATOM     17  H2  UNL     1      42.749   0.289  90.229  1.00  0.00     0.189 HD
BRANCH  16  18
HETATM   18  C10 UNL     1      44.560   1.116  90.549  1.00  0.00     0.686 A 
HETATM   19  N3  UNL     1      45.759   1.312  89.978  1.00  0.00    -0.200 N 
HETATM   20  C11 UNL     1      46.365   2.399  90.495  1.00  0.00     0.123 A 
ATOM     21  H3  UNL     1      46.158   0.717  89.251  1.00  0.00     0.183 HD
HETATM   22  C12 UNL     1      45.475   2.899  91.442  1.00  0.00     0.123 A 
HETATM   23  N4  UNL     1      44.390   2.107  91.458  1.00  0.00    -0.200 N 
ATOM     24  H4  UNL     1      43.573   2.231  92.055  1.00  0.00     0.183 HD
ENDBRANCH  16  18
ENDBRANCH  13  14
ENDBRANCH   1  13
TORSDOF 7
ENDMDL
MODEL 2
REMARK VINA RESULT: -7.505126640      1.647      2.310
REMARK  7 active torsions:
REMARK  status: ('A' for Active; 'I' for Inactive)
REMARK    1  A    between atoms: C2_2  and  C4_5 
REMARK    2  A    between atoms: C5_6  and  C6_7 
REMARK    3  A    between atoms: C6_7  and  N1_8 
REMARK       I    between atoms: N1_8  and  C7_10 
REMARK    4  A    between atoms: C7_10  and  C8_12 
REMARK    5  A    between atoms: C8_12  and  O2_13 
REMARK    6  A    between atoms: O2_13  and  C9_14 
REMARK       I    between atoms: C9_14  and  N2_16 
REMARK    7  A    between atoms: N2_16  and  C10_18 
ROOT
HETATM    1  C8  UNL     1      43.253  -3.183  91.169  1.00  0.00     0.283 C 
ENDROOT
BRANCH   1   2
HETATM    2  C7  UNL     1      42.181  -2.829  92.131  1.00  0.00     0.242 C 
HETATM    3  N1  UNL     1      41.041  -2.132  91.648  1.00  0.00    -0.349 N 
ATOM      4  H1  UNL     1      40.982  -1.891  90.659  1.00  0.00     0.163 HD
HETATM    5  O1  UNL     1      42.239  -3.121  93.358  1.00  0.00    -0.271 OA
BRANCH   3   6
HETATM    6  C6  UNL     1      39.967  -1.760  92.533  1.00  0.00     0.217 C 
BRANCH   6   7
HETATM    7  C5  UNL     1      39.820  -0.291  92.515  1.00  0.00    -0.085 C 
HETATM    8  C4  UNL     1      39.683   0.913  92.513  1.00  0.00    -0.079 C 
BRANCH   8   9
HETATM    9  C2  UNL     1      39.498   2.364  92.526  1.00  0.00     0.093 C 
HETATM   10  C1  UNL     1      39.603   2.897  93.939  1.00  0.00     0.046 C 
HETATM   11  C3  UNL     1      38.182   2.744  91.877  1.00  0.00     0.046 C 
HETATM   12 CL1  UNL     1      40.795   3.105  91.538  1.00  0.00    -0.106 Cl
ENDBRANCH   8   9
ENDBRANCH   6   7
ENDBRANCH   3   6
ENDBRANCH   1   2
BRANCH   1  13
HETATM   13  O2  UNL     1      43.898  -1.999  90.764  1.00  0.00    -0.294 OA
BRANCH  13  14
HETATM   14  C9  UNL     1      44.775  -1.318  91.586  1.00  0.00     0.379 C 
HETATM   15  O3  UNL     1      45.593  -1.869  92.332  1.00  0.00    -0.238 OA
HETATM   16  N2  UNL     1      44.711   0.112  91.551  1.00  0.00    -0.135 N 
ATOM     17  H2  UNL     1      45.182   0.646  90.821  1.00  0.00     0.189 HD
BRANCH  16  18
HETATM   18  C10 UNL     1      44.035   0.695  92.479  1.00  0.00     0.686 A 
HETATM   19  N3  UNL     1      43.398   0.056  93.474  1.00  0.00    -0.200 N 
HETATM   20  C11 UNL     1      42.778   0.933  94.289  1.00  0.00     0.123 A 
ATOM     21  H3  UNL     1      43.385  -0.956  93.596  1.00  0.00     0.183 HD
HETATM   22  C12 UNL     1      43.058   2.190  93.755  1.00  0.00     0.123 A 
HETATM   23  N4  UNL     1      43.820   2.021  92.661  1.00  0.00    -0.200 N 
ATOM     24  H4  UNL     1      44.177   2.768  92.066  1.00  0.00     0.183 HD
ENDBRANCH  16  18
ENDBRANCH  13  14
ENDBRANCH   1  13
TORSDOF 7
ENDMDL
MODEL 3
REMARK VINA RESULT: -7.343055296      2.797      4.662
REMARK  7 active torsions:
REMARK  status: ('A' for Active; 'I' for Inactive)
REMARK    1  A    between atoms: C2_2  and  C4_5 
REMARK    2  A    between atoms: C5_6  and  C6_7 
REMARK    3  A    between atoms: C6_7  and  N1_8 
REMARK       I    between atoms: N1_8  and  C7_10 
REMARK    4  A    between atoms: C7_10  and  C8_12 
REMARK    5  A    between atoms: C8_12  and  O2_13 
REMARK    6  A    between atoms: O2_13  and  C9_14 
REMARK       I    between atoms: C9_14  and  N2_16 
REMARK    7  A    between atoms: N2_16  and  C10_18 
ROOT
HETATM    1  C8  UNL     1      45.068  -0.322  91.942  1.00  0.00     0.283 C 
ENDROOT
BRANCH   1   2
HETATM    2  C7  UNL     1      43.805   0.446  92.069  1.00  0.00     0.242 C 
HETATM    3  N1  UNL     1      43.251   0.629  93.364  1.00  0.00    -0.349 N 
ATOM      4  H1  UNL     1      43.729   0.234  94.174  1.00  0.00     0.163 HD
HETATM    5  O1  UNL     1      43.203   0.941  91.076  1.00  0.00    -0.271 OA
BRANCH   3   6
HETATM    6  C6  UNL     1      42.027   1.364  93.552  1.00  0.00     0.217 C 
BRANCH   6   7
HETATM    7  C5  UNL     1      42.355   2.784  93.790  1.00  0.00    -0.085 C 
HETATM    8  C4  UNL     1      42.644   3.946  93.984  1.00  0.00    -0.079 C 
BRANCH   8   9
HETATM    9  C2  UNL     1      43.016   5.341  94.215  1.00  0.00     0.093 C 
HETATM   10  C1  UNL     1      43.677   5.494  95.568  1.00  0.00     0.046 C 
HETATM   11  C3  UNL     1      41.811   6.249  94.071  1.00  0.00     0.046 C 
HETATM   12 CL1  UNL     1      44.186   5.828  92.949  1.00  0.00    -0.106 Cl
ENDBRANCH   8   9
ENDBRANCH   6   7
ENDBRANCH   3   6
ENDBRANCH   1   2
BRANCH   1  13
HETATM   13  O2  UNL     1      44.813  -1.661  92.292  1.00  0.00    -0.294 OA
BRANCH  13  14
HETATM   14  C9  UNL     1      43.975  -2.472  91.552  1.00  0.00     0.379 C 
HETATM   15  O3  UNL     1      44.175  -2.779  90.370  1.00  0.00    -0.238 OA
HETATM   16  N2  UNL     1      42.811  -2.974  92.217  1.00  0.00    -0.135 N 
ATOM     17  H2  UNL     1      42.858  -3.793  92.822  1.00  0.00     0.189 HD
BRANCH  16  18
HETATM   18  C10 UNL     1      41.703  -2.348  92.020  1.00  0.00     0.686 A 
HETATM   19  N3  UNL     1      41.403  -1.663  90.905  1.00  0.00    -0.200 N 
HETATM   20  C11 UNL     1      40.174  -1.116  90.994  1.00  0.00     0.123 A 
ATOM     21  H3  UNL     1      42.021  -1.569  90.099  1.00  0.00     0.183 HD
HETATM   22  C12 UNL     1      39.693  -1.494  92.245  1.00  0.00     0.123 A 
HETATM   23  N4  UNL     1      40.635  -2.239  92.849  1.00  0.00    -0.200 N 
ATOM     24  H4  UNL     1      40.560  -2.654  93.778  1.00  0.00     0.183 HD
ENDBRANCH  16  18
ENDBRANCH  13  14
ENDBRANCH   1  13
TORSDOF 7
ENDMDL
MODEL 4
REMARK VINA RESULT: -7.300168940      2.653      4.622
REMARK  7 active torsions:
REMARK  status: ('A' for Active; 'I' for Inactive)
REMARK    1  A    between atoms: C2_2  and  C4_5 
REMARK    2  A    between atoms: C5_6  and  C6_7 
REMARK    3  A    between atoms: C6_7  and  N1_8 
REMARK       I    between atoms: N1_8  and  C7_10 
REMARK    4  A    between atoms: C7_10  and  C8_12 
REMARK    5  A    between atoms: C8_12  and  O2_13 
REMARK    6  A    between atoms: O2_13  and  C9_14 
REMARK       I    between atoms: C9_14  and  N2_16 
REMARK    7  A    between atoms: N2_16  and  C10_18 
ROOT
HETATM    1  C8  UNL     1      45.179  -0.380  92.187  1.00  0.00     0.283 C 
ENDROOT
BRANCH   1   2
HETATM    2  C7  UNL     1      43.940   0.435  92.242  1.00  0.00     0.242 C 
HETATM    3  N1  UNL     1      43.303   0.616  93.499  1.00  0.00    -0.349 N 
ATOM      4  H1  UNL     1      43.706   0.186  94.332  1.00  0.00     0.163 HD
HETATM    5  O1  UNL     1      43.430   0.973  91.220  1.00  0.00    -0.271 OA
BRANCH   3   6
HETATM    6  C6  UNL     1      42.098   1.395  93.616  1.00  0.00     0.217 C 
BRANCH   6   7
HETATM    7  C5  UNL     1      42.462   2.817  93.780  1.00  0.00    -0.085 C 
HETATM    8  C4  UNL     1      42.765   3.980  93.935  1.00  0.00    -0.079 C 
BRANCH   8   9
HETATM    9  C2  UNL     1      43.133   5.380  94.146  1.00  0.00     0.093 C 
HETATM   10  C1  UNL     1      44.087   5.844  93.066  1.00  0.00     0.046 C 
HETATM   11  C3  UNL     1      43.711   5.580  95.533  1.00  0.00     0.046 C 
HETATM   12 CL1  UNL     1      41.645   6.372  94.058  1.00  0.00    -0.106 Cl
ENDBRANCH   8   9
ENDBRANCH   6   7
ENDBRANCH   3   6
ENDBRANCH   1   2
BRANCH   1  13
HETATM   13  O2  UNL     1      44.830  -1.733  92.353  1.00  0.00    -0.294 OA
BRANCH  13  14
HETATM   14  C9  UNL     1      44.004  -2.396  91.467  1.00  0.00     0.379 C 
HETATM   15  O3  UNL     1      44.242  -2.519  90.259  1.00  0.00    -0.238 OA
HETATM   16  N2  UNL     1      42.807  -2.968  92.006  1.00  0.00    -0.135 N 
ATOM     17  H2  UNL     1      42.816  -3.873  92.475  1.00  0.00     0.189 HD
BRANCH  16  18
HETATM   18  C10 UNL     1      41.719  -2.291  91.873  1.00  0.00     0.686 A 
HETATM   19  N3  UNL     1      40.714  -2.282  92.764  1.00  0.00    -0.200 N 
HETATM   20  C11 UNL     1      39.712  -1.483  92.349  1.00  0.00     0.123 A 
ATOM     21  H3  UNL     1      40.711  -2.810  93.637  1.00  0.00     0.183 HD
HETATM   22  C12 UNL     1      40.135  -0.969  91.125  1.00  0.00     0.123 A 
HETATM   23  N4  UNL     1      41.352  -1.472  90.857  1.00  0.00    -0.200 N 
ATOM     24  H4  UNL     1      41.908  -1.271  90.026  1.00  0.00     0.183 HD
ENDBRANCH  16  18
ENDBRANCH  13  14
ENDBRANCH   1  13
TORSDOF 7
ENDMDL
MODEL 5
REMARK VINA RESULT: -7.292065924      1.591      4.290
REMARK  7 active torsions:
REMARK  status: ('A' for Active; 'I' for Inactive)
REMARK    1  A    between atoms: C2_2  and  C4_5 
REMARK    2  A    between atoms: C5_6  and  C6_7 
REMARK    3  A    between atoms: C6_7  and  N1_8 
REMARK       I    between atoms: N1_8  and  C7_10 
REMARK    4  A    between atoms: C7_10  and  C8_12 
REMARK    5  A    between atoms: C8_12  and  O2_13 
REMARK    6  A    between atoms: O2_13  and  C9_14 
REMARK       I    between atoms: C9_14  and  N2_16 
REMARK    7  A    between atoms: N2_16  and  C10_18 
ROOT
HETATM    1  C8  UNL     1      44.437  -0.636  89.698  1.00  0.00     0.283 C 
ENDROOT
BRANCH   1   2
HETATM    2  C7  UNL     1      44.328   0.722  90.285  1.00  0.00     0.242 C 
HETATM    3  N1  UNL     1      43.688   1.738  89.526  1.00  0.00    -0.349 N 
ATOM      4  H1  UNL     1      43.318   1.517  88.602  1.00  0.00     0.163 HD
HETATM    5  O1  UNL     1      44.779   1.011  91.428  1.00  0.00    -0.271 OA
BRANCH   3   6
HETATM    6  C6  UNL     1      43.551   3.077  90.042  1.00  0.00     0.217 C 
BRANCH   6   7
HETATM    7  C5  UNL     1      42.518   3.079  91.097  1.00  0.00    -0.085 C 
HETATM    8  C4  UNL     1      41.673   3.061  91.965  1.00  0.00    -0.079 C 
BRANCH   8   9
HETATM    9  C2  UNL     1      40.656   3.014  93.015  1.00  0.00     0.093 C 
HETATM   10  C1  UNL     1      40.832   4.173  93.973  1.00  0.00     0.046 C 
HETATM   11  C3  UNL     1      40.687   1.679  93.734  1.00  0.00     0.046 C 
HETATM   12 CL1  UNL     1      39.045   3.150  92.245  1.00  0.00    -0.106 Cl
ENDBRANCH   8   9
ENDBRANCH   6   7
ENDBRANCH   3   6
ENDBRANCH   1   2
BRANCH   1  13
HETATM   13  O2  UNL     1      44.676  -1.554  90.738  1.00  0.00    -0.294 OA
BRANCH  13  14
HETATM   14  C9  UNL     1      43.802  -2.582  91.030  1.00  0.00     0.379 C 
HETATM   15  O3  UNL     1      43.699  -3.615  90.359  1.00  0.00    -0.238 OA
HETATM   16  N2  UNL     1      42.975  -2.415  92.187  1.00  0.00    -0.135 N 
ATOM     17  H2  UNL     1      43.324  -2.618  93.123  1.00  0.00     0.189 HD
BRANCH  16  18
HETATM   18  C10 UNL     1      41.771  -1.997  91.997  1.00  0.00     0.686 A 
HETATM   19  N3  UNL     1      41.351  -1.362  90.890  1.00  0.00    -0.200 N 
HETATM   20  C11 UNL     1      40.043  -1.049  90.984  1.00  0.00     0.123 A 
ATOM     21  H3  UNL     1      41.942  -1.147  90.087  1.00  0.00     0.183 HD
HETATM   22  C12 UNL     1      39.640  -1.524  92.230  1.00  0.00     0.123 A 
HETATM   23  N4  UNL     1      40.702  -2.094  92.825  1.00  0.00    -0.200 N 
ATOM     24  H4  UNL     1      40.703  -2.529  93.748  1.00  0.00     0.183 HD
ENDBRANCH  16  18
ENDBRANCH  13  14
ENDBRANCH   1  13
TORSDOF 7
ENDMDL
