MODEL 1
REMARK VINA RESULT: -8.975161582      0.000      0.000
REMARK  4 active torsions:
REMARK  status: ('A' for Active; 'I' for Inactive)
REMARK    1  A    between atoms: C5_6  and  C6_7 
REMARK    2  A    between atoms: C6_7  and  C7_8 
REMARK    3  A    between atoms: C12_15  and  C13_16 
REMARK    4  A    between atoms: N2_17  and  N3_19 
ROOT
HETATM    1  C7  UNL     1      41.701   3.475  93.170  1.00  0.00     0.045 A 
HETATM    2  N1  UNL     1      41.467   4.320  94.173  1.00  0.00    -0.356 N 
ATOM      3  H1  UNL     1      40.660   4.268  94.795  1.00  0.00     0.166 HD
HETATM    4  C8  UNL     1      42.452   5.269  94.263  1.00  0.00     0.030 A 
HETATM    5  C9  UNL     1      42.525   6.254  95.146  1.00  0.00     0.043 C 
HETATM    6  C10 UNL     1      43.362   5.036  93.282  1.00  0.00    -0.022 A 
HETATM    7  C11 UNL     1      44.600   5.820  93.002  1.00  0.00     0.051 C 
HETATM    8  C12 UNL     1      42.913   3.936  92.603  1.00  0.00     0.016 A 
ENDROOT
BRANCH   1   9
HETATM    9  C6  UNL     1      41.074   2.433  92.694  1.00  0.00     0.045 C 
BRANCH   9  10
HETATM   10  C5  UNL     1      41.331   1.022  92.801  1.00  0.00     0.003 A 
HETATM   11  C4  UNL     1      40.339   0.055  92.268  1.00  0.00     0.047 A 
HETATM   12  C3  UNL     1      40.460  -1.237  92.306  1.00  0.00     0.053 A 
HETATM   13 CL1  UNL     1      38.884   0.734  91.528  1.00  0.00    -0.083 Cl
HETATM   14  C2  UNL     1      41.636  -1.836  92.904  1.00  0.00     0.024 A 
HETATM   15  C1  UNL     1      41.804  -3.157  92.965  1.00  0.00     0.043 C 
HETATM   16  N4  UNL     1      42.609  -0.961  93.425  1.00  0.00    -0.366 N 
HETATM   17  C15 UNL     1      42.388   0.472  93.337  1.00  0.00     0.101 A 
ATOM     18  H4  UNL     1      43.457  -1.329  93.857  1.00  0.00     0.165 HD
ENDBRANCH   9  10
ENDBRANCH   1   9
BRANCH   8  19
HETATM   19  C13 UNL     1      43.617   3.359  91.464  1.00  0.00     0.121 C 
HETATM   20  N2  UNL     1      43.060   3.308  90.288  1.00  0.00    -0.316 N 
ATOM     21  H2  UNL     1      42.117   3.681  90.173  1.00  0.00     0.185 HD
BRANCH  20  22
HETATM   22  N3  UNL     1      43.701   2.770  89.196  1.00  0.00    -0.341 N 
HETATM   23  C14 UNL     1      44.515   1.592  89.339  1.00  0.00     0.167 C 
ATOM     24  H3  UNL     1      43.599   3.208  88.281  1.00  0.00     0.179 HD
ENDBRANCH  20  22
ENDBRANCH   8  19
TORSDOF 4
ENDMDL
MODEL 2
REMARK VINA RESULT: -8.463124537      1.934      5.470
REMARK  4 active torsions:
REMARK  status: ('A' for Active; 'I' for Inactive)
REMARK    1  A    between atoms: C5_6  and  C6_7 
REMARK    2  A    between atoms: C6_7  and  C7_8 
REMARK    3  A    between atoms: C12_15  and  C13_16 
REMARK    4  A    between atoms: N2_17  and  N3_19 
ROOT
HETATM    1  C7  UNL     1      41.078   1.383  91.717  1.00  0.00     0.045 A 
HETATM    2  N1  UNL     1      39.988   0.743  92.141  1.00  0.00    -0.356 N 
ATOM      3  H1  UNL     1      39.133   1.205  92.452  1.00  0.00     0.166 HD
HETATM    4  C8  UNL     1      40.165  -0.616  92.106  1.00  0.00     0.030 A 
HETATM    5  C9  UNL     1      39.282  -1.538  92.459  1.00  0.00     0.043 C 
HETATM    6  C10 UNL     1      41.415  -0.873  91.643  1.00  0.00    -0.022 A 
HETATM    7  C11 UNL     1      42.039  -2.213  91.441  1.00  0.00     0.051 C 
HETATM    8  C12 UNL     1      41.988   0.346  91.400  1.00  0.00     0.016 A 
ENDROOT
BRANCH   1   9
HETATM    9  C6  UNL     1      41.394   2.641  91.570  1.00  0.00     0.045 C 
BRANCH   9  10
HETATM   10  C5  UNL     1      42.256   3.513  92.322  1.00  0.00     0.003 A 
HETATM   11  C4  UNL     1      41.761   4.122  93.582  1.00  0.00     0.047 A 
HETATM   12  C3  UNL     1      42.444   4.920  94.344  1.00  0.00     0.053 A 
HETATM   13 CL1  UNL     1      40.109   3.718  94.066  1.00  0.00    -0.083 Cl
HETATM   14  C2  UNL     1      43.801   5.278  93.987  1.00  0.00     0.024 A 
HETATM   15  C1  UNL     1      44.540   6.094  94.738  1.00  0.00     0.043 C 
HETATM   16  N4  UNL     1      44.319   4.726  92.798  1.00  0.00    -0.366 N 
HETATM   17  C15 UNL     1      43.481   3.841  92.008  1.00  0.00     0.101 A 
ATOM     18  H4  UNL     1      45.269   4.944  92.498  1.00  0.00     0.165 HD
ENDBRANCH   9  10
ENDBRANCH   1   9
BRANCH   8  19
HETATM   19  C13 UNL     1      43.343   0.504  90.887  1.00  0.00     0.121 C 
HETATM   20  N2  UNL     1      43.578   0.510  89.606  1.00  0.00    -0.316 N 
ATOM     21  H2  UNL     1      42.795   0.402  88.961  1.00  0.00     0.185 HD
BRANCH  20  22
HETATM   22  N3  UNL     1      44.846   0.658  89.095  1.00  0.00    -0.341 N 
HETATM   23  C14 UNL     1      45.847   1.384  89.831  1.00  0.00     0.167 C 
ATOM     24  H3  UNL     1      45.079   0.251  88.188  1.00  0.00     0.179 HD
ENDBRANCH  20  22
ENDBRANCH   8  19
TORSDOF 4
ENDMDL
MODEL 3
REMARK VINA RESULT: -8.416840406      1.966      2.477
REMARK  4 active torsions:
REMARK  status: ('A' for Active; 'I' for Inactive)
REMARK    1  A    between atoms: C5_6  and  C6_7 
REMARK    2  A    between atoms: C6_7  and  C7_8 
REMARK    3  A    between atoms: C12_15  and  C13_16 
REMARK    4  A    between atoms: N2_17  and  N3_19 
ROOT
HETATM    1  C7  UNL     1      40.931   1.806  92.545  1.00  0.00     0.045 A 
HETATM    2  N1  UNL     1      40.019   1.907  93.510  1.00  0.00    -0.356 N 
ATOM      3  H1  UNL     1      39.261   1.240  93.661  1.00  0.00     0.166 HD
HETATM    4  C8  UNL     1      40.229   3.025  94.276  1.00  0.00     0.030 A 
HETATM    5  C9  UNL     1      39.506   3.420  95.313  1.00  0.00     0.043 C 
HETATM    6  C10 UNL     1      41.317   3.677  93.793  1.00  0.00    -0.022 A 
HETATM    7  C11 UNL     1      41.911   4.942  94.316  1.00  0.00     0.051 C 
HETATM    8  C12 UNL     1      41.759   2.939  92.729  1.00  0.00     0.016 A 
ENDROOT
BRANCH   1   9
HETATM    9  C6  UNL     1      41.150   0.944  91.588  1.00  0.00     0.045 C 
BRANCH   9  10
HETATM   10  C5  UNL     1      41.913  -0.275  91.546  1.00  0.00     0.003 A 
HETATM   11  C4  UNL     1      41.279  -1.549  91.970  1.00  0.00     0.047 A 
HETATM   12  C3  UNL     1      41.863  -2.708  91.976  1.00  0.00     0.053 A 
HETATM   13 CL1  UNL     1      39.597  -1.461  92.507  1.00  0.00    -0.083 Cl
HETATM   14  C2  UNL     1      43.240  -2.827  91.545  1.00  0.00     0.024 A 
HETATM   15  C1  UNL     1      43.881  -3.995  91.534  1.00  0.00     0.043 C 
HETATM   16  N4  UNL     1      43.889  -1.646  91.132  1.00  0.00    -0.366 N 
HETATM   17  C15 UNL     1      43.155  -0.393  91.159  1.00  0.00     0.101 A 
ATOM     18  H4  UNL     1      44.859  -1.671  90.818  1.00  0.00     0.165 HD
ENDBRANCH   9  10
ENDBRANCH   1   9
BRANCH   8  19
HETATM   19  C13 UNL     1      42.922   3.306  91.930  1.00  0.00     0.121 C 
HETATM   20  N2  UNL     1      44.111   2.880  92.243  1.00  0.00    -0.316 N 
ATOM     21  H2  UNL     1      44.222   2.281  93.061  1.00  0.00     0.185 HD
BRANCH  20  22
HETATM   22  N3  UNL     1      45.226   3.211  91.506  1.00  0.00    -0.341 N 
HETATM   23  C14 UNL     1      45.927   2.203  90.757  1.00  0.00     0.167 C 
ATOM     24  H3  UNL     1      45.557   4.176  91.492  1.00  0.00     0.179 HD
ENDBRANCH  20  22
ENDBRANCH   8  19
TORSDOF 4
ENDMDL
MODEL 4
REMARK VINA RESULT: -8.221471562      1.778      1.869
REMARK  4 active torsions:
REMARK  status: ('A' for Active; 'I' for Inactive)
REMARK    1  A    between atoms: C5_6  and  C6_7 
REMARK    2  A    between atoms: C6_7  and  C7_8 
REMARK    3  A    between atoms: C12_15  and  C13_16 
REMARK    4  A    between atoms: N2_17  and  N3_19 
ROOT
HETATM    1  C7  UNL     1      42.145   2.492  92.470  1.00  0.00     0.045 A 
HETATM    2  N1  UNL     1      41.611   3.082  93.539  1.00  0.00    -0.356 N 
ATOM      3  H1  UNL     1      40.787   2.742  94.034  1.00  0.00     0.166 HD
HETATM    4  C8  UNL     1      42.314   4.206  93.888  1.00  0.00     0.030 A 
HETATM    5  C9  UNL     1      42.052   5.021  94.898  1.00  0.00     0.043 C 
HETATM    6  C10 UNL     1      43.344   4.356  93.015  1.00  0.00    -0.022 A 
HETATM    7  C11 UNL     1      44.366   5.442  93.012  1.00  0.00     0.051 C 
HETATM    8  C12 UNL     1      43.252   3.309  92.138  1.00  0.00     0.016 A 
ENDROOT
BRANCH   1   9
HETATM    9  C6  UNL     1      41.848   1.425  91.777  1.00  0.00     0.045 C 
BRANCH   9  10
HETATM   10  C5  UNL     1      42.386   0.091  91.784  1.00  0.00     0.003 A 
HETATM   11  C4  UNL     1      41.564  -1.032  91.269  1.00  0.00     0.047 A 
HETATM   12  C3  UNL     1      41.940  -2.274  91.224  1.00  0.00     0.053 A 
HETATM   13 CL1  UNL     1      39.948  -0.629  90.676  1.00  0.00    -0.083 Cl
HETATM   14  C2  UNL     1      43.255  -2.650  91.700  1.00  0.00     0.024 A 
HETATM   15  C1  UNL     1      43.684  -3.911  91.673  1.00  0.00     0.043 C 
HETATM   16  N4  UNL     1      44.077  -1.619  92.199  1.00  0.00    -0.366 N 
HETATM   17  C15 UNL     1      43.571  -0.258  92.210  1.00  0.00     0.101 A 
ATOM     18  H4  UNL     1      45.013  -1.827  92.547  1.00  0.00     0.165 HD
ENDBRANCH   9  10
ENDBRANCH   1   9
BRANCH   8  19
HETATM   19  C13 UNL     1      44.184   3.106  91.036  1.00  0.00     0.121 C 
HETATM   20  N2  UNL     1      45.372   2.617  91.246  1.00  0.00    -0.316 N 
ATOM     21  H2  UNL     1      45.645   2.375  92.198  1.00  0.00     0.185 HD
BRANCH  20  22
HETATM   22  N3  UNL     1      46.272   2.415  90.224  1.00  0.00    -0.341 N 
HETATM   23  C14 UNL     1      47.653   2.136  90.517  1.00  0.00     0.167 C 
ATOM     24  H3  UNL     1      45.959   2.463  89.255  1.00  0.00     0.179 HD
ENDBRANCH  20  22
ENDBRANCH   8  19
TORSDOF 4
ENDMDL
MODEL 5
REMARK VINA RESULT: -8.162301641      2.384      3.421
REMARK  4 active torsions:
REMARK  status: ('A' for Active; 'I' for Inactive)
REMARK    1  A    between atoms: C5_6  and  C6_7 
REMARK    2  A    between atoms: C6_7  and  C7_8 
REMARK    3  A    between atoms: C12_15  and  C13_16 
REMARK    4  A    between atoms: N2_17  and  N3_19 
ROOT
HETATM    1  C7  UNL     1      43.428   3.047  91.774  1.00  0.00     0.045 A 
HETATM    2  N1  UNL     1      44.410   3.902  92.061  1.00  0.00    -0.356 N 
ATOM      3  H1  UNL     1      45.346   3.861  91.658  1.00  0.00     0.166 HD
HETATM    4  C8  UNL     1      43.998   4.843  92.968  1.00  0.00     0.030 A 
HETATM    5  C9  UNL     1      44.723   5.834  93.464  1.00  0.00     0.043 C 
HETATM    6  C10 UNL     1      42.702   4.594  93.286  1.00  0.00    -0.022 A 
HETATM    7  C11 UNL     1      41.847   5.364  94.236  1.00  0.00     0.051 C 
HETATM    8  C12 UNL     1      42.339   3.493  92.560  1.00  0.00     0.016 A 
ENDROOT
BRANCH   1   9
HETATM    9  C6  UNL     1      43.329   2.006  90.991  1.00  0.00     0.045 C 
BRANCH   9  10
HETATM   10  C5  UNL     1      43.430   0.595  91.248  1.00  0.00     0.003 A 
HETATM   11  C4  UNL     1      43.863  -0.318  90.160  1.00  0.00     0.047 A 
HETATM   12  C3  UNL     1      43.991  -1.604  90.271  1.00  0.00     0.053 A 
HETATM   13 CL1  UNL     1      44.226   0.424  88.597  1.00  0.00    -0.083 Cl
HETATM   14  C2  UNL     1      43.704  -2.255  91.533  1.00  0.00     0.024 A 
HETATM   15  C1  UNL     1      43.822  -3.572  91.694  1.00  0.00     0.043 C 
HETATM   16  N4  UNL     1      43.289  -1.433  92.600  1.00  0.00    -0.366 N 
HETATM   17  C15 UNL     1      43.174  -0.001  92.383  1.00  0.00     0.101 A 
ATOM     18  H4  UNL     1      43.073  -1.837  93.511  1.00  0.00     0.165 HD
ENDBRANCH   9  10
ENDBRANCH   1   9
BRANCH   8  19
HETATM   19  C13 UNL     1      41.008   2.900  92.619  1.00  0.00     0.121 C 
HETATM   20  N2  UNL     1      40.123   3.148  91.697  1.00  0.00    -0.316 N 
ATOM     21  H2  UNL     1      40.374   3.767  90.926  1.00  0.00     0.185 HD
BRANCH  20  22
HETATM   22  N3  UNL     1      38.861   2.602  91.727  1.00  0.00    -0.341 N 
HETATM   23  C14 UNL     1      38.658   1.268  92.227  1.00  0.00     0.167 C 
ATOM     24  H3  UNL     1      38.064   3.145  91.393  1.00  0.00     0.179 HD
ENDBRANCH  20  22
ENDBRANCH   8  19
TORSDOF 4
ENDMDL
