MODEL 1
REMARK VINA RESULT: -8.150899442      0.000      0.000
REMARK  6 active torsions:
REMARK  status: ('A' for Active; 'I' for Inactive)
REMARK    1  A    between atoms: C2_2  and  C3_3 
REMARK    2  A    between atoms: C3_3  and  N1_4 
REMARK    3  A    between atoms: N1_4  and  C4_6 
REMARK    4  A    between atoms: C5_9  and  N3_10 
REMARK    5  A    between atoms: C7_15  and  N5_16 
REMARK    6  A    between atoms: N5_16  and  C8_18 
ROOT
HETATM    1  C4  UNL     1      42.936   3.227  90.803  1.00  0.00     0.707 A 
HETATM    2  N2  UNL     1      43.499   3.915  91.813  1.00  0.00    -0.022 N 
ATOM      3  H2  UNL     1      44.433   4.302  91.675  1.00  0.00     0.203 HD
HETATM    4  C5  UNL     1      42.896   4.116  92.989  1.00  0.00     0.706 A 
HETATM    5  N4  UNL     1      41.656   3.610  93.191  1.00  0.00    -0.022 N 
ATOM      6  H4  UNL     1      41.178   3.752  94.081  1.00  0.00     0.203 HD
HETATM    7  C7  UNL     1      41.065   2.918  92.200  1.00  0.00     0.707 A 
HETATM    8  N6  UNL     1      41.702   2.725  91.011  1.00  0.00    -0.021 N 
ATOM      9  H6  UNL     1      41.241   2.196  90.271  1.00  0.00     0.203 HD
ENDROOT
BRANCH   7  10
HETATM   10  N5  UNL     1      39.898   2.433  92.372  1.00  0.00    -0.220 N 
ATOM     11  H5  UNL     1      39.105   3.070  92.304  1.00  0.00     0.178 HD
BRANCH  10  12
HETATM   12  C8  UNL     1      39.624   1.060  92.652  1.00  0.00     0.101 C 
HETATM   13  C9  UNL     1      38.960   0.393  91.470  1.00  0.00     0.027 C 
HETATM   14  C10 UNL     1      39.213  -1.072  91.759  1.00  0.00     0.027 C 
HETATM   15  C11 UNL     1      40.697  -1.044  92.089  1.00  0.00     0.035 C 
HETATM   16  C12 UNL     1      41.102  -2.269  92.886  1.00  0.00     0.032 C 
HETATM   17 CL1  UNL     1      41.660  -0.967  90.587  1.00  0.00    -0.119 Cl
HETATM   18  C13 UNL     1      40.838   0.229  92.893  1.00  0.00     0.050 C 
ENDBRANCH  10  12
ENDBRANCH   7  10
BRANCH   4  19
HETATM   19  N3  UNL     1      43.413   4.772  93.971  1.00  0.00    -0.229 N 
HETATM   20  C6  UNL     1      42.810   5.882  94.634  1.00  0.00     0.165 C 
ATOM     21  H3  UNL     1      44.330   4.471  94.302  1.00  0.00     0.177 HD
ENDBRANCH   4  19
BRANCH   1  22
HETATM   22  N1  UNL     1      43.485   3.017  89.672  1.00  0.00    -0.222 N 
ATOM     23  H1  UNL     1      42.975   3.312  88.840  1.00  0.00     0.178 HD
BRANCH  22  24
HETATM   24  C3  UNL     1      44.770   2.397  89.479  1.00  0.00     0.164 C 
BRANCH  24  25
HETATM   25  C2  UNL     1      44.612   0.908  89.493  1.00  0.00    -0.017 C 
HETATM   26  C1  UNL     1      44.228   0.277  88.406  1.00  0.00     0.008 C 
ENDBRANCH  24  25
ENDBRANCH  22  24
ENDBRANCH   1  22
TORSDOF 6
ENDMDL
MODEL 2
REMARK VINA RESULT: -7.916788345      1.235      3.924
REMARK  6 active torsions:
REMARK  status: ('A' for Active; 'I' for Inactive)
REMARK    1  A    between atoms: C2_2  and  C3_3 
REMARK    2  A    between atoms: C3_3  and  N1_4 
REMARK    3  A    between atoms: N1_4  and  C4_6 
REMARK    4  A    between atoms: C5_9  and  N3_10 
REMARK    5  A    between atoms: C7_15  and  N5_16 
REMARK    6  A    between atoms: N5_16  and  C8_18 
ROOT
HETATM    1  C4  UNL     1      43.944   3.512  92.064  1.00  0.00     0.707 A 
HETATM    2  N2  UNL     1      44.373   2.924  90.932  1.00  0.00    -0.022 N 
ATOM      3  H2  UNL     1      45.280   3.202  90.555  1.00  0.00     0.203 HD
HETATM    4  C5  UNL     1      43.671   1.995  90.277  1.00  0.00     0.706 A 
HETATM    5  N4  UNL     1      42.466   1.614  90.761  1.00  0.00    -0.022 N 
ATOM      6  H4  UNL     1      41.913   0.907  90.276  1.00  0.00     0.203 HD
HETATM    7  C7  UNL     1      42.008   2.182  91.892  1.00  0.00     0.707 A 
HETATM    8  N6  UNL     1      42.743   3.128  92.541  1.00  0.00    -0.021 N 
ATOM      9  H6  UNL     1      42.381   3.550  93.397  1.00  0.00     0.203 HD
ENDROOT
BRANCH   7  10
HETATM   10  N5  UNL     1      40.874   1.836  92.364  1.00  0.00    -0.220 N 
ATOM     11  H5  UNL     1      40.129   2.532  92.367  1.00  0.00     0.178 HD
BRANCH  10  12
HETATM   12  C8  UNL     1      40.575   0.542  92.888  1.00  0.00     0.101 C 
HETATM   13  C9  UNL     1      39.561  -0.167  92.019  1.00  0.00     0.027 C 
HETATM   14  C10 UNL     1      39.763  -1.612  92.427  1.00  0.00     0.027 C 
HETATM   15  C11 UNL     1      41.277  -1.720  92.353  1.00  0.00     0.035 C 
HETATM   16  C12 UNL     1      41.781  -2.891  93.175  1.00  0.00     0.032 C 
HETATM   17 CL1  UNL     1      41.798  -1.917  90.656  1.00  0.00    -0.119 Cl
HETATM   18  C13 UNL     1      41.736  -0.393  92.913  1.00  0.00     0.050 C 
ENDBRANCH  10  12
ENDBRANCH   7  10
BRANCH   4  19
HETATM   19  N3  UNL     1      44.060   1.418  89.191  1.00  0.00    -0.229 N 
HETATM   20  C6  UNL     1      44.372   0.032  89.058  1.00  0.00     0.165 C 
ATOM     21  H3  UNL     1      44.152   2.001  88.359  1.00  0.00     0.177 HD
ENDBRANCH   4  19
BRANCH   1  22
HETATM   22  N1  UNL     1      44.590   4.400  92.711  1.00  0.00    -0.222 N 
ATOM     23  H1  UNL     1      45.552   4.186  92.973  1.00  0.00     0.178 HD
BRANCH  22  24
HETATM   24  C3  UNL     1      44.065   5.682  93.102  1.00  0.00     0.164 C 
BRANCH  24  25
HETATM   25  C2  UNL     1      43.997   5.760  94.596  1.00  0.00    -0.017 C 
HETATM   26  C1  UNL     1      42.839   5.657  95.209  1.00  0.00     0.008 C 
ENDBRANCH  24  25
ENDBRANCH  22  24
ENDBRANCH   1  22
TORSDOF 6
ENDMDL
MODEL 3
REMARK VINA RESULT: -7.843746586      2.235      4.458
REMARK  6 active torsions:
REMARK  status: ('A' for Active; 'I' for Inactive)
REMARK    1  A    between atoms: C2_2  and  C3_3 
REMARK    2  A    between atoms: C3_3  and  N1_4 
REMARK    3  A    between atoms: N1_4  and  C4_6 
REMARK    4  A    between atoms: C5_9  and  N3_10 
REMARK    5  A    between atoms: C7_15  and  N5_16 
REMARK    6  A    between atoms: N5_16  and  C8_18 
ROOT
HETATM    1  C4  UNL     1      44.000   2.929  92.384  1.00  0.00     0.707 A 
HETATM    2  N2  UNL     1      45.004   2.981  91.490  1.00  0.00    -0.022 N 
ATOM      3  H2  UNL     1      45.344   3.896  91.195  1.00  0.00     0.203 HD
HETATM    4  C5  UNL     1      45.578   1.893  90.968  1.00  0.00     0.706 A 
HETATM    5  N4  UNL     1      45.141   0.669  91.346  1.00  0.00    -0.022 N 
ATOM      6  H4  UNL     1      45.565  -0.175  90.960  1.00  0.00     0.203 HD
HETATM    7  C7  UNL     1      44.139   0.582  92.240  1.00  0.00     0.707 A 
HETATM    8  N6  UNL     1      43.569   1.707  92.757  1.00  0.00    -0.021 N 
ATOM      9  H6  UNL     1      42.809   1.623  93.432  1.00  0.00     0.203 HD
ENDROOT
BRANCH   7  10
HETATM   10  N5  UNL     1      43.712  -0.563  92.608  1.00  0.00    -0.220 N 
ATOM     11  H5  UNL     1      44.218  -1.040  93.354  1.00  0.00     0.178 HD
BRANCH  10  12
HETATM   12  C8  UNL     1      42.577  -1.224  92.049  1.00  0.00     0.101 C 
HETATM   13  C9  UNL     1      41.667  -1.741  93.139  1.00  0.00     0.027 C 
HETATM   14  C10 UNL     1      40.364  -1.930  92.389  1.00  0.00     0.027 C 
HETATM   15  C11 UNL     1      40.263  -0.602  91.657  1.00  0.00     0.035 C 
HETATM   16  C12 UNL     1      39.329  -0.706  90.466  1.00  0.00     0.032 C 
HETATM   17 CL1  UNL     1      39.674   0.670  92.764  1.00  0.00    -0.119 Cl
HETATM   18  C13 UNL     1      41.692  -0.340  91.237  1.00  0.00     0.050 C 
ENDBRANCH  10  12
ENDBRANCH   7  10
BRANCH   4  19
HETATM   19  N3  UNL     1      46.540   1.916  90.110  1.00  0.00    -0.229 N 
HETATM   20  C6  UNL     1      47.926   2.044  90.425  1.00  0.00     0.165 C 
ATOM     21  H3  UNL     1      46.290   1.838  89.124  1.00  0.00     0.177 HD
ENDBRANCH   4  19
BRANCH   1  22
HETATM   22  N1  UNL     1      43.432   3.947  92.899  1.00  0.00    -0.222 N 
ATOM     23  H1  UNL     1      42.475   3.834  93.233  1.00  0.00     0.178 HD
BRANCH  22  24
HETATM   24  C3  UNL     1      44.038   5.244  93.046  1.00  0.00     0.164 C 
BRANCH  24  25
HETATM   25  C2  UNL     1      43.883   5.709  94.461  1.00  0.00    -0.017 C 
HETATM   26  C1  UNL     1      42.846   5.326  95.171  1.00  0.00     0.008 C 
ENDBRANCH  24  25
ENDBRANCH  22  24
ENDBRANCH   1  22
TORSDOF 6
ENDMDL
MODEL 4
REMARK VINA RESULT: -7.702936969      2.347      4.415
REMARK  6 active torsions:
REMARK  status: ('A' for Active; 'I' for Inactive)
REMARK    1  A    between atoms: C2_2  and  C3_3 
REMARK    2  A    between atoms: C3_3  and  N1_4 
REMARK    3  A    between atoms: N1_4  and  C4_6 
REMARK    4  A    between atoms: C5_9  and  N3_10 
REMARK    5  A    between atoms: C7_15  and  N5_16 
REMARK    6  A    between atoms: N5_16  and  C8_18 
ROOT
HETATM    1  C4  UNL     1      43.714   2.857  92.584  1.00  0.00     0.707 A 
HETATM    2  N2  UNL     1      44.744   3.118  91.759  1.00  0.00    -0.022 N 
ATOM      3  H2  UNL     1      44.981   4.092  91.572  1.00  0.00     0.203 HD
HETATM    4  C5  UNL     1      45.473   2.164  91.172  1.00  0.00     0.706 A 
HETATM    5  N4  UNL     1      45.173   0.865  91.407  1.00  0.00    -0.022 N 
ATOM      6  H4  UNL     1      45.716   0.120  90.969  1.00  0.00     0.203 HD
HETATM    7  C7  UNL     1      44.149   0.570  92.228  1.00  0.00     0.707 A 
HETATM    8  N6  UNL     1      43.420   1.562  92.814  1.00  0.00    -0.021 N 
ATOM      9  H6  UNL     1      42.646   1.322  93.433  1.00  0.00     0.203 HD
ENDROOT
BRANCH   7  10
HETATM   10  N5  UNL     1      43.851  -0.648  92.462  1.00  0.00    -0.220 N 
ATOM     11  H5  UNL     1      44.481  -1.185  93.058  1.00  0.00     0.178 HD
BRANCH  10  12
HETATM   12  C8  UNL     1      42.697  -1.314  91.949  1.00  0.00     0.101 C 
HETATM   13  C9  UNL     1      41.815  -1.805  93.074  1.00  0.00     0.027 C 
HETATM   14  C10 UNL     1      40.491  -2.001  92.365  1.00  0.00     0.027 C 
HETATM   15  C11 UNL     1      40.375  -0.687  91.610  1.00  0.00     0.035 C 
HETATM   16  C12 UNL     1      39.408  -0.809  90.449  1.00  0.00     0.032 C 
HETATM   17 CL1  UNL     1      39.824   0.608  92.709  1.00  0.00    -0.119 Cl
HETATM   18  C13 UNL     1      41.793  -0.441  91.145  1.00  0.00     0.050 C 
ENDBRANCH  10  12
ENDBRANCH   7  10
BRANCH   4  19
HETATM   19  N3  UNL     1      46.464   2.387  90.378  1.00  0.00    -0.229 N 
HETATM   20  C6  UNL     1      47.813   1.979  90.604  1.00  0.00     0.165 C 
ATOM     21  H3  UNL     1      46.268   2.898  89.517  1.00  0.00     0.177 HD
ENDBRANCH   4  19
BRANCH   1  22
HETATM   22  N1  UNL     1      43.001   3.744  93.158  1.00  0.00    -0.222 N 
ATOM     23  H1  UNL     1      43.486   4.469  93.686  1.00  0.00     0.178 HD
BRANCH  22  24
HETATM   24  C3  UNL     1      41.562   3.801  93.119  1.00  0.00     0.164 C 
BRANCH  24  25
HETATM   25  C2  UNL     1      41.031   3.957  94.510  1.00  0.00    -0.017 C 
HETATM   26  C1  UNL     1      39.994   3.252  94.902  1.00  0.00     0.008 C 
ENDBRANCH  24  25
ENDBRANCH  22  24
ENDBRANCH   1  22
TORSDOF 6
ENDMDL
MODEL 5
REMARK VINA RESULT: -7.576549464      2.130      4.456
REMARK  6 active torsions:
REMARK  status: ('A' for Active; 'I' for Inactive)
REMARK    1  A    between atoms: C2_2  and  C3_3 
REMARK    2  A    between atoms: C3_3  and  N1_4 
REMARK    3  A    between atoms: N1_4  and  C4_6 
REMARK    4  A    between atoms: C5_9  and  N3_10 
REMARK    5  A    between atoms: C7_15  and  N5_16 
REMARK    6  A    between atoms: N5_16  and  C8_18 
ROOT
HETATM    1  C4  UNL     1      44.054   3.050  91.565  1.00  0.00     0.707 A 
HETATM    2  N2  UNL     1      45.391   2.895  91.574  1.00  0.00    -0.022 N 
ATOM      3  H2  UNL     1      45.962   3.638  91.976  1.00  0.00     0.203 HD
HETATM    4  C5  UNL     1      46.007   1.816  91.082  1.00  0.00     0.706 A 
HETATM    5  N4  UNL     1      45.266   0.819  90.544  1.00  0.00    -0.022 N 
ATOM      6  H4  UNL     1      45.716  -0.013  90.163  1.00  0.00     0.203 HD
HETATM    7  C7  UNL     1      43.926   0.943  90.520  1.00  0.00     0.707 A 
HETATM    8  N6  UNL     1      43.322   2.054  91.028  1.00  0.00    -0.021 N 
ATOM      9  H6  UNL     1      42.305   2.133  91.000  1.00  0.00     0.203 HD
ENDROOT
BRANCH   7  10
HETATM   10  N5  UNL     1      43.211   0.014  90.017  1.00  0.00    -0.220 N 
ATOM     11  H5  UNL     1      43.197  -0.076  89.001  1.00  0.00     0.178 HD
BRANCH  10  12
HETATM   12  C8  UNL     1      42.427  -0.907  90.776  1.00  0.00     0.101 C 
HETATM   13  C9  UNL     1      42.844  -0.897  92.229  1.00  0.00     0.027 C 
HETATM   14  C10 UNL     1      41.633  -1.508  92.902  1.00  0.00     0.027 C 
HETATM   15  C11 UNL     1      40.515  -0.704  92.258  1.00  0.00     0.035 C 
HETATM   16  C12 UNL     1      39.187  -1.428  92.373  1.00  0.00     0.032 C 
HETATM   17 CL1  UNL     1      40.385   0.900  93.031  1.00  0.00    -0.119 Cl
HETATM   18  C13 UNL     1      40.973  -0.582  90.822  1.00  0.00     0.050 C 
ENDBRANCH  10  12
ENDBRANCH   7  10
BRANCH   4  19
HETATM   19  N3  UNL     1      47.285   1.644  91.079  1.00  0.00    -0.229 N 
HETATM   20  C6  UNL     1      48.131   1.749  89.935  1.00  0.00     0.165 C 
ATOM     21  H3  UNL     1      47.728   1.414  91.969  1.00  0.00     0.177 HD
ENDBRANCH   4  19
BRANCH   1  22
HETATM   22  N1  UNL     1      43.438   4.066  92.025  1.00  0.00    -0.222 N 
ATOM     23  H1  UNL     1      42.472   4.205  91.728  1.00  0.00     0.178 HD
BRANCH  22  24
HETATM   24  C3  UNL     1      43.999   5.033  92.931  1.00  0.00     0.164 C 
BRANCH  24  25
HETATM   25  C2  UNL     1      43.220   5.031  94.209  1.00  0.00    -0.017 C 
HETATM   26  C1  UNL     1      42.577   6.112  94.591  1.00  0.00     0.008 C 
ENDBRANCH  24  25
ENDBRANCH  22  24
ENDBRANCH   1  22
TORSDOF 6
ENDMDL
