MODEL 1
REMARK VINA RESULT: -7.973845048      0.000      0.000
REMARK  6 active torsions:
REMARK  status: ('A' for Active; 'I' for Inactive)
REMARK    1  A    between atoms: N2_7  and  C4_8 
REMARK    2  A    between atoms: C4_8  and  C5_9 
REMARK       I    between atoms: C5_9  and  N3_11 
REMARK    3  A    between atoms: N3_11  and  C6_13 
REMARK    4  A    between atoms: C6_13  and  C9_16 
REMARK    5  A    between atoms: C13_20  and  C14_21 
REMARK    6  A    between atoms: C14_21  and  O3_22 
ROOT
HETATM    1  C4  UNL     1      41.935   3.364  91.337  1.00  0.00     0.231 C 
ENDROOT
BRANCH   1   2
HETATM    2  N2  UNL     1      43.342   3.152  91.301  1.00  0.00    -0.317 N 
HETATM    3  C3  UNL     1      44.259   3.926  92.061  1.00  0.00     0.319 C 
HETATM    4  N1  UNL     1      45.574   3.461  91.846  1.00  0.00    -0.337 N 
HETATM    5  O1  UNL     1      43.979   4.904  92.835  1.00  0.00    -0.247 OA
HETATM    6  C2  UNL     1      45.456   2.151  91.242  1.00  0.00     0.107 C 
ATOM      7  H1  UNL     1      46.439   3.952  92.072  1.00  0.00     0.164 HD
HETATM    8  C1  UNL     1      46.662   1.963  90.371  1.00  0.00     0.034 C 
HETATM    9  C13 UNL     1      44.143   2.184  90.568  1.00  0.00     0.135 C 
BRANCH   9  10
HETATM   10  C14 UNL     1      44.224   2.454  89.117  1.00  0.00     0.191 C 
BRANCH  10  11
HETATM   11  O3  UNL     1      43.933   1.297  88.403  1.00  0.00    -0.399 OA
ATOM     12  H3  UNL     1      43.126   1.412  87.917  1.00  0.00     0.209 HD
ENDBRANCH  10  11
ENDBRANCH   9  10
ENDBRANCH   1   2
BRANCH   1  13
HETATM   13  C5  UNL     1      41.135   2.235  91.798  1.00  0.00     0.236 C 
HETATM   14  O2  UNL     1      40.508   2.331  92.882  1.00  0.00    -0.272 OA
HETATM   15  N3  UNL     1      41.006   1.006  91.102  1.00  0.00    -0.350 N 
ATOM     16  H3  UNL     1      41.507   0.908  90.219  1.00  0.00     0.163 HD
BRANCH  15  17
HETATM   17  C6  UNL     1      40.225  -0.106  91.547  1.00  0.00     0.032 C 
HETATM   18  C7  UNL     1      39.362  -0.654  90.430  1.00  0.00     0.039 C 
HETATM   19  C8  UNL     1      39.264   0.302  92.668  1.00  0.00     0.039 C 
BRANCH  17  20
HETATM   20  C9  UNL     1      41.103  -1.191  92.123  1.00  0.00    -0.027 C 
HETATM   21  C10 UNL     1      41.875  -1.874  91.024  1.00  0.00     0.017 C 
HETATM   22  C11 UNL     1      42.046  -0.712  93.170  1.00  0.00     0.017 C 
HETATM   23  C12 UNL     1      40.186  -2.233  92.749  1.00  0.00     0.017 C 
ENDBRANCH  17  20
ENDBRANCH  15  17
ENDBRANCH   1  13
TORSDOF 6
ENDMDL
MODEL 2
REMARK VINA RESULT: -7.890540783      1.822      3.606
REMARK  6 active torsions:
REMARK  status: ('A' for Active; 'I' for Inactive)
REMARK    1  A    between atoms: N2_7  and  C4_8 
REMARK    2  A    between atoms: C4_8  and  C5_9 
REMARK       I    between atoms: C5_9  and  N3_11 
REMARK    3  A    between atoms: N3_11  and  C6_13 
REMARK    4  A    between atoms: C6_13  and  C9_16 
REMARK    5  A    between atoms: C13_20  and  C14_21 
REMARK    6  A    between atoms: C14_21  and  O3_22 
ROOT
HETATM    1  C4  UNL     1      42.813   3.259  91.010  1.00  0.00     0.231 C 
ENDROOT
BRANCH   1   2
HETATM    2  N2  UNL     1      43.140   4.055  92.144  1.00  0.00    -0.317 N 
HETATM    3  C3  UNL     1      44.475   4.272  92.576  1.00  0.00     0.319 C 
HETATM    4  N1  UNL     1      44.484   5.126  93.699  1.00  0.00    -0.337 N 
HETATM    5  O1  UNL     1      45.537   3.786  92.056  1.00  0.00    -0.247 OA
HETATM    6  C2  UNL     1      43.181   5.754  93.750  1.00  0.00     0.107 C 
ATOM      7  H1  UNL     1      45.258   5.273  94.347  1.00  0.00     0.164 HD
HETATM    8  C1  UNL     1      42.892   6.038  95.194  1.00  0.00     0.034 C 
HETATM    9  C13 UNL     1      42.293   4.794  93.066  1.00  0.00     0.135 C 
BRANCH   9  10
HETATM   10  C14 UNL     1      41.522   3.935  93.988  1.00  0.00     0.191 C 
BRANCH  10  11
HETATM   11  O3  UNL     1      40.335   3.537  93.383  1.00  0.00    -0.399 OA
ATOM     12  H3  UNL     1      40.195   2.609  93.525  1.00  0.00     0.209 HD
ENDBRANCH  10  11
ENDBRANCH   9  10
ENDBRANCH   1   2
BRANCH   1  13
HETATM   13  C5  UNL     1      42.670   1.829  91.258  1.00  0.00     0.236 C 
HETATM   14  O2  UNL     1      43.678   1.086  91.160  1.00  0.00    -0.272 OA
HETATM   15  N3  UNL     1      41.452   1.194  91.613  1.00  0.00    -0.350 N 
ATOM     16  H3  UNL     1      40.621   1.780  91.698  1.00  0.00     0.163 HD
BRANCH  15  17
HETATM   17  C6  UNL     1      41.302  -0.206  91.857  1.00  0.00     0.032 C 
HETATM   18  C7  UNL     1      41.997  -0.617  93.139  1.00  0.00     0.039 C 
HETATM   19  C8  UNL     1      41.941  -1.038  90.740  1.00  0.00     0.039 C 
BRANCH  17  20
HETATM   20  C9  UNL     1      39.845  -0.600  91.892  1.00  0.00    -0.027 C 
HETATM   21  C10 UNL     1      39.685  -1.938  92.566  1.00  0.00     0.017 C 
HETATM   22  C11 UNL     1      38.965   0.400  92.556  1.00  0.00     0.017 C 
HETATM   23  C12 UNL     1      39.382  -0.759  90.451  1.00  0.00     0.017 C 
ENDBRANCH  17  20
ENDBRANCH  15  17
ENDBRANCH   1  13
TORSDOF 6
ENDMDL
MODEL 3
REMARK VINA RESULT: -7.728944351      2.179      3.813
REMARK  6 active torsions:
REMARK  status: ('A' for Active; 'I' for Inactive)
REMARK    1  A    between atoms: N2_7  and  C4_8 
REMARK    2  A    between atoms: C4_8  and  C5_9 
REMARK       I    between atoms: C5_9  and  N3_11 
REMARK    3  A    between atoms: N3_11  and  C6_13 
REMARK    4  A    between atoms: C6_13  and  C9_16 
REMARK    5  A    between atoms: C13_20  and  C14_21 
REMARK    6  A    between atoms: C14_21  and  O3_22 
ROOT
HETATM    1  C4  UNL     1      41.114   3.033  91.621  1.00  0.00     0.231 C 
ENDROOT
BRANCH   1   2
HETATM    2  N2  UNL     1      41.941   3.823  92.468  1.00  0.00    -0.317 N 
HETATM    3  C3  UNL     1      43.348   3.921  92.301  1.00  0.00     0.319 C 
HETATM    4  N1  UNL     1      43.887   4.800  93.265  1.00  0.00    -0.337 N 
HETATM    5  O1  UNL     1      44.059   3.321  91.425  1.00  0.00    -0.247 OA
HETATM    6  C2  UNL     1      42.775   5.553  93.804  1.00  0.00     0.107 C 
ATOM      7  H1  UNL     1      44.868   4.888  93.529  1.00  0.00     0.164 HD
HETATM    8  C1  UNL     1      43.131   5.902  95.218  1.00  0.00     0.034 C 
HETATM    9  C13 UNL     1      41.612   4.666  93.606  1.00  0.00     0.135 C 
BRANCH   9  10
HETATM   10  C14 UNL     1      41.226   3.910  94.816  1.00  0.00     0.191 C 
BRANCH  10  11
HETATM   11  O3  UNL     1      39.843   3.780  94.872  1.00  0.00    -0.399 OA
ATOM     12  H3  UNL     1      39.536   3.966  95.751  1.00  0.00     0.209 HD
ENDBRANCH  10  11
ENDBRANCH   9  10
ENDBRANCH   1   2
BRANCH   1  13
HETATM   13  C5  UNL     1      41.153   1.595  91.860  1.00  0.00     0.236 C 
HETATM   14  O2  UNL     1      40.282   1.073  92.600  1.00  0.00    -0.272 OA
HETATM   15  N3  UNL     1      42.120   0.715  91.309  1.00  0.00    -0.350 N 
ATOM     16  H3  UNL     1      42.836   1.119  90.706  1.00  0.00     0.163 HD
BRANCH  15  17
HETATM   17  C6  UNL     1      42.166  -0.694  91.539  1.00  0.00     0.032 C 
HETATM   18  C7  UNL     1      40.996  -1.397  90.880  1.00  0.00     0.039 C 
HETATM   19  C8  UNL     1      42.071  -1.019  93.033  1.00  0.00     0.039 C 
BRANCH  17  20
HETATM   20  C9  UNL     1      43.474  -1.281  91.065  1.00  0.00    -0.027 C 
HETATM   21  C10 UNL     1      43.393  -2.786  91.049  1.00  0.00     0.017 C 
HETATM   22  C11 UNL     1      43.905  -0.791  89.727  1.00  0.00     0.017 C 
HETATM   23  C12 UNL     1      44.541  -0.894  92.080  1.00  0.00     0.017 C 
ENDBRANCH  17  20
ENDBRANCH  15  17
ENDBRANCH   1  13
TORSDOF 6
ENDMDL
MODEL 4
REMARK VINA RESULT: -7.647056279      2.124      3.952
REMARK  6 active torsions:
REMARK  status: ('A' for Active; 'I' for Inactive)
REMARK    1  A    between atoms: N2_7  and  C4_8 
REMARK    2  A    between atoms: C4_8  and  C5_9 
REMARK       I    between atoms: C5_9  and  N3_11 
REMARK    3  A    between atoms: N3_11  and  C6_13 
REMARK    4  A    between atoms: C6_13  and  C9_16 
REMARK    5  A    between atoms: C13_20  and  C14_21 
REMARK    6  A    between atoms: C14_21  and  O3_22 
ROOT
HETATM    1  C4  UNL     1      43.824   2.711  92.113  1.00  0.00     0.231 C 
ENDROOT
BRANCH   1   2
HETATM    2  N2  UNL     1      43.211   3.671  92.967  1.00  0.00    -0.317 N 
HETATM    3  C3  UNL     1      41.831   3.998  92.895  1.00  0.00     0.319 C 
HETATM    4  N1  UNL     1      41.510   4.951  93.886  1.00  0.00    -0.337 N 
HETATM    5  O1  UNL     1      40.973   3.524  92.075  1.00  0.00    -0.247 OA
HETATM    6  C2  UNL     1      42.607   4.949  94.830  1.00  0.00     0.107 C 
ATOM      7  H1  UNL     1      40.670   5.528  93.927  1.00  0.00     0.164 HD
HETATM    8  C1  UNL     1      42.687   6.332  95.405  1.00  0.00     0.034 C 
HETATM    9  C13 UNL     1      43.762   4.485  94.038  1.00  0.00     0.135 C 
BRANCH   9  10
HETATM   10  C14 UNL     1      44.638   5.578  93.566  1.00  0.00     0.191 C 
BRANCH  10  11
HETATM   11  O3  UNL     1      44.044   6.231  92.491  1.00  0.00    -0.399 OA
ATOM     12  H3  UNL     1      44.226   7.162  92.538  1.00  0.00     0.209 HD
ENDBRANCH  10  11
ENDBRANCH   9  10
ENDBRANCH   1   2
BRANCH   1  13
HETATM   13  C5  UNL     1      43.377   1.334  92.284  1.00  0.00     0.236 C 
HETATM   14  O2  UNL     1      44.122   0.517  92.882  1.00  0.00    -0.272 OA
HETATM   15  N3  UNL     1      42.136   0.829  91.817  1.00  0.00    -0.350 N 
ATOM     16  H3  UNL     1      41.517   1.476  91.329  1.00  0.00     0.163 HD
BRANCH  15  17
HETATM   17  C6  UNL     1      41.691  -0.519  91.979  1.00  0.00     0.032 C 
HETATM   18  C7  UNL     1      42.168  -1.102  93.294  1.00  0.00     0.039 C 
HETATM   19  C8  UNL     1      42.253  -1.428  90.881  1.00  0.00     0.039 C 
BRANCH  17  20
HETATM   20  C9  UNL     1      40.187  -0.612  91.871  1.00  0.00    -0.027 C 
HETATM   21  C10 UNL     1      39.542   0.539  92.597  1.00  0.00     0.017 C 
HETATM   22  C11 UNL     1      39.686  -0.662  90.471  1.00  0.00     0.017 C 
HETATM   23  C12 UNL     1      39.759  -1.892  92.576  1.00  0.00     0.017 C 
ENDBRANCH  17  20
ENDBRANCH  15  17
ENDBRANCH   1  13
TORSDOF 6
ENDMDL
MODEL 5
REMARK VINA RESULT: -7.612406475      2.626      3.534
REMARK  6 active torsions:
REMARK  status: ('A' for Active; 'I' for Inactive)
REMARK    1  A    between atoms: N2_7  and  C4_8 
REMARK    2  A    between atoms: C4_8  and  C5_9 
REMARK       I    between atoms: C5_9  and  N3_11 
REMARK    3  A    between atoms: N3_11  and  C6_13 
REMARK    4  A    between atoms: C6_13  and  C9_16 
REMARK    5  A    between atoms: C13_20  and  C14_21 
REMARK    6  A    between atoms: C14_21  and  O3_22 
ROOT
HETATM    1  C4  UNL     1      39.721   1.669  93.133  1.00  0.00     0.231 C 
ENDROOT
BRANCH   1   2
HETATM    2  N2  UNL     1      40.603   2.738  93.458  1.00  0.00    -0.317 N 
HETATM    3  C3  UNL     1      40.271   3.756  94.392  1.00  0.00     0.319 C 
HETATM    4  N1  UNL     1      41.352   4.652  94.530  1.00  0.00    -0.337 N 
HETATM    5  O1  UNL     1      39.172   3.879  95.032  1.00  0.00    -0.247 OA
HETATM    6  C2  UNL     1      42.511   3.992  93.968  1.00  0.00     0.107 C 
ATOM      7  H1  UNL     1      41.323   5.583  94.946  1.00  0.00     0.164 HD
HETATM    8  C1  UNL     1      43.409   5.068  93.434  1.00  0.00     0.034 C 
HETATM    9  C13 UNL     1      41.943   3.046  92.987  1.00  0.00     0.135 C 
BRANCH   9  10
HETATM   10  C14 UNL     1      41.988   3.535  91.593  1.00  0.00     0.191 C 
BRANCH  10  11
HETATM   11  O3  UNL     1      42.470   2.535  90.756  1.00  0.00    -0.399 OA
ATOM     12  H3  UNL     1      42.006   1.723  90.922  1.00  0.00     0.209 HD
ENDBRANCH  10  11
ENDBRANCH   9  10
ENDBRANCH   1   2
BRANCH   1  13
HETATM   13  C5  UNL     1      40.303   0.581  92.358  1.00  0.00     0.236 C 
HETATM   14  O2  UNL     1      40.026   0.481  91.136  1.00  0.00    -0.272 OA
HETATM   15  N3  UNL     1      41.181  -0.401  92.885  1.00  0.00    -0.350 N 
ATOM     16  H3  UNL     1      41.419  -0.338  93.875  1.00  0.00     0.163 HD
BRANCH  15  17
HETATM   17  C6  UNL     1      41.756  -1.471  92.133  1.00  0.00     0.032 C 
HETATM   18  C7  UNL     1      40.909  -1.810  90.923  1.00  0.00     0.039 C 
HETATM   19  C8  UNL     1      41.842  -2.754  92.966  1.00  0.00     0.039 C 
BRANCH  17  20
HETATM   20  C9  UNL     1      43.171  -1.146  91.717  1.00  0.00    -0.027 C 
HETATM   21  C10 UNL     1      43.193  -0.647  90.295  1.00  0.00     0.017 C 
HETATM   22  C11 UNL     1      43.847  -0.158  92.601  1.00  0.00     0.017 C 
HETATM   23  C12 UNL     1      43.966  -2.443  91.756  1.00  0.00     0.017 C 
ENDBRANCH  17  20
ENDBRANCH  15  17
ENDBRANCH   1  13
TORSDOF 6
ENDMDL
