MODEL 1
REMARK VINA RESULT: -6.778127974      0.000      0.000
REMARK  5 active torsions:
REMARK  status: ('A' for Active; 'I' for Inactive)
REMARK    1  A    between atoms: O1_1  and  C1_3 
REMARK    2  A    between atoms: C4_6  and  C5_7 
REMARK    3  A    between atoms: C11_13  and  O2_14 
REMARK    4  A    between atoms: C12_16  and  C13_17 
REMARK    5  A    between atoms: C13_17  and  N1_18 
ROOT
HETATM    1  C1  UNL     1      28.691  -7.824  24.487  1.00  0.00     0.076 A 
HETATM    2  C2  UNL     1      27.431  -7.416  23.995  1.00  0.00     0.038 A 
HETATM    3  C3  UNL     1      27.297  -6.074  23.606  1.00  0.00     0.013 A 
HETATM    4  C4  UNL     1      28.325  -5.205  23.687  1.00  0.00    -0.020 A 
HETATM    5  C11 UNL     1      29.611  -5.639  24.183  1.00  0.00     0.083 A 
HETATM    6  C12 UNL     1      29.670  -6.951  24.561  1.00  0.00     0.037 A 
ENDROOT
BRANCH   6   7
HETATM    7  C13 UNL     1      30.900  -7.400  25.329  1.00  0.00     0.321 C 
BRANCH   7   8
HETATM    8  N1  UNL     1      31.275  -6.609  26.498  1.00  0.00     0.132 N 
HETATM    9  C14 UNL     1      32.735  -6.521  26.346  1.00  0.00     0.277 C 
HETATM   10  C15 UNL     1      33.431  -6.077  27.626  1.00  0.00     0.030 C 
HETATM   11  C16 UNL     1      33.261  -7.276  28.574  1.00  0.00     0.007 C 
HETATM   12  C17 UNL     1      31.771  -7.264  28.864  1.00  0.00     0.076 C 
HETATM   13  C18 UNL     1      30.942  -7.453  27.643  1.00  0.00     0.311 C 
HETATM   14 CL1  UNL     1      31.055  -9.161  27.160  1.00  0.00    -0.068 Cl
HETATM   15 CL2  UNL     1      29.222  -7.119  28.111  1.00  0.00    -0.068 Cl
ENDBRANCH   7   8
ENDBRANCH   6   7
BRANCH   1  16
HETATM   16  O1  UNL     1      28.809  -9.198  24.845  1.00  0.00    -0.360 OA
ATOM     17  H1  UNL     1      29.372  -9.389  25.585  1.00  0.00     0.217 HD
ENDBRANCH   1  16
BRANCH   5  18
HETATM   18  O2  UNL     1      30.633  -4.711  24.234  1.00  0.00    -0.359 OA
ATOM     19  H2  UNL     1      31.249  -4.686  23.511  1.00  0.00     0.217 HD
ENDBRANCH   5  18
BRANCH   4  20
HETATM   20  C5  UNL     1      28.226  -3.737  23.430  1.00  0.00     0.021 C 
HETATM   21  C6  UNL     1      28.236  -2.994  24.797  1.00  0.00     0.009 C 
HETATM   22  C7  UNL     1      27.028  -3.246  25.637  1.00  0.00     0.001 C 
HETATM   23  C8  UNL     1      25.743  -3.288  24.956  1.00  0.00     0.000 C 
HETATM   24  C9  UNL     1      25.740  -3.115  23.488  1.00  0.00     0.001 C 
HETATM   25  C10 UNL     1      26.992  -3.259  22.742  1.00  0.00     0.009 C 
ENDBRANCH   4  20
TORSDOF 5
ENDMDL
MODEL 2
REMARK VINA RESULT: -6.468000333      2.574      3.229
REMARK  5 active torsions:
REMARK  status: ('A' for Active; 'I' for Inactive)
REMARK    1  A    between atoms: O1_1  and  C1_3 
REMARK    2  A    between atoms: C4_6  and  C5_7 
REMARK    3  A    between atoms: C11_13  and  O2_14 
REMARK    4  A    between atoms: C12_16  and  C13_17 
REMARK    5  A    between atoms: C13_17  and  N1_18 
ROOT
HETATM    1  C1  UNL     1      26.563  -7.635  25.877  1.00  0.00     0.076 A 
HETATM    2  C2  UNL     1      25.782  -6.804  25.043  1.00  0.00     0.038 A 
HETATM    3  C3  UNL     1      26.318  -5.552  24.700  1.00  0.00     0.013 A 
HETATM    4  C4  UNL     1      27.531  -5.156  25.136  1.00  0.00    -0.020 A 
HETATM    5  C11 UNL     1      28.323  -6.021  25.980  1.00  0.00     0.083 A 
HETATM    6  C12 UNL     1      27.737  -7.216  26.292  1.00  0.00     0.037 A 
ENDROOT
BRANCH   6   7
HETATM    7  C13 UNL     1      28.391  -8.051  27.377  1.00  0.00     0.321 C 
BRANCH   7   8
HETATM    8  N1  UNL     1      28.277  -7.561  28.748  1.00  0.00     0.132 N 
HETATM    9  C14 UNL     1      29.689  -7.400  29.129  1.00  0.00     0.277 C 
HETATM   10  C15 UNL     1      29.878  -7.265  30.634  1.00  0.00     0.030 C 
HETATM   11  C16 UNL     1      29.538  -8.663  31.176  1.00  0.00     0.007 C 
HETATM   12  C17 UNL     1      28.043  -8.762  30.933  1.00  0.00     0.076 C 
HETATM   13  C18 UNL     1      27.683  -8.668  29.493  1.00  0.00     0.311 C 
HETATM   14 CL1  UNL     1      28.130 -10.202  28.713  1.00  0.00    -0.068 Cl
HETATM   15 CL2  UNL     1      25.878  -8.504  29.406  1.00  0.00    -0.068 Cl
ENDBRANCH   7   8
ENDBRANCH   6   7
BRANCH   1  16
HETATM   16  O1  UNL     1      26.009  -8.911  26.184  1.00  0.00    -0.360 OA
ATOM     17  H1  UNL     1      26.578  -9.658  26.043  1.00  0.00     0.217 HD
ENDBRANCH   1  16
BRANCH   5  18
HETATM   18  O2  UNL     1      29.563  -5.570  26.390  1.00  0.00    -0.359 OA
ATOM     19  H2  UNL     1      29.642  -4.662  26.655  1.00  0.00     0.217 HD
ENDBRANCH   5  18
BRANCH   4  20
HETATM   20  C5  UNL     1      28.109  -3.793  24.935  1.00  0.00     0.021 C 
HETATM   21  C6  UNL     1      27.019  -2.885  24.295  1.00  0.00     0.009 C 
HETATM   22  C7  UNL     1      26.642  -3.272  22.904  1.00  0.00     0.001 C 
HETATM   23  C8  UNL     1      27.718  -3.683  22.014  1.00  0.00     0.000 C 
HETATM   24  C9  UNL     1      29.088  -3.718  22.567  1.00  0.00     0.001 C 
HETATM   25  C10 UNL     1      29.281  -3.691  24.019  1.00  0.00     0.009 C 
ENDBRANCH   4  20
TORSDOF 5
ENDMDL
MODEL 3
REMARK VINA RESULT: -6.463614029      2.185      2.633
REMARK  5 active torsions:
REMARK  status: ('A' for Active; 'I' for Inactive)
REMARK    1  A    between atoms: O1_1  and  C1_3 
REMARK    2  A    between atoms: C4_6  and  C5_7 
REMARK    3  A    between atoms: C11_13  and  O2_14 
REMARK    4  A    between atoms: C12_16  and  C13_17 
REMARK    5  A    between atoms: C13_17  and  N1_18 
ROOT
HETATM    1  C1  UNL     1      27.310  -8.118  25.489  1.00  0.00     0.076 A 
HETATM    2  C2  UNL     1      26.526  -7.465  24.511  1.00  0.00     0.038 A 
HETATM    3  C3  UNL     1      26.920  -6.172  24.131  1.00  0.00     0.013 A 
HETATM    4  C4  UNL     1      28.004  -5.574  24.665  1.00  0.00    -0.020 A 
HETATM    5  C11 UNL     1      28.802  -6.259  25.657  1.00  0.00     0.083 A 
HETATM    6  C12 UNL     1      28.355  -7.505  25.996  1.00  0.00     0.037 A 
ENDROOT
BRANCH   6   7
HETATM    7  C13 UNL     1      28.985  -8.166  27.209  1.00  0.00     0.321 C 
BRANCH   7   8
HETATM    8  N1  UNL     1      28.696  -7.570  28.511  1.00  0.00     0.132 N 
HETATM    9  C14 UNL     1      30.048  -7.360  29.052  1.00  0.00     0.277 C 
HETATM   10  C15 UNL     1      30.043  -7.104  30.553  1.00  0.00     0.030 C 
HETATM   11  C16 UNL     1      29.642  -8.459  31.158  1.00  0.00     0.007 C 
HETATM   12  C17 UNL     1      28.190  -8.597  30.737  1.00  0.00     0.076 C 
HETATM   13  C18 UNL     1      28.015  -8.622  29.261  1.00  0.00     0.311 C 
HETATM   14 CL1  UNL     1      28.563 -10.207  28.669  1.00  0.00    -0.068 Cl
HETATM   15 CL2  UNL     1      26.236  -8.489  28.934  1.00  0.00    -0.068 Cl
ENDBRANCH   7   8
ENDBRANCH   6   7
BRANCH   1  16
HETATM   16  O1  UNL     1      26.906  -9.440  25.833  1.00  0.00    -0.360 OA
ATOM     17  H1  UNL     1      27.096 -10.115  25.192  1.00  0.00     0.217 HD
ENDBRANCH   1  16
BRANCH   5  18
HETATM   18  O2  UNL     1      29.909  -5.605  26.163  1.00  0.00    -0.359 OA
ATOM     19  H2  UNL     1      30.661  -5.496  25.593  1.00  0.00     0.217 HD
ENDBRANCH   5  18
BRANCH   4  20
HETATM   20  C5  UNL     1      28.406  -4.157  24.422  1.00  0.00     0.021 C 
HETATM   21  C6  UNL     1      27.593  -3.241  25.382  1.00  0.00     0.009 C 
HETATM   22  C7  UNL     1      26.129  -3.204  25.096  1.00  0.00     0.001 C 
HETATM   23  C8  UNL     1      25.726  -3.160  23.699  1.00  0.00     0.000 C 
HETATM   24  C9  UNL     1      26.794  -3.193  22.677  1.00  0.00     0.001 C 
HETATM   25  C10 UNL     1      28.145  -3.611  23.058  1.00  0.00     0.009 C 
ENDBRANCH   4  20
TORSDOF 5
ENDMDL
MODEL 4
REMARK VINA RESULT: -6.379521951      1.280      1.417
REMARK  5 active torsions:
REMARK  status: ('A' for Active; 'I' for Inactive)
REMARK    1  A    between atoms: O1_1  and  C1_3 
REMARK    2  A    between atoms: C4_6  and  C5_7 
REMARK    3  A    between atoms: C11_13  and  O2_14 
REMARK    4  A    between atoms: C12_16  and  C13_17 
REMARK    5  A    between atoms: C13_17  and  N1_18 
ROOT
HETATM    1  C1  UNL     1      28.439  -7.381  26.411  1.00  0.00     0.076 A 
HETATM    2  C2  UNL     1      27.232  -6.726  26.076  1.00  0.00     0.038 A 
HETATM    3  C3  UNL     1      27.332  -5.531  25.345  1.00  0.00     0.013 A 
HETATM    4  C4  UNL     1      28.523  -5.028  24.966  1.00  0.00    -0.020 A 
HETATM    5  C11 UNL     1      29.749  -5.714  25.307  1.00  0.00     0.083 A 
HETATM    6  C12 UNL     1      29.584  -6.860  26.034  1.00  0.00     0.037 A 
ENDROOT
BRANCH   6   7
HETATM    7  C13 UNL     1      30.826  -7.482  26.646  1.00  0.00     0.321 C 
BRANCH   7   8
HETATM    8  N1  UNL     1      31.506  -6.714  27.687  1.00  0.00     0.132 N 
HETATM    9  C14 UNL     1      32.882  -6.658  27.169  1.00  0.00     0.277 C 
HETATM   10  C15 UNL     1      33.891  -6.247  28.232  1.00  0.00     0.030 C 
HETATM   11  C16 UNL     1      33.936  -7.453  29.185  1.00  0.00     0.007 C 
HETATM   12  C17 UNL     1      32.570  -7.411  29.844  1.00  0.00     0.076 C 
HETATM   13  C18 UNL     1      31.453  -7.564  28.873  1.00  0.00     0.311 C 
HETATM   14 CL1  UNL     1      31.396  -9.268  28.367  1.00  0.00    -0.068 Cl
HETATM   15 CL2  UNL     1      29.918  -7.196  29.765  1.00  0.00    -0.068 Cl
ENDBRANCH   7   8
ENDBRANCH   6   7
BRANCH   1  16
HETATM   16  O1  UNL     1      28.307  -8.606  27.127  1.00  0.00    -0.360 OA
ATOM     17  H1  UNL     1      28.670  -9.376  26.705  1.00  0.00     0.217 HD
ENDBRANCH   1  16
BRANCH   5  18
HETATM   18  O2  UNL     1      30.942  -5.161  24.884  1.00  0.00    -0.359 OA
ATOM     19  H2  UNL     1      31.412  -4.599  25.489  1.00  0.00     0.217 HD
ENDBRANCH   5  18
BRANCH   4  20
HETATM   20  C5  UNL     1      28.722  -3.699  24.314  1.00  0.00     0.021 C 
HETATM   21  C6  UNL     1      27.846  -2.649  25.057  1.00  0.00     0.009 C 
HETATM   22  C7  UNL     1      26.377  -2.858  24.898  1.00  0.00     0.001 C 
HETATM   23  C8  UNL     1      25.901  -3.252  23.580  1.00  0.00     0.000 C 
HETATM   24  C9  UNL     1      26.910  -3.449  22.519  1.00  0.00     0.001 C 
HETATM   25  C10 UNL     1      28.322  -3.589  22.882  1.00  0.00     0.009 C 
ENDBRANCH   4  20
TORSDOF 5
ENDMDL
MODEL 5
REMARK VINA RESULT: -6.368549496      4.342      6.450
REMARK  5 active torsions:
REMARK  status: ('A' for Active; 'I' for Inactive)
REMARK    1  A    between atoms: O1_1  and  C1_3 
REMARK    2  A    between atoms: C4_6  and  C5_7 
REMARK    3  A    between atoms: C11_13  and  O2_14 
REMARK    4  A    between atoms: C12_16  and  C13_17 
REMARK    5  A    between atoms: C13_17  and  N1_18 
ROOT
HETATM    1  C1  UNL     1      30.121  -6.504  22.291  1.00  0.00     0.076 A 
HETATM    2  C2  UNL     1      30.600  -7.400  21.309  1.00  0.00     0.038 A 
HETATM    3  C3  UNL     1      30.443  -7.024  19.966  1.00  0.00     0.013 A 
HETATM    4  C4  UNL     1      29.870  -5.855  19.618  1.00  0.00    -0.020 A 
HETATM    5  C11 UNL     1      29.394  -4.943  20.633  1.00  0.00     0.083 A 
HETATM    6  C12 UNL     1      29.559  -5.376  21.919  1.00  0.00     0.037 A 
ENDROOT
BRANCH   6   7
HETATM    7  C13 UNL     1      28.851  -4.598  23.013  1.00  0.00     0.321 C 
BRANCH   7   8
HETATM    8  N1  UNL     1      27.391  -4.589  22.979  1.00  0.00     0.132 N 
HETATM    9  C14 UNL     1      27.097  -3.149  23.047  1.00  0.00     0.277 C 
HETATM   10  C15 UNL     1      25.647  -2.865  23.412  1.00  0.00     0.030 C 
HETATM   11  C16 UNL     1      25.544  -3.301  24.883  1.00  0.00     0.007 C 
HETATM   12  C17 UNL     1      25.681  -4.810  24.795  1.00  0.00     0.076 C 
HETATM   13  C18 UNL     1      26.984  -5.241  24.222  1.00  0.00     0.311 C 
HETATM   14 CL1  UNL     1      28.240  -4.981  25.454  1.00  0.00    -0.068 Cl
HETATM   15 CL2  UNL     1      26.866  -7.024  23.913  1.00  0.00    -0.068 Cl
ENDBRANCH   7   8
ENDBRANCH   6   7
BRANCH   1  16
HETATM   16  O1  UNL     1      30.320  -6.896  23.646  1.00  0.00    -0.360 OA
ATOM     17  H1  UNL     1      30.309  -6.196  24.289  1.00  0.00     0.217 HD
ENDBRANCH   1  16
BRANCH   5  18
HETATM   18  O2  UNL     1      28.824  -3.754  20.222  1.00  0.00    -0.359 OA
ATOM     19  H2  UNL     1      27.881  -3.724  20.116  1.00  0.00     0.217 HD
ENDBRANCH   5  18
BRANCH   4  20
HETATM   20  C5  UNL     1      29.539  -5.447  18.219  1.00  0.00     0.021 C 
HETATM   21  C6  UNL     1      30.288  -6.396  17.238  1.00  0.00     0.009 C 
HETATM   22  C7  UNL     1      31.773  -6.251  17.263  1.00  0.00     0.001 C 
HETATM   23  C8  UNL     1      32.307  -4.900  17.359  1.00  0.00     0.000 C 
HETATM   24  C9  UNL     1      31.339  -3.787  17.460  1.00  0.00     0.001 C 
HETATM   25  C10 UNL     1      29.945  -4.072  17.808  1.00  0.00     0.009 C 
ENDBRANCH   4  20
TORSDOF 5
ENDMDL
