MODEL 1
REMARK VINA RESULT: -7.219694276      0.000      0.000
REMARK  5 active torsions:
REMARK  status: ('A' for Active; 'I' for Inactive)
REMARK    1  A    between atoms: O1_1  and  N1_3 
REMARK    2  A    between atoms: C1_5  and  C2_6 
REMARK    3  A    between atoms: C1_5  and  N3_17 
REMARK    4  A    between atoms: C3_7  and  C4_8 
REMARK    5  A    between atoms: N3_17  and  C9_19 
ROOT
HETATM    1  N1  UNL     1      32.314  -6.653  25.760  1.00  0.00    -0.253 N 
ATOM      2  H1  UNL     1      32.803  -6.462  24.885  1.00  0.00     0.196 HD
HETATM    3  C1  UNL     1      31.034  -6.559  25.759  1.00  0.00     0.121 C 
ENDROOT
BRANCH   3   4
HETATM    4  C2  UNL     1      30.333  -6.831  27.008  1.00  0.00     0.051 C 
HETATM    5  C3  UNL     1      29.148  -7.375  27.033  1.00  0.00     0.016 C 
BRANCH   5   6
HETATM    6  C4  UNL     1      28.445  -7.650  28.256  1.00  0.00    -0.019 A 
HETATM    7  C5  UNL     1      29.063  -7.395  29.476  1.00  0.00     0.100 A 
HETATM    8  N2  UNL     1      28.453  -7.634  30.618  1.00  0.00    -0.354 N 
HETATM    9  C6  UNL     1      27.226  -8.127  30.672  1.00  0.00     0.125 A 
ATOM     10  H2  UNL     1      28.942  -7.432  31.490  1.00  0.00     0.166 HD
HETATM   11 CL1  UNL     1      26.481  -8.418  32.243  1.00  0.00    -0.063 Cl
HETATM   12  C7  UNL     1      26.581  -8.393  29.506  1.00  0.00     0.073 A 
HETATM   13 CL2  UNL     1      24.959  -9.045  29.572  1.00  0.00    -0.081 Cl
HETATM   14  C8  UNL     1      27.178  -8.159  28.274  1.00  0.00     0.040 A 
ENDBRANCH   5   6
ENDBRANCH   3   4
BRANCH   3  15
HETATM   15  N3  UNL     1      30.277  -6.205  24.615  1.00  0.00    -0.370 N 
ATOM     16  H3  UNL     1      29.851  -6.956  24.072  1.00  0.00     0.161 HD
BRANCH  15  17
HETATM   17  C9  UNL     1      30.072  -4.852  24.173  1.00  0.00     0.083 C 
HETATM   18  C10 UNL     1      28.812  -4.327  24.602  1.00  0.00     0.025 C 
HETATM   19  C11 UNL     1      28.137  -4.125  25.866  1.00  0.00     0.002 C 
HETATM   20  C12 UNL     1      26.859  -3.382  25.396  1.00  0.00     0.000 C 
HETATM   21  C13 UNL     1      26.289  -3.799  24.087  1.00  0.00     0.000 C 
HETATM   22  C14 UNL     1      26.721  -3.132  22.838  1.00  0.00     0.000 C 
HETATM   23  C15 UNL     1      27.646  -3.833  21.896  1.00  0.00     0.000 C 
HETATM   24  C16 UNL     1      29.116  -3.697  22.070  1.00  0.00     0.002 C 
HETATM   25  C17 UNL     1      29.906  -4.819  22.629  1.00  0.00     0.025 C 
ENDBRANCH  15  17
ENDBRANCH   3  15
BRANCH   1  26
HETATM   26  O1  UNL     1      33.065  -6.986  26.835  1.00  0.00    -0.288 OA
ATOM     27  H1  UNL     1      33.959  -6.703  26.982  1.00  0.00     0.244 HD
ENDBRANCH   1  26
TORSDOF 5
ENDMDL
MODEL 2
REMARK VINA RESULT: -7.127128710      1.306      1.803
REMARK  5 active torsions:
REMARK  status: ('A' for Active; 'I' for Inactive)
REMARK    1  A    between atoms: O1_1  and  N1_3 
REMARK    2  A    between atoms: C1_5  and  C2_6 
REMARK    3  A    between atoms: C1_5  and  N3_17 
REMARK    4  A    between atoms: C3_7  and  C4_8 
REMARK    5  A    between atoms: N3_17  and  C9_19 
ROOT
HETATM    1  N1  UNL     1      31.523  -6.322  26.902  1.00  0.00    -0.253 N 
ATOM      2  H1  UNL     1      32.218  -5.921  26.273  1.00  0.00     0.196 HD
HETATM    3  C1  UNL     1      30.345  -6.526  26.434  1.00  0.00     0.121 C 
ENDROOT
BRANCH   3   4
HETATM    4  C2  UNL     1      29.348  -7.100  27.331  1.00  0.00     0.051 C 
HETATM    5  C3  UNL     1      28.207  -7.558  26.897  1.00  0.00     0.016 C 
BRANCH   5   6
HETATM    6  C4  UNL     1      27.217  -8.127  27.768  1.00  0.00    -0.019 A 
HETATM    7  C5  UNL     1      26.177  -8.879  27.228  1.00  0.00     0.100 A 
HETATM    8  N2  UNL     1      25.250  -9.416  27.992  1.00  0.00    -0.354 N 
HETATM    9  C6  UNL     1      25.251  -9.274  29.308  1.00  0.00     0.125 A 
ATOM     10  H2  UNL     1      24.506  -9.960  27.556  1.00  0.00     0.166 HD
HETATM   11 CL1  UNL     1      23.972 -10.027  30.258  1.00  0.00    -0.063 Cl
HETATM   12  C7  UNL     1      26.246  -8.549  29.883  1.00  0.00     0.073 A 
HETATM   13 CL2  UNL     1      26.252  -8.358  31.622  1.00  0.00    -0.081 Cl
HETATM   14  C8  UNL     1      27.249  -7.960  29.123  1.00  0.00     0.040 A 
ENDBRANCH   5   6
ENDBRANCH   3   4
BRANCH   3  15
HETATM   15  N3  UNL     1      29.969  -6.222  25.102  1.00  0.00    -0.370 N 
ATOM     16  H3  UNL     1      29.748  -6.997  24.478  1.00  0.00     0.161 HD
BRANCH  15  17
HETATM   17  C9  UNL     1      29.879  -4.886  24.578  1.00  0.00     0.083 C 
HETATM   18  C10 UNL     1      28.591  -4.301  24.800  1.00  0.00     0.025 C 
HETATM   19  C11 UNL     1      27.754  -4.018  25.947  1.00  0.00     0.002 C 
HETATM   20  C12 UNL     1      26.584  -3.260  25.268  1.00  0.00     0.000 C 
HETATM   21  C13 UNL     1      26.187  -3.721  23.911  1.00  0.00     0.000 C 
HETATM   22  C14 UNL     1      26.815  -3.129  22.708  1.00  0.00     0.000 C 
HETATM   23  C15 UNL     1      27.836  -3.903  21.938  1.00  0.00     0.000 C 
HETATM   24  C16 UNL     1      29.271  -3.804  22.312  1.00  0.00     0.002 C 
HETATM   25  C17 UNL     1      29.932  -4.922  23.026  1.00  0.00     0.025 C 
ENDBRANCH  15  17
ENDBRANCH   3  15
BRANCH   1  26
HETATM   26  O1  UNL     1      31.911  -6.601  28.167  1.00  0.00    -0.288 OA
ATOM     27  H1  UNL     1      32.783  -6.882  28.418  1.00  0.00     0.244 HD
ENDBRANCH   1  26
TORSDOF 5
ENDMDL
MODEL 3
REMARK VINA RESULT: -7.062687446      3.297      4.187
REMARK  5 active torsions:
REMARK  status: ('A' for Active; 'I' for Inactive)
REMARK    1  A    between atoms: O1_1  and  N1_3 
REMARK    2  A    between atoms: C1_5  and  C2_6 
REMARK    3  A    between atoms: C1_5  and  N3_17 
REMARK    4  A    between atoms: C3_7  and  C4_8 
REMARK    5  A    between atoms: N3_17  and  C9_19 
ROOT
HETATM    1  N1  UNL     1      29.748  -8.003  24.990  1.00  0.00    -0.253 N 
ATOM      2  H1  UNL     1      30.746  -7.818  24.896  1.00  0.00     0.196 HD
HETATM    3  C1  UNL     1      29.013  -7.070  25.477  1.00  0.00     0.121 C 
ENDROOT
BRANCH   3   4
HETATM    4  C2  UNL     1      27.585  -7.332  25.613  1.00  0.00     0.051 C 
HETATM    5  C3  UNL     1      26.725  -6.975  24.700  1.00  0.00     0.016 C 
BRANCH   5   6
HETATM    6  C4  UNL     1      25.316  -7.227  24.818  1.00  0.00    -0.019 A 
HETATM    7  C5  UNL     1      24.407  -6.261  24.396  1.00  0.00     0.100 A 
HETATM    8  N2  UNL     1      23.108  -6.455  24.488  1.00  0.00    -0.354 N 
HETATM    9  C6  UNL     1      22.594  -7.569  24.985  1.00  0.00     0.125 A 
ATOM     10  H2  UNL     1      22.477  -5.721  24.167  1.00  0.00     0.166 HD
HETATM   11 CL1  UNL     1      20.843  -7.747  25.073  1.00  0.00    -0.063 Cl
HETATM   12  C7  UNL     1      23.441  -8.542  25.411  1.00  0.00     0.073 A 
HETATM   13 CL2  UNL     1      22.767 -10.016  26.067  1.00  0.00    -0.081 Cl
HETATM   14  C8  UNL     1      24.820  -8.389  25.336  1.00  0.00     0.040 A 
ENDBRANCH   5   6
ENDBRANCH   3   4
BRANCH   3  15
HETATM   15  N3  UNL     1      29.517  -5.811  25.888  1.00  0.00    -0.370 N 
ATOM     16  H3  UNL     1      29.763  -5.691  26.870  1.00  0.00     0.161 HD
BRANCH  15  17
HETATM   17  C9  UNL     1      29.704  -4.693  25.003  1.00  0.00     0.083 C 
HETATM   18  C10 UNL     1      28.501  -3.937  24.824  1.00  0.00     0.025 C 
HETATM   19  C11 UNL     1      27.568  -3.236  25.681  1.00  0.00     0.002 C 
HETATM   20  C12 UNL     1      26.630  -2.599  24.623  1.00  0.00     0.000 C 
HETATM   21  C13 UNL     1      26.357  -3.402  23.402  1.00  0.00     0.000 C 
HETATM   22  C14 UNL     1      27.226  -3.268  22.210  1.00  0.00     0.000 C 
HETATM   23  C15 UNL     1      28.213  -4.340  21.879  1.00  0.00     0.000 C 
HETATM   24  C16 UNL     1      29.582  -4.285  22.455  1.00  0.00     0.002 C 
HETATM   25  C17 UNL     1      29.962  -5.200  23.557  1.00  0.00     0.025 C 
ENDBRANCH  15  17
ENDBRANCH   3  15
BRANCH   1  26
HETATM   26  O1  UNL     1      29.296  -9.214  24.591  1.00  0.00    -0.288 OA
ATOM     27  H1  UNL     1      28.643  -9.355  23.916  1.00  0.00     0.244 HD
ENDBRANCH   1  26
TORSDOF 5
ENDMDL
MODEL 4
REMARK VINA RESULT: -6.885573839      3.729      4.521
REMARK  5 active torsions:
REMARK  status: ('A' for Active; 'I' for Inactive)
REMARK    1  A    between atoms: O1_1  and  N1_3 
REMARK    2  A    between atoms: C1_5  and  C2_6 
REMARK    3  A    between atoms: C1_5  and  N3_17 
REMARK    4  A    between atoms: C3_7  and  C4_8 
REMARK    5  A    between atoms: N3_17  and  C9_19 
ROOT
HETATM    1  N1  UNL     1      28.765  -8.128  21.916  1.00  0.00    -0.253 N 
ATOM      2  H1  UNL     1      29.676  -7.887  21.525  1.00  0.00     0.196 HD
HETATM    3  C1  UNL     1      28.458  -7.628  23.058  1.00  0.00     0.121 C 
ENDROOT
BRANCH   3   4
HETATM    4  C2  UNL     1      27.156  -7.970  23.620  1.00  0.00     0.051 C 
HETATM    5  C3  UNL     1      26.301  -7.059  23.994  1.00  0.00     0.016 C 
BRANCH   5   6
HETATM    6  C4  UNL     1      25.016  -7.381  24.548  1.00  0.00    -0.019 A 
HETATM    7  C5  UNL     1      23.930  -6.548  24.295  1.00  0.00     0.100 A 
HETATM    8  N2  UNL     1      22.736  -6.809  24.785  1.00  0.00    -0.354 N 
HETATM    9  C6  UNL     1      22.500  -7.869  25.541  1.00  0.00     0.125 A 
ATOM     10  H2  UNL     1      21.968  -6.172  24.574  1.00  0.00     0.166 HD
HETATM   11 CL1  UNL     1      20.872  -8.144  26.158  1.00  0.00    -0.063 Cl
HETATM   12  C7  UNL     1      23.529  -8.712  25.818  1.00  0.00     0.073 A 
HETATM   13 CL2  UNL     1      23.223 -10.114  26.817  1.00  0.00    -0.081 Cl
HETATM   14  C8  UNL     1      24.808  -8.484  25.326  1.00  0.00     0.040 A 
ENDBRANCH   5   6
ENDBRANCH   3   4
BRANCH   3  15
HETATM   15  N3  UNL     1      29.313  -6.768  23.791  1.00  0.00    -0.370 N 
ATOM     16  H3  UNL     1      29.907  -7.183  24.509  1.00  0.00     0.161 HD
BRANCH  15  17
HETATM   17  C9  UNL     1      29.392  -5.347  23.586  1.00  0.00     0.083 C 
HETATM   18  C10 UNL     1      28.569  -4.620  24.504  1.00  0.00     0.025 C 
HETATM   19  C11 UNL     1      28.450  -4.509  25.942  1.00  0.00     0.002 C 
HETATM   20  C12 UNL     1      27.378  -3.395  26.058  1.00  0.00     0.000 C 
HETATM   21  C13 UNL     1      26.305  -3.392  25.027  1.00  0.00     0.000 C 
HETATM   22  C14 UNL     1      26.476  -2.621  23.775  1.00  0.00     0.000 C 
HETATM   23  C15 UNL     1      26.775  -3.331  22.494  1.00  0.00     0.000 C 
HETATM   24  C16 UNL     1      28.187  -3.601  22.114  1.00  0.00     0.002 C 
HETATM   25  C17 UNL     1      28.738  -4.972  22.228  1.00  0.00     0.025 C 
ENDBRANCH  15  17
ENDBRANCH   3  15
BRANCH   1  26
HETATM   26  O1  UNL     1      27.972  -8.951  21.193  1.00  0.00    -0.288 OA
ATOM     27  H1  UNL     1      28.193  -9.842  20.949  1.00  0.00     0.244 HD
ENDBRANCH   1  26
TORSDOF 5
ENDMDL
MODEL 5
REMARK VINA RESULT: -6.774448004      3.963      5.245
REMARK  5 active torsions:
REMARK  status: ('A' for Active; 'I' for Inactive)
REMARK    1  A    between atoms: O1_1  and  N1_3 
REMARK    2  A    between atoms: C1_5  and  C2_6 
REMARK    3  A    between atoms: C1_5  and  N3_17 
REMARK    4  A    between atoms: C3_7  and  C4_8 
REMARK    5  A    between atoms: N3_17  and  C9_19 
ROOT
HETATM    1  N1  UNL     1      28.574  -6.688  27.602  1.00  0.00    -0.253 N 
ATOM      2  H1  UNL     1      27.649  -6.662  27.173  1.00  0.00     0.196 HD
HETATM    3  C1  UNL     1      29.590  -6.545  26.832  1.00  0.00     0.121 C 
ENDROOT
BRANCH   3   4
HETATM    4  C2  UNL     1      30.915  -6.582  27.442  1.00  0.00     0.051 C 
HETATM    5  C3  UNL     1      32.000  -6.729  26.734  1.00  0.00     0.016 C 
BRANCH   5   6
HETATM    6  C4  UNL     1      33.311  -6.767  27.321  1.00  0.00    -0.019 A 
HETATM    7  C5  UNL     1      34.407  -7.103  26.532  1.00  0.00     0.100 A 
HETATM    8  N2  UNL     1      35.624  -7.149  27.032  1.00  0.00    -0.354 N 
HETATM    9  C6  UNL     1      35.875  -6.880  28.303  1.00  0.00     0.125 A 
ATOM     10  H2  UNL     1      36.399  -7.400  26.419  1.00  0.00     0.166 HD
HETATM   11 CL1  UNL     1      37.534  -6.965  28.892  1.00  0.00    -0.063 Cl
HETATM   12  C7  UNL     1      34.837  -6.547  29.114  1.00  0.00     0.073 A 
HETATM   13 CL2  UNL     1      35.162  -6.191  30.796  1.00  0.00    -0.081 Cl
HETATM   14  C8  UNL     1      33.533  -6.484  28.638  1.00  0.00     0.040 A 
ENDBRANCH   5   6
ENDBRANCH   3   4
BRANCH   3  15
HETATM   15  N3  UNL     1      29.490  -6.356  25.431  1.00  0.00    -0.370 N 
ATOM     16  H3  UNL     1      29.280  -7.168  24.852  1.00  0.00     0.161 HD
BRANCH  15  17
HETATM   17  C9  UNL     1      29.668  -5.087  24.777  1.00  0.00     0.083 C 
HETATM   18  C10 UNL     1      28.464  -4.314  24.757  1.00  0.00     0.025 C 
HETATM   19  C11 UNL     1      27.538  -3.793  25.741  1.00  0.00     0.002 C 
HETATM   20  C12 UNL     1      26.590  -2.966  24.834  1.00  0.00     0.000 C 
HETATM   21  C13 UNL     1      26.307  -3.520  23.483  1.00  0.00     0.000 C 
HETATM   22  C14 UNL     1      27.165  -3.157  22.332  1.00  0.00     0.000 C 
HETATM   23  C15 UNL     1      28.150  -4.143  21.792  1.00  0.00     0.000 C 
HETATM   24  C16 UNL     1      29.524  -4.196  22.357  1.00  0.00     0.002 C 
HETATM   25  C17 UNL     1      29.914  -5.306  23.259  1.00  0.00     0.025 C 
ENDBRANCH  15  17
ENDBRANCH   3  15
BRANCH   1  26
HETATM   26  O1  UNL     1      28.637  -6.871  28.941  1.00  0.00    -0.288 OA
ATOM     27  H1  UNL     1      28.082  -7.462  29.435  1.00  0.00     0.244 HD
ENDBRANCH   1  26
TORSDOF 5
ENDMDL
