MODEL 1
REMARK VINA RESULT: -6.587369234      0.000      0.000
REMARK  5 active torsions:
REMARK  status: ('A' for Active; 'I' for Inactive)
REMARK    1  A    between atoms: C2_5  and  C3_6 
REMARK    2  A    between atoms: C3_6  and  C4_7 
REMARK    3  A    between atoms: C5_10  and  S1_11 
REMARK    4  A    between atoms: S1_11  and  C6_12 
REMARK    5  A    between atoms: C16_22  and  N3_23 
ROOT
HETATM    1  C1  UNL     1      25.123 -10.372  21.395  1.00  0.00     0.179 C 
HETATM    2  N1  UNL     1      25.022  -9.406  22.488  1.00  0.00    -0.280 N 
HETATM    3  N2  UNL     1      23.902  -8.915  22.991  1.00  0.00    -0.296 N 
ATOM      4  H2  UNL     1      22.964  -9.154  22.670  1.00  0.00     0.187 HD
HETATM    5  C2  UNL     1      24.184  -8.039  24.005  1.00  0.00     0.071 A 
HETATM    6  C5  UNL     1      25.553  -7.988  24.131  1.00  0.00     0.074 A 
HETATM    7  C16 UNL     1      26.046  -8.855  23.167  1.00  0.00     0.134 A 
ENDROOT
BRANCH   6   8
HETATM    8  S1  UNL     1      26.568  -7.022  25.227  1.00  0.00    -0.114 SA
BRANCH   8   9
HETATM    9  C6  UNL     1      26.949  -5.391  24.593  1.00  0.00     0.014 C 
HETATM   10  C7  UNL     1      25.752  -4.485  24.507  1.00  0.00     0.025 C 
HETATM   11  C8  UNL     1      26.224  -3.147  23.975  1.00  0.00    -0.012 C 
HETATM   12  C9  UNL     1      27.189  -2.476  24.912  1.00  0.00     0.009 C 
HETATM   13  C13 UNL     1      26.916  -3.318  22.641  1.00  0.00     0.009 C 
HETATM   14  C10 UNL     1      28.374  -3.400  25.135  1.00  0.00    -0.012 C 
HETATM   15  C11 UNL     1      29.118  -3.578  23.844  1.00  0.00     0.009 C 
HETATM   16  C15 UNL     1      27.885  -4.737  25.619  1.00  0.00     0.025 C 
HETATM   17  C12 UNL     1      28.169  -4.136  22.816  1.00  0.00    -0.012 C 
HETATM   18  C14 UNL     1      27.722  -5.512  23.323  1.00  0.00     0.025 C 
ENDBRANCH   8   9
ENDBRANCH   6   8
BRANCH   5  19
HETATM   19  C3  UNL     1      23.173  -7.314  24.732  1.00  0.00     0.069 C 
BRANCH  19  20
HETATM   20  C4  UNL     1      22.163  -7.910  25.316  1.00  0.00     0.105 C 
HETATM   21 CL1  UNL     1      20.485  -7.760  24.861  1.00  0.00    -0.071 Cl
HETATM   22 CL2  UNL     1      22.504  -8.973  26.693  1.00  0.00    -0.071 Cl
ENDBRANCH  19  20
ENDBRANCH   5  19
BRANCH   7  23
HETATM   23  N3  UNL     1      27.283  -9.104  22.947  1.00  0.00    -0.383 N 
ATOM     24  H32 UNL     1      27.976  -9.352  23.654  1.00  0.00     0.157 HD
ATOM     25  H31 UNL     1      27.725  -9.085  22.028  1.00  0.00     0.157 HD
ENDBRANCH   7  23
TORSDOF 5
ENDMDL
MODEL 2
REMARK VINA RESULT: -6.516924676      0.157      1.577
REMARK  5 active torsions:
REMARK  status: ('A' for Active; 'I' for Inactive)
REMARK    1  A    between atoms: C2_5  and  C3_6 
REMARK    2  A    between atoms: C3_6  and  C4_7 
REMARK    3  A    between atoms: C5_10  and  S1_11 
REMARK    4  A    between atoms: S1_11  and  C6_12 
REMARK    5  A    between atoms: C16_22  and  N3_23 
ROOT
HETATM    1  C1  UNL     1      25.277 -10.400  21.423  1.00  0.00     0.179 C 
HETATM    2  N1  UNL     1      25.157  -9.423  22.504  1.00  0.00    -0.280 N 
HETATM    3  N2  UNL     1      24.029  -8.918  22.975  1.00  0.00    -0.296 N 
ATOM      4  H2  UNL     1      23.097  -9.153  22.633  1.00  0.00     0.187 HD
HETATM    5  C2  UNL     1      24.293  -8.035  23.987  1.00  0.00     0.071 A 
HETATM    6  C5  UNL     1      25.659  -7.993  24.146  1.00  0.00     0.074 A 
HETATM    7  C16 UNL     1      26.169  -8.873  23.203  1.00  0.00     0.134 A 
ENDROOT
BRANCH   6   8
HETATM    8  S1  UNL     1      26.654  -7.024  25.258  1.00  0.00    -0.114 SA
BRANCH   8   9
HETATM    9  C6  UNL     1      27.192  -5.465  24.558  1.00  0.00     0.014 C 
HETATM   10  C7  UNL     1      27.782  -5.597  23.181  1.00  0.00     0.025 C 
HETATM   11  C8  UNL     1      28.173  -4.210  22.713  1.00  0.00    -0.012 C 
HETATM   12  C9  UNL     1      26.981  -3.305  22.572  1.00  0.00     0.009 C 
HETATM   13  C13 UNL     1      29.129  -3.567  23.692  1.00  0.00     0.009 C 
HETATM   14  C10 UNL     1      26.268  -3.225  23.911  1.00  0.00    -0.012 C 
HETATM   15  C11 UNL     1      27.165  -2.563  24.914  1.00  0.00     0.009 C 
HETATM   16  C15 UNL     1      25.927  -4.612  24.382  1.00  0.00     0.025 C 
HETATM   17  C12 UNL     1      28.442  -3.356  25.016  1.00  0.00    -0.012 C 
HETATM   18  C14 UNL     1      28.062  -4.748  25.534  1.00  0.00     0.025 C 
ENDBRANCH   8   9
ENDBRANCH   6   8
BRANCH   5  19
HETATM   19  C3  UNL     1      23.270  -7.295  24.682  1.00  0.00     0.069 C 
BRANCH  19  20
HETATM   20  C4  UNL     1      22.304  -7.882  25.343  1.00  0.00     0.105 C 
HETATM   21 CL1  UNL     1      20.603  -7.793  24.961  1.00  0.00    -0.071 Cl
HETATM   22 CL2  UNL     1      22.734  -8.865  26.754  1.00  0.00    -0.071 Cl
ENDBRANCH  19  20
ENDBRANCH   5  19
BRANCH   7  23
HETATM   23  N3  UNL     1      27.409  -9.134  23.016  1.00  0.00    -0.383 N 
ATOM     24  H32 UNL     1      28.137  -9.105  23.729  1.00  0.00     0.157 HD
ATOM     25  H31 UNL     1      27.816  -9.405  22.121  1.00  0.00     0.157 HD
ENDBRANCH   7  23
TORSDOF 5
ENDMDL
MODEL 3
REMARK VINA RESULT: -6.493311502      3.907      5.193
REMARK  5 active torsions:
REMARK  status: ('A' for Active; 'I' for Inactive)
REMARK    1  A    between atoms: C2_5  and  C3_6 
REMARK    2  A    between atoms: C3_6  and  C4_7 
REMARK    3  A    between atoms: C5_10  and  S1_11 
REMARK    4  A    between atoms: S1_11  and  C6_12 
REMARK    5  A    between atoms: C16_22  and  N3_23 
ROOT
HETATM    1  C1  UNL     1      30.379  -9.845  20.785  1.00  0.00     0.179 C 
HETATM    2  N1  UNL     1      30.351  -8.569  21.498  1.00  0.00    -0.280 N 
HETATM    3  N2  UNL     1      30.839  -8.342  22.707  1.00  0.00    -0.296 N 
ATOM      4  H2  UNL     1      31.296  -9.041  23.292  1.00  0.00     0.187 HD
HETATM    5  C2  UNL     1      30.641  -7.033  23.057  1.00  0.00     0.071 A 
HETATM    6  C5  UNL     1      29.994  -6.423  22.007  1.00  0.00     0.074 A 
HETATM    7  C16 UNL     1      29.829  -7.412  21.049  1.00  0.00     0.134 A 
ENDROOT
BRANCH   6   8
HETATM    8  S1  UNL     1      29.415  -4.749  21.836  1.00  0.00    -0.114 SA
BRANCH   8   9
HETATM    9  C6  UNL     1      28.251  -4.264  23.107  1.00  0.00     0.014 C 
HETATM   10  C7  UNL     1      27.146  -3.377  22.603  1.00  0.00     0.025 C 
HETATM   11  C8  UNL     1      26.237  -3.064  23.774  1.00  0.00    -0.012 C 
HETATM   12  C9  UNL     1      25.569  -4.297  24.316  1.00  0.00     0.009 C 
HETATM   13  C13 UNL     1      27.020  -2.428  24.902  1.00  0.00     0.009 C 
HETATM   14  C10 UNL     1      26.641  -5.288  24.735  1.00  0.00    -0.012 C 
HETATM   15  C11 UNL     1      27.429  -4.717  25.877  1.00  0.00     0.009 C 
HETATM   16  C15 UNL     1      27.561  -5.553  23.576  1.00  0.00     0.025 C 
HETATM   17  C12 UNL     1      28.030  -3.407  25.439  1.00  0.00    -0.012 C 
HETATM   18  C14 UNL     1      28.988  -3.720  24.284  1.00  0.00     0.025 C 
ENDBRANCH   8   9
ENDBRANCH   6   8
BRANCH   5  19
HETATM   19  C3  UNL     1      31.034  -6.484  24.330  1.00  0.00     0.069 C 
BRANCH  19  20
HETATM   20  C4  UNL     1      30.578  -6.947  25.467  1.00  0.00     0.105 C 
HETATM   21 CL1  UNL     1      29.162  -7.947  25.670  1.00  0.00    -0.071 Cl
HETATM   22 CL2  UNL     1      31.462  -6.540  26.949  1.00  0.00    -0.071 Cl
ENDBRANCH  19  20
ENDBRANCH   5  19
BRANCH   7  23
HETATM   23  N3  UNL     1      29.269  -7.261  19.907  1.00  0.00    -0.383 N 
ATOM     24  H32 UNL     1      28.954  -8.012  19.294  1.00  0.00     0.157 HD
ATOM     25  H31 UNL     1      29.070  -6.359  19.473  1.00  0.00     0.157 HD
ENDBRANCH   7  23
TORSDOF 5
ENDMDL
MODEL 4
REMARK VINA RESULT: -6.474082434      4.483      5.881
REMARK  5 active torsions:
REMARK  status: ('A' for Active; 'I' for Inactive)
REMARK    1  A    between atoms: C2_5  and  C3_6 
REMARK    2  A    between atoms: C3_6  and  C4_7 
REMARK    3  A    between atoms: C5_10  and  S1_11 
REMARK    4  A    between atoms: S1_11  and  C6_12 
REMARK    5  A    between atoms: C16_22  and  N3_23 
ROOT
HETATM    1  C1  UNL     1      29.128  -6.368  17.705  1.00  0.00     0.179 C 
HETATM    2  N1  UNL     1      29.417  -6.284  19.135  1.00  0.00    -0.280 N 
HETATM    3  N2  UNL     1      29.628  -7.306  19.948  1.00  0.00    -0.296 N 
ATOM      4  H2  UNL     1      29.611  -8.287  19.669  1.00  0.00     0.187 HD
HETATM    5  C2  UNL     1      29.872  -6.856  21.218  1.00  0.00     0.071 A 
HETATM    6  C5  UNL     1      29.806  -5.482  21.184  1.00  0.00     0.074 A 
HETATM    7  C16 UNL     1      29.520  -5.157  19.866  1.00  0.00     0.134 A 
ENDROOT
BRANCH   6   8
HETATM    8  S1  UNL     1      29.988  -4.294  22.495  1.00  0.00    -0.114 SA
BRANCH   8   9
HETATM    9  C6  UNL     1      28.515  -4.104  23.495  1.00  0.00     0.014 C 
HETATM   10  C7  UNL     1      27.312  -3.655  22.713  1.00  0.00     0.025 C 
HETATM   11  C8  UNL     1      26.146  -3.556  23.676  1.00  0.00    -0.012 C 
HETATM   12  C9  UNL     1      25.787  -4.890  24.267  1.00  0.00     0.009 C 
HETATM   13  C13 UNL     1      26.477  -2.618  24.816  1.00  0.00     0.009 C 
HETATM   14  C10 UNL     1      27.007  -5.455  24.975  1.00  0.00    -0.012 C 
HETATM   15  C11 UNL     1      27.358  -4.576  26.140  1.00  0.00     0.009 C 
HETATM   16  C15 UNL     1      28.165  -5.505  24.018  1.00  0.00     0.025 C 
HETATM   17  C12 UNL     1      27.613  -3.182  25.630  1.00  0.00    -0.012 C 
HETATM   18  C14 UNL     1      28.820  -3.264  24.690  1.00  0.00     0.025 C 
ENDBRANCH   8   9
ENDBRANCH   6   8
BRANCH   5  19
HETATM   19  C3  UNL     1      30.108  -7.731  22.339  1.00  0.00     0.069 C 
BRANCH  19  20
HETATM   20  C4  UNL     1      31.273  -7.818  22.930  1.00  0.00     0.105 C 
HETATM   21 CL1  UNL     1      32.682  -8.634  22.300  1.00  0.00    -0.071 Cl
HETATM   22 CL2  UNL     1      31.466  -7.043  24.513  1.00  0.00    -0.071 Cl
ENDBRANCH  19  20
ENDBRANCH   5  19
BRANCH   7  23
HETATM   23  N3  UNL     1      29.376  -3.973  19.402  1.00  0.00    -0.383 N 
ATOM     24  H32 UNL     1      28.585  -3.355  19.581  1.00  0.00     0.157 HD
ATOM     25  H31 UNL     1      30.045  -3.503  18.793  1.00  0.00     0.157 HD
ENDBRANCH   7  23
TORSDOF 5
ENDMDL
MODEL 5
REMARK VINA RESULT: -6.439220481      2.470      3.706
REMARK  5 active torsions:
REMARK  status: ('A' for Active; 'I' for Inactive)
REMARK    1  A    between atoms: C2_5  and  C3_6 
REMARK    2  A    between atoms: C3_6  and  C4_7 
REMARK    3  A    between atoms: C5_10  and  S1_11 
REMARK    4  A    between atoms: S1_11  and  C6_12 
REMARK    5  A    between atoms: C16_22  and  N3_23 
ROOT
HETATM    1  C1  UNL     1      21.740  -8.764  25.947  1.00  0.00     0.179 C 
HETATM    2  N1  UNL     1      23.195  -8.643  25.871  1.00  0.00    -0.280 N 
HETATM    3  N2  UNL     1      24.056  -9.008  26.806  1.00  0.00    -0.296 N 
ATOM      4  H2  UNL     1      23.803  -9.420  27.703  1.00  0.00     0.187 HD
HETATM    5  C2  UNL     1      25.337  -8.751  26.393  1.00  0.00     0.071 A 
HETATM    6  C5  UNL     1      25.258  -8.196  25.137  1.00  0.00     0.074 A 
HETATM    7  C16 UNL     1      23.904  -8.143  24.840  1.00  0.00     0.134 A 
ENDROOT
BRANCH   6   8
HETATM    8  S1  UNL     1      26.546  -7.604  24.063  1.00  0.00    -0.114 SA
BRANCH   8   9
HETATM    9  C6  UNL     1      26.995  -5.896  24.364  1.00  0.00     0.014 C 
HETATM   10  C7  UNL     1      28.020  -5.727  25.451  1.00  0.00     0.025 C 
HETATM   11  C8  UNL     1      28.313  -4.247  25.582  1.00  0.00    -0.012 C 
HETATM   12  C9  UNL     1      28.930  -3.681  24.334  1.00  0.00     0.009 C 
HETATM   13  C13 UNL     1      27.043  -3.475  25.862  1.00  0.00     0.009 C 
HETATM   14  C10 UNL     1      27.988  -3.928  23.169  1.00  0.00    -0.012 C 
HETATM   15  C11 UNL     1      26.719  -3.156  23.381  1.00  0.00     0.009 C 
HETATM   16  C15 UNL     1      27.672  -5.395  23.080  1.00  0.00     0.025 C 
HETATM   17  C12 UNL     1      26.106  -3.589  24.687  1.00  0.00    -0.012 C 
HETATM   18  C14 UNL     1      25.763  -5.076  24.548  1.00  0.00     0.025 C 
ENDBRANCH   8   9
ENDBRANCH   6   8
BRANCH   5  19
HETATM   19  C3  UNL     1      26.499  -9.010  27.205  1.00  0.00     0.069 C 
BRANCH  19  20
HETATM   20  C4  UNL     1      26.677  -8.451  28.377  1.00  0.00     0.105 C 
HETATM   21 CL1  UNL     1      25.678  -8.693  29.787  1.00  0.00    -0.071 Cl
HETATM   22 CL2  UNL     1      28.051  -7.348  28.575  1.00  0.00    -0.071 Cl
ENDBRANCH  19  20
ENDBRANCH   5  19
BRANCH   7  23
HETATM   23  N3  UNL     1      23.393  -7.693  23.755  1.00  0.00    -0.383 N 
ATOM     24  H32 UNL     1      22.998  -8.257  23.004  1.00  0.00     0.157 HD
ATOM     25  H31 UNL     1      23.320  -6.704  23.515  1.00  0.00     0.157 HD
ENDBRANCH   7  23
TORSDOF 5
ENDMDL
