MODEL 1
REMARK VINA RESULT: -7.730736895      0.000      0.000
REMARK  2 active torsions:
REMARK  status: ('A' for Active; 'I' for Inactive)
REMARK    1  A    between atoms: C2_2  and  C3_3 
REMARK    2  A    between atoms: C6_6  and  C7_7 
ROOT
HETATM    1  C3  UNL     1      28.719  -5.901  25.976  1.00  0.00     0.039 A 
HETATM    2  C4  UNL     1      28.051  -6.454  27.066  1.00  0.00     0.041 A 
HETATM    3  C5  UNL     1      28.713  -7.031  28.111  1.00  0.00    -0.009 A 
HETATM    4  C6  UNL     1      28.132  -7.663  29.263  1.00  0.00     0.016 C 
HETATM    5  C12 UNL     1      30.100  -7.019  27.996  1.00  0.00     0.083 A 
HETATM    6 CL1  UNL     1      31.108  -7.717  29.250  1.00  0.00    -0.080 Cl
HETATM    7  C13 UNL     1      30.745  -6.467  26.908  1.00  0.00     0.126 A 
HETATM    8 CL2  UNL     1      32.514  -6.471  26.789  1.00  0.00    -0.063 Cl
HETATM    9  N1  UNL     1      30.042  -5.920  25.920  1.00  0.00    -0.347 N 
ATOM     10  H1  UNL     1      30.523  -5.515  25.118  1.00  0.00     0.167 HD
ENDROOT
BRANCH   1  11
HETATM   11  C2  UNL     1      27.948  -5.279  24.846  1.00  0.00     0.068 C 
HETATM   12  C1  UNL     1      27.687  -6.420  23.858  1.00  0.00     0.045 C 
HETATM   13  C14 UNL     1      26.673  -4.760  25.406  1.00  0.00     0.070 C 
HETATM   14  C15 UNL     1      26.347  -3.342  25.045  1.00  0.00     0.191 C 
HETATM   15  C16 UNL     1      25.787  -3.290  23.645  1.00  0.00     0.037 C 
HETATM   16  N2  UNL     1      27.529  -2.506  24.917  1.00  0.00    -0.050 N 
HETATM   17  C17 UNL     1      27.018  -3.360  22.797  1.00  0.00     0.056 C 
HETATM   18  C18 UNL     1      28.159  -3.135  23.755  1.00  0.00     0.281 C 
HETATM   19  N3  UNL     1      28.785  -4.334  24.205  1.00  0.00    -0.382 N 
ATOM     20  H3  UNL     1      29.782  -4.502  24.073  1.00  0.00     0.156 HD
ATOM     21  H22 UNL     1      27.359  -1.503  24.842  1.00  0.00     0.280 HD
ATOM     22  H21 UNL     1      28.111  -2.427  25.750  1.00  0.00     0.280 HD
ENDBRANCH   1  11
BRANCH   4  23
HETATM   23  C7  UNL     1      26.797  -8.227  29.266  1.00  0.00    -0.079 C 
HETATM   24  C8  UNL     1      26.082  -8.405  30.563  1.00  0.00     0.034 C 
HETATM   25  C9  UNL     1      24.735  -8.936  30.114  1.00  0.00     0.005 C 
HETATM   26  C10 UNL     1      24.994  -9.695  28.858  1.00  0.00     0.005 C 
HETATM   27  C11 UNL     1      26.461  -9.429  28.469  1.00  0.00     0.034 C 
ENDBRANCH   4  23
TORSDOF 2
ENDMDL
MODEL 2
REMARK VINA RESULT: -7.721368781      1.054      1.124
REMARK  2 active torsions:
REMARK  status: ('A' for Active; 'I' for Inactive)
REMARK    1  A    between atoms: C2_2  and  C3_3 
REMARK    2  A    between atoms: C6_6  and  C7_7 
ROOT
HETATM    1  C3  UNL     1      28.892  -6.148  26.636  1.00  0.00     0.039 A 
HETATM    2  C4  UNL     1      28.166  -6.649  27.715  1.00  0.00     0.041 A 
HETATM    3  C5  UNL     1      28.769  -7.239  28.788  1.00  0.00    -0.009 A 
HETATM    4  C6  UNL     1      28.125  -7.823  29.932  1.00  0.00     0.016 C 
HETATM    5  C12 UNL     1      30.158  -7.296  28.714  1.00  0.00     0.083 A 
HETATM    6 CL1  UNL     1      31.094  -8.020  30.009  1.00  0.00    -0.080 Cl
HETATM    7  C13 UNL     1      30.860  -6.795  27.638  1.00  0.00     0.126 A 
HETATM    8 CL2  UNL     1      32.630  -6.886  27.571  1.00  0.00    -0.063 Cl
HETATM    9  N1  UNL     1      30.213  -6.232  26.620  1.00  0.00    -0.347 N 
ATOM     10  H1  UNL     1      30.737  -5.864  25.826  1.00  0.00     0.167 HD
ENDROOT
BRANCH   1  11
HETATM   11  C2  UNL     1      28.185  -5.510  25.474  1.00  0.00     0.068 C 
HETATM   12  C1  UNL     1      26.924  -6.351  25.257  1.00  0.00     0.045 C 
HETATM   13  C14 UNL     1      27.835  -4.121  25.871  1.00  0.00     0.070 C 
HETATM   14  C15 UNL     1      28.228  -3.058  24.890  1.00  0.00     0.191 C 
HETATM   15  C16 UNL     1      27.231  -3.018  23.759  1.00  0.00     0.037 C 
HETATM   16  N2  UNL     1      29.459  -3.370  24.182  1.00  0.00    -0.050 N 
HETATM   17  C17 UNL     1      27.668  -4.158  22.894  1.00  0.00     0.056 C 
HETATM   18  C18 UNL     1      29.024  -4.545  23.425  1.00  0.00     0.281 C 
HETATM   19  N3  UNL     1      29.002  -5.649  24.327  1.00  0.00    -0.382 N 
ATOM     20  H3  UNL     1      29.546  -6.495  24.154  1.00  0.00     0.156 HD
ATOM     21  H22 UNL     1      29.861  -2.611  23.632  1.00  0.00     0.280 HD
ATOM     22  H21 UNL     1      30.287  -3.497  24.763  1.00  0.00     0.280 HD
ENDBRANCH   1  11
BRANCH   4  23
HETATM   23  C7  UNL     1      26.764  -8.322  29.904  1.00  0.00    -0.079 C 
HETATM   24  C8  UNL     1      25.965  -8.332  31.164  1.00  0.00     0.034 C 
HETATM   25  C9  UNL     1      24.621  -8.845  30.683  1.00  0.00     0.005 C 
HETATM   26  C10 UNL     1      24.915  -9.739  29.529  1.00  0.00     0.005 C 
HETATM   27  C11 UNL     1      26.415  -9.583  29.211  1.00  0.00     0.034 C 
ENDBRANCH   4  23
TORSDOF 2
ENDMDL
MODEL 3
REMARK VINA RESULT: -7.128741763      1.163      1.859
REMARK  2 active torsions:
REMARK  status: ('A' for Active; 'I' for Inactive)
REMARK    1  A    between atoms: C2_2  and  C3_3 
REMARK    2  A    between atoms: C6_6  and  C7_7 
ROOT
HETATM    1  C3  UNL     1      29.231  -5.710  26.298  1.00  0.00     0.039 A 
HETATM    2  C4  UNL     1      28.445  -6.326  27.269  1.00  0.00     0.041 A 
HETATM    3  C5  UNL     1      28.981  -7.092  28.263  1.00  0.00    -0.009 A 
HETATM    4  C6  UNL     1      28.269  -7.803  29.290  1.00  0.00     0.016 C 
HETATM    5  C12 UNL     1      30.368  -7.205  28.225  1.00  0.00     0.083 A 
HETATM    6 CL1  UNL     1      31.222  -8.152  29.429  1.00  0.00    -0.080 Cl
HETATM    7  C13 UNL     1      31.130  -6.589  27.255  1.00  0.00     0.126 A 
HETATM    8 CL2  UNL     1      32.896  -6.754  27.230  1.00  0.00    -0.063 Cl
HETATM    9  N1  UNL     1      30.547  -5.854  26.311  1.00  0.00    -0.347 N 
ATOM     10  H1  UNL     1      31.116  -5.402  25.596  1.00  0.00     0.167 HD
ENDROOT
BRANCH   1  11
HETATM   11  C2  UNL     1      28.597  -4.878  25.220  1.00  0.00     0.068 C 
HETATM   12  C1  UNL     1      27.975  -3.681  25.947  1.00  0.00     0.045 C 
HETATM   13  C14 UNL     1      29.677  -4.438  24.299  1.00  0.00     0.070 C 
HETATM   14  C15 UNL     1      29.411  -4.674  22.844  1.00  0.00     0.191 C 
HETATM   15  C16 UNL     1      28.486  -3.606  22.316  1.00  0.00     0.037 C 
HETATM   16  N2  UNL     1      28.634  -5.878  22.599  1.00  0.00    -0.050 N 
HETATM   17  C17 UNL     1      27.142  -4.081  22.771  1.00  0.00     0.056 C 
HETATM   18  C18 UNL     1      27.371  -5.497  23.233  1.00  0.00     0.281 C 
HETATM   19  N3  UNL     1      27.544  -5.628  24.642  1.00  0.00    -0.382 N 
ATOM     20  H3  UNL     1      26.941  -6.230  25.204  1.00  0.00     0.156 HD
ATOM     21  H22 UNL     1      28.571  -6.178  21.626  1.00  0.00     0.280 HD
ATOM     22  H21 UNL     1      29.050  -6.750  22.926  1.00  0.00     0.280 HD
ENDBRANCH   1  11
BRANCH   4  23
HETATM   23  C7  UNL     1      26.890  -8.226  29.148  1.00  0.00    -0.079 C 
HETATM   24  C8  UNL     1      26.105  -8.575  30.367  1.00  0.00     0.034 C 
HETATM   25  C9  UNL     1      24.737  -8.881  29.787  1.00  0.00     0.005 C 
HETATM   26  C10 UNL     1      24.985  -9.410  28.417  1.00  0.00     0.005 C 
HETATM   27  C11 UNL     1      26.486  -9.219  28.127  1.00  0.00     0.034 C 
ENDBRANCH   4  23
TORSDOF 2
ENDMDL
MODEL 4
REMARK VINA RESULT: -6.974179431      3.930      7.383
REMARK  2 active torsions:
REMARK  status: ('A' for Active; 'I' for Inactive)
REMARK    1  A    between atoms: C2_2  and  C3_3 
REMARK    2  A    between atoms: C6_6  and  C7_7 
ROOT
HETATM    1  C3  UNL     1      29.293  -5.670  22.652  1.00  0.00     0.039 A 
HETATM    2  C4  UNL     1      29.507  -5.857  21.288  1.00  0.00     0.041 A 
HETATM    3  C5  UNL     1      30.375  -6.795  20.809  1.00  0.00    -0.009 A 
HETATM    4  C6  UNL     1      30.704  -7.051  19.433  1.00  0.00     0.016 C 
HETATM    5  C12 UNL     1      31.021  -7.542  21.790  1.00  0.00     0.083 A 
HETATM    6 CL1  UNL     1      32.170  -8.794  21.350  1.00  0.00    -0.080 Cl
HETATM    7  C13 UNL     1      30.797  -7.342  23.136  1.00  0.00     0.126 A 
HETATM    8 CL2  UNL     1      31.639  -8.308  24.362  1.00  0.00    -0.063 Cl
HETATM    9  N1  UNL     1      29.938  -6.410  23.540  1.00  0.00    -0.347 N 
ATOM     10  H1  UNL     1      29.777  -6.265  24.537  1.00  0.00     0.167 HD
ENDROOT
BRANCH   1  11
HETATM   11  C2  UNL     1      28.330  -4.622  23.134  1.00  0.00     0.068 C 
HETATM   12  C1  UNL     1      27.944  -3.823  21.886  1.00  0.00     0.045 C 
HETATM   13  C14 UNL     1      27.150  -5.325  23.701  1.00  0.00     0.070 C 
HETATM   14  C15 UNL     1      26.728  -4.869  25.065  1.00  0.00     0.191 C 
HETATM   15  C16 UNL     1      25.946  -3.584  24.952  1.00  0.00     0.037 C 
HETATM   16  N2  UNL     1      27.849  -4.455  25.893  1.00  0.00    -0.050 N 
HETATM   17  C17 UNL     1      27.022  -2.556  24.799  1.00  0.00     0.056 C 
HETATM   18  C18 UNL     1      28.298  -3.281  25.142  1.00  0.00     0.281 C 
HETATM   19  N3  UNL     1      29.023  -3.751  24.008  1.00  0.00    -0.382 N 
ATOM     20  H3  UNL     1      29.990  -3.474  23.837  1.00  0.00     0.156 HD
ATOM     21  H22 UNL     1      27.640  -4.299  26.879  1.00  0.00     0.280 HD
ATOM     22  H21 UNL     1      28.558  -5.167  26.071  1.00  0.00     0.280 HD
ENDBRANCH   1  11
BRANCH   4  23
HETATM   23  C7  UNL     1      30.562  -6.056  18.389  1.00  0.00    -0.079 C 
HETATM   24  C8  UNL     1      31.263  -4.746  18.530  1.00  0.00     0.034 C 
HETATM   25  C9  UNL     1      30.915  -4.058  17.224  1.00  0.00     0.005 C 
HETATM   26  C10 UNL     1      29.578  -4.583  16.830  1.00  0.00     0.005 C 
HETATM   27  C11 UNL     1      29.243  -5.729  17.803  1.00  0.00     0.034 C 
ENDBRANCH   4  23
TORSDOF 2
ENDMDL
MODEL 5
REMARK VINA RESULT: -6.916479341      4.023      7.462
REMARK  2 active torsions:
REMARK  status: ('A' for Active; 'I' for Inactive)
REMARK    1  A    between atoms: C2_2  and  C3_3 
REMARK    2  A    between atoms: C6_6  and  C7_7 
ROOT
HETATM    1  C3  UNL     1      29.802  -5.608  23.067  1.00  0.00     0.039 A 
HETATM    2  C4  UNL     1      29.709  -5.708  21.681  1.00  0.00     0.041 A 
HETATM    3  C5  UNL     1      30.259  -6.747  20.987  1.00  0.00    -0.009 A 
HETATM    4  C6  UNL     1      30.259  -6.934  19.562  1.00  0.00     0.016 C 
HETATM    5  C12 UNL     1      30.912  -7.690  21.775  1.00  0.00     0.083 A 
HETATM    6 CL1  UNL     1      31.674  -9.092  21.046  1.00  0.00    -0.080 Cl
HETATM    7  C13 UNL     1      30.995  -7.574  23.147  1.00  0.00     0.126 A 
HETATM    8 CL2  UNL     1      31.838  -8.791  24.124  1.00  0.00    -0.063 Cl
HETATM    9  N1  UNL     1      30.439  -6.536  23.765  1.00  0.00    -0.347 N 
ATOM     10  H1  UNL     1      30.503  -6.454  24.780  1.00  0.00     0.167 HD
ENDROOT
BRANCH   1  11
HETATM   11  C2  UNL     1      29.184  -4.444  23.789  1.00  0.00     0.068 C 
HETATM   12  C1  UNL     1      30.176  -3.290  23.618  1.00  0.00     0.045 C 
HETATM   13  C14 UNL     1      27.892  -4.138  23.123  1.00  0.00     0.070 C 
HETATM   14  C15 UNL     1      26.714  -4.009  24.040  1.00  0.00     0.191 C 
HETATM   15  C16 UNL     1      26.730  -2.651  24.699  1.00  0.00     0.037 C 
HETATM   16  N2  UNL     1      26.796  -4.891  25.193  1.00  0.00    -0.050 N 
HETATM   17  C17 UNL     1      27.731  -2.830  25.797  1.00  0.00     0.056 C 
HETATM   18  C18 UNL     1      27.961  -4.318  25.868  1.00  0.00     0.281 C 
HETATM   19  N3  UNL     1      29.122  -4.760  25.168  1.00  0.00    -0.382 N 
ATOM     20  H3  UNL     1      29.867  -5.277  25.635  1.00  0.00     0.156 HD
ATOM     21  H22 UNL     1      25.949  -4.969  25.755  1.00  0.00     0.280 HD
ATOM     22  H21 UNL     1      26.848  -5.889  24.986  1.00  0.00     0.280 HD
ENDBRANCH   1  11
BRANCH   4  23
HETATM   23  C7  UNL     1      30.129  -5.839  18.621  1.00  0.00    -0.079 C 
HETATM   24  C8  UNL     1      29.498  -6.090  17.292  1.00  0.00     0.034 C 
HETATM   25  C9  UNL     1      29.495  -4.705  16.676  1.00  0.00     0.005 C 
HETATM   26  C10 UNL     1      30.678  -4.002  17.246  1.00  0.00     0.005 C 
HETATM   27  C11 UNL     1      31.250  -4.911  18.350  1.00  0.00     0.034 C 
ENDBRANCH   4  23
TORSDOF 2
ENDMDL
