MODEL 1
REMARK VINA RESULT: -6.797453438      0.000      0.000
REMARK  5 active torsions:
REMARK  status: ('A' for Active; 'I' for Inactive)
REMARK    1  A    between atoms: C2_2  and  C3_3 
REMARK    2  A    between atoms: C3_3  and  C4_4 
REMARK    3  A    between atoms: C4_4  and  C5_5 
REMARK    4  A    between atoms: C7_7  and  O1_8 
REMARK    5  A    between atoms: C10_12  and  O2_13 
ROOT
HETATM    1  C5  UNL     1      27.565  -3.569  24.064  1.00  0.00     0.025 A 
HETATM    2  C6  UNL     1      27.141  -3.165  22.690  1.00  0.00     0.046 A 
HETATM    3  C7  UNL     1      27.835  -4.094  21.698  1.00  0.00     0.154 A 
HETATM    4  C8  UNL     1      28.700  -4.921  22.574  1.00  0.00     0.004 A 
HETATM    5  C9  UNL     1      28.586  -4.595  23.895  1.00  0.00    -0.009 A 
HETATM    6  C10 UNL     1      29.421  -5.309  24.775  1.00  0.00     0.086 A 
HETATM    7  C11 UNL     1      30.300  -6.283  24.337  1.00  0.00     0.034 A 
HETATM    8  C12 UNL     1      31.099  -6.961  25.240  1.00  0.00    -0.023 A 
HETATM    9  C13 UNL     1      31.065  -6.695  26.682  1.00  0.00     0.051 C 
HETATM   10  C14 UNL     1      31.963  -7.935  24.718  1.00  0.00     0.063 A 
HETATM   11 CL1  UNL     1      33.001  -8.829  25.810  1.00  0.00    -0.082 Cl
HETATM   12  C15 UNL     1      32.045  -8.235  23.383  1.00  0.00     0.028 A 
HETATM   13  C16 UNL     1      32.972  -9.275  22.850  1.00  0.00     0.070 C 
HETATM   14  N1  UNL     1      31.252  -7.551  22.549  1.00  0.00    -0.356 N 
ATOM     15  H1  UNL     1      31.291  -7.750  21.550  1.00  0.00     0.166 HD
HETATM   16  C17 UNL     1      30.394  -6.596  23.002  1.00  0.00     0.068 A 
HETATM   17  C18 UNL     1      29.593  -5.912  22.122  1.00  0.00     0.071 A 
HETATM   18 CL2  UNL     1      29.735  -6.329  20.425  1.00  0.00    -0.081 Cl
ENDROOT
BRANCH   1  19
HETATM   19  C4  UNL     1      26.468  -3.810  25.007  1.00  0.00     0.009 C 
BRANCH  19  20
HETATM   20  C3  UNL     1      25.402  -4.736  24.576  1.00  0.00     0.000 C 
BRANCH  20  21
HETATM   21  C2  UNL     1      25.570  -6.189  24.765  1.00  0.00    -0.005 C 
HETATM   22  C1  UNL     1      24.173  -6.835  24.502  1.00  0.00     0.005 C 
ENDBRANCH  20  21
ENDBRANCH  19  20
ENDBRANCH   1  19
BRANCH   3  23
HETATM   23  O1  UNL     1      28.576  -3.387  20.771  1.00  0.00    -0.391 OA
ATOM     24  H1  UNL     1      29.050  -3.967  20.187  1.00  0.00     0.210 HD
ENDBRANCH   3  23
BRANCH   6  25
HETATM   25  O2  UNL     1      29.363  -5.023  26.096  1.00  0.00    -0.359 OA
ATOM     26  H2  UNL     1      30.029  -4.456  26.468  1.00  0.00     0.217 HD
ENDBRANCH   6  25
TORSDOF 5
ENDMDL
MODEL 2
REMARK VINA RESULT: -6.299958505      3.159      5.801
REMARK  5 active torsions:
REMARK  status: ('A' for Active; 'I' for Inactive)
REMARK    1  A    between atoms: C2_2  and  C3_3 
REMARK    2  A    between atoms: C3_3  and  C4_4 
REMARK    3  A    between atoms: C4_4  and  C5_5 
REMARK    4  A    between atoms: C7_7  and  O1_8 
REMARK    5  A    between atoms: C10_12  and  O2_13 
ROOT
HETATM    1  C5  UNL     1      27.217  -3.588  24.649  1.00  0.00     0.025 A 
HETATM    2  C6  UNL     1      28.657  -3.647  25.040  1.00  0.00     0.046 A 
HETATM    3  C7  UNL     1      29.010  -5.109  25.293  1.00  0.00     0.154 A 
HETATM    4  C8  UNL     1      27.706  -5.795  25.124  1.00  0.00     0.004 A 
HETATM    5  C9  UNL     1      26.691  -4.937  24.810  1.00  0.00    -0.009 A 
HETATM    6  C10 UNL     1      25.415  -5.519  24.686  1.00  0.00     0.086 A 
HETATM    7  C11 UNL     1      25.197  -6.874  24.865  1.00  0.00     0.034 A 
HETATM    8  C12 UNL     1      23.925  -7.401  24.730  1.00  0.00    -0.023 A 
HETATM    9  C13 UNL     1      22.758  -6.577  24.399  1.00  0.00     0.051 C 
HETATM   10  C14 UNL     1      23.787  -8.783  24.925  1.00  0.00     0.063 A 
HETATM   11 CL1  UNL     1      22.202  -9.513  24.768  1.00  0.00    -0.082 Cl
HETATM   12  C15 UNL     1      24.834  -9.612  25.236  1.00  0.00     0.028 A 
HETATM   13  C16 UNL     1      24.663 -11.080  25.440  1.00  0.00     0.070 C 
HETATM   14  N1  UNL     1      26.045  -9.053  25.356  1.00  0.00    -0.356 N 
ATOM     15  H1  UNL     1      26.844  -9.643  25.588  1.00  0.00     0.166 HD
HETATM   16  C17 UNL     1      26.237  -7.718  25.177  1.00  0.00     0.068 A 
HETATM   17  C18 UNL     1      27.491  -7.175  25.307  1.00  0.00     0.071 A 
HETATM   18 CL2  UNL     1      28.798  -8.273  25.707  1.00  0.00    -0.081 Cl
ENDROOT
BRANCH   1  19
HETATM   19  C4  UNL     1      26.939  -2.864  23.405  1.00  0.00     0.009 C 
BRANCH  19  20
HETATM   20  C3  UNL     1      27.201  -3.578  22.138  1.00  0.00     0.000 C 
BRANCH  20  21
HETATM   21  C2  UNL     1      28.588  -3.769  21.676  1.00  0.00    -0.005 C 
HETATM   22  C1  UNL     1      28.826  -5.311  21.615  1.00  0.00     0.005 C 
ENDBRANCH  20  21
ENDBRANCH  19  20
ENDBRANCH   1  19
BRANCH   3  23
HETATM   23  O1  UNL     1      29.522  -5.297  26.562  1.00  0.00    -0.391 OA
ATOM     24  H1  UNL     1      29.247  -6.128  26.931  1.00  0.00     0.210 HD
ENDBRANCH   3  23
BRANCH   6  25
HETATM   25  O2  UNL     1      24.365  -4.719  24.389  1.00  0.00    -0.359 OA
ATOM     26  H2  UNL     1      23.702  -5.044  23.791  1.00  0.00     0.217 HD
ENDBRANCH   6  25
TORSDOF 5
ENDMDL
MODEL 3
REMARK VINA RESULT: -6.116141620      1.178      1.535
REMARK  5 active torsions:
REMARK  status: ('A' for Active; 'I' for Inactive)
REMARK    1  A    between atoms: C2_2  and  C3_3 
REMARK    2  A    between atoms: C3_3  and  C4_4 
REMARK    3  A    between atoms: C4_4  and  C5_5 
REMARK    4  A    between atoms: C7_7  and  O1_8 
REMARK    5  A    between atoms: C10_12  and  O2_13 
ROOT
HETATM    1  C5  UNL     1      28.819  -3.736  23.431  1.00  0.00     0.025 A 
HETATM    2  C6  UNL     1      28.180  -3.345  22.140  1.00  0.00     0.046 A 
HETATM    3  C7  UNL     1      28.418  -4.474  21.142  1.00  0.00     0.154 A 
HETATM    4  C8  UNL     1      29.275  -5.411  21.908  1.00  0.00     0.004 A 
HETATM    5  C9  UNL     1      29.541  -4.975  23.175  1.00  0.00    -0.009 A 
HETATM    6  C10 UNL     1      30.393  -5.796  23.938  1.00  0.00     0.086 A 
HETATM    7  C11 UNL     1      30.928  -6.973  23.444  1.00  0.00     0.034 A 
HETATM    8  C12 UNL     1      31.758  -7.749  24.232  1.00  0.00    -0.023 A 
HETATM    9  C13 UNL     1      32.116  -7.380  25.606  1.00  0.00     0.051 C 
HETATM   10  C14 UNL     1      32.259  -8.927  23.659  1.00  0.00     0.063 A 
HETATM   11 CL1  UNL     1      33.316  -9.953  24.606  1.00  0.00    -0.082 Cl
HETATM   12  C15 UNL     1      31.965  -9.331  22.383  1.00  0.00     0.028 A 
HETATM   13  C16 UNL     1      32.510 -10.590  21.794  1.00  0.00     0.070 C 
HETATM   14  N1  UNL     1      31.157  -8.545  21.660  1.00  0.00    -0.356 N 
ATOM     15  H1  UNL     1      30.921  -8.819  20.706  1.00  0.00     0.166 HD
HETATM   16  C17 UNL     1      30.643  -7.392  22.166  1.00  0.00     0.068 A 
HETATM   17  C18 UNL     1      29.816  -6.608  21.399  1.00  0.00     0.071 A 
HETATM   18 CL2  UNL     1      29.471  -7.165  19.773  1.00  0.00    -0.081 Cl
ENDROOT
BRANCH   1  19
HETATM   19  C4  UNL     1      27.946  -3.655  24.607  1.00  0.00     0.009 C 
BRANCH  19  20
HETATM   20  C3  UNL     1      26.682  -2.907  24.455  1.00  0.00     0.000 C 
BRANCH  20  21
HETATM   21  C2  UNL     1      25.397  -3.631  24.446  1.00  0.00    -0.005 C 
HETATM   22  C1  UNL     1      25.736  -5.139  24.663  1.00  0.00     0.005 C 
ENDBRANCH  20  21
ENDBRANCH  19  20
ENDBRANCH   1  19
BRANCH   3  23
HETATM   23  O1  UNL     1      29.053  -4.020  20.002  1.00  0.00    -0.391 OA
ATOM     24  H1  UNL     1      29.996  -4.112  20.067  1.00  0.00     0.210 HD
ENDBRANCH   3  23
BRANCH   6  25
HETATM   25  O2  UNL     1      30.703  -5.412  25.197  1.00  0.00    -0.359 OA
ATOM     26  H2  UNL     1      31.588  -5.114  25.376  1.00  0.00     0.217 HD
ENDBRANCH   6  25
TORSDOF 5
ENDMDL
MODEL 4
REMARK VINA RESULT: -6.051505113      1.326      1.811
REMARK  5 active torsions:
REMARK  status: ('A' for Active; 'I' for Inactive)
REMARK    1  A    between atoms: C2_2  and  C3_3 
REMARK    2  A    between atoms: C3_3  and  C4_4 
REMARK    3  A    between atoms: C4_4  and  C5_5 
REMARK    4  A    between atoms: C7_7  and  O1_8 
REMARK    5  A    between atoms: C10_12  and  O2_13 
ROOT
HETATM    1  C5  UNL     1      28.493  -3.916  22.324  1.00  0.00     0.025 A 
HETATM    2  C6  UNL     1      28.651  -3.918  20.839  1.00  0.00     0.046 A 
HETATM    3  C7  UNL     1      29.468  -5.150  20.460  1.00  0.00     0.154 A 
HETATM    4  C8  UNL     1      29.815  -5.731  21.779  1.00  0.00     0.004 A 
HETATM    5  C9  UNL     1      29.310  -5.014  22.826  1.00  0.00    -0.009 A 
HETATM    6  C10 UNL     1      29.647  -5.485  24.109  1.00  0.00     0.086 A 
HETATM    7  C11 UNL     1      30.435  -6.605  24.304  1.00  0.00     0.034 A 
HETATM    8  C12 UNL     1      30.738  -7.032  25.585  1.00  0.00    -0.023 A 
HETATM    9  C13 UNL     1      30.255  -6.340  26.785  1.00  0.00     0.051 C 
HETATM   10  C14 UNL     1      31.541  -8.176  25.700  1.00  0.00     0.063 A 
HETATM   11 CL1  UNL     1      31.960  -8.768  27.294  1.00  0.00    -0.082 Cl
HETATM   12  C15 UNL     1      32.026  -8.871  24.622  1.00  0.00     0.028 A 
HETATM   13  C16 UNL     1      32.879 -10.086  24.768  1.00  0.00     0.070 C 
HETATM   14  N1  UNL     1      31.705  -8.417  23.403  1.00  0.00    -0.356 N 
ATOM     15  H1  UNL     1      32.052  -8.911  22.582  1.00  0.00     0.166 HD
HETATM   16  C17 UNL     1      30.929  -7.312  23.234  1.00  0.00     0.068 A 
HETATM   17  C18 UNL     1      30.617  -6.872  21.972  1.00  0.00     0.071 A 
HETATM   18 CL2  UNL     1      31.261  -7.791  20.625  1.00  0.00    -0.081 Cl
ENDROOT
BRANCH   1  19
HETATM   19  C4  UNL     1      27.114  -3.783  22.803  1.00  0.00     0.009 C 
BRANCH  19  20
HETATM   20  C3  UNL     1      26.888  -2.900  23.965  1.00  0.00     0.000 C 
BRANCH  20  21
HETATM   21  C2  UNL     1      25.964  -3.317  25.036  1.00  0.00    -0.005 C 
HETATM   22  C1  UNL     1      25.581  -4.800  24.738  1.00  0.00     0.005 C 
ENDBRANCH  20  21
ENDBRANCH  19  20
ENDBRANCH   1  19
BRANCH   3  23
HETATM   23  O1  UNL     1      30.597  -4.809  19.741  1.00  0.00    -0.391 OA
ATOM     24  H1  UNL     1      31.296  -4.508  20.310  1.00  0.00     0.210 HD
ENDBRANCH   3  23
BRANCH   6  25
HETATM   25  O2  UNL     1      29.187  -4.810  25.187  1.00  0.00    -0.359 OA
ATOM     26  H2  UNL     1      29.611  -4.950  26.026  1.00  0.00     0.217 HD
ENDBRANCH   6  25
TORSDOF 5
ENDMDL
MODEL 5
REMARK VINA RESULT: -6.047499126      2.775      4.315
REMARK  5 active torsions:
REMARK  status: ('A' for Active; 'I' for Inactive)
REMARK    1  A    between atoms: C2_2  and  C3_3 
REMARK    2  A    between atoms: C3_3  and  C4_4 
REMARK    3  A    between atoms: C4_4  and  C5_5 
REMARK    4  A    between atoms: C7_7  and  O1_8 
REMARK    5  A    between atoms: C10_12  and  O2_13 
ROOT
HETATM    1  C5  UNL     1      28.712  -6.106  25.681  1.00  0.00     0.025 A 
HETATM    2  C6  UNL     1      27.853  -5.025  26.251  1.00  0.00     0.046 A 
HETATM    3  C7  UNL     1      27.390  -4.143  25.096  1.00  0.00     0.154 A 
HETATM    4  C8  UNL     1      28.103  -4.724  23.933  1.00  0.00     0.004 A 
HETATM    5  C9  UNL     1      28.882  -5.795  24.268  1.00  0.00    -0.009 A 
HETATM    6  C10 UNL     1      29.627  -6.362  23.216  1.00  0.00     0.086 A 
HETATM    7  C11 UNL     1      29.574  -5.873  21.923  1.00  0.00     0.034 A 
HETATM    8  C12 UNL     1      30.322  -6.466  20.921  1.00  0.00    -0.023 A 
HETATM    9  C13 UNL     1      31.197  -7.618  21.162  1.00  0.00     0.051 C 
HETATM   10  C14 UNL     1      30.213  -5.913  19.636  1.00  0.00     0.063 A 
HETATM   11 CL1  UNL     1      31.134  -6.618  18.324  1.00  0.00    -0.082 Cl
HETATM   12  C15 UNL     1      29.415  -4.839  19.340  1.00  0.00     0.028 A 
HETATM   13  C16 UNL     1      29.315  -4.268  17.965  1.00  0.00     0.070 C 
HETATM   14  N1  UNL     1      28.711  -4.301  20.345  1.00  0.00    -0.356 N 
ATOM     15  H1  UNL     1      28.110  -3.499  20.156  1.00  0.00     0.166 HD
HETATM   16  C17 UNL     1      28.779  -4.797  21.610  1.00  0.00     0.068 A 
HETATM   17  C18 UNL     1      28.045  -4.223  22.618  1.00  0.00     0.071 A 
HETATM   18 CL2  UNL     1      27.041  -2.850  22.192  1.00  0.00    -0.081 Cl
ENDROOT
BRANCH   1  19
HETATM   19  C4  UNL     1      28.334  -7.469  26.066  1.00  0.00     0.009 C 
BRANCH  19  20
HETATM   20  C3  UNL     1      26.890  -7.775  26.124  1.00  0.00     0.000 C 
BRANCH  20  21
HETATM   21  C2  UNL     1      26.178  -8.192  24.902  1.00  0.00    -0.005 C 
HETATM   22  C1  UNL     1      25.112  -7.089  24.613  1.00  0.00     0.005 C 
ENDBRANCH  20  21
ENDBRANCH  19  20
ENDBRANCH   1  19
BRANCH   3  23
HETATM   23  O1  UNL     1      27.736  -2.821  25.296  1.00  0.00    -0.391 OA
ATOM     24  H1  UNL     1      27.331  -2.252  24.652  1.00  0.00     0.210 HD
ENDBRANCH   3  23
BRANCH   6  25
HETATM   25  O2  UNL     1      30.428  -7.417  23.487  1.00  0.00    -0.359 OA
ATOM     26  H2  UNL     1      30.114  -8.291  23.283  1.00  0.00     0.217 HD
ENDBRANCH   6  25
TORSDOF 5
ENDMDL
