MODEL 1
REMARK VINA RESULT: -7.124306052      0.000      0.000
REMARK  6 active torsions:
REMARK  status: ('A' for Active; 'I' for Inactive)
REMARK    1  A    between atoms: C9_9  and  O1_10 
REMARK    2  A    between atoms: O1_10  and  C10_11 
REMARK    3  A    between atoms: C10_11  and  C11_12 
REMARK    4  A    between atoms: C11_12  and  O2_13 
REMARK    5  A    between atoms: C18_21  and  O3_23 
REMARK    6  A    between atoms: C20_25  and  O4_26 
ROOT
HETATM    1  C1  UNL     1      26.765  -3.077  21.779  1.00  0.00     0.010 C 
HETATM    2  C2  UNL     1      26.966  -3.511  23.187  1.00  0.00    -0.013 C 
HETATM    3  C3  UNL     1      25.518  -3.693  23.685  1.00  0.00     0.005 C 
HETATM    4  C4  UNL     1      25.327  -4.352  24.971  1.00  0.00     0.001 C 
HETATM    5  C5  UNL     1      26.306  -5.429  25.340  1.00  0.00     0.010 C 
HETATM    6  C6  UNL     1      27.708  -4.973  24.903  1.00  0.00    -0.037 C 
HETATM    7  C7  UNL     1      27.950  -3.690  25.667  1.00  0.00     0.015 C 
HETATM    8  C8  UNL     1      28.643  -6.002  25.431  1.00  0.00     0.042 C 
HETATM    9  C9  UNL     1      29.971  -5.753  24.791  1.00  0.00     0.127 C 
HETATM   10  C12 UNL     1      29.888  -6.003  23.313  1.00  0.00     0.032 C 
HETATM   11  C13 UNL     1      28.931  -5.065  22.661  1.00  0.00    -0.033 C 
HETATM   12  C14 UNL     1      29.663  -3.725  22.471  1.00  0.00     0.016 C 
HETATM   13  C15 UNL     1      28.609  -5.580  21.292  1.00  0.00     0.010 C 
HETATM   14  C16 UNL     1      29.545  -6.476  20.607  1.00  0.00     0.009 C 
HETATM   15  C17 UNL     1      30.472  -7.313  21.410  1.00  0.00     0.031 C 
HETATM   16  C18 UNL     1      30.920  -8.562  20.787  1.00  0.00     0.084 C 
HETATM   17  C19 UNL     1      32.253  -8.291  20.046  1.00  0.00     0.049 C 
HETATM   18  C20 UNL     1      31.066  -9.776  21.594  1.00  0.00     0.152 C 
HETATM   19  C21 UNL     1      31.048  -9.627  23.070  1.00  0.00     0.035 C 
HETATM   20  C22 UNL     1      30.828  -8.255  23.612  1.00  0.00     0.012 C 
HETATM   21  C23 UNL     1      29.873  -7.404  22.824  1.00  0.00    -0.031 C 
HETATM   22  C24 UNL     1      28.595  -8.117  22.714  1.00  0.00     0.016 C 
HETATM   23  C25 UNL     1      27.662  -4.799  23.424  1.00  0.00     0.006 C 
ENDROOT
BRANCH   9  24
HETATM   24  O1  UNL     1      31.053  -6.241  25.447  1.00  0.00    -0.383 OA
BRANCH  24  25
HETATM   25  C10 UNL     1      30.854  -6.520  26.797  1.00  0.00     0.194 C 
BRANCH  25  26
HETATM   26  C11 UNL     1      32.116  -6.448  27.589  1.00  0.00     0.190 C 
BRANCH  26  27
HETATM   27  O2  UNL     1      32.979  -5.554  26.964  1.00  0.00    -0.399 OA
ATOM     28  H2  UNL     1      33.842  -5.647  27.351  1.00  0.00     0.209 HD
ENDBRANCH  26  27
ENDBRANCH  25  26
ENDBRANCH  24  25
ENDBRANCH   9  24
BRANCH  16  29
HETATM   29  O3  UNL     1      30.053  -8.834  19.696  1.00  0.00    -0.387 OA
ATOM     30  H3  UNL     1      30.561  -8.758  18.898  1.00  0.00     0.210 HD
ENDBRANCH  16  29
BRANCH  18  31
HETATM   31  O4  UNL     1      30.165 -10.789  21.159  1.00  0.00    -0.393 OA
ATOM     32  H4  UNL     1      29.727 -11.194  21.899  1.00  0.00     0.210 HD
ENDBRANCH  18  31
TORSDOF 6
ENDMDL
MODEL 2
REMARK VINA RESULT: -7.088354967      1.318      1.676
REMARK  6 active torsions:
REMARK  status: ('A' for Active; 'I' for Inactive)
REMARK    1  A    between atoms: C9_9  and  O1_10 
REMARK    2  A    between atoms: O1_10  and  C10_11 
REMARK    3  A    between atoms: C10_11  and  C11_12 
REMARK    4  A    between atoms: C11_12  and  O2_13 
REMARK    5  A    between atoms: C18_21  and  O3_23 
REMARK    6  A    between atoms: C20_25  and  O4_26 
ROOT
HETATM    1  C1  UNL     1      26.091  -2.804  22.194  1.00  0.00     0.010 C 
HETATM    2  C2  UNL     1      26.336  -3.790  23.279  1.00  0.00    -0.013 C 
HETATM    3  C3  UNL     1      24.920  -4.331  23.560  1.00  0.00     0.005 C 
HETATM    4  C4  UNL     1      24.804  -5.507  24.413  1.00  0.00     0.001 C 
HETATM    5  C5  UNL     1      25.907  -6.522  24.330  1.00  0.00     0.010 C 
HETATM    6  C6  UNL     1      27.244  -5.770  24.223  1.00  0.00    -0.037 C 
HETATM    7  C7  UNL     1      27.321  -4.940  25.484  1.00  0.00     0.015 C 
HETATM    8  C8  UNL     1      28.297  -6.819  24.301  1.00  0.00     0.042 C 
HETATM    9  C9  UNL     1      29.588  -6.170  23.916  1.00  0.00     0.127 C 
HETATM   10  C12 UNL     1      29.544  -5.748  22.475  1.00  0.00     0.032 C 
HETATM   11  C13 UNL     1      28.482  -4.728  22.244  1.00  0.00    -0.033 C 
HETATM   12  C14 UNL     1      29.044  -3.372  22.705  1.00  0.00     0.016 C 
HETATM   13  C15 UNL     1      28.234  -4.617  20.771  1.00  0.00     0.010 C 
HETATM   14  C16 UNL     1      29.277  -5.009  19.821  1.00  0.00     0.009 C 
HETATM   15  C17 UNL     1      30.297  -6.009  20.230  1.00  0.00     0.031 C 
HETATM   16  C18 UNL     1      30.899  -6.797  19.150  1.00  0.00     0.084 C 
HETATM   17  C19 UNL     1      32.193  -6.084  18.684  1.00  0.00     0.049 C 
HETATM   18  C20 UNL     1      31.191  -8.219  19.351  1.00  0.00     0.152 C 
HETATM   19  C21 UNL     1      31.145  -8.740  20.739  1.00  0.00     0.035 C 
HETATM   20  C22 UNL     1      30.754  -7.783  21.813  1.00  0.00     0.012 C 
HETATM   21  C23 UNL     1      29.706  -6.780  21.422  1.00  0.00    -0.031 C 
HETATM   22  C24 UNL     1      28.527  -7.505  20.935  1.00  0.00     0.016 C 
HETATM   23  C25 UNL     1      27.186  -4.967  22.969  1.00  0.00     0.006 C 
ENDROOT
BRANCH   9  24
HETATM   24  O1  UNL     1      30.718  -6.776  24.354  1.00  0.00    -0.383 OA
BRANCH  24  25
HETATM   25  C10 UNL     1      30.846  -6.864  25.739  1.00  0.00     0.194 C 
BRANCH  25  26
HETATM   26  C11 UNL     1      32.270  -6.905  26.181  1.00  0.00     0.190 C 
BRANCH  26  27
HETATM   27  O2  UNL     1      32.651  -5.622  26.561  1.00  0.00    -0.399 OA
ATOM     28  H2  UNL     1      32.794  -5.615  27.500  1.00  0.00     0.209 HD
ENDBRANCH  26  27
ENDBRANCH  25  26
ENDBRANCH  24  25
ENDBRANCH   9  24
BRANCH  16  29
HETATM   29  O3  UNL     1      30.079  -6.651  18.000  1.00  0.00    -0.387 OA
ATOM     30  H3  UNL     1      30.224  -7.407  17.445  1.00  0.00     0.210 HD
ENDBRANCH  16  29
BRANCH  18  31
HETATM   31  O4  UNL     1      30.424  -9.026  18.464  1.00  0.00    -0.393 OA
ATOM     32  H4  UNL     1      30.848  -9.863  18.314  1.00  0.00     0.210 HD
ENDBRANCH  18  31
TORSDOF 6
ENDMDL
MODEL 3
REMARK VINA RESULT: -6.996174411      2.859      4.042
REMARK  6 active torsions:
REMARK  status: ('A' for Active; 'I' for Inactive)
REMARK    1  A    between atoms: C9_9  and  O1_10 
REMARK    2  A    between atoms: O1_10  and  C10_11 
REMARK    3  A    between atoms: C10_11  and  C11_12 
REMARK    4  A    between atoms: C11_12  and  O2_13 
REMARK    5  A    between atoms: C18_21  and  O3_23 
REMARK    6  A    between atoms: C20_25  and  O4_26 
ROOT
HETATM    1  C1  UNL     1      28.125  -4.593  21.126  1.00  0.00     0.010 C 
HETATM    2  C2  UNL     1      27.751  -3.983  22.429  1.00  0.00    -0.013 C 
HETATM    3  C3  UNL     1      26.612  -3.024  22.029  1.00  0.00     0.005 C 
HETATM    4  C4  UNL     1      25.829  -2.423  23.101  1.00  0.00     0.001 C 
HETATM    5  C5  UNL     1      25.609  -3.251  24.333  1.00  0.00     0.010 C 
HETATM    6  C6  UNL     1      26.916  -3.996  24.651  1.00  0.00    -0.037 C 
HETATM    7  C7  UNL     1      27.938  -2.903  24.868  1.00  0.00     0.015 C 
HETATM    8  C8  UNL     1      26.683  -4.669  25.957  1.00  0.00     0.042 C 
HETATM    9  C9  UNL     1      27.812  -5.627  26.161  1.00  0.00     0.127 C 
HETATM   10  C12 UNL     1      27.759  -6.717  25.130  1.00  0.00     0.032 C 
HETATM   11  C13 UNL     1      27.925  -6.166  23.754  1.00  0.00    -0.033 C 
HETATM   12  C14 UNL     1      29.430  -5.928  23.538  1.00  0.00     0.016 C 
HETATM   13  C15 UNL     1      27.505  -7.208  22.764  1.00  0.00     0.010 C 
HETATM   14  C16 UNL     1      27.526  -8.624  23.137  1.00  0.00     0.009 C 
HETATM   15  C17 UNL     1      27.397  -9.004  24.567  1.00  0.00     0.031 C 
HETATM   16  C18 UNL     1      26.829 -10.329  24.835  1.00  0.00     0.084 C 
HETATM   17  C19 UNL     1      27.991 -11.345  24.961  1.00  0.00     0.049 C 
HETATM   18  C20 UNL     1      25.910 -10.521  25.960  1.00  0.00     0.152 C 
HETATM   19  C21 UNL     1      25.822  -9.437  26.969  1.00  0.00     0.035 C 
HETATM   20  C22 UNL     1      26.640  -8.214  26.727  1.00  0.00     0.012 C 
HETATM   21  C23 UNL     1      26.760  -7.803  25.286  1.00  0.00    -0.031 C 
HETATM   22  C24 UNL     1      25.410  -7.628  24.738  1.00  0.00     0.016 C 
HETATM   23  C25 UNL     1      27.205  -4.874  23.482  1.00  0.00     0.006 C 
ENDROOT
BRANCH   9  24
HETATM   24  O1  UNL     1      28.064  -5.993  27.442  1.00  0.00    -0.383 OA
BRANCH  24  25
HETATM   25  C10 UNL     1      29.383  -6.353  27.709  1.00  0.00     0.194 C 
BRANCH  25  26
HETATM   26  C11 UNL     1      29.526  -7.092  28.997  1.00  0.00     0.190 C 
BRANCH  26  27
HETATM   27  O2  UNL     1      28.486  -6.714  29.841  1.00  0.00    -0.399 OA
ATOM     28  H2  UNL     1      27.665  -6.980  29.446  1.00  0.00     0.209 HD
ENDBRANCH  26  27
ENDBRANCH  25  26
ENDBRANCH  24  25
ENDBRANCH   9  24
BRANCH  16  29
HETATM   29  O3  UNL     1      26.201 -10.778  23.644  1.00  0.00    -0.387 OA
ATOM     30  H3  UNL     1      26.557 -10.274  22.922  1.00  0.00     0.210 HD
ENDBRANCH  16  29
BRANCH  18  31
HETATM   31  O4  UNL     1      24.621 -10.916  25.503  1.00  0.00    -0.393 OA
ATOM     32  H4  UNL     1      24.385 -10.450  24.709  1.00  0.00     0.210 HD
ENDBRANCH  18  31
TORSDOF 6
ENDMDL
MODEL 4
REMARK VINA RESULT: -6.839728057      2.588      6.636
REMARK  6 active torsions:
REMARK  status: ('A' for Active; 'I' for Inactive)
REMARK    1  A    between atoms: C9_9  and  O1_10 
REMARK    2  A    between atoms: O1_10  and  C10_11 
REMARK    3  A    between atoms: C10_11  and  C11_12 
REMARK    4  A    between atoms: C11_12  and  O2_13 
REMARK    5  A    between atoms: C18_21  and  O3_23 
REMARK    6  A    between atoms: C20_25  and  O4_26 
ROOT
HETATM    1  C1  UNL     1      29.879  -9.758  24.661  1.00  0.00     0.010 C 
HETATM    2  C2  UNL     1      29.832  -9.502  23.197  1.00  0.00    -0.013 C 
HETATM    3  C3  UNL     1      29.078 -10.739  22.670  1.00  0.00     0.005 C 
HETATM    4  C4  UNL     1      28.631 -10.715  21.283  1.00  0.00     0.001 C 
HETATM    5  C5  UNL     1      28.218  -9.386  20.721  1.00  0.00     0.010 C 
HETATM    6  C6  UNL     1      29.199  -8.320  21.238  1.00  0.00    -0.037 C 
HETATM    7  C7  UNL     1      30.552  -8.764  20.729  1.00  0.00     0.015 C 
HETATM    8  C8  UNL     1      28.833  -7.065  20.529  1.00  0.00     0.042 C 
HETATM    9  C9  UNL     1      29.565  -5.952  21.207  1.00  0.00     0.127 C 
HETATM   10  C12 UNL     1      29.063  -5.783  22.612  1.00  0.00     0.032 C 
HETATM   11  C13 UNL     1      29.318  -7.005  23.427  1.00  0.00    -0.033 C 
HETATM   12  C14 UNL     1      30.792  -6.959  23.866  1.00  0.00     0.016 C 
HETATM   13  C15 UNL     1      28.492  -6.934  24.674  1.00  0.00     0.010 C 
HETATM   14  C16 UNL     1      28.041  -5.635  25.180  1.00  0.00     0.009 C 
HETATM   15  C17 UNL     1      27.884  -4.499  24.237  1.00  0.00     0.031 C 
HETATM   16  C18 UNL     1      26.906  -3.474  24.616  1.00  0.00     0.084 C 
HETATM   17  C19 UNL     1      27.643  -2.357  25.396  1.00  0.00     0.049 C 
HETATM   18  C20 UNL     1      26.056  -2.854  23.595  1.00  0.00     0.152 C 
HETATM   19  C21 UNL     1      26.423  -3.067  22.174  1.00  0.00     0.035 C 
HETATM   20  C22 UNL     1      27.601  -3.940  21.898  1.00  0.00     0.012 C 
HETATM   21  C23 UNL     1      27.759  -5.108  22.830  1.00  0.00    -0.031 C 
HETATM   22  C24 UNL     1      26.523  -5.898  22.801  1.00  0.00     0.016 C 
HETATM   23  C25 UNL     1      29.081  -8.313  22.724  1.00  0.00     0.006 C 
ENDROOT
BRANCH   9  24
HETATM   24  O1  UNL     1      29.758  -4.828  20.474  1.00  0.00    -0.383 OA
BRANCH  24  25
HETATM   25  C10 UNL     1      30.392  -5.020  19.248  1.00  0.00     0.194 C 
BRANCH  25  26
HETATM   26  C11 UNL     1      29.642  -4.407  18.113  1.00  0.00     0.190 C 
BRANCH  26  27
HETATM   27  O2  UNL     1      29.614  -3.028  18.296  1.00  0.00    -0.399 OA
ATOM     28  H2  UNL     1      28.709  -2.754  18.384  1.00  0.00     0.209 HD
ENDBRANCH  26  27
ENDBRANCH  25  26
ENDBRANCH  24  25
ENDBRANCH   9  24
BRANCH  16  29
HETATM   29  O3  UNL     1      26.081  -4.021  25.634  1.00  0.00    -0.387 OA
ATOM     30  H3  UNL     1      25.392  -3.393  25.814  1.00  0.00     0.210 HD
ENDBRANCH  16  29
BRANCH  18  31
HETATM   31  O4  UNL     1      24.683  -3.146  23.830  1.00  0.00    -0.393 OA
ATOM     32  H4  UNL     1      24.126  -2.453  23.495  1.00  0.00     0.210 HD
ENDBRANCH  18  31
TORSDOF 6
ENDMDL
MODEL 5
REMARK VINA RESULT: -6.801721198      1.600      1.823
REMARK  6 active torsions:
REMARK  status: ('A' for Active; 'I' for Inactive)
REMARK    1  A    between atoms: C9_9  and  O1_10 
REMARK    2  A    between atoms: O1_10  and  C10_11 
REMARK    3  A    between atoms: C10_11  and  C11_12 
REMARK    4  A    between atoms: C11_12  and  O2_13 
REMARK    5  A    between atoms: C18_21  and  O3_23 
REMARK    6  A    between atoms: C20_25  and  O4_26 
ROOT
HETATM    1  C1  UNL     1      27.432  -3.148  21.470  1.00  0.00     0.010 C 
HETATM    2  C2  UNL     1      27.009  -3.425  22.868  1.00  0.00    -0.013 C 
HETATM    3  C3  UNL     1      25.472  -3.443  22.751  1.00  0.00     0.005 C 
HETATM    4  C4  UNL     1      24.715  -3.929  23.897  1.00  0.00     0.001 C 
HETATM    5  C5  UNL     1      25.339  -5.023  24.715  1.00  0.00     0.010 C 
HETATM    6  C6  UNL     1      26.842  -4.724  24.849  1.00  0.00    -0.037 C 
HETATM    7  C7  UNL     1      26.906  -3.380  25.540  1.00  0.00     0.015 C 
HETATM    8  C8  UNL     1      27.369  -5.748  25.790  1.00  0.00     0.042 C 
HETATM    9  C9  UNL     1      28.860  -5.673  25.724  1.00  0.00     0.127 C 
HETATM   10  C12 UNL     1      29.340  -6.090  24.364  1.00  0.00     0.032 C 
HETATM   11  C13 UNL     1      28.832  -5.169  23.308  1.00  0.00    -0.033 C 
HETATM   12  C14 UNL     1      29.727  -3.917  23.325  1.00  0.00     0.016 C 
HETATM   13  C15 UNL     1      29.020  -5.818  21.971  1.00  0.00     0.010 C 
HETATM   14  C16 UNL     1      30.042  -6.853  21.797  1.00  0.00     0.009 C 
HETATM   15  C17 UNL     1      30.475  -7.654  22.971  1.00  0.00     0.031 C 
HETATM   16  C18 UNL     1      30.988  -8.997  22.683  1.00  0.00     0.084 C 
HETATM   17  C19 UNL     1      32.527  -8.913  22.527  1.00  0.00     0.049 C 
HETATM   18  C20 UNL     1      30.664 -10.115  23.574  1.00  0.00     0.152 C 
HETATM   19  C21 UNL     1      30.081  -9.791  24.899  1.00  0.00     0.035 C 
HETATM   20  C22 UNL     1      29.823  -8.352  25.195  1.00  0.00     0.012 C 
HETATM   21  C23 UNL     1      29.361  -7.534  24.023  1.00  0.00    -0.031 C 
HETATM   22  C24 UNL     1      28.158  -8.161  23.463  1.00  0.00     0.016 C 
HETATM   23  C25 UNL     1      27.404  -4.724  23.469  1.00  0.00     0.006 C 
ENDROOT
BRANCH   9  24
HETATM   24  O1  UNL     1      29.532  -6.157  26.798  1.00  0.00    -0.383 OA
BRANCH  24  25
HETATM   25  C10 UNL     1      28.743  -6.462  27.905  1.00  0.00     0.194 C 
BRANCH  25  26
HETATM   26  C11 UNL     1      29.529  -7.062  29.021  1.00  0.00     0.190 C 
BRANCH  26  27
HETATM   27  O2  UNL     1      29.001  -6.609  30.227  1.00  0.00    -0.399 OA
ATOM     28  H2  UNL     1      28.864  -7.357  30.796  1.00  0.00     0.209 HD
ENDBRANCH  26  27
ENDBRANCH  25  26
ENDBRANCH  24  25
ENDBRANCH   9  24
BRANCH  16  29
HETATM   29  O3  UNL     1      30.597  -9.334  21.360  1.00  0.00    -0.387 OA
ATOM     30  H3  UNL     1      30.560 -10.281  21.302  1.00  0.00     0.210 HD
ENDBRANCH  16  29
BRANCH  18  31
HETATM   31  O4  UNL     1      29.899 -11.104  22.893  1.00  0.00    -0.393 OA
ATOM     32  H4  UNL     1      30.271 -11.293  22.040  1.00  0.00     0.210 HD
ENDBRANCH  18  31
TORSDOF 6
ENDMDL
