MODEL 1
REMARK VINA RESULT: -6.560986248      0.000      0.000
REMARK  7 active torsions:
REMARK  status: ('A' for Active; 'I' for Inactive)
REMARK    1  A    between atoms: C2_2  and  C4_4 
REMARK    2  A    between atoms: C10_10  and  O1_11 
REMARK    3  A    between atoms: C11_13  and  C12_14 
REMARK    4  A    between atoms: C12_14  and  O2_15 
REMARK    5  A    between atoms: O2_15  and  C13_16 
REMARK    6  A    between atoms: C14_19  and  O5_20 
REMARK    7  A    between atoms: C18_25  and  C19_26 
ROOT
HETATM    1  C4  UNL     1      27.609  -3.487  24.071  1.00  0.00     0.022 C 
HETATM    2  C5  UNL     1      27.546  -3.598  25.585  1.00  0.00     0.010 C 
HETATM    3  C6  UNL     1      27.407  -5.070  25.924  1.00  0.00     0.006 C 
HETATM    4  C7  UNL     1      27.193  -5.715  24.622  1.00  0.00    -0.001 C 
HETATM    5  C8  UNL     1      27.603  -7.188  24.578  1.00  0.00     0.002 C 
HETATM    6  C9  UNL     1      26.782  -7.890  25.585  1.00  0.00     0.038 C 
HETATM    7  C10 UNL     1      25.868  -8.976  25.162  1.00  0.00     0.132 C 
HETATM    8  C11 UNL     1      25.430  -8.963  23.746  1.00  0.00     0.038 C 
HETATM    9  C14 UNL     1      25.307 -10.445  23.311  1.00  0.00     0.131 C 
HETATM   10  C15 UNL     1      25.326 -10.343  21.816  1.00  0.00     0.033 C 
HETATM   11  C16 UNL     1      26.498  -9.363  21.636  1.00  0.00     0.009 C 
HETATM   12  C17 UNL     1      26.342  -8.374  22.760  1.00  0.00     0.010 C 
HETATM   13  C18 UNL     1      27.644  -7.771  23.214  1.00  0.00    -0.032 C 
HETATM   14  C21 UNL     1      28.003  -6.750  22.120  1.00  0.00     0.011 C 
HETATM   15  C22 UNL     1      27.555  -5.353  22.349  1.00  0.00     0.011 C 
HETATM   16  C23 UNL     1      27.995  -4.861  23.678  1.00  0.00    -0.033 C 
HETATM   17  C24 UNL     1      29.479  -4.976  23.919  1.00  0.00     0.016 C 
ENDROOT
BRANCH   8  18
HETATM   18  C12 UNL     1      23.987  -8.509  23.603  1.00  0.00     0.197 C 
BRANCH  18  19
HETATM   19  O2  UNL     1      23.871  -7.225  23.008  1.00  0.00    -0.295 OA
BRANCH  19  20
HETATM   20  C13 UNL     1      23.536  -6.123  23.800  1.00  0.00     0.332 C 
HETATM   21  O3  UNL     1      23.326  -6.350  25.019  1.00  0.00    -0.624 OA
HETATM   22  O4  UNL     1      23.428  -4.835  23.328  1.00  0.00    -0.624 OA
ENDBRANCH  19  20
ENDBRANCH  18  19
ENDBRANCH   8  18
BRANCH   7  23
HETATM   23  O1  UNL     1      24.682  -8.937  25.948  1.00  0.00    -0.395 OA
ATOM     24  H1  UNL     1      24.039  -9.537  25.587  1.00  0.00     0.210 HD
ENDBRANCH   7  23
BRANCH   9  25
HETATM   25  O5  UNL     1      24.092 -10.993  23.751  1.00  0.00    -0.395 OA
ATOM     26  H5  UNL     1      23.812 -11.695  23.176  1.00  0.00     0.210 HD
ENDBRANCH   9  25
BRANCH  13  27
HETATM   27  C19 UNL     1      28.845  -8.689  23.092  1.00  0.00     0.006 C 
HETATM   28  C20 UNL     1      30.039  -8.285  22.393  1.00  0.00     0.006 C 
ENDBRANCH  13  27
BRANCH   1  29
HETATM   29  C2  UNL     1      26.415  -2.893  23.492  1.00  0.00    -0.088 C 
HETATM   30  C1  UNL     1      25.472  -2.461  24.369  1.00  0.00     0.014 C 
HETATM   31  C3  UNL     1      26.064  -2.725  22.077  1.00  0.00     0.043 C 
ENDBRANCH   1  29
TORSDOF 7
ENDMDL
MODEL 2
REMARK VINA RESULT: -6.426035288      2.523      4.961
REMARK  7 active torsions:
REMARK  status: ('A' for Active; 'I' for Inactive)
REMARK    1  A    between atoms: C2_2  and  C4_4 
REMARK    2  A    between atoms: C10_10  and  O1_11 
REMARK    3  A    between atoms: C11_13  and  C12_14 
REMARK    4  A    between atoms: C12_14  and  O2_15 
REMARK    5  A    between atoms: O2_15  and  C13_16 
REMARK    6  A    between atoms: C14_19  and  O5_20 
REMARK    7  A    between atoms: C18_25  and  C19_26 
ROOT
HETATM    1  C4  UNL     1      30.910  -7.617  25.463  1.00  0.00     0.022 C 
HETATM    2  C5  UNL     1      30.151  -8.932  25.539  1.00  0.00     0.010 C 
HETATM    3  C6  UNL     1      28.874  -8.761  24.739  1.00  0.00     0.006 C 
HETATM    4  C7  UNL     1      28.848  -7.329  24.413  1.00  0.00    -0.001 C 
HETATM    5  C8  UNL     1      28.035  -6.987  23.162  1.00  0.00     0.002 C 
HETATM    6  C9  UNL     1      26.650  -7.431  23.418  1.00  0.00     0.038 C 
HETATM    7  C10 UNL     1      25.548  -6.442  23.411  1.00  0.00     0.132 C 
HETATM    8  C11 UNL     1      25.918  -5.030  23.666  1.00  0.00     0.038 C 
HETATM    9  C14 UNL     1      24.973  -4.164  22.797  1.00  0.00     0.131 C 
HETATM   10  C15 UNL     1      25.692  -2.851  22.750  1.00  0.00     0.033 C 
HETATM   11  C16 UNL     1      27.119  -3.345  22.452  1.00  0.00     0.009 C 
HETATM   12  C17 UNL     1      27.264  -4.601  23.270  1.00  0.00     0.010 C 
HETATM   13  C18 UNL     1      28.220  -5.598  22.674  1.00  0.00    -0.032 C 
HETATM   14  C21 UNL     1      29.617  -5.024  22.971  1.00  0.00     0.011 C 
HETATM   15  C22 UNL     1      30.275  -5.499  24.215  1.00  0.00     0.011 C 
HETATM   16  C23 UNL     1      30.304  -6.981  24.271  1.00  0.00    -0.033 C 
HETATM   17  C24 UNL     1      30.937  -7.633  23.069  1.00  0.00     0.016 C 
ENDROOT
BRANCH   8  18
HETATM   18  C12 UNL     1      25.510  -4.579  25.059  1.00  0.00     0.197 C 
BRANCH  18  19
HETATM   19  O2  UNL     1      26.104  -3.345  25.434  1.00  0.00    -0.295 OA
BRANCH  19  20
HETATM   20  C13 UNL     1      27.325  -3.344  26.114  1.00  0.00     0.332 C 
HETATM   21  O3  UNL     1      27.947  -2.252  26.152  1.00  0.00    -0.624 OA
HETATM   22  O4  UNL     1      27.868  -4.448  26.731  1.00  0.00    -0.624 OA
ENDBRANCH  19  20
ENDBRANCH  18  19
ENDBRANCH   8  18
BRANCH   7  23
HETATM   23  O1  UNL     1      24.586  -6.789  24.403  1.00  0.00    -0.395 OA
ATOM     24  H1  UNL     1      23.947  -6.091  24.486  1.00  0.00     0.210 HD
ENDBRANCH   7  23
BRANCH   9  25
HETATM   25  O5  UNL     1      23.722  -4.017  23.418  1.00  0.00    -0.395 OA
ATOM     26  H5  UNL     1      23.134  -3.506  22.874  1.00  0.00     0.210 HD
ENDBRANCH   9  25
BRANCH  13  27
HETATM   27  C19 UNL     1      28.276  -5.597  21.159  1.00  0.00     0.006 C 
HETATM   28  C20 UNL     1      29.502  -5.341  20.446  1.00  0.00     0.006 C 
ENDBRANCH  13  27
BRANCH   1  29
HETATM   29  C2  UNL     1      30.924  -6.892  26.724  1.00  0.00    -0.088 C 
HETATM   30  C1  UNL     1      32.098  -6.297  27.061  1.00  0.00     0.014 C 
HETATM   31  C3  UNL     1      29.849  -6.741  27.710  1.00  0.00     0.043 C 
ENDBRANCH   1  29
TORSDOF 7
ENDMDL
MODEL 3
REMARK VINA RESULT: -6.331687527      1.717      2.365
REMARK  7 active torsions:
REMARK  status: ('A' for Active; 'I' for Inactive)
REMARK    1  A    between atoms: C2_2  and  C4_4 
REMARK    2  A    between atoms: C10_10  and  O1_11 
REMARK    3  A    between atoms: C11_13  and  C12_14 
REMARK    4  A    between atoms: C12_14  and  O2_15 
REMARK    5  A    between atoms: O2_15  and  C13_16 
REMARK    6  A    between atoms: C14_19  and  O5_20 
REMARK    7  A    between atoms: C18_25  and  C19_26 
ROOT
HETATM    1  C4  UNL     1      27.365  -3.099  23.748  1.00  0.00     0.022 C 
HETATM    2  C5  UNL     1      27.346  -2.594  25.182  1.00  0.00     0.010 C 
HETATM    3  C6  UNL     1      27.724  -3.760  26.075  1.00  0.00     0.006 C 
HETATM    4  C7  UNL     1      27.744  -4.913  25.164  1.00  0.00    -0.001 C 
HETATM    5  C8  UNL     1      28.637  -6.064  25.632  1.00  0.00     0.002 C 
HETATM    6  C9  UNL     1      28.110  -6.512  26.936  1.00  0.00     0.038 C 
HETATM    7  C10 UNL     1      27.626  -7.903  27.096  1.00  0.00     0.132 C 
HETATM    8  C11 UNL     1      27.209  -8.609  25.861  1.00  0.00     0.038 C 
HETATM    9  C14 UNL     1      27.606 -10.094  26.049  1.00  0.00     0.131 C 
HETATM   10  C15 UNL     1      27.587 -10.612  24.644  1.00  0.00     0.033 C 
HETATM   11  C16 UNL     1      28.348  -9.478  23.937  1.00  0.00     0.009 C 
HETATM   12  C17 UNL     1      27.862  -8.220  24.606  1.00  0.00     0.010 C 
HETATM   13  C18 UNL     1      28.876  -7.108  24.604  1.00  0.00    -0.032 C 
HETATM   14  C21 UNL     1      28.860  -6.567  23.164  1.00  0.00     0.011 C 
HETATM   15  C22 UNL     1      27.957  -5.418  22.900  1.00  0.00     0.011 C 
HETATM   16  C23 UNL     1      28.202  -4.315  23.862  1.00  0.00    -0.033 C 
HETATM   17  C24 UNL     1      29.634  -3.848  23.915  1.00  0.00     0.016 C 
ENDROOT
BRANCH   8  18
HETATM   18  C12 UNL     1      25.698  -8.732  25.760  1.00  0.00     0.197 C 
BRANCH  18  19
HETATM   19  O2  UNL     1      25.073  -7.521  25.362  1.00  0.00    -0.295 OA
BRANCH  19  20
HETATM   20  C13 UNL     1      23.731  -7.531  24.973  1.00  0.00     0.332 C 
HETATM   21  O3  UNL     1      23.265  -8.634  24.588  1.00  0.00    -0.624 OA
HETATM   22  O4  UNL     1      22.912  -6.425  24.990  1.00  0.00    -0.624 OA
ENDBRANCH  19  20
ENDBRANCH  18  19
ENDBRANCH   8  18
BRANCH   7  23
HETATM   23  O1  UNL     1      26.500  -7.921  27.967  1.00  0.00    -0.395 OA
ATOM     24  H1  UNL     1      26.687  -8.470  28.720  1.00  0.00     0.210 HD
ENDBRANCH   7  23
BRANCH   9  25
HETATM   25  O5  UNL     1      26.654 -10.766  26.834  1.00  0.00    -0.395 OA
ATOM     26  H5  UNL     1      26.346 -11.548  26.392  1.00  0.00     0.210 HD
ENDBRANCH   9  25
BRANCH  13  27
HETATM   27  C19 UNL     1      30.320  -7.566  24.675  1.00  0.00     0.006 C 
HETATM   28  C20 UNL     1      31.311  -6.833  25.422  1.00  0.00     0.006 C 
ENDBRANCH  13  27
BRANCH   1  29
HETATM   29  C2  UNL     1      26.039  -3.203  23.161  1.00  0.00    -0.088 C 
HETATM   30  C1  UNL     1      25.893  -2.691  21.911  1.00  0.00     0.014 C 
HETATM   31  C3  UNL     1      24.813  -3.756  23.749  1.00  0.00     0.043 C 
ENDBRANCH   1  29
TORSDOF 7
ENDMDL
MODEL 4
REMARK VINA RESULT: -6.302529293      3.051      4.450
REMARK  7 active torsions:
REMARK  status: ('A' for Active; 'I' for Inactive)
REMARK    1  A    between atoms: C2_2  and  C4_4 
REMARK    2  A    between atoms: C10_10  and  O1_11 
REMARK    3  A    between atoms: C11_13  and  C12_14 
REMARK    4  A    between atoms: C12_14  and  O2_15 
REMARK    5  A    between atoms: O2_15  and  C13_16 
REMARK    6  A    between atoms: C14_19  and  O5_20 
REMARK    7  A    between atoms: C18_25  and  C19_26 
ROOT
HETATM    1  C4  UNL     1      26.135  -4.191  22.941  1.00  0.00     0.022 C 
HETATM    2  C5  UNL     1      26.852  -3.027  23.605  1.00  0.00     0.010 C 
HETATM    3  C6  UNL     1      28.252  -3.498  23.950  1.00  0.00     0.006 C 
HETATM    4  C7  UNL     1      28.222  -4.940  23.667  1.00  0.00    -0.001 C 
HETATM    5  C8  UNL     1      29.592  -5.545  23.358  1.00  0.00     0.002 C 
HETATM    6  C9  UNL     1      30.436  -5.324  24.549  1.00  0.00     0.038 C 
HETATM    7  C10 UNL     1      30.995  -6.484  25.280  1.00  0.00     0.132 C 
HETATM    8  C11 UNL     1      30.288  -7.776  25.120  1.00  0.00     0.038 C 
HETATM    9  C14 UNL     1      31.376  -8.878  25.143  1.00  0.00     0.131 C 
HETATM   10  C15 UNL     1      30.665 -10.045  24.528  1.00  0.00     0.033 C 
HETATM   11  C16 UNL     1      30.006  -9.345  23.327  1.00  0.00     0.009 C 
HETATM   12  C17 UNL     1      29.573  -8.005  23.859  1.00  0.00     0.010 C 
HETATM   13  C18 UNL     1      29.542  -6.925  22.812  1.00  0.00    -0.032 C 
HETATM   14  C21 UNL     1      28.273  -7.214  21.991  1.00  0.00     0.011 C 
HETATM   15  C22 UNL     1      27.037  -6.506  22.413  1.00  0.00     0.011 C 
HETATM   16  C23 UNL     1      27.267  -5.043  22.509  1.00  0.00    -0.033 C 
HETATM   17  C24 UNL     1      27.818  -4.420  21.252  1.00  0.00     0.016 C 
ENDROOT
BRANCH   8  18
HETATM   18  C12 UNL     1      29.489  -8.144  26.359  1.00  0.00     0.197 C 
BRANCH  18  19
HETATM   19  O2  UNL     1      28.232  -7.486  26.419  1.00  0.00    -0.295 OA
BRANCH  19  20
HETATM   20  C13 UNL     1      27.973  -6.583  27.453  1.00  0.00     0.332 C 
HETATM   21  O3  UNL     1      27.977  -5.363  27.148  1.00  0.00    -0.624 OA
HETATM   22  O4  UNL     1      27.719  -6.949  28.755  1.00  0.00    -0.624 OA
ENDBRANCH  19  20
ENDBRANCH  18  19
ENDBRANCH   8  18
BRANCH   7  23
HETATM   23  O1  UNL     1      31.011  -6.207  26.677  1.00  0.00    -0.395 OA
ATOM     24  H1  UNL     1      31.852  -6.456  27.043  1.00  0.00     0.210 HD
ENDBRANCH   7  23
BRANCH   9  25
HETATM   25  O5  UNL     1      31.755  -9.174  26.463  1.00  0.00    -0.395 OA
ATOM     26  H5  UNL     1      32.698  -9.273  26.528  1.00  0.00     0.210 HD
ENDBRANCH   9  25
BRANCH  13  27
HETATM   27  C19 UNL     1      30.579  -7.073  21.715  1.00  0.00     0.006 C 
HETATM   28  C20 UNL     1      30.208  -7.107  20.323  1.00  0.00     0.006 C 
ENDBRANCH  13  27
BRANCH   1  29
HETATM   29  C2  UNL     1      25.091  -4.768  23.772  1.00  0.00    -0.088 C 
HETATM   30  C1  UNL     1      23.831  -4.731  23.265  1.00  0.00     0.014 C 
HETATM   31  C3  UNL     1      25.201  -5.359  25.110  1.00  0.00     0.043 C 
ENDBRANCH   1  29
TORSDOF 7
ENDMDL
MODEL 5
REMARK VINA RESULT: -6.221909203      2.272      5.060
REMARK  7 active torsions:
REMARK  status: ('A' for Active; 'I' for Inactive)
REMARK    1  A    between atoms: C2_2  and  C4_4 
REMARK    2  A    between atoms: C10_10  and  O1_11 
REMARK    3  A    between atoms: C11_13  and  C12_14 
REMARK    4  A    between atoms: C12_14  and  O2_15 
REMARK    5  A    between atoms: O2_15  and  C13_16 
REMARK    6  A    between atoms: C14_19  and  O5_20 
REMARK    7  A    between atoms: C18_25  and  C19_26 
ROOT
HETATM    1  C4  UNL     1      31.005  -8.244  24.863  1.00  0.00     0.022 C 
HETATM    2  C5  UNL     1      30.185  -9.514  24.714  1.00  0.00     0.010 C 
HETATM    3  C6  UNL     1      28.909  -9.143  23.982  1.00  0.00     0.006 C 
HETATM    4  C7  UNL     1      28.948  -7.675  23.922  1.00  0.00    -0.001 C 
HETATM    5  C8  UNL     1      28.140  -7.075  22.771  1.00  0.00     0.002 C 
HETATM    6  C9  UNL     1      26.738  -7.494  22.969  1.00  0.00     0.038 C 
HETATM    7  C10 UNL     1      25.684  -6.471  23.163  1.00  0.00     0.132 C 
HETATM    8  C11 UNL     1      26.125  -5.147  23.663  1.00  0.00     0.038 C 
HETATM    9  C14 UNL     1      25.214  -4.095  22.984  1.00  0.00     0.131 C 
HETATM   10  C15 UNL     1      25.996  -2.830  23.162  1.00  0.00     0.033 C 
HETATM   11  C16 UNL     1      27.393  -3.326  22.751  1.00  0.00     0.009 C 
HETATM   12  C17 UNL     1      27.486  -4.715  23.325  1.00  0.00     0.010 C 
HETATM   13  C18 UNL     1      28.387  -5.629  22.539  1.00  0.00    -0.032 C 
HETATM   14  C21 UNL     1      29.812  -5.184  22.908  1.00  0.00     0.011 C 
HETATM   15  C22 UNL     1      30.461  -5.907  24.032  1.00  0.00     0.011 C 
HETATM   16  C23 UNL     1      30.418  -7.374  23.818  1.00  0.00    -0.033 C 
HETATM   17  C24 UNL     1      31.006  -7.824  22.505  1.00  0.00     0.016 C 
ENDROOT
BRANCH   8  18
HETATM   18  C12 UNL     1      25.755  -4.939  25.122  1.00  0.00     0.197 C 
BRANCH  18  19
HETATM   19  O2  UNL     1      26.890  -4.855  25.971  1.00  0.00    -0.295 OA
BRANCH  19  20
HETATM   20  C13 UNL     1      27.318  -5.989  26.666  1.00  0.00     0.332 C 
HETATM   21  O3  UNL     1      28.270  -5.828  27.473  1.00  0.00    -0.624 OA
HETATM   22  O4  UNL     1      26.767  -7.241  26.519  1.00  0.00    -0.624 OA
ENDBRANCH  19  20
ENDBRANCH  18  19
ENDBRANCH   8  18
BRANCH   7  23
HETATM   23  O1  UNL     1      24.718  -6.948  24.094  1.00  0.00    -0.395 OA
ATOM     24  H1  UNL     1      25.009  -6.764  24.979  1.00  0.00     0.210 HD
ENDBRANCH   7  23
BRANCH   9  25
HETATM   25  O5  UNL     1      23.978  -4.007  23.645  1.00  0.00    -0.395 OA
ATOM     26  H5  UNL     1      24.104  -3.952  24.586  1.00  0.00     0.210 HD
ENDBRANCH   9  25
BRANCH  13  27
HETATM   27  C19 UNL     1      28.425  -5.356  21.048  1.00  0.00     0.006 C 
HETATM   28  C20 UNL     1      29.664  -5.095  20.358  1.00  0.00     0.006 C 
ENDBRANCH  13  27
BRANCH   1  29
HETATM   29  C2  UNL     1      31.069  -7.762  26.233  1.00  0.00    -0.088 C 
HETATM   30  C1  UNL     1      30.393  -8.492  27.158  1.00  0.00     0.014 C 
HETATM   31  C3  UNL     1      31.737  -6.566  26.757  1.00  0.00     0.043 C 
ENDBRANCH   1  29
TORSDOF 7
ENDMDL
