MODEL 1
REMARK VINA RESULT: -6.995736360      0.000      0.000
REMARK  6 active torsions:
REMARK  status: ('A' for Active; 'I' for Inactive)
REMARK    1  A    between atoms: C2_2  and  C4_4 
REMARK    2  A    between atoms: C12_12  and  O1_13 
REMARK    3  A    between atoms: O1_13  and  C13_14 
REMARK    4  A    between atoms: C13_14  and  C14_16 
REMARK    5  A    between atoms: C14_16  and  C15_17 
REMARK    6  A    between atoms: C16_20  and  O5_21 
ROOT
HETATM    1  C4  UNL     1      27.832  -3.795  23.906  1.00  0.00    -0.003 C 
HETATM    2  C5  UNL     1      27.780  -3.175  25.289  1.00  0.00     0.006 C 
HETATM    3  C6  UNL     1      27.453  -4.281  26.260  1.00  0.00     0.006 C 
HETATM    4  C7  UNL     1      28.019  -5.505  25.625  1.00  0.00    -0.002 C 
HETATM    5  C8  UNL     1      29.269  -5.919  26.352  1.00  0.00    -0.005 C 
HETATM    6  C9  UNL     1      28.832  -6.573  27.669  1.00  0.00     0.006 C 
HETATM    7  C10 UNL     1      30.026  -6.976  28.487  1.00  0.00     0.008 C 
HETATM    8  C11 UNL     1      31.054  -7.746  27.753  1.00  0.00     0.026 C 
HETATM    9  C12 UNL     1      32.419  -7.400  28.367  1.00  0.00     0.165 C 
HETATM   10  C16 UNL     1      32.714  -6.074  27.768  1.00  0.00     0.148 C 
HETATM   11  C17 UNL     1      32.285  -6.281  26.314  1.00  0.00     0.044 C 
HETATM   12  C18 UNL     1      31.256  -7.375  26.331  1.00  0.00    -0.032 C 
HETATM   13  C19 UNL     1      31.869  -8.585  25.618  1.00  0.00     0.016 C 
HETATM   14  C20 UNL     1      29.997  -7.019  25.591  1.00  0.00    -0.001 C 
HETATM   15  C21 UNL     1      30.321  -6.604  24.195  1.00  0.00     0.006 C 
HETATM   16  C22 UNL     1      29.765  -5.251  23.887  1.00  0.00     0.010 C 
HETATM   17  C23 UNL     1      28.257  -5.182  24.167  1.00  0.00    -0.036 C 
HETATM   18  C24 UNL     1      27.603  -6.250  23.356  1.00  0.00     0.016 C 
ENDROOT
BRANCH   9  19
HETATM   19  O1  UNL     1      32.362  -7.476  29.744  1.00  0.00    -0.309 OA
BRANCH  19  20
HETATM   20  C13 UNL     1      33.304  -8.095  30.557  1.00  0.00     0.289 C 
HETATM   21  O2  UNL     1      33.394  -9.330  30.380  1.00  0.00    -0.260 OA
BRANCH  20  22
HETATM   22  C14 UNL     1      34.112  -7.397  31.522  1.00  0.00     0.166 C 
BRANCH  22  23
HETATM   23  C15 UNL     1      35.005  -6.523  31.094  1.00  0.00     0.204 C 
HETATM   24  O3  UNL     1      35.664  -6.702  29.885  1.00  0.00    -0.644 OA
HETATM   25  O4  UNL     1      35.341  -5.384  31.814  1.00  0.00    -0.644 OA
ENDBRANCH  22  23
ENDBRANCH  20  22
ENDBRANCH  19  20
ENDBRANCH   9  19
BRANCH  10  26
HETATM   26  O5  UNL     1      34.074  -5.764  27.720  1.00  0.00    -0.393 OA
ATOM     27  H5  UNL     1      34.281  -4.887  28.023  1.00  0.00     0.210 HD
ENDBRANCH  10  26
BRANCH   1  28
HETATM   28  C2  UNL     1      26.504  -3.587  23.263  1.00  0.00    -0.018 C 
HETATM   29  C1  UNL     1      25.821  -2.463  24.061  1.00  0.00     0.010 C 
HETATM   30  C3  UNL     1      26.592  -3.064  21.846  1.00  0.00     0.010 C 
ENDBRANCH   1  28
TORSDOF 6
ENDMDL
MODEL 2
REMARK VINA RESULT: -6.994219630      5.407      8.202
REMARK  6 active torsions:
REMARK  status: ('A' for Active; 'I' for Inactive)
REMARK    1  A    between atoms: C2_2  and  C4_4 
REMARK    2  A    between atoms: C12_12  and  O1_13 
REMARK    3  A    between atoms: O1_13  and  C13_14 
REMARK    4  A    between atoms: C13_14  and  C14_16 
REMARK    5  A    between atoms: C14_16  and  C15_17 
REMARK    6  A    between atoms: C16_20  and  O5_21 
ROOT
HETATM    1  C4  UNL     1      31.690  -6.496  17.677  1.00  0.00    -0.003 C 
HETATM    2  C5  UNL     1      31.953  -5.031  17.969  1.00  0.00     0.006 C 
HETATM    3  C6  UNL     1      30.615  -4.375  18.196  1.00  0.00     0.006 C 
HETATM    4  C7  UNL     1      29.759  -5.467  18.739  1.00  0.00    -0.002 C 
HETATM    5  C8  UNL     1      29.548  -5.257  20.213  1.00  0.00    -0.005 C 
HETATM    6  C9  UNL     1      28.527  -4.122  20.367  1.00  0.00     0.006 C 
HETATM    7  C10 UNL     1      28.290  -3.809  21.817  1.00  0.00     0.008 C 
HETATM    8  C11 UNL     1      28.006  -4.984  22.670  1.00  0.00     0.026 C 
HETATM    9  C12 UNL     1      28.563  -4.686  24.070  1.00  0.00     0.165 C 
HETATM   10  C16 UNL     1      30.017  -4.928  23.897  1.00  0.00     0.148 C 
HETATM   11  C17 UNL     1      30.027  -6.208  23.058  1.00  0.00     0.044 C 
HETATM   12  C18 UNL     1      28.721  -6.235  22.317  1.00  0.00    -0.032 C 
HETATM   13  C19 UNL     1      27.907  -7.407  22.876  1.00  0.00     0.016 C 
HETATM   14  C20 UNL     1      28.878  -6.472  20.841  1.00  0.00    -0.001 C 
HETATM   15  C21 UNL     1      29.661  -7.720  20.602  1.00  0.00     0.006 C 
HETATM   16  C22 UNL     1      30.848  -7.458  19.732  1.00  0.00     0.010 C 
HETATM   17  C23 UNL     1      30.446  -6.776  18.417  1.00  0.00    -0.036 C 
HETATM   18  C24 UNL     1      29.447  -7.657  17.744  1.00  0.00     0.016 C 
ENDROOT
BRANCH   9  19
HETATM   19  O1  UNL     1      28.173  -3.429  24.487  1.00  0.00    -0.309 OA
BRANCH  19  20
HETATM   20  C13 UNL     1      27.040  -3.144  25.239  1.00  0.00     0.289 C 
HETATM   21  O2  UNL     1      27.169  -3.384  26.461  1.00  0.00    -0.260 OA
BRANCH  20  22
HETATM   22  C14 UNL     1      25.820  -2.621  24.685  1.00  0.00     0.166 C 
BRANCH  22  23
HETATM   23  C15 UNL     1      25.152  -3.353  23.809  1.00  0.00     0.204 C 
HETATM   24  O3  UNL     1      25.096  -2.996  22.469  1.00  0.00    -0.644 OA
HETATM   25  O4  UNL     1      24.470  -4.509  24.167  1.00  0.00    -0.644 OA
ENDBRANCH  22  23
ENDBRANCH  20  22
ENDBRANCH  19  20
ENDBRANCH   9  19
BRANCH  10  26
HETATM   26  O5  UNL     1      30.684  -5.247  25.080  1.00  0.00    -0.393 OA
ATOM     27  H5  UNL     1      30.313  -5.987  25.545  1.00  0.00     0.210 HD
ENDBRANCH  10  26
BRANCH   1  28
HETATM   28  C2  UNL     1      31.669  -6.669  16.197  1.00  0.00    -0.018 C 
HETATM   29  C1  UNL     1      32.562  -5.552  15.630  1.00  0.00     0.010 C 
HETATM   30  C3  UNL     1      32.310  -7.958  15.728  1.00  0.00     0.010 C 
ENDBRANCH   1  28
TORSDOF 6
ENDMDL
MODEL 3
REMARK VINA RESULT: -6.847477259      3.979      8.323
REMARK  6 active torsions:
REMARK  status: ('A' for Active; 'I' for Inactive)
REMARK    1  A    between atoms: C2_2  and  C4_4 
REMARK    2  A    between atoms: C12_12  and  O1_13 
REMARK    3  A    between atoms: O1_13  and  C13_14 
REMARK    4  A    between atoms: C13_14  and  C14_16 
REMARK    5  A    between atoms: C14_16  and  C15_17 
REMARK    6  A    between atoms: C16_20  and  O5_21 
ROOT
HETATM    1  C4  UNL     1      32.759  -7.133  29.348  1.00  0.00    -0.003 C 
HETATM    2  C5  UNL     1      33.322  -5.945  28.592  1.00  0.00     0.006 C 
HETATM    3  C6  UNL     1      33.219  -6.263  27.122  1.00  0.00     0.006 C 
HETATM    4  C7  UNL     1      32.038  -7.167  27.025  1.00  0.00    -0.002 C 
HETATM    5  C8  UNL     1      30.876  -6.419  26.431  1.00  0.00    -0.005 C 
HETATM    6  C9  UNL     1      31.142  -6.292  24.925  1.00  0.00     0.006 C 
HETATM    7  C10 UNL     1      30.048  -5.510  24.255  1.00  0.00     0.008 C 
HETATM    8  C11 UNL     1      28.675  -5.953  24.581  1.00  0.00     0.026 C 
HETATM    9  C12 UNL     1      27.766  -4.716  24.535  1.00  0.00     0.165 C 
HETATM   10  C16 UNL     1      28.061  -4.051  25.829  1.00  0.00     0.148 C 
HETATM   11  C17 UNL     1      28.101  -5.239  26.793  1.00  0.00     0.044 C 
HETATM   12  C18 UNL     1      28.458  -6.440  25.965  1.00  0.00    -0.032 C 
HETATM   13  C19 UNL     1      27.231  -7.358  25.946  1.00  0.00     0.016 C 
HETATM   14  C20 UNL     1      29.597  -7.239  26.534  1.00  0.00    -0.001 C 
HETATM   15  C21 UNL     1      29.299  -7.624  27.945  1.00  0.00     0.006 C 
HETATM   16  C22 UNL     1      30.387  -7.178  28.870  1.00  0.00     0.010 C 
HETATM   17  C23 UNL     1      31.761  -7.690  28.416  1.00  0.00    -0.036 C 
HETATM   18  C24 UNL     1      31.678  -9.178  28.332  1.00  0.00     0.016 C 
ENDROOT
BRANCH   9  19
HETATM   19  O1  UNL     1      27.994  -3.992  23.382  1.00  0.00    -0.309 OA
BRANCH  19  20
HETATM   20  C13 UNL     1      27.082  -3.811  22.350  1.00  0.00     0.289 C 
HETATM   21  O2  UNL     1      27.367  -4.440  21.306  1.00  0.00    -0.260 OA
BRANCH  20  22
HETATM   22  C14 UNL     1      25.912  -2.980  22.449  1.00  0.00     0.166 C 
BRANCH  22  23
HETATM   23  C15 UNL     1      25.006  -3.260  23.370  1.00  0.00     0.204 C 
HETATM   24  O3  UNL     1      24.997  -2.604  24.592  1.00  0.00    -0.644 OA
HETATM   25  O4  UNL     1      24.019  -4.218  23.179  1.00  0.00    -0.644 OA
ENDBRANCH  22  23
ENDBRANCH  20  22
ENDBRANCH  19  20
ENDBRANCH   9  19
BRANCH  10  26
HETATM   26  O5  UNL     1      27.035  -3.225  26.289  1.00  0.00    -0.393 OA
ATOM     27  H5  UNL     1      26.397  -3.670  26.835  1.00  0.00     0.210 HD
ENDBRANCH  10  26
BRANCH   1  28
HETATM   28  C2  UNL     1      33.900  -8.005  29.742  1.00  0.00    -0.018 C 
HETATM   29  C1  UNL     1      35.122  -7.077  29.848  1.00  0.00     0.010 C 
HETATM   30  C3  UNL     1      33.750  -8.613  31.120  1.00  0.00     0.010 C 
ENDBRANCH   1  28
TORSDOF 6
ENDMDL
MODEL 4
REMARK VINA RESULT: -6.656730886      1.183      2.001
REMARK  6 active torsions:
REMARK  status: ('A' for Active; 'I' for Inactive)
REMARK    1  A    between atoms: C2_2  and  C4_4 
REMARK    2  A    between atoms: C12_12  and  O1_13 
REMARK    3  A    between atoms: O1_13  and  C13_14 
REMARK    4  A    between atoms: C13_14  and  C14_16 
REMARK    5  A    between atoms: C14_16  and  C15_17 
REMARK    6  A    between atoms: C16_20  and  O5_21 
ROOT
HETATM    1  C4  UNL     1      27.840  -3.813  23.860  1.00  0.00    -0.003 C 
HETATM    2  C5  UNL     1      27.815  -3.169  25.233  1.00  0.00     0.006 C 
HETATM    3  C6  UNL     1      27.491  -4.254  26.228  1.00  0.00     0.006 C 
HETATM    4  C7  UNL     1      28.034  -5.494  25.606  1.00  0.00    -0.002 C 
HETATM    5  C8  UNL     1      29.291  -5.909  26.322  1.00  0.00    -0.005 C 
HETATM    6  C9  UNL     1      28.867  -6.535  27.657  1.00  0.00     0.006 C 
HETATM    7  C10 UNL     1      30.069  -6.936  28.464  1.00  0.00     0.008 C 
HETATM    8  C11 UNL     1      31.078  -7.730  27.729  1.00  0.00     0.026 C 
HETATM    9  C12 UNL     1      32.455  -7.387  28.316  1.00  0.00     0.165 C 
HETATM   10  C16 UNL     1      32.755  -6.076  27.690  1.00  0.00     0.148 C 
HETATM   11  C17 UNL     1      32.302  -6.304  26.245  1.00  0.00     0.044 C 
HETATM   12  C18 UNL     1      31.262  -7.386  26.297  1.00  0.00    -0.032 C 
HETATM   13  C19 UNL     1      31.851  -8.615  25.598  1.00  0.00     0.016 C 
HETATM   14  C20 UNL     1      29.996  -7.031  25.570  1.00  0.00    -0.001 C 
HETATM   15  C21 UNL     1      30.304  -6.644  24.162  1.00  0.00     0.006 C 
HETATM   16  C22 UNL     1      29.756  -5.290  23.838  1.00  0.00     0.010 C 
HETATM   17  C23 UNL     1      28.254  -5.200  24.140  1.00  0.00    -0.036 C 
HETATM   18  C24 UNL     1      27.576  -6.275  23.357  1.00  0.00     0.016 C 
ENDROOT
BRANCH   9  19
HETATM   19  O1  UNL     1      32.418  -7.439  29.695  1.00  0.00    -0.309 OA
BRANCH  19  20
HETATM   20  C13 UNL     1      32.724  -8.552  30.469  1.00  0.00     0.289 C 
HETATM   21  O2  UNL     1      33.774  -9.137  30.122  1.00  0.00    -0.260 OA
BRANCH  20  22
HETATM   22  C14 UNL     1      31.920  -9.008  31.571  1.00  0.00     0.166 C 
BRANCH  22  23
HETATM   23  C15 UNL     1      30.654  -8.633  31.635  1.00  0.00     0.204 C 
HETATM   24  O3  UNL     1      30.294  -7.410  32.184  1.00  0.00    -0.644 OA
HETATM   25  O4  UNL     1      29.615  -9.427  31.167  1.00  0.00    -0.644 OA
ENDBRANCH  22  23
ENDBRANCH  20  22
ENDBRANCH  19  20
ENDBRANCH   9  19
BRANCH  10  26
HETATM   26  O5  UNL     1      34.117  -5.781  27.616  1.00  0.00    -0.393 OA
ATOM     27  H5  UNL     1      34.678  -6.547  27.601  1.00  0.00     0.210 HD
ENDBRANCH  10  26
BRANCH   1  28
HETATM   28  C2  UNL     1      26.505  -3.603  23.233  1.00  0.00    -0.018 C 
HETATM   29  C1  UNL     1      25.816  -2.509  24.066  1.00  0.00     0.010 C 
HETATM   30  C3  UNL     1      26.576  -3.039  21.830  1.00  0.00     0.010 C 
ENDBRANCH   1  28
TORSDOF 6
ENDMDL
MODEL 5
REMARK VINA RESULT: -6.508731210      5.533      8.387
REMARK  6 active torsions:
REMARK  status: ('A' for Active; 'I' for Inactive)
REMARK    1  A    between atoms: C2_2  and  C4_4 
REMARK    2  A    between atoms: C12_12  and  O1_13 
REMARK    3  A    between atoms: O1_13  and  C13_14 
REMARK    4  A    between atoms: C13_14  and  C14_16 
REMARK    5  A    between atoms: C14_16  and  C15_17 
REMARK    6  A    between atoms: C16_20  and  O5_21 
ROOT
HETATM    1  C4  UNL     1      33.092  -6.867  17.930  1.00  0.00    -0.003 C 
HETATM    2  C5  UNL     1      33.148  -5.360  18.092  1.00  0.00     0.006 C 
HETATM    3  C6  UNL     1      31.751  -4.836  17.871  1.00  0.00     0.006 C 
HETATM    4  C7  UNL     1      30.868  -5.956  18.304  1.00  0.00    -0.002 C 
HETATM    5  C8  UNL     1      30.243  -5.621  19.631  1.00  0.00    -0.005 C 
HETATM    6  C9  UNL     1      29.133  -4.596  19.363  1.00  0.00     0.006 C 
HETATM    7  C10 UNL     1      28.483  -4.166  20.647  1.00  0.00     0.008 C 
HETATM    8  C11 UNL     1      28.069  -5.272  21.538  1.00  0.00     0.026 C 
HETATM    9  C12 UNL     1      28.194  -4.773  22.985  1.00  0.00     0.165 C 
HETATM   10  C16 UNL     1      29.654  -4.868  23.235  1.00  0.00     0.148 C 
HETATM   11  C17 UNL     1      29.995  -6.219  22.599  1.00  0.00     0.044 C 
HETATM   12  C18 UNL     1      28.950  -6.465  21.549  1.00  0.00    -0.032 C 
HETATM   13  C19 UNL     1      28.109  -7.657  22.019  1.00  0.00     0.016 C 
HETATM   14  C20 UNL     1      29.525  -6.833  20.211  1.00  0.00    -0.001 C 
HETATM   15  C21 UNL     1      30.440  -8.004  20.349  1.00  0.00     0.006 C 
HETATM   16  C22 UNL     1      31.796  -7.702  19.796  1.00  0.00     0.010 C 
HETATM   17  C23 UNL     1      31.718  -7.206  18.345  1.00  0.00    -0.036 C 
HETATM   18  C24 UNL     1      31.016  -8.256  17.551  1.00  0.00     0.016 C 
ENDROOT
BRANCH   9  19
HETATM   19  O1  UNL     1      27.606  -3.531  23.120  1.00  0.00    -0.309 OA
BRANCH  19  20
HETATM   20  C13 UNL     1      26.409  -3.272  23.777  1.00  0.00     0.289 C 
HETATM   21  O2  UNL     1      25.513  -2.811  23.035  1.00  0.00    -0.260 OA
BRANCH  20  22
HETATM   22  C14 UNL     1      26.198  -3.504  25.181  1.00  0.00     0.166 C 
BRANCH  22  23
HETATM   23  C15 UNL     1      27.232  -3.434  26.002  1.00  0.00     0.204 C 
HETATM   24  O3  UNL     1      27.908  -2.239  26.205  1.00  0.00    -0.644 OA
HETATM   25  O4  UNL     1      27.704  -4.535  26.703  1.00  0.00    -0.644 OA
ENDBRANCH  22  23
ENDBRANCH  20  22
ENDBRANCH  19  20
ENDBRANCH   9  19
BRANCH  10  26
HETATM   26  O5  UNL     1      29.993  -4.989  24.583  1.00  0.00    -0.393 OA
ATOM     27  H5  UNL     1      29.248  -4.967  25.172  1.00  0.00     0.210 HD
ENDBRANCH  10  26
BRANCH   1  28
HETATM   28  C2  UNL     1      33.492  -7.191  16.532  1.00  0.00    -0.018 C 
HETATM   29  C1  UNL     1      34.409  -6.041  16.080  1.00  0.00     0.010 C 
HETATM   30  C3  UNL     1      34.343  -8.438  16.419  1.00  0.00     0.010 C 
ENDBRANCH   1  28
TORSDOF 6
ENDMDL
