MODEL 1
REMARK VINA RESULT: -6.932697583      0.000      0.000
REMARK  5 active torsions:
REMARK  status: ('A' for Active; 'I' for Inactive)
REMARK    1  A    between atoms: N2_5  and  N3_7 
REMARK    2  A    between atoms: N3_7  and  C4_9 
REMARK    3  A    between atoms: C4_9  and  N4_11 
REMARK    4  A    between atoms: N4_11  and  N5_13 
REMARK       I    between atoms: N5_13  and  C5_15 
REMARK    5  A    between atoms: C5_15  and  C6_17 
ROOT
HETATM    1  C1  UNL     1     -44.281  -3.332   5.495  1.00  0.00     0.082 C 
HETATM    2  C2  UNL     1     -43.229  -3.429   4.471  1.00  0.00     0.101 C 
HETATM    3  C3  UNL     1     -41.972  -4.017   4.798  1.00  0.00     0.114 C 
HETATM    4  N1  UNL     1     -40.944  -4.488   5.049  1.00  0.00    -0.190 NA
HETATM    5  N2  UNL     1     -43.427  -2.994   3.294  1.00  0.00    -0.293 N 
ATOM      6  H2  UNL     1     -42.679  -3.074   2.604  1.00  0.00     0.187 HD
ENDROOT
BRANCH   5   7
HETATM    7  N3  UNL     1     -44.638  -2.410   2.915  1.00  0.00    -0.274 N 
ATOM      8  H3  UNL     1     -45.458  -2.536   3.509  1.00  0.00     0.189 HD
BRANCH   7   9
HETATM    9  C4  UNL     1     -44.757  -1.654   1.740  1.00  0.00     0.205 C 
HETATM   10  S1  UNL     1     -46.196  -1.509   0.982  1.00  0.00    -0.038 SA
BRANCH   9  11
HETATM   11  N4  UNL     1     -43.627  -0.986   1.164  1.00  0.00    -0.272 N 
ATOM     12  H4  UNL     1     -43.284  -0.130   1.598  1.00  0.00     0.189 HD
BRANCH  11  13
HETATM   13  N5  UNL     1     -42.984  -1.471   0.029  1.00  0.00    -0.264 N 
HETATM   14  C5  UNL     1     -41.762  -2.174   0.122  1.00  0.00     0.270 C 
HETATM   15  O1  UNL     1     -41.266  -2.353   1.266  1.00  0.00    -0.266 OA
ATOM     16  H5  UNL     1     -43.403  -1.316  -0.888  1.00  0.00     0.190 HD
BRANCH  14  17
HETATM   17  C6  UNL     1     -41.079  -2.688  -1.071  1.00  0.00     0.033 A 
HETATM   18  C7  UNL     1     -39.750  -3.046  -0.967  1.00  0.00     0.018 A 
HETATM   19  C8  UNL     1     -39.045  -3.540  -2.053  1.00  0.00     0.020 A 
HETATM   20  C9  UNL     1     -39.654  -3.688  -3.278  1.00  0.00     0.011 A 
HETATM   21 BR1  UNL     1     -38.704  -4.368  -4.798  1.00  0.00    -0.051 Br
HETATM   22  C10 UNL     1     -40.983  -3.327  -3.375  1.00  0.00     0.020 A 
HETATM   23  C11 UNL     1     -41.697  -2.829  -2.278  1.00  0.00     0.018 A 
ENDBRANCH  14  17
ENDBRANCH  11  13
ENDBRANCH   9  11
ENDBRANCH   7   9
ENDBRANCH   5   7
TORSDOF 5
ENDMDL
MODEL 2
REMARK VINA RESULT: -6.911102578      3.405      4.761
REMARK  5 active torsions:
REMARK  status: ('A' for Active; 'I' for Inactive)
REMARK    1  A    between atoms: N2_5  and  N3_7 
REMARK    2  A    between atoms: N3_7  and  C4_9 
REMARK    3  A    between atoms: C4_9  and  N4_11 
REMARK    4  A    between atoms: N4_11  and  N5_13 
REMARK       I    between atoms: N5_13  and  C5_15 
REMARK    5  A    between atoms: C5_15  and  C6_17 
ROOT
HETATM    1  C1  UNL     1     -48.502   0.817   5.097  1.00  0.00     0.082 C 
HETATM    2  C2  UNL     1     -48.154   1.199   3.719  1.00  0.00     0.101 C 
HETATM    3  C3  UNL     1     -48.748   2.354   3.132  1.00  0.00     0.114 C 
HETATM    4  N1  UNL     1     -49.226   3.287   2.638  1.00  0.00    -0.190 NA
HETATM    5  N2  UNL     1     -47.326   0.511   3.044  1.00  0.00    -0.293 N 
ATOM      6  H2  UNL     1     -47.104   0.799   2.091  1.00  0.00     0.187 HD
ENDROOT
BRANCH   5   7
HETATM    7  N3  UNL     1     -46.712  -0.630   3.567  1.00  0.00    -0.274 N 
ATOM      8  H3  UNL     1     -47.039  -1.006   4.457  1.00  0.00     0.189 HD
BRANCH   7   9
HETATM    9  C4  UNL     1     -45.656  -1.270   2.903  1.00  0.00     0.205 C 
HETATM   10  S1  UNL     1     -44.598  -2.205   3.723  1.00  0.00    -0.038 SA
BRANCH   9  11
HETATM   11  N4  UNL     1     -45.468  -1.128   1.489  1.00  0.00    -0.272 N 
ATOM     12  H4  UNL     1     -46.209  -0.703   0.932  1.00  0.00     0.189 HD
BRANCH  11  13
HETATM   13  N5  UNL     1     -44.305  -1.552   0.854  1.00  0.00    -0.264 N 
HETATM   14  C5  UNL     1     -44.279  -1.810  -0.535  1.00  0.00     0.270 C 
HETATM   15  O1  UNL     1     -45.343  -1.645  -1.189  1.00  0.00    -0.266 OA
ATOM     16  H5  UNL     1     -43.453  -1.679   1.402  1.00  0.00     0.190 HD
BRANCH  14  17
HETATM   17  C6  UNL     1     -43.056  -2.257  -1.210  1.00  0.00     0.033 A 
HETATM   18  C7  UNL     1     -43.111  -2.531  -2.563  1.00  0.00     0.018 A 
HETATM   19  C8  UNL     1     -41.993  -2.955  -3.263  1.00  0.00     0.020 A 
HETATM   20  C9  UNL     1     -40.785  -3.119  -2.625  1.00  0.00     0.011 A 
HETATM   21 BR1  UNL     1     -39.222  -3.705  -3.568  1.00  0.00    -0.051 Br
HETATM   22  C10 UNL     1     -40.736  -2.844  -1.274  1.00  0.00     0.020 A 
HETATM   23  C11 UNL     1     -41.865  -2.414  -0.565  1.00  0.00     0.018 A 
ENDBRANCH  14  17
ENDBRANCH  11  13
ENDBRANCH   9  11
ENDBRANCH   7   9
ENDBRANCH   5   7
TORSDOF 5
ENDMDL
MODEL 3
REMARK VINA RESULT: -6.874692072      0.155      1.092
REMARK  5 active torsions:
REMARK  status: ('A' for Active; 'I' for Inactive)
REMARK    1  A    between atoms: N2_5  and  N3_7 
REMARK    2  A    between atoms: N3_7  and  C4_9 
REMARK    3  A    between atoms: C4_9  and  N4_11 
REMARK    4  A    between atoms: N4_11  and  N5_13 
REMARK       I    between atoms: N5_13  and  C5_15 
REMARK    5  A    between atoms: C5_15  and  C6_17 
ROOT
HETATM    1  C1  UNL     1     -44.285  -3.157   5.430  1.00  0.00     0.082 C 
HETATM    2  C2  UNL     1     -43.277  -3.345   4.375  1.00  0.00     0.101 C 
HETATM    3  C3  UNL     1     -42.059  -4.023   4.670  1.00  0.00     0.114 C 
HETATM    4  N1  UNL     1     -41.062  -4.568   4.895  1.00  0.00    -0.190 NA
HETATM    5  N2  UNL     1     -43.480  -2.909   3.199  1.00  0.00    -0.293 N 
ATOM      6  H2  UNL     1     -42.763  -3.053   2.487  1.00  0.00     0.187 HD
ENDROOT
BRANCH   5   7
HETATM    7  N3  UNL     1     -44.655  -2.238   2.851  1.00  0.00    -0.274 N 
ATOM      8  H3  UNL     1     -45.443  -2.248   3.498  1.00  0.00     0.189 HD
BRANCH   7   9
HETATM    9  C4  UNL     1     -44.780  -1.551   1.634  1.00  0.00     0.205 C 
HETATM   10  S1  UNL     1     -46.216  -1.477   0.861  1.00  0.00    -0.038 SA
BRANCH   9  11
HETATM   11  N4  UNL     1     -43.659  -0.894   1.029  1.00  0.00    -0.272 N 
ATOM     12  H4  UNL     1     -43.351   0.004   1.402  1.00  0.00     0.189 HD
BRANCH  11  13
HETATM   13  N5  UNL     1     -42.977  -1.444  -0.051  1.00  0.00    -0.264 N 
HETATM   14  C5  UNL     1     -41.698  -2.024   0.105  1.00  0.00     0.270 C 
HETATM   15  O1  UNL     1     -41.186  -2.030   1.257  1.00  0.00    -0.266 OA
ATOM     16  H5  UNL     1     -43.410  -1.430  -0.976  1.00  0.00     0.190 HD
BRANCH  14  17
HETATM   17  C6  UNL     1     -40.975  -2.606  -1.031  1.00  0.00     0.033 A 
HETATM   18  C7  UNL     1     -41.653  -2.790  -2.220  1.00  0.00     0.018 A 
HETATM   19  C8  UNL     1     -41.031  -3.334  -3.333  1.00  0.00     0.020 A 
HETATM   20  C9  UNL     1     -39.708  -3.710  -3.284  1.00  0.00     0.011 A 
HETATM   21 BR1  UNL     1     -38.822  -4.464  -4.807  1.00  0.00    -0.051 Br
HETATM   22  C10 UNL     1     -39.037  -3.523  -2.094  1.00  0.00     0.020 A 
HETATM   23  C11 UNL     1     -39.663  -2.974  -0.968  1.00  0.00     0.018 A 
ENDBRANCH  14  17
ENDBRANCH  11  13
ENDBRANCH   9  11
ENDBRANCH   7   9
ENDBRANCH   5   7
TORSDOF 5
ENDMDL
MODEL 4
REMARK VINA RESULT: -6.840802982      1.114      1.585
REMARK  5 active torsions:
REMARK  status: ('A' for Active; 'I' for Inactive)
REMARK    1  A    between atoms: N2_5  and  N3_7 
REMARK    2  A    between atoms: N3_7  and  C4_9 
REMARK    3  A    between atoms: C4_9  and  N4_11 
REMARK    4  A    between atoms: N4_11  and  N5_13 
REMARK       I    between atoms: N5_13  and  C5_15 
REMARK    5  A    between atoms: C5_15  and  C6_17 
ROOT
HETATM    1  C1  UNL     1     -42.958  -3.667   4.888  1.00  0.00     0.082 C 
HETATM    2  C2  UNL     1     -44.372  -3.260   4.867  1.00  0.00     0.101 C 
HETATM    3  C3  UNL     1     -45.188  -3.473   6.017  1.00  0.00     0.114 C 
HETATM    4  N1  UNL     1     -45.865  -3.642   6.941  1.00  0.00    -0.190 NA
HETATM    5  N2  UNL     1     -44.877  -2.721   3.834  1.00  0.00    -0.293 N 
ATOM      6  H2  UNL     1     -45.861  -2.450   3.847  1.00  0.00     0.187 HD
ENDROOT
BRANCH   5   7
HETATM    7  N3  UNL     1     -44.126  -2.487   2.679  1.00  0.00    -0.274 N 
ATOM      8  H3  UNL     1     -43.237  -2.971   2.559  1.00  0.00     0.189 HD
BRANCH   7   9
HETATM    9  C4  UNL     1     -44.563  -1.604   1.681  1.00  0.00     0.205 C 
HETATM   10  S1  UNL     1     -46.155  -1.416   1.369  1.00  0.00    -0.038 SA
BRANCH   9  11
HETATM   11  N4  UNL     1     -43.634  -0.839   0.902  1.00  0.00    -0.272 N 
ATOM     12  H4  UNL     1     -43.445   0.128   1.166  1.00  0.00     0.189 HD
BRANCH  11  13
HETATM   13  N5  UNL     1     -42.981  -1.376  -0.203  1.00  0.00    -0.264 N 
HETATM   14  C5  UNL     1     -41.769  -2.089  -0.066  1.00  0.00     0.270 C 
HETATM   15  O1  UNL     1     -41.290  -2.227   1.092  1.00  0.00    -0.266 OA
ATOM     16  H5  UNL     1     -43.387  -1.253  -1.131  1.00  0.00     0.190 HD
BRANCH  14  17
HETATM   17  C6  UNL     1     -41.077  -2.657  -1.228  1.00  0.00     0.033 A 
HETATM   18  C7  UNL     1     -39.747  -3.007  -1.097  1.00  0.00     0.018 A 
HETATM   19  C8  UNL     1     -39.033  -3.551  -2.154  1.00  0.00     0.020 A 
HETATM   20  C9  UNL     1     -39.634  -3.758  -3.374  1.00  0.00     0.011 A 
HETATM   21 BR1  UNL     1     -38.671  -4.507  -4.853  1.00  0.00    -0.051 Br
HETATM   22  C10 UNL     1     -40.962  -3.406  -3.498  1.00  0.00     0.020 A 
HETATM   23  C11 UNL     1     -41.685  -2.857  -2.431  1.00  0.00     0.018 A 
ENDBRANCH  14  17
ENDBRANCH  11  13
ENDBRANCH   9  11
ENDBRANCH   7   9
ENDBRANCH   5   7
TORSDOF 5
ENDMDL
MODEL 5
REMARK VINA RESULT: -6.833232328      1.105      1.893
REMARK  5 active torsions:
REMARK  status: ('A' for Active; 'I' for Inactive)
REMARK    1  A    between atoms: N2_5  and  N3_7 
REMARK    2  A    between atoms: N3_7  and  C4_9 
REMARK    3  A    between atoms: C4_9  and  N4_11 
REMARK    4  A    between atoms: N4_11  and  N5_13 
REMARK       I    between atoms: N5_13  and  C5_15 
REMARK    5  A    between atoms: C5_15  and  C6_17 
ROOT
HETATM    1  C1  UNL     1     -42.869  -3.657   4.865  1.00  0.00     0.082 C 
HETATM    2  C2  UNL     1     -44.287  -3.265   4.868  1.00  0.00     0.101 C 
HETATM    3  C3  UNL     1     -45.082  -3.488   6.031  1.00  0.00     0.114 C 
HETATM    4  N1  UNL     1     -45.742  -3.666   6.966  1.00  0.00    -0.190 NA
HETATM    5  N2  UNL     1     -44.815  -2.729   3.845  1.00  0.00    -0.293 N 
ATOM      6  H2  UNL     1     -45.800  -2.468   3.875  1.00  0.00     0.187 HD
ENDROOT
BRANCH   5   7
HETATM    7  N3  UNL     1     -44.086  -2.485   2.678  1.00  0.00    -0.274 N 
ATOM      8  H3  UNL     1     -43.196  -2.964   2.540  1.00  0.00     0.189 HD
BRANCH   7   9
HETATM    9  C4  UNL     1     -44.544  -1.599   1.692  1.00  0.00     0.205 C 
HETATM   10  S1  UNL     1     -46.142  -1.415   1.412  1.00  0.00    -0.038 SA
BRANCH   9  11
HETATM   11  N4  UNL     1     -43.632  -0.828   0.899  1.00  0.00    -0.272 N 
ATOM     12  H4  UNL     1     -43.490   0.156   1.125  1.00  0.00     0.189 HD
BRANCH  11  13
HETATM   13  N5  UNL     1     -42.935  -1.382  -0.169  1.00  0.00    -0.264 N 
HETATM   14  C5  UNL     1     -41.697  -2.037   0.022  1.00  0.00     0.270 C 
HETATM   15  O1  UNL     1     -41.237  -2.107   1.193  1.00  0.00    -0.266 OA
ATOM     16  H5  UNL     1     -43.325  -1.316  -1.110  1.00  0.00     0.190 HD
BRANCH  14  17
HETATM   17  C6  UNL     1     -40.957  -2.624  -1.101  1.00  0.00     0.033 A 
HETATM   18  C7  UNL     1     -41.614  -2.800  -2.303  1.00  0.00     0.018 A 
HETATM   19  C8  UNL     1     -40.975  -3.347  -3.405  1.00  0.00     0.020 A 
HETATM   20  C9  UNL     1     -39.657  -3.735  -3.331  1.00  0.00     0.011 A 
HETATM   21 BR1  UNL     1     -38.748  -4.494  -4.839  1.00  0.00    -0.051 Br
HETATM   22  C10 UNL     1     -39.007  -3.556  -2.128  1.00  0.00     0.020 A 
HETATM   23  C11 UNL     1     -39.651  -3.003  -1.014  1.00  0.00     0.018 A 
ENDBRANCH  14  17
ENDBRANCH  11  13
ENDBRANCH   9  11
ENDBRANCH   7   9
ENDBRANCH   5   7
TORSDOF 5
ENDMDL
