MODEL 1
REMARK VINA RESULT: -7.852832359      0.000      0.000
REMARK  4 active torsions:
REMARK  status: ('A' for Active; 'I' for Inactive)
REMARK    1  A    between atoms: O1_2  and  C2_3 
REMARK       I    between atoms: C2_3  and  N1_5 
REMARK    2  A    between atoms: N1_5  and  C3_7 
REMARK    3  A    between atoms: C5_9  and  C6_10 
REMARK    4  A    between atoms: C9_13  and  N2_14 
REMARK       I    between atoms: N2_14  and  C10_16 
ROOT
HETATM    1  C6  UNL     1     -41.667  -1.810   2.562  1.00  0.00     0.104 C 
HETATM    2  C7  UNL     1     -40.708  -0.770   3.109  1.00  0.00     0.053 C 
HETATM    3  C8  UNL     1     -43.108  -1.445   2.825  1.00  0.00     0.072 C 
HETATM    4  C9  UNL     1     -43.411  -1.512   4.275  1.00  0.00     0.124 C 
HETATM    5  C12 UNL     1     -42.832  -2.737   4.965  1.00  0.00     0.226 C 
HETATM    6  F1  UNL     1     -43.901  -3.634   5.086  1.00  0.00    -0.244 F 
HETATM    7  C13 UNL     1     -41.704  -3.389   4.295  1.00  0.00     0.088 C 
HETATM    8  C14 UNL     1     -41.968  -4.908   4.310  1.00  0.00     0.049 C 
HETATM    9  C15 UNL     1     -40.442  -3.254   5.163  1.00  0.00     0.049 C 
HETATM   10  O4  UNL     1     -41.401  -3.075   3.019  1.00  0.00    -0.361 OA
ENDROOT
BRANCH   1  11
HETATM   11  C5  UNL     1     -41.453  -1.835   1.090  1.00  0.00     0.063 A 
HETATM   12  C4  UNL     1     -40.289  -2.158   0.420  1.00  0.00     0.079 A 
HETATM   13  C3  UNL     1     -40.505  -2.090  -0.960  1.00  0.00     0.126 A 
HETATM   14  N4  UNL     1     -41.786  -1.729  -1.076  1.00  0.00    -0.285 N 
HETATM   15  N3  UNL     1     -42.353  -1.576   0.130  1.00  0.00    -0.300 N 
ATOM     16  H4  UNL     1     -42.268  -1.589  -1.964  1.00  0.00     0.188 HD
ATOM     17  H3  UNL     1     -43.322  -1.303   0.292  1.00  0.00     0.186 HD
BRANCH  13  18
HETATM   18  N1  UNL     1     -39.619  -2.307  -1.846  1.00  0.00    -0.287 N 
HETATM   19  C2  UNL     1     -39.641  -3.207  -2.910  1.00  0.00     0.365 C 
HETATM   20  O2  UNL     1     -40.664  -3.543  -3.568  1.00  0.00    -0.238 OA
ATOM     21  H1  UNL     1     -38.774  -1.742  -1.767  1.00  0.00     0.172 HD
BRANCH  19  22
HETATM   22  O1  UNL     1     -38.433  -3.829  -3.332  1.00  0.00    -0.309 OA
HETATM   23  C1  UNL     1     -38.153  -4.046  -4.701  1.00  0.00     0.215 C 
ENDBRANCH  19  22
ENDBRANCH  13  18
ENDBRANCH   1  11
BRANCH   4  24
HETATM   24  N2  UNL     1     -44.853  -1.448   4.489  1.00  0.00    -0.354 N 
HETATM   25  C10 UNL     1     -45.410  -0.649   5.520  1.00  0.00     0.214 C 
HETATM   26  C11 UNL     1     -46.853  -0.576   5.744  1.00  0.00     0.117 C 
HETATM   27  O3  UNL     1     -44.634   0.011   6.250  1.00  0.00    -0.274 OA
ATOM     28  H2  UNL     1     -45.472  -1.989   3.885  1.00  0.00     0.162 HD
ENDBRANCH   4  24
TORSDOF 4
ENDMDL
MODEL 2
REMARK VINA RESULT: -7.379143791      3.106      7.021
REMARK  4 active torsions:
REMARK  status: ('A' for Active; 'I' for Inactive)
REMARK    1  A    between atoms: O1_2  and  C2_3 
REMARK       I    between atoms: C2_3  and  N1_5 
REMARK    2  A    between atoms: N1_5  and  C3_7 
REMARK    3  A    between atoms: C5_9  and  C6_10 
REMARK    4  A    between atoms: C9_13  and  N2_14 
REMARK       I    between atoms: N2_14  and  C10_16 
ROOT
HETATM    1  C6  UNL     1     -43.153  -2.114   1.706  1.00  0.00     0.104 C 
HETATM    2  C7  UNL     1     -42.514  -0.762   1.957  1.00  0.00     0.053 C 
HETATM    3  C8  UNL     1     -42.521  -2.831   0.538  1.00  0.00     0.072 C 
HETATM    4  C9  UNL     1     -42.822  -2.132  -0.735  1.00  0.00     0.124 C 
HETATM    5  C12 UNL     1     -44.268  -1.677  -0.855  1.00  0.00     0.226 C 
HETATM    6  F1  UNL     1     -44.889  -2.631  -1.672  1.00  0.00    -0.244 F 
HETATM    7  C13 UNL     1     -45.011  -1.532   0.399  1.00  0.00     0.088 C 
HETATM    8  C14 UNL     1     -46.391  -2.192   0.203  1.00  0.00     0.049 C 
HETATM    9  C15 UNL     1     -45.370  -0.053   0.616  1.00  0.00     0.049 C 
HETATM   10  O4  UNL     1     -44.512  -2.041   1.545  1.00  0.00    -0.361 OA
ENDROOT
BRANCH   1  11
HETATM   11  C5  UNL     1     -42.913  -2.919   2.933  1.00  0.00     0.063 A 
HETATM   12  C4  UNL     1     -41.812  -3.705   3.215  1.00  0.00     0.079 A 
HETATM   13  C3  UNL     1     -41.954  -4.276   4.484  1.00  0.00     0.126 A 
HETATM   14  N4  UNL     1     -43.130  -3.820   4.923  1.00  0.00    -0.285 N 
HETATM   15  N3  UNL     1     -43.703  -3.018   4.012  1.00  0.00    -0.300 N 
ATOM     16  H4  UNL     1     -43.538  -4.050   5.829  1.00  0.00     0.188 HD
ATOM     17  H3  UNL     1     -44.604  -2.553   4.124  1.00  0.00     0.186 HD
BRANCH  13  18
HETATM   18  N1  UNL     1     -41.120  -5.072   5.021  1.00  0.00    -0.287 N 
HETATM   19  C2  UNL     1     -40.186  -4.822   6.025  1.00  0.00     0.365 C 
HETATM   20  O2  UNL     1     -40.338  -4.018   6.986  1.00  0.00    -0.238 OA
ATOM     21  H1  UNL     1     -41.136  -6.029   4.666  1.00  0.00     0.172 HD
BRANCH  19  22
HETATM   22  O1  UNL     1     -38.938  -5.505   6.014  1.00  0.00    -0.309 OA
HETATM   23  C1  UNL     1     -37.981  -5.278   4.997  1.00  0.00     0.215 C 
ENDBRANCH  19  22
ENDBRANCH  13  18
ENDBRANCH   1  11
BRANCH   4  24
HETATM   24  N2  UNL     1     -42.463  -2.977  -1.868  1.00  0.00    -0.354 N 
HETATM   25  C10 UNL     1     -41.213  -2.839  -2.524  1.00  0.00     0.214 C 
HETATM   26  C11 UNL     1     -40.842  -3.680  -3.660  1.00  0.00     0.117 C 
HETATM   27  O3  UNL     1     -40.412  -1.969  -2.106  1.00  0.00    -0.274 OA
ATOM     28  H2  UNL     1     -43.124  -3.681  -2.194  1.00  0.00     0.162 HD
ENDBRANCH   4  24
TORSDOF 4
ENDMDL
MODEL 3
REMARK VINA RESULT: -7.375689085      3.602      7.160
REMARK  4 active torsions:
REMARK  status: ('A' for Active; 'I' for Inactive)
REMARK    1  A    between atoms: O1_2  and  C2_3 
REMARK       I    between atoms: C2_3  and  N1_5 
REMARK    2  A    between atoms: N1_5  and  C3_7 
REMARK    3  A    between atoms: C5_9  and  C6_10 
REMARK    4  A    between atoms: C9_13  and  N2_14 
REMARK       I    between atoms: N2_14  and  C10_16 
ROOT
HETATM    1  C6  UNL     1     -42.710  -2.668   4.158  1.00  0.00     0.104 C 
HETATM    2  C7  UNL     1     -42.179  -1.292   4.512  1.00  0.00     0.053 C 
HETATM    3  C8  UNL     1     -42.702  -2.913   2.669  1.00  0.00     0.072 C 
HETATM    4  C9  UNL     1     -43.689  -2.042   1.987  1.00  0.00     0.124 C 
HETATM    5  C12 UNL     1     -45.027  -1.957   2.703  1.00  0.00     0.226 C 
HETATM    6  F1  UNL     1     -45.877  -2.824   2.006  1.00  0.00    -0.244 F 
HETATM    7  C13 UNL     1     -45.025  -2.297   4.129  1.00  0.00     0.088 C 
HETATM    8  C14 UNL     1     -46.229  -3.224   4.389  1.00  0.00     0.049 C 
HETATM    9  C15 UNL     1     -45.373  -1.048   4.956  1.00  0.00     0.049 C 
HETATM   10  O4  UNL     1     -43.956  -2.910   4.677  1.00  0.00    -0.361 OA
ENDROOT
BRANCH   1  11
HETATM   11  C5  UNL     1     -41.787  -3.644   4.797  1.00  0.00     0.063 A 
HETATM   12  C4  UNL     1     -40.824  -3.382   5.753  1.00  0.00     0.079 A 
HETATM   13  C3  UNL     1     -40.186  -4.571   6.118  1.00  0.00     0.126 A 
HETATM   14  N4  UNL     1     -40.781  -5.507   5.373  1.00  0.00    -0.285 N 
HETATM   15  N3  UNL     1     -41.727  -4.967   4.590  1.00  0.00    -0.300 N 
ATOM     16  H4  UNL     1     -40.546  -6.500   5.397  1.00  0.00     0.188 HD
ATOM     17  H3  UNL     1     -42.313  -5.486   3.935  1.00  0.00     0.186 HD
BRANCH  13  18
HETATM   18  N1  UNL     1     -39.235  -4.659   6.957  1.00  0.00    -0.287 N 
HETATM   19  C2  UNL     1     -39.243  -4.394   8.326  1.00  0.00     0.365 C 
HETATM   20  O2  UNL     1     -40.214  -4.591   9.108  1.00  0.00    -0.238 OA
ATOM     21  H1  UNL     1     -38.340  -4.966   6.575  1.00  0.00     0.172 HD
BRANCH  19  22
HETATM   22  O1  UNL     1     -38.081  -3.855   8.946  1.00  0.00    -0.309 OA
HETATM   23  C1  UNL     1     -38.174  -2.908   9.993  1.00  0.00     0.215 C 
ENDBRANCH  19  22
ENDBRANCH  13  18
ENDBRANCH   1  11
BRANCH   4  24
HETATM   24  N2  UNL     1     -43.882  -2.486   0.611  1.00  0.00    -0.354 N 
HETATM   25  C10 UNL     1     -42.990  -2.095  -0.421  1.00  0.00     0.214 C 
HETATM   26  C11 UNL     1     -43.173  -2.533  -1.804  1.00  0.00     0.117 C 
HETATM   27  O3  UNL     1     -42.022  -1.356  -0.126  1.00  0.00    -0.274 OA
ATOM     28  H2  UNL     1     -44.673  -3.089   0.387  1.00  0.00     0.162 HD
ENDBRANCH   4  24
TORSDOF 4
ENDMDL
MODEL 4
REMARK VINA RESULT: -7.309690733      3.582      5.981
REMARK  4 active torsions:
REMARK  status: ('A' for Active; 'I' for Inactive)
REMARK    1  A    between atoms: O1_2  and  C2_3 
REMARK       I    between atoms: C2_3  and  N1_5 
REMARK    2  A    between atoms: N1_5  and  C3_7 
REMARK    3  A    between atoms: C5_9  and  C6_10 
REMARK    4  A    between atoms: C9_13  and  N2_14 
REMARK       I    between atoms: N2_14  and  C10_16 
ROOT
HETATM    1  C6  UNL     1     -42.513  -2.695   3.789  1.00  0.00     0.104 C 
HETATM    2  C7  UNL     1     -41.939  -1.331   4.120  1.00  0.00     0.053 C 
HETATM    3  C8  UNL     1     -42.643  -2.909   2.301  1.00  0.00     0.072 C 
HETATM    4  C9  UNL     1     -43.682  -2.016   1.730  1.00  0.00     0.124 C 
HETATM    5  C12 UNL     1     -44.947  -1.937   2.569  1.00  0.00     0.226 C 
HETATM    6  F1  UNL     1     -45.865  -2.784   1.935  1.00  0.00    -0.244 F 
HETATM    7  C13 UNL     1     -44.817  -2.307   3.980  1.00  0.00     0.088 C 
HETATM    8  C14 UNL     1     -46.001  -3.232   4.331  1.00  0.00     0.049 C 
HETATM    9  C15 UNL     1     -45.077  -1.075   4.862  1.00  0.00     0.049 C 
HETATM   10  O4  UNL     1     -43.708  -2.939   4.415  1.00  0.00    -0.361 OA
ENDROOT
BRANCH   1  11
HETATM   11  C5  UNL     1     -41.543  -3.691   4.320  1.00  0.00     0.063 A 
HETATM   12  C4  UNL     1     -40.314  -4.028   3.786  1.00  0.00     0.079 A 
HETATM   13  C3  UNL     1     -39.696  -4.985   4.596  1.00  0.00     0.126 A 
HETATM   14  N4  UNL     1     -40.567  -5.194   5.586  1.00  0.00    -0.285 N 
HETATM   15  N3  UNL     1     -41.662  -4.434   5.430  1.00  0.00    -0.300 N 
ATOM     16  H4  UNL     1     -40.420  -5.845   6.358  1.00  0.00     0.188 HD
ATOM     17  H3  UNL     1     -42.463  -4.423   6.061  1.00  0.00     0.186 HD
BRANCH  13  18
HETATM   18  N1  UNL     1     -38.564  -5.517   4.360  1.00  0.00    -0.287 N 
HETATM   19  C2  UNL     1     -37.362  -5.370   5.049  1.00  0.00     0.365 C 
HETATM   20  O2  UNL     1     -37.244  -5.203   6.295  1.00  0.00    -0.238 OA
ATOM     21  H1  UNL     1     -38.533  -6.138   3.551  1.00  0.00     0.172 HD
BRANCH  19  22
HETATM   22  O1  UNL     1     -36.131  -5.405   4.336  1.00  0.00    -0.309 OA
HETATM   23  C1  UNL     1     -35.349  -6.581   4.270  1.00  0.00     0.215 C 
ENDBRANCH  19  22
ENDBRANCH  13  18
ENDBRANCH   1  11
BRANCH   4  24
HETATM   24  N2  UNL     1     -44.004  -2.429   0.369  1.00  0.00    -0.354 N 
HETATM   25  C10 UNL     1     -43.172  -2.077  -0.724  1.00  0.00     0.214 C 
HETATM   26  C11 UNL     1     -43.484  -2.485  -2.093  1.00  0.00     0.117 C 
HETATM   27  O3  UNL     1     -42.142  -1.400  -0.497  1.00  0.00    -0.274 OA
ATOM     28  H2  UNL     1     -44.844  -2.982   0.200  1.00  0.00     0.162 HD
ENDBRANCH   4  24
TORSDOF 4
ENDMDL
MODEL 5
REMARK VINA RESULT: -7.217117258      1.712      1.955
REMARK  4 active torsions:
REMARK  status: ('A' for Active; 'I' for Inactive)
REMARK    1  A    between atoms: O1_2  and  C2_3 
REMARK       I    between atoms: C2_3  and  N1_5 
REMARK    2  A    between atoms: N1_5  and  C3_7 
REMARK    3  A    between atoms: C5_9  and  C6_10 
REMARK    4  A    between atoms: C9_13  and  N2_14 
REMARK       I    between atoms: N2_14  and  C10_16 
ROOT
HETATM    1  C6  UNL     1     -40.582  -2.172   3.016  1.00  0.00     0.104 C 
HETATM    2  C7  UNL     1     -40.244  -0.752   3.427  1.00  0.00     0.053 C 
HETATM    3  C8  UNL     1     -41.884  -2.641   3.616  1.00  0.00     0.072 C 
HETATM    4  C9  UNL     1     -41.762  -2.791   5.087  1.00  0.00     0.124 C 
HETATM    5  C12 UNL     1     -40.473  -3.465   5.527  1.00  0.00     0.226 C 
HETATM    6  F1  UNL     1     -40.823  -4.793   5.801  1.00  0.00    -0.244 F 
HETATM    7  C13 UNL     1     -39.360  -3.427   4.574  1.00  0.00     0.088 C 
HETATM    8  C14 UNL     1     -38.747  -4.841   4.517  1.00  0.00     0.049 C 
HETATM    9  C15 UNL     1     -38.214  -2.583   5.155  1.00  0.00     0.049 C 
HETATM   10  O4  UNL     1     -39.577  -3.062   3.294  1.00  0.00    -0.361 OA
ENDROOT
BRANCH   1  11
HETATM   11  C5  UNL     1     -40.732  -2.148   1.536  1.00  0.00     0.063 A 
HETATM   12  C4  UNL     1     -39.834  -2.618   0.598  1.00  0.00     0.079 A 
HETATM   13  C3  UNL     1     -40.357  -2.438  -0.687  1.00  0.00     0.126 A 
HETATM   14  N4  UNL     1     -41.547  -1.867  -0.482  1.00  0.00    -0.285 N 
HETATM   15  N3  UNL     1     -41.775  -1.692   0.828  1.00  0.00    -0.300 N 
ATOM     16  H4  UNL     1     -42.195  -1.600  -1.223  1.00  0.00     0.188 HD
ATOM     17  H3  UNL     1     -42.617  -1.274   1.226  1.00  0.00     0.186 HD
BRANCH  13  18
HETATM   18  N1  UNL     1     -39.758  -2.746  -1.766  1.00  0.00    -0.287 N 
HETATM   19  C2  UNL     1     -40.260  -3.382  -2.900  1.00  0.00     0.365 C 
HETATM   20  O2  UNL     1     -41.432  -3.260  -3.354  1.00  0.00    -0.238 OA
ATOM     21  H1  UNL     1     -38.771  -2.492  -1.806  1.00  0.00     0.172 HD
BRANCH  19  22
HETATM   22  O1  UNL     1     -39.422  -4.253  -3.650  1.00  0.00    -0.309 OA
HETATM   23  C1  UNL     1     -38.323  -3.762  -4.392  1.00  0.00     0.215 C 
ENDBRANCH  19  22
ENDBRANCH  13  18
ENDBRANCH   1  11
BRANCH   4  24
HETATM   24  N2  UNL     1     -42.914  -3.515   5.614  1.00  0.00    -0.354 N 
HETATM   25  C10 UNL     1     -43.953  -2.841   6.307  1.00  0.00     0.214 C 
HETATM   26  C11 UNL     1     -45.112  -3.555   6.840  1.00  0.00     0.117 C 
HETATM   27  O3  UNL     1     -43.863  -1.600   6.459  1.00  0.00    -0.274 OA
ATOM     28  H2  UNL     1     -42.974  -4.524   5.481  1.00  0.00     0.162 HD
ENDBRANCH   4  24
TORSDOF 4
ENDMDL
