MODEL 1
REMARK VINA RESULT: -7.076800635      0.000      0.000
REMARK  2 active torsions:
REMARK  status: ('A' for Active; 'I' for Inactive)
REMARK    1  A    between atoms: C3_5  and  O1_6 
REMARK    2  A    between atoms: C6_12  and  C7_13 
ROOT
HETATM    1  C1  UNL     1       9.823  80.968   1.218  1.00  0.00     0.064 C 
HETATM    2  C2  UNL     1       8.679  81.522   0.479  1.00  0.00    -0.009 C 
HETATM    3  N1  UNL     1       8.667  81.251  -0.797  1.00  0.00    -0.370 N 
ATOM      4  H1  UNL     1       9.422  80.691  -1.196  1.00  0.00     0.161 HD
HETATM    5  C3  UNL     1       7.615  81.723  -1.653  1.00  0.00     0.222 C 
HETATM    6  C4  UNL     1       6.310  81.296  -1.038  1.00  0.00     0.106 C 
HETATM    7  C5  UNL     1       6.303  81.909   0.355  1.00  0.00    -0.003 C 
HETATM    8  N2  UNL     1       5.367  82.170   1.149  1.00  0.00    -0.387 N 
ATOM      9  H2  UNL     1       4.385  81.988   0.942  1.00  0.00     0.159 HD
HETATM   10  C6  UNL     1       5.820  82.745   2.366  1.00  0.00     0.128 C 
HETATM   11  C9  UNL     1       7.247  82.305   2.430  1.00  0.00    -0.011 C 
HETATM   12  C10 UNL     1       7.522  81.067   3.165  1.00  0.00     0.018 C 
HETATM   13  C11 UNL     1       8.023  83.451   3.054  1.00  0.00     0.018 C 
HETATM   14  C12 UNL     1       7.586  82.322   0.969  1.00  0.00     0.086 C 
ENDROOT
BRANCH  10  15
HETATM   15  C7  UNL     1       4.869  82.356   3.415  1.00  0.00     0.130 C 
HETATM   16  C8  UNL     1       4.415  83.422   4.368  1.00  0.00     0.052 C 
HETATM   17 CL1  UNL     1       3.364  81.916   2.484  1.00  0.00    -0.100 Cl
HETATM   18 CL2  UNL     1       5.266  80.847   4.257  1.00  0.00    -0.100 Cl
ENDBRANCH  10  15
BRANCH   5  19
HETATM   19  O1  UNL     1       7.597  83.116  -1.763  1.00  0.00    -0.377 OA
ATOM     20  H1  UNL     1       7.036  83.527  -1.116  1.00  0.00     0.212 HD
ENDBRANCH   5  19
TORSDOF 2
ENDMDL
MODEL 2
REMARK VINA RESULT: -6.863630779      0.795      1.117
REMARK  2 active torsions:
REMARK  status: ('A' for Active; 'I' for Inactive)
REMARK    1  A    between atoms: C3_5  and  O1_6 
REMARK    2  A    between atoms: C6_12  and  C7_13 
ROOT
HETATM    1  C1  UNL     1       9.810  81.038   1.135  1.00  0.00     0.064 C 
HETATM    2  C2  UNL     1       8.656  81.583   0.406  1.00  0.00    -0.009 C 
HETATM    3  N1  UNL     1       8.668  81.368  -0.881  1.00  0.00    -0.370 N 
ATOM      4  H1  UNL     1       9.447  80.853  -1.294  1.00  0.00     0.161 HD
HETATM    5  C3  UNL     1       7.610  81.840  -1.730  1.00  0.00     0.222 C 
HETATM    6  C4  UNL     1       6.314  81.341  -1.151  1.00  0.00     0.106 C 
HETATM    7  C5  UNL     1       6.269  81.892   0.267  1.00  0.00    -0.003 C 
HETATM    8  N2  UNL     1       5.315  82.085   1.059  1.00  0.00    -0.387 N 
ATOM      9  H2  UNL     1       4.342  81.878   0.832  1.00  0.00     0.159 HD
HETATM   10  C6  UNL     1       5.733  82.623   2.306  1.00  0.00     0.128 C 
HETATM   11  C9  UNL     1       7.173  82.230   2.369  1.00  0.00    -0.011 C 
HETATM   12  C10 UNL     1       7.484  80.972   3.054  1.00  0.00     0.018 C 
HETATM   13  C11 UNL     1       7.901  83.374   3.052  1.00  0.00     0.018 C 
HETATM   14  C12 UNL     1       7.529  82.323   0.915  1.00  0.00     0.086 C 
ENDROOT
BRANCH  10  15
HETATM   15  C7  UNL     1       4.784  82.155   3.324  1.00  0.00     0.130 C 
HETATM   16  C8  UNL     1       5.282  81.157   4.327  1.00  0.00     0.052 C 
HETATM   17 CL1  UNL     1       4.446  83.651   4.310  1.00  0.00    -0.100 Cl
HETATM   18 CL2  UNL     1       3.181  81.720   2.704  1.00  0.00    -0.100 Cl
ENDBRANCH  10  15
BRANCH   5  19
HETATM   19  O1  UNL     1       7.544  83.235  -1.780  1.00  0.00    -0.377 OA
ATOM     20  H1  UNL     1       8.259  83.652  -1.315  1.00  0.00     0.212 HD
ENDBRANCH   5  19
TORSDOF 2
ENDMDL
MODEL 3
REMARK VINA RESULT: -6.808064166      0.886      1.014
REMARK  2 active torsions:
REMARK  status: ('A' for Active; 'I' for Inactive)
REMARK    1  A    between atoms: C3_5  and  O1_6 
REMARK    2  A    between atoms: C6_12  and  C7_13 
ROOT
HETATM    1  C1  UNL     1       9.159  81.158   1.727  1.00  0.00     0.064 C 
HETATM    2  C2  UNL     1       8.194  81.702   0.761  1.00  0.00    -0.009 C 
HETATM    3  N1  UNL     1       8.392  81.339  -0.477  1.00  0.00    -0.370 N 
ATOM      4  H1  UNL     1       9.174  80.721  -0.696  1.00  0.00     0.161 HD
HETATM    5  C3  UNL     1       7.534  81.790  -1.536  1.00  0.00     0.222 C 
HETATM    6  C4  UNL     1       6.120  81.464  -1.138  1.00  0.00     0.106 C 
HETATM    7  C5  UNL     1       5.901  82.178   0.188  1.00  0.00    -0.003 C 
HETATM    8  N2  UNL     1       4.856  82.535   0.783  1.00  0.00    -0.387 N 
ATOM      9  H2  UNL     1       3.916  82.379   0.416  1.00  0.00     0.159 HD
HETATM   10  C6  UNL     1       5.118  83.180   2.021  1.00  0.00     0.128 C 
HETATM   11  C9  UNL     1       6.485  82.686   2.368  1.00  0.00    -0.011 C 
HETATM   12  C10 UNL     1       6.560  81.496   3.220  1.00  0.00     0.018 C 
HETATM   13  C11 UNL     1       7.200  83.842   3.045  1.00  0.00     0.018 C 
HETATM   14  C12 UNL     1       7.077  82.582   0.993  1.00  0.00     0.086 C 
ENDROOT
BRANCH  10  15
HETATM   15  C7  UNL     1       3.978  82.908   2.906  1.00  0.00     0.130 C 
HETATM   16  C8  UNL     1       4.047  83.442   4.307  1.00  0.00     0.052 C 
HETATM   17 CL1  UNL     1       2.612  83.841   2.138  1.00  0.00    -0.100 Cl
HETATM   18 CL2  UNL     1       3.386  81.238   2.867  1.00  0.00    -0.100 Cl
ENDBRANCH  10  15
BRANCH   5  19
HETATM   19  O1  UNL     1       7.610  83.170  -1.738  1.00  0.00    -0.377 OA
ATOM     20  H1  UNL     1       7.348  83.668  -0.972  1.00  0.00     0.212 HD
ENDBRANCH   5  19
TORSDOF 2
ENDMDL
MODEL 4
REMARK VINA RESULT: -6.781866356      2.257      2.966
REMARK  2 active torsions:
REMARK  status: ('A' for Active; 'I' for Inactive)
REMARK    1  A    between atoms: C3_5  and  O1_6 
REMARK    2  A    between atoms: C6_12  and  C7_13 
ROOT
HETATM    1  C1  UNL     1       6.835  81.699  -0.234  1.00  0.00     0.064 C 
HETATM    2  C2  UNL     1       5.580  82.383   0.110  1.00  0.00    -0.009 C 
HETATM    3  N1  UNL     1       4.702  82.436  -0.854  1.00  0.00    -0.370 N 
ATOM      4  H1  UNL     1       4.925  82.015  -1.756  1.00  0.00     0.161 HD
HETATM    5  C3  UNL     1       3.428  83.073  -0.671  1.00  0.00     0.222 C 
HETATM    6  C4  UNL     1       2.793  82.468   0.552  1.00  0.00     0.106 C 
HETATM    7  C5  UNL     1       3.783  82.718   1.681  1.00  0.00    -0.003 C 
HETATM    8  N2  UNL     1       3.639  82.746   2.928  1.00  0.00    -0.387 N 
ATOM      9  H2  UNL     1       2.745  82.591   3.396  1.00  0.00     0.159 HD
HETATM   10  C6  UNL     1       4.850  83.017   3.617  1.00  0.00     0.128 C 
HETATM   11  C9  UNL     1       5.893  82.617   2.624  1.00  0.00    -0.011 C 
HETATM   12  C10 UNL     1       6.400  81.245   2.716  1.00  0.00     0.018 C 
HETATM   13  C11 UNL     1       7.042  83.596   2.789  1.00  0.00     0.018 C 
HETATM   14  C12 UNL     1       5.197  83.005   1.352  1.00  0.00     0.086 C 
ENDROOT
BRANCH  10  15
HETATM   15  C7  UNL     1       4.768  82.352   4.924  1.00  0.00     0.130 C 
HETATM   16  C8  UNL     1       6.038  82.216   5.712  1.00  0.00     0.052 C 
HETATM   17 CL1  UNL     1       3.744  83.488   5.916  1.00  0.00    -0.100 Cl
HETATM   18 CL2  UNL     1       3.822  80.853   4.938  1.00  0.00    -0.100 Cl
ENDBRANCH  10  15
BRANCH   5  19
HETATM   19  O1  UNL     1       3.541  84.449  -0.455  1.00  0.00    -0.377 OA
ATOM     20  H1  UNL     1       4.444  84.743  -0.436  1.00  0.00     0.212 HD
ENDBRANCH   5  19
TORSDOF 2
ENDMDL
MODEL 5
REMARK VINA RESULT: -6.714295301      2.792      4.571
REMARK  2 active torsions:
REMARK  status: ('A' for Active; 'I' for Inactive)
REMARK    1  A    between atoms: C3_5  and  O1_6 
REMARK    2  A    between atoms: C6_12  and  C7_13 
ROOT
HETATM    1  C1  UNL     1       3.428  82.897   0.763  1.00  0.00     0.064 C 
HETATM    2  C2  UNL     1       4.564  82.669   1.666  1.00  0.00    -0.009 C 
HETATM    3  N1  UNL     1       5.739  82.856   1.128  1.00  0.00    -0.370 N 
ATOM      4  H1  UNL     1       5.800  83.139   0.150  1.00  0.00     0.161 HD
HETATM    5  C3  UNL     1       6.945  82.670   1.884  1.00  0.00     0.222 C 
HETATM    6  C4  UNL     1       6.828  83.505   3.131  1.00  0.00     0.106 C 
HETATM    7  C5  UNL     1       5.571  83.005   3.830  1.00  0.00    -0.003 C 
HETATM    8  N2  UNL     1       5.192  83.083   5.024  1.00  0.00    -0.387 N 
ATOM      9  H2  UNL     1       5.733  83.539   5.759  1.00  0.00     0.159 HD
HETATM   10  C6  UNL     1       3.929  82.471   5.243  1.00  0.00     0.128 C 
HETATM   11  C9  UNL     1       3.322  82.467   3.877  1.00  0.00    -0.011 C 
HETATM   12  C10 UNL     1       2.467  83.606   3.532  1.00  0.00     0.018 C 
HETATM   13  C11 UNL     1       2.524  81.180   3.765  1.00  0.00     0.018 C 
HETATM   14  C12 UNL     1       4.556  82.263   3.049  1.00  0.00     0.086 C 
ENDROOT
BRANCH  10  15
HETATM   15  C7  UNL     1       3.280  83.188   6.347  1.00  0.00     0.130 C 
HETATM   16  C8  UNL     1       1.976  82.645   6.854  1.00  0.00     0.052 C 
HETATM   17 CL1  UNL     1       4.434  82.958   7.741  1.00  0.00    -0.100 Cl
HETATM   18 CL2  UNL     1       3.231  84.951   6.164  1.00  0.00    -0.100 Cl
ENDBRANCH  10  15
BRANCH   5  19
HETATM   19  O1  UNL     1       7.135  81.343   2.277  1.00  0.00    -0.377 OA
ATOM     20  H1  UNL     1       6.598  81.102   3.023  1.00  0.00     0.212 HD
ENDBRANCH   5  19
TORSDOF 2
ENDMDL
