MODEL 1
REMARK VINA RESULT: -8.916644433      0.000      0.000
REMARK  11 active torsions:
REMARK  status: ('A' for Active; 'I' for Inactive)
REMARK    1  A    between atoms: C5_6  and  N1_7 
REMARK    2  A    between atoms: N1_7  and  C6_9 
REMARK    3  A    between atoms: C6_9  and  O2_10 
REMARK    4  A    between atoms: C6_9  and  C7_12 
REMARK    5  A    between atoms: C7_12  and  O3_13 
REMARK    6  A    between atoms: C7_12  and  C8_15 
REMARK    7  A    between atoms: C8_15  and  O4_17 
REMARK    8  A    between atoms: O4_17  and  C10_18 
REMARK    9  A    between atoms: C12_25  and  C13_26 
REMARK   10  A    between atoms: N8_36  and  N9_37 
REMARK   11  A    between atoms: N10_40  and  N11_41 
ROOT
HETATM    1  C1  UNL     1     -28.161 -63.900 -11.134  1.00  0.00     0.070 C 
HETATM    2  C2  UNL     1     -29.598 -63.523 -11.172  1.00  0.00     0.036 A 
HETATM    3  C3  UNL     1     -30.145 -62.909 -10.090  1.00  0.00     0.084 A 
HETATM    4  C4  UNL     1     -31.470 -62.564 -10.128  1.00  0.00     0.204 A 
HETATM    5  O1  UNL     1     -32.051 -62.001  -9.190  1.00  0.00    -0.286 OA
HETATM    6  C5  UNL     1     -32.208 -62.860 -11.283  1.00  0.00     0.131 A 
HETATM    7  C11 UNL     1     -31.620 -63.481 -12.365  1.00  0.00     0.199 A 
HETATM    8  N3  UNL     1     -30.300 -63.812 -12.297  1.00  0.00    -0.237 N 
HETATM    9  N4  UNL     1     -29.619 -64.422 -13.355  1.00  0.00    -0.271 N 
ATOM     10  H4  UNL     1     -28.631 -64.648 -13.245  1.00  0.00     0.189 HD
HETATM   11  C12 UNL     1     -30.218 -64.710 -14.485  1.00  0.00     0.208 A 
HETATM   12  N8  UNL     1     -31.580 -64.400 -14.650  1.00  0.00    -0.158 N 
HETATM   13  N10 UNL     1     -32.273 -63.784 -13.583  1.00  0.00    -0.159 N 
ENDROOT
BRANCH   6  14
HETATM   14  N1  UNL     1     -33.579 -62.522 -11.310  1.00  0.00    -0.355 N 
ATOM     15  H1  UNL     1     -33.894 -61.685 -11.801  1.00  0.00     0.162 HD
BRANCH  14  16
HETATM   16  C6  UNL     1     -34.531 -63.375 -10.635  1.00  0.00     0.249 C 
BRANCH  16  17
HETATM   17  O2  UNL     1     -34.241 -64.694 -10.879  1.00  0.00    -0.374 OA
ATOM     18  H2  UNL     1     -33.542 -64.987 -10.306  1.00  0.00     0.212 HD
ENDBRANCH  16  17
BRANCH  16  19
HETATM   19  C7  UNL     1     -35.958 -63.018 -10.938  1.00  0.00     0.195 C 
BRANCH  19  20
HETATM   20  O3  UNL     1     -36.335 -63.286 -12.223  1.00  0.00    -0.389 OA
ATOM     21  H3  UNL     1     -37.250 -63.524 -12.314  1.00  0.00     0.210 HD
ENDBRANCH  19  20
BRANCH  19  22
HETATM   22  C8  UNL     1     -36.861 -63.557  -9.868  1.00  0.00     0.162 C 
HETATM   23  C9  UNL     1     -36.764 -62.801  -8.578  1.00  0.00     0.043 C 
BRANCH  22  24
HETATM   24  O4  UNL     1     -36.660 -64.953  -9.670  1.00  0.00    -0.299 OA
BRANCH  24  25
HETATM   25  C10 UNL     1     -37.521 -65.901 -10.201  1.00  0.00     0.373 C 
HETATM   26  N2  UNL     1     -38.097 -65.779 -11.490  1.00  0.00    -0.032 NA
HETATM   27  O5  UNL     1     -37.765 -66.903  -9.453  1.00  0.00    -0.242 OA
ENDBRANCH  24  25
ENDBRANCH  22  24
ENDBRANCH  19  22
ENDBRANCH  16  19
ENDBRANCH  14  16
ENDBRANCH   6  14
BRANCH  13  28
HETATM   28  N11 UNL     1     -33.602 -63.419 -13.753  1.00  0.00    -0.321 N 
ATOM     29 2H11 UNL     1     -34.053 -62.828 -13.054  1.00  0.00     0.179 HD
ATOM     30 1H11 UNL     1     -34.123 -63.779 -14.554  1.00  0.00     0.179 HD
ENDBRANCH  13  28
BRANCH  12  31
HETATM   31  N9  UNL     1     -32.252 -64.674 -15.814  1.00  0.00    -0.321 N 
ATOM     32  H92 UNL     1     -32.117 -64.065 -16.622  1.00  0.00     0.179 HD
ATOM     33  H91 UNL     1     -32.882 -65.471 -15.900  1.00  0.00     0.179 HD
ENDBRANCH  12  31
BRANCH  11  34
HETATM   34  C13 UNL     1     -29.495 -65.344 -15.576  1.00  0.00     0.178 A 
HETATM   35  N5  UNL     1     -28.811 -64.662 -16.536  1.00  0.00    -0.302 N 
HETATM   36  C14 UNL     1     -28.250 -65.514 -17.391  1.00  0.00     0.242 A 
ATOM     37  H5  UNL     1     -28.739 -63.647 -16.591  1.00  0.00     0.171 HD
HETATM   38  N6  UNL     1     -27.519 -65.258 -18.443  1.00  0.00    -0.364 N 
HETATM   39  O6  UNL     1     -28.576 -66.722 -16.978  1.00  0.00    -0.199 OA
ATOM     40  H62 UNL     1     -27.266 -64.323 -18.763  1.00  0.00     0.159 HD
ATOM     41  H61 UNL     1     -27.090 -65.911 -19.099  1.00  0.00     0.159 HD
HETATM   42  N7  UNL     1     -29.318 -66.634 -15.895  1.00  0.00    -0.238 N 
ATOM     43  H7  UNL     1     -29.700 -67.426 -15.378  1.00  0.00     0.197 HD
ENDBRANCH  11  34
TORSDOF 11
ENDMDL
MODEL 2
REMARK VINA RESULT: -8.821490109      1.297      1.724
REMARK  11 active torsions:
REMARK  status: ('A' for Active; 'I' for Inactive)
REMARK    1  A    between atoms: C5_6  and  N1_7 
REMARK    2  A    between atoms: N1_7  and  C6_9 
REMARK    3  A    between atoms: C6_9  and  O2_10 
REMARK    4  A    between atoms: C6_9  and  C7_12 
REMARK    5  A    between atoms: C7_12  and  O3_13 
REMARK    6  A    between atoms: C7_12  and  C8_15 
REMARK    7  A    between atoms: C8_15  and  O4_17 
REMARK    8  A    between atoms: O4_17  and  C10_18 
REMARK    9  A    between atoms: C12_25  and  C13_26 
REMARK   10  A    between atoms: N8_36  and  N9_37 
REMARK   11  A    between atoms: N10_40  and  N11_41 
ROOT
HETATM    1  C1  UNL     1     -27.704 -63.520 -11.369  1.00  0.00     0.070 C 
HETATM    2  C2  UNL     1     -29.164 -63.290 -11.212  1.00  0.00     0.036 A 
HETATM    3  C3  UNL     1     -29.613 -62.667 -10.091  1.00  0.00     0.084 A 
HETATM    4  C4  UNL     1     -30.959 -62.458  -9.948  1.00  0.00     0.204 A 
HETATM    5  O1  UNL     1     -31.458 -61.897  -8.963  1.00  0.00    -0.286 OA
HETATM    6  C5  UNL     1     -31.819 -62.898 -10.966  1.00  0.00     0.131 A 
HETATM    7  C11 UNL     1     -31.328 -63.524 -12.092  1.00  0.00     0.199 A 
HETATM    8  N3  UNL     1     -29.984 -63.718 -12.205  1.00  0.00    -0.237 N 
HETATM    9  N4  UNL     1     -29.400 -64.323 -13.322  1.00  0.00    -0.271 N 
ATOM     10  H4  UNL     1     -28.387 -64.443 -13.349  1.00  0.00     0.189 HD
HETATM   11  C12 UNL     1     -30.119 -64.740 -14.335  1.00  0.00     0.208 A 
HETATM   12  N8  UNL     1     -31.516 -64.578 -14.311  1.00  0.00    -0.158 N 
HETATM   13  N10 UNL     1     -32.112 -63.967 -13.183  1.00  0.00    -0.159 N 
ENDROOT
BRANCH   6  14
HETATM   14  N1  UNL     1     -33.208 -62.699 -10.806  1.00  0.00    -0.355 N 
ATOM     15  H1  UNL     1     -33.680 -61.940 -11.297  1.00  0.00     0.162 HD
BRANCH  14  16
HETATM   16  C6  UNL     1     -33.953 -63.584  -9.938  1.00  0.00     0.249 C 
BRANCH  16  17
HETATM   17  O2  UNL     1     -34.636 -64.512 -10.682  1.00  0.00    -0.374 OA
ATOM     18  H2  UNL     1     -35.378 -64.104 -11.113  1.00  0.00     0.212 HD
ENDBRANCH  16  17
BRANCH  16  19
HETATM   19  C7  UNL     1     -34.827 -62.850  -8.962  1.00  0.00     0.195 C 
BRANCH  19  20
HETATM   20  O3  UNL     1     -34.185 -62.472  -7.818  1.00  0.00    -0.389 OA
ATOM     21  H3  UNL     1     -34.768 -62.290  -7.090  1.00  0.00     0.210 HD
ENDBRANCH  19  20
BRANCH  19  22
HETATM   22  C8  UNL     1     -35.589 -61.768  -9.668  1.00  0.00     0.162 C 
HETATM   23  C9  UNL     1     -36.520 -61.016  -8.766  1.00  0.00     0.043 C 
BRANCH  22  24
HETATM   24  O4  UNL     1     -36.269 -62.271 -10.815  1.00  0.00    -0.299 OA
BRANCH  24  25
HETATM   25  C10 UNL     1     -37.529 -62.844 -10.729  1.00  0.00     0.373 C 
HETATM   26  N2  UNL     1     -37.750 -64.134 -10.184  1.00  0.00    -0.032 NA
HETATM   27  O5  UNL     1     -38.487 -62.133 -11.173  1.00  0.00    -0.242 OA
ENDBRANCH  24  25
ENDBRANCH  22  24
ENDBRANCH  19  22
ENDBRANCH  16  19
ENDBRANCH  14  16
ENDBRANCH   6  14
BRANCH  13  28
HETATM   28  N11 UNL     1     -33.483 -63.747 -13.172  1.00  0.00    -0.321 N 
ATOM     29 2H11 UNL     1     -34.118 -64.539 -13.271  1.00  0.00     0.179 HD
ATOM     30 1H11 UNL     1     -33.838 -62.792 -13.106  1.00  0.00     0.179 HD
ENDBRANCH  13  28
BRANCH  12  31
HETATM   31  N9  UNL     1     -32.314 -64.990 -15.348  1.00  0.00    -0.321 N 
ATOM     32  H92 UNL     1     -32.185 -64.573 -16.270  1.00  0.00     0.179 HD
ATOM     33  H91 UNL     1     -33.032 -65.704 -15.227  1.00  0.00     0.179 HD
ENDBRANCH  12  31
BRANCH  11  34
HETATM   34  C13 UNL     1     -29.495 -65.367 -15.490  1.00  0.00     0.178 A 
HETATM   35  N5  UNL     1     -28.847 -64.683 -16.472  1.00  0.00    -0.302 N 
HETATM   36  C14 UNL     1     -28.379 -65.528 -17.387  1.00  0.00     0.242 A 
ATOM     37  H5  UNL     1     -28.737 -63.669 -16.502  1.00  0.00     0.171 HD
HETATM   38  N6  UNL     1     -27.708 -65.268 -18.477  1.00  0.00    -0.364 N 
HETATM   39  O6  UNL     1     -28.728 -66.734 -16.989  1.00  0.00    -0.199 OA
ATOM     40  H62 UNL     1     -27.437 -64.334 -18.785  1.00  0.00     0.159 HD
ATOM     41  H61 UNL     1     -27.349 -65.916 -19.179  1.00  0.00     0.159 HD
HETATM   42  N7  UNL     1     -29.394 -66.652 -15.857  1.00  0.00    -0.238 N 
ATOM     43  H7  UNL     1     -29.774 -67.444 -15.339  1.00  0.00     0.197 HD
ENDBRANCH  11  34
TORSDOF 11
ENDMDL
MODEL 3
REMARK VINA RESULT: -8.582285349      1.380      2.009
REMARK  11 active torsions:
REMARK  status: ('A' for Active; 'I' for Inactive)
REMARK    1  A    between atoms: C5_6  and  N1_7 
REMARK    2  A    between atoms: N1_7  and  C6_9 
REMARK    3  A    between atoms: C6_9  and  O2_10 
REMARK    4  A    between atoms: C6_9  and  C7_12 
REMARK    5  A    between atoms: C7_12  and  O3_13 
REMARK    6  A    between atoms: C7_12  and  C8_15 
REMARK    7  A    between atoms: C8_15  and  O4_17 
REMARK    8  A    between atoms: O4_17  and  C10_18 
REMARK    9  A    between atoms: C12_25  and  C13_26 
REMARK   10  A    between atoms: N8_36  and  N9_37 
REMARK   11  A    between atoms: N10_40  and  N11_41 
ROOT
HETATM    1  C1  UNL     1     -28.051 -63.762 -11.224  1.00  0.00     0.070 C 
HETATM    2  C2  UNL     1     -29.505 -63.452 -11.207  1.00  0.00     0.036 A 
HETATM    3  C3  UNL     1     -30.032 -62.838 -10.115  1.00  0.00     0.084 A 
HETATM    4  C4  UNL     1     -31.372 -62.555 -10.101  1.00  0.00     0.204 A 
HETATM    5  O1  UNL     1     -31.938 -61.996  -9.151  1.00  0.00    -0.286 OA
HETATM    6  C5  UNL     1     -32.146 -62.913 -11.216  1.00  0.00     0.131 A 
HETATM    7  C11 UNL     1     -31.576 -63.533 -12.309  1.00  0.00     0.199 A 
HETATM    8  N3  UNL     1     -30.240 -63.801 -12.292  1.00  0.00    -0.237 N 
HETATM    9  N4  UNL     1     -29.579 -64.405 -13.365  1.00  0.00    -0.271 N 
ATOM     10  H4  UNL     1     -28.577 -64.583 -13.295  1.00  0.00     0.189 HD
HETATM   11  C12 UNL     1     -30.212 -64.748 -14.460  1.00  0.00     0.208 A 
HETATM   12  N8  UNL     1     -31.593 -64.505 -14.572  1.00  0.00    -0.158 N 
HETATM   13  N10 UNL     1     -32.267 -63.895 -13.489  1.00  0.00    -0.159 N 
ENDROOT
BRANCH   6  14
HETATM   14  N1  UNL     1     -33.530 -62.639 -11.190  1.00  0.00    -0.355 N 
ATOM     15  H1  UNL     1     -33.904 -61.826 -11.680  1.00  0.00     0.162 HD
BRANCH  14  16
HETATM   16  C6  UNL     1     -34.412 -63.523 -10.460  1.00  0.00     0.249 C 
BRANCH  16  17
HETATM   17  O2  UNL     1     -34.159 -64.828 -10.798  1.00  0.00    -0.374 OA
ATOM     18  H2  UNL     1     -34.132 -65.369 -10.018  1.00  0.00     0.212 HD
ENDBRANCH  16  17
BRANCH  16  19
HETATM   19  C7  UNL     1     -35.861 -63.148 -10.593  1.00  0.00     0.195 C 
BRANCH  19  20
HETATM   20  O3  UNL     1     -36.419 -63.506 -11.786  1.00  0.00    -0.389 OA
ATOM     21  H3  UNL     1     -35.822 -63.959 -12.370  1.00  0.00     0.210 HD
ENDBRANCH  19  20
BRANCH  19  22
HETATM   22  C8  UNL     1     -36.615 -63.572  -9.368  1.00  0.00     0.162 C 
HETATM   23  C9  UNL     1     -37.641 -64.630  -9.642  1.00  0.00     0.043 C 
BRANCH  22  24
HETATM   24  O4  UNL     1     -37.188 -62.455  -8.694  1.00  0.00    -0.299 OA
BRANCH  24  25
HETATM   25  C10 UNL     1     -36.425 -61.594  -7.919  1.00  0.00     0.373 C 
HETATM   26  N2  UNL     1     -35.281 -62.020  -7.199  1.00  0.00    -0.032 NA
HETATM   27  O5  UNL     1     -36.818 -60.383  -7.895  1.00  0.00    -0.242 OA
ENDBRANCH  24  25
ENDBRANCH  22  24
ENDBRANCH  19  22
ENDBRANCH  16  19
ENDBRANCH  14  16
ENDBRANCH   6  14
BRANCH  13  28
HETATM   28  N11 UNL     1     -33.618 -63.596 -13.608  1.00  0.00    -0.321 N 
ATOM     29 2H11 UNL     1     -34.251 -63.823 -12.841  1.00  0.00     0.179 HD
ATOM     30 1H11 UNL     1     -33.967 -63.190 -14.477  1.00  0.00     0.179 HD
ENDBRANCH  13  28
BRANCH  12  31
HETATM   31  N9  UNL     1     -32.301 -64.838 -15.698  1.00  0.00    -0.321 N 
ATOM     32  H92 UNL     1     -33.108 -65.456 -15.614  1.00  0.00     0.179 HD
ATOM     33  H91 UNL     1     -32.048 -64.484 -16.621  1.00  0.00     0.179 HD
ENDBRANCH  12  31
BRANCH  11  34
HETATM   34  C13 UNL     1     -29.508 -65.375 -15.569  1.00  0.00     0.178 A 
HETATM   35  N5  UNL     1     -28.826 -64.688 -16.525  1.00  0.00    -0.302 N 
HETATM   36  C14 UNL     1     -28.285 -65.534 -17.399  1.00  0.00     0.242 A 
ATOM     37  H5  UNL     1     -28.742 -63.672 -16.567  1.00  0.00     0.171 HD
HETATM   38  N6  UNL     1     -27.561 -65.271 -18.454  1.00  0.00    -0.364 N 
HETATM   39  O6  UNL     1     -28.621 -66.743 -17.000  1.00  0.00    -0.199 OA
ATOM     40  H62 UNL     1     -27.300 -64.335 -18.763  1.00  0.00     0.159 HD
ATOM     41  H61 UNL     1     -27.147 -65.920 -19.124  1.00  0.00     0.159 HD
HETATM   42  N7  UNL     1     -29.351 -66.663 -15.907  1.00  0.00    -0.238 N 
ATOM     43  H7  UNL     1     -29.737 -67.457 -15.398  1.00  0.00     0.197 HD
ENDBRANCH  11  34
TORSDOF 11
ENDMDL
MODEL 4
REMARK VINA RESULT: -8.401816644      2.720      4.234
REMARK  11 active torsions:
REMARK  status: ('A' for Active; 'I' for Inactive)
REMARK    1  A    between atoms: C5_6  and  N1_7 
REMARK    2  A    between atoms: N1_7  and  C6_9 
REMARK    3  A    between atoms: C6_9  and  O2_10 
REMARK    4  A    between atoms: C6_9  and  C7_12 
REMARK    5  A    between atoms: C7_12  and  O3_13 
REMARK    6  A    between atoms: C7_12  and  C8_15 
REMARK    7  A    between atoms: C8_15  and  O4_17 
REMARK    8  A    between atoms: O4_17  and  C10_18 
REMARK    9  A    between atoms: C12_25  and  C13_26 
REMARK   10  A    between atoms: N8_36  and  N9_37 
REMARK   11  A    between atoms: N10_40  and  N11_41 
ROOT
HETATM    1  C1  UNL     1     -30.824 -63.568 -17.424  1.00  0.00     0.070 C 
HETATM    2  C2  UNL     1     -31.667 -63.540 -16.201  1.00  0.00     0.036 A 
HETATM    3  C3  UNL     1     -33.019 -63.509 -16.336  1.00  0.00     0.084 A 
HETATM    4  C4  UNL     1     -33.794 -63.482 -15.207  1.00  0.00     0.204 A 
HETATM    5  O1  UNL     1     -35.032 -63.455 -15.234  1.00  0.00    -0.286 OA
HETATM    6  C5  UNL     1     -33.158 -63.486 -13.956  1.00  0.00     0.131 A 
HETATM    7  C11 UNL     1     -31.783 -63.522 -13.856  1.00  0.00     0.199 A 
HETATM    8  N3  UNL     1     -31.040 -63.547 -14.998  1.00  0.00    -0.237 N 
HETATM    9  N4  UNL     1     -29.643 -63.607 -14.988  1.00  0.00    -0.271 N 
ATOM     10  H4  UNL     1     -29.140 -63.623 -15.875  1.00  0.00     0.189 HD
HETATM   11  C12 UNL     1     -28.963 -63.645 -13.868  1.00  0.00     0.208 A 
HETATM   12  N8  UNL     1     -29.644 -63.627 -12.638  1.00  0.00    -0.158 N 
HETATM   13  N10 UNL     1     -31.057 -63.566 -12.643  1.00  0.00    -0.159 N 
ENDROOT
BRANCH   6  14
HETATM   14  N1  UNL     1     -33.959 -63.437 -12.795  1.00  0.00    -0.355 N 
ATOM     15  H1  UNL     1     -34.038 -64.253 -12.188  1.00  0.00     0.162 HD
BRANCH  14  16
HETATM   16  C6  UNL     1     -34.666 -62.216 -12.475  1.00  0.00     0.249 C 
BRANCH  16  17
HETATM   17  O2  UNL     1     -33.906 -61.434 -11.642  1.00  0.00    -0.374 OA
ATOM     18  H2  UNL     1     -34.449 -61.063 -10.956  1.00  0.00     0.212 HD
ENDBRANCH  16  17
BRANCH  16  19
HETATM   19  C7  UNL     1     -36.053 -62.461 -11.953  1.00  0.00     0.195 C 
BRANCH  19  20
HETATM   20  O3  UNL     1     -36.904 -63.002 -12.874  1.00  0.00    -0.389 OA
ATOM     21  H3  UNL     1     -36.991 -63.945 -12.811  1.00  0.00     0.210 HD
ENDBRANCH  19  20
BRANCH  19  22
HETATM   22  C8  UNL     1     -35.987 -63.169 -10.632  1.00  0.00     0.162 C 
HETATM   23  C9  UNL     1     -37.041 -64.223 -10.474  1.00  0.00     0.043 C 
BRANCH  22  24
HETATM   24  O4  UNL     1     -36.003 -62.250  -9.545  1.00  0.00    -0.299 OA
BRANCH  24  25
HETATM   25  C10 UNL     1     -35.059 -62.297  -8.529  1.00  0.00     0.373 C 
HETATM   26  N2  UNL     1     -35.368 -61.993  -7.180  1.00  0.00    -0.032 NA
HETATM   27  O5  UNL     1     -33.884 -62.635  -8.887  1.00  0.00    -0.242 OA
ENDBRANCH  24  25
ENDBRANCH  22  24
ENDBRANCH  19  22
ENDBRANCH  16  19
ENDBRANCH  14  16
ENDBRANCH   6  14
BRANCH  13  28
HETATM   28  N11 UNL     1     -31.746 -63.608 -11.437  1.00  0.00    -0.321 N 
ATOM     29 2H11 UNL     1     -32.741 -63.386 -11.421  1.00  0.00     0.179 HD
ATOM     30 1H11 UNL     1     -31.239 -63.820 -10.577  1.00  0.00     0.179 HD
ENDBRANCH  13  28
BRANCH  12  31
HETATM   31  N9  UNL     1     -28.981 -63.671 -11.438  1.00  0.00    -0.321 N 
ATOM     32  H92 UNL     1     -28.289 -62.952 -11.226  1.00  0.00     0.179 HD
ATOM     33  H91 UNL     1     -29.160 -64.401 -10.748  1.00  0.00     0.179 HD
ENDBRANCH  12  31
BRANCH  11  34
HETATM   34  C13 UNL     1     -27.509 -63.707 -13.876  1.00  0.00     0.178 A 
HETATM   35  N5  UNL     1     -26.774 -64.448 -13.002  1.00  0.00    -0.302 N 
HETATM   36  C14 UNL     1     -25.476 -64.307 -13.262  1.00  0.00     0.242 A 
ATOM     37  H5  UNL     1     -27.161 -65.027 -12.257  1.00  0.00     0.171 HD
HETATM   38  N6  UNL     1     -24.454 -64.848 -12.654  1.00  0.00    -0.364 N 
HETATM   39  O6  UNL     1     -25.391 -63.485 -14.288  1.00  0.00    -0.199 OA
ATOM     40  H62 UNL     1     -24.520 -65.485 -11.860  1.00  0.00     0.159 HD
ATOM     41  H61 UNL     1     -23.460 -64.739 -12.852  1.00  0.00     0.159 HD
HETATM   42  N7  UNL     1     -26.598 -63.120 -14.665  1.00  0.00    -0.238 N 
ATOM     43  H7  UNL     1     -26.808 -62.489 -15.437  1.00  0.00     0.197 HD
ENDBRANCH  11  34
TORSDOF 11
ENDMDL
MODEL 5
REMARK VINA RESULT: -8.366689305      1.062      1.201
REMARK  11 active torsions:
REMARK  status: ('A' for Active; 'I' for Inactive)
REMARK    1  A    between atoms: C5_6  and  N1_7 
REMARK    2  A    between atoms: N1_7  and  C6_9 
REMARK    3  A    between atoms: C6_9  and  O2_10 
REMARK    4  A    between atoms: C6_9  and  C7_12 
REMARK    5  A    between atoms: C7_12  and  O3_13 
REMARK    6  A    between atoms: C7_12  and  C8_15 
REMARK    7  A    between atoms: C8_15  and  O4_17 
REMARK    8  A    between atoms: O4_17  and  C10_18 
REMARK    9  A    between atoms: C12_25  and  C13_26 
REMARK   10  A    between atoms: N8_36  and  N9_37 
REMARK   11  A    between atoms: N10_40  and  N11_41 
ROOT
HETATM    1  C1  UNL     1     -28.989 -64.392 -10.881  1.00  0.00     0.070 C 
HETATM    2  C2  UNL     1     -30.352 -63.825 -11.053  1.00  0.00     0.036 A 
HETATM    3  C3  UNL     1     -30.952 -63.224  -9.992  1.00  0.00     0.084 A 
HETATM    4  C4  UNL     1     -32.208 -62.704 -10.153  1.00  0.00     0.204 A 
HETATM    5  O1  UNL     1     -32.830 -62.138  -9.243  1.00  0.00    -0.286 OA
HETATM    6  C5  UNL     1     -32.826 -62.815 -11.408  1.00  0.00     0.131 A 
HETATM    7  C11 UNL     1     -32.186 -63.429 -12.465  1.00  0.00     0.199 A 
HETATM    8  N3  UNL     1     -30.936 -63.937 -12.273  1.00  0.00    -0.237 N 
HETATM    9  N4  UNL     1     -30.207 -64.553 -13.294  1.00  0.00    -0.271 N 
ATOM     10  H4  UNL     1     -29.276 -64.917 -13.091  1.00  0.00     0.189 HD
HETATM   11  C12 UNL     1     -30.689 -64.677 -14.507  1.00  0.00     0.208 A 
HETATM   12  N8  UNL     1     -31.970 -64.178 -14.802  1.00  0.00    -0.158 N 
HETATM   13  N10 UNL     1     -32.712 -63.553 -13.772  1.00  0.00    -0.159 N 
ENDROOT
BRANCH   6  14
HETATM   14  N1  UNL     1     -34.129 -62.296 -11.565  1.00  0.00    -0.355 N 
ATOM     15  H1  UNL     1     -34.269 -61.353 -11.928  1.00  0.00     0.162 HD
BRANCH  14  16
HETATM   16  C6  UNL     1     -35.265 -63.117 -11.205  1.00  0.00     0.249 C 
BRANCH  16  17
HETATM   17  O2  UNL     1     -36.149 -63.186 -12.251  1.00  0.00    -0.374 OA
ATOM     18  H2  UNL     1     -36.832 -63.818 -12.061  1.00  0.00     0.212 HD
ENDBRANCH  16  17
BRANCH  16  19
HETATM   19  C7  UNL     1     -35.908 -62.695  -9.915  1.00  0.00     0.195 C 
BRANCH  19  20
HETATM   20  O3  UNL     1     -35.664 -61.396  -9.572  1.00  0.00    -0.389 OA
ATOM     21  H3  UNL     1     -36.439 -60.913  -9.312  1.00  0.00     0.210 HD
ENDBRANCH  19  20
BRANCH  19  22
HETATM   22  C8  UNL     1     -37.349 -63.113  -9.899  1.00  0.00     0.162 C 
HETATM   23  C9  UNL     1     -38.248 -62.108  -9.243  1.00  0.00     0.043 C 
BRANCH  22  24
HETATM   24  O4  UNL     1     -37.511 -64.407  -9.327  1.00  0.00    -0.299 OA
BRANCH  24  25
HETATM   25  C10 UNL     1     -37.693 -65.538 -10.110  1.00  0.00     0.373 C 
HETATM   26  N2  UNL     1     -37.648 -66.852  -9.582  1.00  0.00    -0.032 NA
HETATM   27  O5  UNL     1     -37.907 -65.321 -11.346  1.00  0.00    -0.242 OA
ENDBRANCH  24  25
ENDBRANCH  22  24
ENDBRANCH  19  22
ENDBRANCH  16  19
ENDBRANCH  14  16
ENDBRANCH   6  14
BRANCH  13  28
HETATM   28  N11 UNL     1     -33.954 -63.003 -14.063  1.00  0.00    -0.321 N 
ATOM     29 2H11 UNL     1     -34.510 -62.597 -13.311  1.00  0.00     0.179 HD
ATOM     30 1H11 UNL     1     -34.311 -63.049 -15.018  1.00  0.00     0.179 HD
ENDBRANCH  13  28
BRANCH  12  31
HETATM   31  N9  UNL     1     -32.518 -64.275 -16.056  1.00  0.00    -0.321 N 
ATOM     32  H92 UNL     1     -31.904 -64.416 -16.857  1.00  0.00     0.179 HD
ATOM     33  H91 UNL     1     -33.524 -64.213 -16.212  1.00  0.00     0.179 HD
ENDBRANCH  12  31
BRANCH  11  34
HETATM   34  C13 UNL     1     -29.917 -65.321 -15.558  1.00  0.00     0.178 A 
HETATM   35  N5  UNL     1     -29.082 -64.660 -16.405  1.00  0.00    -0.302 N 
HETATM   36  C14 UNL     1     -28.514 -65.517 -17.251  1.00  0.00     0.242 A 
ATOM     37  H5  UNL     1     -28.915 -63.654 -16.394  1.00  0.00     0.171 HD
HETATM   38  N6  UNL     1     -27.660 -65.279 -18.210  1.00  0.00    -0.364 N 
HETATM   39  O6  UNL     1     -28.986 -66.708 -16.943  1.00  0.00    -0.199 OA
ATOM     40  H62 UNL     1     -27.294 -64.357 -18.448  1.00  0.00     0.159 HD
ATOM     41  H61 UNL     1     -27.225 -65.936 -18.858  1.00  0.00     0.159 HD
HETATM   42  N7  UNL     1     -29.824 -66.605 -15.934  1.00  0.00    -0.238 N 
ATOM     43  H7  UNL     1     -30.326 -67.382 -15.504  1.00  0.00     0.197 HD
ENDBRANCH  11  34
TORSDOF 11
ENDMDL
