MODEL 1
REMARK VINA RESULT: -8.983184807      0.000      0.000
REMARK  11 active torsions:
REMARK  status: ('A' for Active; 'I' for Inactive)
REMARK    1  A    between atoms: S1_2  and  N1_3 
REMARK    2  A    between atoms: S1_2  and  C2_7 
REMARK    3  A    between atoms: C3_8  and  C4_9 
REMARK    4  A    between atoms: C4_9  and  N2_10 
REMARK    5  A    between atoms: C5_13  and  N3_14 
REMARK    6  A    between atoms: N3_14  and  N4_16 
REMARK    7  A    between atoms: N4_16  and  C6_18 
REMARK    8  A    between atoms: C8_25  and  N8_26 
REMARK    9  A    between atoms: C9_31  and  C10_32 
REMARK   10  A    between atoms: C11_35  and  N10_36 
REMARK   11  A    between atoms: N11_39  and  O6_40 
ROOT
HETATM    1  C2  UNL     1     -30.566 -63.904 -12.896  1.00  0.00     0.151 A 
HETATM    2  C3  UNL     1     -29.726 -63.603 -11.789  1.00  0.00     0.054 A 
HETATM    3  C5  UNL     1     -28.375 -63.576 -11.981  1.00  0.00     0.082 A 
HETATM    4  C9  UNL     1     -27.813 -63.834 -13.243  1.00  0.00     0.104 A 
HETATM    5  C11 UNL     1     -28.696 -64.120 -14.274  1.00  0.00     0.145 A 
HETATM    6  N11 UNL     1     -30.008 -64.152 -14.097  1.00  0.00    -0.197 N 
ENDROOT
BRANCH   3   7
HETATM    7  N3  UNL     1     -27.397 -63.365 -10.946  1.00  0.00    -0.296 N 
ATOM      8  H3  UNL     1     -26.866 -62.495 -10.899  1.00  0.00     0.187 HD
BRANCH   7   9
HETATM    9  N4  UNL     1     -27.189 -64.386 -10.002  1.00  0.00    -0.264 N 
ATOM     10  H4  UNL     1     -27.898 -65.111  -9.901  1.00  0.00     0.190 HD
BRANCH   9  11
HETATM   11  C6  UNL     1     -26.015 -64.446  -9.175  1.00  0.00     0.244 A 
HETATM   12  N5  UNL     1     -25.679 -63.475  -8.435  1.00  0.00    -0.295 N 
HETATM   13  C7  UNL     1     -24.503 -63.586  -7.633  1.00  0.00     0.194 A 
ATOM     14  H5  UNL     1     -26.240 -62.623  -8.413  1.00  0.00     0.172 HD
HETATM   15  N6  UNL     1     -24.065 -62.545  -6.780  1.00  0.00    -0.063 NA
HETATM   16  N7  UNL     1     -23.782 -64.655  -7.653  1.00  0.00    -0.315 N 
HETATM   17  C8  UNL     1     -24.099 -65.782  -8.460  1.00  0.00     0.435 A 
ATOM     18  H7  UNL     1     -22.949 -64.693  -7.064  1.00  0.00     0.166 HD
HETATM   19  O4  UNL     1     -25.263 -65.594  -9.212  1.00  0.00    -0.269 OA
BRANCH  17  20
HETATM   20  N8  UNL     1     -24.359 -66.915  -7.569  1.00  0.00    -0.034 N 
ATOM     21  H83 UNL     1     -23.521 -67.464  -7.374  1.00  0.00     0.279 HD
ATOM     22  H82 UNL     1     -24.559 -66.627  -6.612  1.00  0.00     0.279 HD
ATOM     23  H81 UNL     1     -25.110 -67.470  -7.980  1.00  0.00     0.279 HD
ENDBRANCH  17  20
ENDBRANCH   9  11
ENDBRANCH   7   9
ENDBRANCH   3   7
BRANCH   2  24
HETATM   24  C4  UNL     1     -30.417 -63.298 -10.569  1.00  0.00     0.184 C 
BRANCH  24  25
HETATM   25  N2  UNL     1     -30.156 -62.098  -9.886  1.00  0.00    -0.126 N 
HETATM   26  O2  UNL     1     -30.740 -61.003 -10.117  1.00  0.00    -0.532 OA
HETATM   27  O3  UNL     1     -29.233 -62.022  -8.844  1.00  0.00    -0.532 OA
ENDBRANCH  24  25
ENDBRANCH   2  24
BRANCH   4  28
HETATM   28  C10 UNL     1     -26.395 -63.738 -13.545  1.00  0.00     0.271 C 
HETATM   29  N9  UNL     1     -25.477 -64.611 -12.903  1.00  0.00    -0.057 NA
HETATM   30  O5  UNL     1     -25.944 -62.921 -14.345  1.00  0.00    -0.271 OA
ENDBRANCH   4  28
BRANCH   1  31
HETATM   31  S1  UNL     1     -32.270 -63.914 -12.693  1.00  0.00     0.065 S 
HETATM   32  C1  UNL     1     -32.667 -64.998 -11.314  1.00  0.00     0.143 C 
HETATM   33  O1  UNL     1     -33.119 -64.294 -13.821  1.00  0.00    -0.244 OA
BRANCH  31  34
HETATM   34  N1  UNL     1     -32.708 -62.459 -12.179  1.00  0.00    -0.356 N 
ATOM     35  H12 UNL     1     -32.827 -62.155 -11.213  1.00  0.00     0.166 HD
ATOM     36  H11 UNL     1     -32.835 -61.923 -13.037  1.00  0.00     0.166 HD
ENDBRANCH  31  34
ENDBRANCH   1  31
BRANCH   5  37
HETATM   37  N10 UNL     1     -28.191 -64.362 -15.444  1.00  0.00    -0.383 N 
ATOM     38 2H10 UNL     1     -28.332 -65.271 -15.884  1.00  0.00     0.157 HD
ATOM     39 1H10 UNL     1     -27.661 -63.615 -15.891  1.00  0.00     0.157 HD
ENDBRANCH   5  37
BRANCH   6  40
HETATM   40  O6  UNL     1     -30.893 -64.440 -15.126  1.00  0.00    -0.280 OA
ATOM     41  H6  UNL     1     -31.016 -65.363 -15.320  1.00  0.00     0.245 HD
ENDBRANCH   6  40
TORSDOF 11
ENDMDL
MODEL 2
REMARK VINA RESULT: -8.977429343      0.710      1.488
REMARK  11 active torsions:
REMARK  status: ('A' for Active; 'I' for Inactive)
REMARK    1  A    between atoms: S1_2  and  N1_3 
REMARK    2  A    between atoms: S1_2  and  C2_7 
REMARK    3  A    between atoms: C3_8  and  C4_9 
REMARK    4  A    between atoms: C4_9  and  N2_10 
REMARK    5  A    between atoms: C5_13  and  N3_14 
REMARK    6  A    between atoms: N3_14  and  N4_16 
REMARK    7  A    between atoms: N4_16  and  C6_18 
REMARK    8  A    between atoms: C8_25  and  N8_26 
REMARK    9  A    between atoms: C9_31  and  C10_32 
REMARK   10  A    between atoms: C11_35  and  N10_36 
REMARK   11  A    between atoms: N11_39  and  O6_40 
ROOT
HETATM    1  C2  UNL     1     -30.431 -63.899 -12.802  1.00  0.00     0.151 A 
HETATM    2  C3  UNL     1     -29.589 -63.642 -11.686  1.00  0.00     0.054 A 
HETATM    3  C5  UNL     1     -28.237 -63.629 -11.875  1.00  0.00     0.082 A 
HETATM    4  C9  UNL     1     -27.677 -63.858 -13.143  1.00  0.00     0.104 A 
HETATM    5  C11 UNL     1     -28.561 -64.102 -14.183  1.00  0.00     0.145 A 
HETATM    6  N11 UNL     1     -29.875 -64.119 -14.009  1.00  0.00    -0.197 N 
ENDROOT
BRANCH   3   7
HETATM    7  N3  UNL     1     -27.258 -63.462 -10.833  1.00  0.00    -0.296 N 
ATOM      8  H3  UNL     1     -26.637 -62.653 -10.825  1.00  0.00     0.187 HD
BRANCH   7   9
HETATM    9  N4  UNL     1     -27.177 -64.440  -9.826  1.00  0.00    -0.264 N 
ATOM     10  H4  UNL     1     -27.987 -65.034  -9.654  1.00  0.00     0.190 HD
BRANCH   9  11
HETATM   11  C6  UNL     1     -25.995 -64.635  -9.032  1.00  0.00     0.244 A 
HETATM   12  N5  UNL     1     -25.478 -65.782  -8.888  1.00  0.00    -0.295 N 
HETATM   13  C7  UNL     1     -24.304 -65.920  -8.088  1.00  0.00     0.194 A 
ATOM     14  H5  UNL     1     -25.895 -66.597  -9.339  1.00  0.00     0.172 HD
HETATM   15  N6  UNL     1     -23.668 -67.168  -7.883  1.00  0.00    -0.063 NA
HETATM   16  N7  UNL     1     -23.768 -64.900  -7.510  1.00  0.00    -0.315 N 
HETATM   17  C8  UNL     1     -24.297 -63.584  -7.626  1.00  0.00     0.435 A 
ATOM     18  H7  UNL     1     -22.929 -65.042  -6.946  1.00  0.00     0.166 HD
HETATM   19  O4  UNL     1     -25.441 -63.534  -8.426  1.00  0.00    -0.269 OA
BRANCH  17  20
HETATM   20  N8  UNL     1     -23.290 -62.752  -8.289  1.00  0.00    -0.034 N 
ATOM     21  H83 UNL     1     -23.344 -61.771  -8.013  1.00  0.00     0.279 HD
ATOM     22  H82 UNL     1     -22.344 -62.934  -7.956  1.00  0.00     0.279 HD
ATOM     23  H81 UNL     1     -23.386 -62.886  -9.296  1.00  0.00     0.279 HD
ENDBRANCH  17  20
ENDBRANCH   9  11
ENDBRANCH   7   9
ENDBRANCH   3   7
BRANCH   2  24
HETATM   24  C4  UNL     1     -30.277 -63.362 -10.458  1.00  0.00     0.184 C 
BRANCH  24  25
HETATM   25  N2  UNL     1     -30.029 -62.169  -9.760  1.00  0.00    -0.126 N 
HETATM   26  O2  UNL     1     -30.624 -61.077  -9.977  1.00  0.00    -0.532 OA
HETATM   27  O3  UNL     1     -29.107 -62.097  -8.718  1.00  0.00    -0.532 OA
ENDBRANCH  24  25
ENDBRANCH   2  24
BRANCH   4  28
HETATM   28  C10 UNL     1     -26.257 -63.773 -13.440  1.00  0.00     0.271 C 
HETATM   29  N9  UNL     1     -25.347 -64.646 -12.785  1.00  0.00    -0.057 NA
HETATM   30  O5  UNL     1     -25.797 -62.967 -14.246  1.00  0.00    -0.271 OA
ENDBRANCH   4  28
BRANCH   1  31
HETATM   31  S1  UNL     1     -32.136 -63.890 -12.603  1.00  0.00     0.065 S 
HETATM   32  C1  UNL     1     -32.547 -64.982 -11.234  1.00  0.00     0.143 C 
HETATM   33  O1  UNL     1     -32.987 -64.249 -13.735  1.00  0.00    -0.244 OA
BRANCH  31  34
HETATM   34  N1  UNL     1     -32.557 -62.434 -12.075  1.00  0.00    -0.356 N 
ATOM     35  H12 UNL     1     -31.936 -61.669 -11.811  1.00  0.00     0.166 HD
ATOM     36  H11 UNL     1     -33.576 -62.461 -12.069  1.00  0.00     0.166 HD
ENDBRANCH  31  34
ENDBRANCH   1  31
BRANCH   5  37
HETATM   37  N10 UNL     1     -28.058 -64.316 -15.359  1.00  0.00    -0.383 N 
ATOM     38 2H10 UNL     1     -27.075 -64.114 -15.539  1.00  0.00     0.157 HD
ATOM     39 1H10 UNL     1     -28.680 -64.690 -16.076  1.00  0.00     0.157 HD
ENDBRANCH   5  37
BRANCH   6  40
HETATM   40  O6  UNL     1     -30.761 -64.365 -15.048  1.00  0.00    -0.280 OA
ATOM     41  H6  UNL     1     -30.702 -65.226 -15.447  1.00  0.00     0.245 HD
ENDBRANCH   6  40
TORSDOF 11
ENDMDL
MODEL 3
REMARK VINA RESULT: -8.967370012      3.367      7.181
REMARK  11 active torsions:
REMARK  status: ('A' for Active; 'I' for Inactive)
REMARK    1  A    between atoms: S1_2  and  N1_3 
REMARK    2  A    between atoms: S1_2  and  C2_7 
REMARK    3  A    between atoms: C3_8  and  C4_9 
REMARK    4  A    between atoms: C4_9  and  N2_10 
REMARK    5  A    between atoms: C5_13  and  N3_14 
REMARK    6  A    between atoms: N3_14  and  N4_16 
REMARK    7  A    between atoms: N4_16  and  C6_18 
REMARK    8  A    between atoms: C8_25  and  N8_26 
REMARK    9  A    between atoms: C9_31  and  C10_32 
REMARK   10  A    between atoms: C11_35  and  N10_36 
REMARK   11  A    between atoms: N11_39  and  O6_40 
ROOT
HETATM    1  C2  UNL     1     -28.666 -63.838 -13.379  1.00  0.00     0.151 A 
HETATM    2  C3  UNL     1     -29.923 -64.234 -12.845  1.00  0.00     0.054 A 
HETATM    3  C5  UNL     1     -30.362 -63.639 -11.698  1.00  0.00     0.082 A 
HETATM    4  C9  UNL     1     -29.600 -62.651 -11.051  1.00  0.00     0.104 A 
HETATM    5  C11 UNL     1     -28.385 -62.318 -11.632  1.00  0.00     0.145 A 
HETATM    6  N11 UNL     1     -27.949 -62.892 -12.743  1.00  0.00    -0.197 N 
ENDROOT
BRANCH   3   7
HETATM    7  N3  UNL     1     -31.570 -63.988 -10.996  1.00  0.00    -0.296 N 
ATOM      8  H3  UNL     1     -31.567 -64.715 -10.281  1.00  0.00     0.187 HD
BRANCH   7   9
HETATM    9  N4  UNL     1     -32.755 -63.303 -11.320  1.00  0.00    -0.264 N 
ATOM     10  H4  UNL     1     -32.785 -62.755 -12.180  1.00  0.00     0.190 HD
BRANCH   9  11
HETATM   11  C6  UNL     1     -33.924 -63.344 -10.485  1.00  0.00     0.244 A 
HETATM   12  N5  UNL     1     -34.002 -62.660  -9.423  1.00  0.00    -0.295 N 
HETATM   13  C7  UNL     1     -35.186 -62.738  -8.630  1.00  0.00     0.194 A 
ATOM     14  H5  UNL     1     -33.227 -62.060  -9.137  1.00  0.00     0.172 HD
HETATM   15  N6  UNL     1     -35.347 -62.001  -7.432  1.00  0.00    -0.063 NA
HETATM   16  N7  UNL     1     -36.172 -63.494  -8.977  1.00  0.00    -0.315 N 
HETATM   17  C8  UNL     1     -36.151 -64.290 -10.156  1.00  0.00     0.435 A 
ATOM     18  H7  UNL     1     -37.000 -63.521  -8.382  1.00  0.00     0.166 HD
HETATM   19  O4  UNL     1     -34.961 -64.156 -10.875  1.00  0.00    -0.269 OA
BRANCH  17  20
HETATM   20  N8  UNL     1     -37.224 -63.820 -11.035  1.00  0.00    -0.034 N 
ATOM     21  H83 UNL     1     -37.629 -62.935 -10.726  1.00  0.00     0.279 HD
ATOM     22  H82 UNL     1     -36.881 -63.502 -11.942  1.00  0.00     0.279 HD
ATOM     23  H81 UNL     1     -37.914 -64.566 -11.114  1.00  0.00     0.279 HD
ENDBRANCH  17  20
ENDBRANCH   9  11
ENDBRANCH   7   9
ENDBRANCH   3   7
BRANCH   2  24
HETATM   24  C4  UNL     1     -30.635 -65.205 -13.625  1.00  0.00     0.184 C 
BRANCH  24  25
HETATM   25  N2  UNL     1     -31.771 -64.830 -14.361  1.00  0.00    -0.126 N 
HETATM   26  O2  UNL     1     -32.901 -64.582 -13.855  1.00  0.00    -0.532 OA
HETATM   27  O3  UNL     1     -31.738 -64.663 -15.745  1.00  0.00    -0.532 OA
ENDBRANCH  24  25
ENDBRANCH   2  24
BRANCH   4  28
HETATM   28  C10 UNL     1     -30.039 -61.912  -9.879  1.00  0.00     0.271 C 
HETATM   29  N9  UNL     1     -29.271 -61.963  -8.685  1.00  0.00    -0.057 NA
HETATM   30  O5  UNL     1     -31.064 -61.233  -9.872  1.00  0.00    -0.271 OA
ENDBRANCH   4  28
BRANCH   1  31
HETATM   31  S1  UNL     1     -28.101 -64.545 -14.838  1.00  0.00     0.065 S 
HETATM   32  C1  UNL     1     -28.668 -66.250 -14.894  1.00  0.00     0.143 C 
HETATM   33  O1  UNL     1     -26.668 -64.539 -15.124  1.00  0.00    -0.244 OA
BRANCH  31  34
HETATM   34  N1  UNL     1     -28.877 -63.840 -16.053  1.00  0.00    -0.356 N 
ATOM     35  H12 UNL     1     -29.420 -64.295 -16.786  1.00  0.00     0.166 HD
ATOM     36  H11 UNL     1     -28.698 -62.846 -15.915  1.00  0.00     0.166 HD
ENDBRANCH  31  34
ENDBRANCH   1  31
BRANCH   5  37
HETATM   37  N10 UNL     1     -27.671 -61.409 -11.045  1.00  0.00    -0.383 N 
ATOM     38 2H10 UNL     1     -28.068 -60.489 -10.856  1.00  0.00     0.157 HD
ATOM     39 1H10 UNL     1     -26.716 -61.655 -10.788  1.00  0.00     0.157 HD
ENDBRANCH   5  37
BRANCH   6  40
HETATM   40  O6  UNL     1     -26.733 -62.562 -13.325  1.00  0.00    -0.280 OA
ATOM     41  H6  UNL     1     -26.164 -63.293 -13.537  1.00  0.00     0.245 HD
ENDBRANCH   6  40
TORSDOF 11
ENDMDL
MODEL 4
REMARK VINA RESULT: -8.837374150      3.364      7.276
REMARK  11 active torsions:
REMARK  status: ('A' for Active; 'I' for Inactive)
REMARK    1  A    between atoms: S1_2  and  N1_3 
REMARK    2  A    between atoms: S1_2  and  C2_7 
REMARK    3  A    between atoms: C3_8  and  C4_9 
REMARK    4  A    between atoms: C4_9  and  N2_10 
REMARK    5  A    between atoms: C5_13  and  N3_14 
REMARK    6  A    between atoms: N3_14  and  N4_16 
REMARK    7  A    between atoms: N4_16  and  C6_18 
REMARK    8  A    between atoms: C8_25  and  N8_26 
REMARK    9  A    between atoms: C9_31  and  C10_32 
REMARK   10  A    between atoms: C11_35  and  N10_36 
REMARK   11  A    between atoms: N11_39  and  O6_40 
ROOT
HETATM    1  C2  UNL     1     -28.742 -63.824 -13.388  1.00  0.00     0.151 A 
HETATM    2  C3  UNL     1     -30.017 -64.162 -12.855  1.00  0.00     0.054 A 
HETATM    3  C5  UNL     1     -30.429 -63.550 -11.707  1.00  0.00     0.082 A 
HETATM    4  C9  UNL     1     -29.622 -62.599 -11.058  1.00  0.00     0.104 A 
HETATM    5  C11 UNL     1     -28.393 -62.322 -11.637  1.00  0.00     0.145 A 
HETATM    6  N11 UNL     1     -27.983 -62.913 -12.750  1.00  0.00    -0.197 N 
ENDROOT
BRANCH   3   7
HETATM    7  N3  UNL     1     -31.653 -63.843 -11.007  1.00  0.00    -0.296 N 
ATOM      8  H3  UNL     1     -31.696 -64.604 -10.330  1.00  0.00     0.187 HD
BRANCH   7   9
HETATM    9  N4  UNL     1     -32.785 -63.056 -11.279  1.00  0.00    -0.264 N 
ATOM     10  H4  UNL     1     -32.718 -62.330 -11.992  1.00  0.00     0.190 HD
BRANCH   9  11
HETATM   11  C6  UNL     1     -34.034 -63.235 -10.590  1.00  0.00     0.244 A 
HETATM   12  N5  UNL     1     -34.760 -64.252 -10.794  1.00  0.00    -0.295 N 
HETATM   13  C7  UNL     1     -35.992 -64.381 -10.084  1.00  0.00     0.194 A 
ATOM     14  H5  UNL     1     -34.469 -64.970 -11.458  1.00  0.00     0.172 HD
HETATM   15  N6  UNL     1     -36.855 -65.490 -10.256  1.00  0.00    -0.063 NA
HETATM   16  N7  UNL     1     -36.374 -63.481  -9.244  1.00  0.00    -0.315 N 
HETATM   17  C8  UNL     1     -35.609 -62.313  -8.968  1.00  0.00     0.435 A 
ATOM     18  H7  UNL     1     -37.261 -63.611  -8.757  1.00  0.00     0.166 HD
HETATM   19  O4  UNL     1     -34.420 -62.264  -9.700  1.00  0.00    -0.269 OA
BRANCH  17  20
HETATM   20  N8  UNL     1     -35.225 -62.351  -7.555  1.00  0.00    -0.034 N 
ATOM     21  H83 UNL     1     -35.464 -61.492  -7.057  1.00  0.00     0.279 HD
ATOM     22  H82 UNL     1     -35.800 -62.990  -7.005  1.00  0.00     0.279 HD
ATOM     23  H81 UNL     1     -34.231 -62.573  -7.507  1.00  0.00     0.279 HD
ENDBRANCH  17  20
ENDBRANCH   9  11
ENDBRANCH   7   9
ENDBRANCH   3   7
BRANCH   2  24
HETATM   24  C4  UNL     1     -30.773 -65.098 -13.637  1.00  0.00     0.184 C 
BRANCH  24  25
HETATM   25  N2  UNL     1     -31.908 -64.676 -14.349  1.00  0.00    -0.126 N 
HETATM   26  O2  UNL     1     -31.948 -64.516 -15.601  1.00  0.00    -0.532 OA
HETATM   27  O3  UNL     1     -33.126 -64.423 -13.721  1.00  0.00    -0.532 OA
ENDBRANCH  24  25
ENDBRANCH   2  24
BRANCH   4  28
HETATM   28  C10 UNL     1     -30.028 -61.843  -9.886  1.00  0.00     0.271 C 
HETATM   29  N9  UNL     1     -29.282 -61.956  -8.682  1.00  0.00    -0.057 NA
HETATM   30  O5  UNL     1     -31.005 -61.097  -9.886  1.00  0.00    -0.271 OA
ENDBRANCH   4  28
BRANCH   1  31
HETATM   31  S1  UNL     1     -28.209 -64.554 -14.847  1.00  0.00     0.065 S 
HETATM   32  C1  UNL     1     -28.824 -66.243 -14.889  1.00  0.00     0.143 C 
HETATM   33  O1  UNL     1     -26.779 -64.589 -15.145  1.00  0.00    -0.244 OA
BRANCH  31  34
HETATM   34  N1  UNL     1     -28.976 -63.834 -16.059  1.00  0.00    -0.356 N 
ATOM     35  H12 UNL     1     -28.578 -63.202 -16.754  1.00  0.00     0.166 HD
ATOM     36  H11 UNL     1     -29.939 -64.157 -15.968  1.00  0.00     0.166 HD
ENDBRANCH  31  34
ENDBRANCH   1  31
BRANCH   5  37
HETATM   37  N10 UNL     1     -27.638 -61.448 -11.049  1.00  0.00    -0.383 N 
ATOM     38 2H10 UNL     1     -26.636 -61.425 -11.239  1.00  0.00     0.157 HD
ATOM     39 1H10 UNL     1     -28.086 -60.799 -10.402  1.00  0.00     0.157 HD
ENDBRANCH   5  37
BRANCH   6  40
HETATM   40  O6  UNL     1     -26.752 -62.639 -13.330  1.00  0.00    -0.280 OA
ATOM     41  H6  UNL     1     -25.992 -62.958 -12.857  1.00  0.00     0.245 HD
ENDBRANCH   6  40
TORSDOF 11
ENDMDL
MODEL 5
REMARK VINA RESULT: -8.767048429      3.328      7.289
REMARK  11 active torsions:
REMARK  status: ('A' for Active; 'I' for Inactive)
REMARK    1  A    between atoms: S1_2  and  N1_3 
REMARK    2  A    between atoms: S1_2  and  C2_7 
REMARK    3  A    between atoms: C3_8  and  C4_9 
REMARK    4  A    between atoms: C4_9  and  N2_10 
REMARK    5  A    between atoms: C5_13  and  N3_14 
REMARK    6  A    between atoms: N3_14  and  N4_16 
REMARK    7  A    between atoms: N4_16  and  C6_18 
REMARK    8  A    between atoms: C8_25  and  N8_26 
REMARK    9  A    between atoms: C9_31  and  C10_32 
REMARK   10  A    between atoms: C11_35  and  N10_36 
REMARK   11  A    between atoms: N11_39  and  O6_40 
ROOT
HETATM    1  C2  UNL     1     -29.525 -63.242 -12.727  1.00  0.00     0.151 A 
HETATM    2  C3  UNL     1     -30.761 -63.520 -12.082  1.00  0.00     0.054 A 
HETATM    3  C5  UNL     1     -31.796 -64.002 -12.830  1.00  0.00     0.082 A 
HETATM    4  C9  UNL     1     -31.654 -64.228 -14.210  1.00  0.00     0.104 A 
HETATM    5  C11 UNL     1     -30.419 -63.934 -14.768  1.00  0.00     0.145 A 
HETATM    6  N11 UNL     1     -29.410 -63.463 -14.051  1.00  0.00    -0.197 N 
ENDROOT
BRANCH   3   7
HETATM    7  N3  UNL     1     -33.125 -64.255 -12.337  1.00  0.00    -0.296 N 
ATOM      8  H3  UNL     1     -33.461 -65.210 -12.209  1.00  0.00     0.187 HD
BRANCH   7   9
HETATM    9  N4  UNL     1     -33.949 -63.156 -12.038  1.00  0.00    -0.264 N 
ATOM     10  H4  UNL     1     -33.894 -62.327 -12.628  1.00  0.00     0.190 HD
BRANCH   9  11
HETATM   11  C6  UNL     1     -34.866 -63.158 -10.931  1.00  0.00     0.244 A 
HETATM   12  N5  UNL     1     -34.556 -62.644  -9.816  1.00  0.00    -0.295 N 
HETATM   13  C7  UNL     1     -35.504 -62.673  -8.749  1.00  0.00     0.194 A 
ATOM     14  H5  UNL     1     -33.640 -62.216  -9.681  1.00  0.00     0.172 HD
HETATM   15  N6  UNL     1     -35.231 -62.118  -7.476  1.00  0.00    -0.063 NA
HETATM   16  N7  UNL     1     -36.665 -63.213  -8.904  1.00  0.00    -0.315 N 
HETATM   17  C8  UNL     1     -37.079 -63.809 -10.127  1.00  0.00     0.435 A 
ATOM     18  H7  UNL     1     -37.313 -63.212  -8.116  1.00  0.00     0.166 HD
HETATM   19  O4  UNL     1     -36.097 -63.738 -11.119  1.00  0.00    -0.269 OA
BRANCH  17  20
HETATM   20  N8  UNL     1     -38.230 -63.054 -10.628  1.00  0.00    -0.034 N 
ATOM     21  H83 UNL     1     -38.754 -63.561 -11.342  1.00  0.00     0.279 HD
ATOM     22  H82 UNL     1     -38.979 -62.974  -9.941  1.00  0.00     0.279 HD
ATOM     23  H81 UNL     1     -37.893 -62.148 -10.953  1.00  0.00     0.279 HD
ENDBRANCH  17  20
ENDBRANCH   9  11
ENDBRANCH   7   9
ENDBRANCH   3   7
BRANCH   2  24
HETATM   24  C4  UNL     1     -30.766 -63.307 -10.663  1.00  0.00     0.184 C 
BRANCH  24  25
HETATM   25  N2  UNL     1     -31.151 -62.065 -10.132  1.00  0.00    -0.126 N 
HETATM   26  O2  UNL     1     -30.842 -61.652  -8.980  1.00  0.00    -0.532 OA
HETATM   27  O3  UNL     1     -31.899 -61.144 -10.865  1.00  0.00    -0.532 OA
ENDBRANCH  24  25
ENDBRANCH   2  24
BRANCH   4  28
HETATM   28  C10 UNL     1     -32.678 -64.820 -15.054  1.00  0.00     0.271 C 
HETATM   29  N9  UNL     1     -33.928 -64.163 -15.210  1.00  0.00    -0.057 NA
HETATM   30  O5  UNL     1     -32.511 -65.882 -15.650  1.00  0.00    -0.271 OA
ENDBRANCH   4  28
BRANCH   1  31
HETATM   31  S1  UNL     1     -28.196 -62.666 -11.807  1.00  0.00     0.065 S 
HETATM   32  C1  UNL     1     -27.956 -63.771 -10.410  1.00  0.00     0.143 C 
HETATM   33  O1  UNL     1     -28.223 -61.297 -11.297  1.00  0.00    -0.244 OA
BRANCH  31  34
HETATM   34  N1  UNL     1     -26.870 -62.866 -12.689  1.00  0.00    -0.356 N 
ATOM     35  H12 UNL     1     -26.632 -63.667 -13.274  1.00  0.00     0.166 HD
ATOM     36  H11 UNL     1     -26.336 -62.013 -12.527  1.00  0.00     0.166 HD
ENDBRANCH  31  34
ENDBRANCH   1  31
BRANCH   5  37
HETATM   37  N10 UNL     1     -30.274 -64.136 -16.041  1.00  0.00    -0.383 N 
ATOM     38 2H10 UNL     1     -30.939 -64.723 -16.545  1.00  0.00     0.157 HD
ATOM     39 1H10 UNL     1     -29.482 -63.689 -16.501  1.00  0.00     0.157 HD
ENDBRANCH   5  37
BRANCH   6  40
HETATM   40  O6  UNL     1     -28.174 -63.165 -14.608  1.00  0.00    -0.280 OA
ATOM     41  H6  UNL     1     -28.103 -63.290 -15.547  1.00  0.00     0.245 HD
ENDBRANCH   6  40
TORSDOF 11
ENDMDL
