MODEL 1
REMARK VINA RESULT: -9.100659122      0.000      0.000
REMARK  11 active torsions:
REMARK  status: ('A' for Active; 'I' for Inactive)
REMARK    1  A    between atoms: O1_2  and  C2_3 
REMARK    2  A    between atoms: C2_3  and  C3_5 
REMARK    3  A    between atoms: C3_5  and  N1_6 
REMARK    4  A    between atoms: C3_5  and  C5_14 
REMARK    5  A    between atoms: N1_6  and  C4_8 
REMARK    6  A    between atoms: C4_8  and  O3_9 
REMARK    7  A    between atoms: C4_8  and  N2_11 
REMARK    8  A    between atoms: N2_11  and  O4_12 
REMARK    9  A    between atoms: C5_14  and  C6_15 
REMARK   10  A    between atoms: C5_14  and  N5_22 
REMARK   11  A    between atoms: C11_38  and  N11_39 
ROOT
HETATM    1  N5  UNL     1     -31.548 -64.244 -13.605  1.00  0.00    -0.255 N 
HETATM    2  N6  UNL     1     -32.086 -63.148 -14.092  1.00  0.00    -0.238 N 
ATOM      3  H6  UNL     1     -32.562 -62.449 -13.522  1.00  0.00     0.208 HD
HETATM    4  N7  UNL     1     -31.944 -63.052 -15.389  1.00  0.00    -0.279 N 
ATOM      5  H7  UNL     1     -32.285 -62.293 -15.980  1.00  0.00     0.189 HD
HETATM    6  C8  UNL     1     -31.261 -64.146 -15.803  1.00  0.00     0.150 A 
HETATM    7  C9  UNL     1     -30.836 -64.406 -17.072  1.00  0.00     0.290 C 
HETATM    8  O5  UNL     1     -31.412 -63.828 -18.006  1.00  0.00    -0.265 OA
HETATM    9  N8  UNL     1     -29.851 -65.244 -17.463  1.00  0.00    -0.154 N 
ATOM     10  H8  UNL     1     -29.343 -64.976 -18.306  1.00  0.00     0.187 HD
HETATM   11  C10 UNL     1     -29.447 -66.420 -16.860  1.00  0.00     0.680 C 
HETATM   12  N9  UNL     1     -28.877 -67.297 -17.511  1.00  0.00    -0.234 N 
ATOM     13  H91 UNL     1     -28.578 -68.165 -17.066  1.00  0.00     0.174 HD
ATOM     14  H92 UNL     1     -28.743 -67.080 -18.498  1.00  0.00     0.174 HD
HETATM   15  N10 UNL     1     -29.628 -66.715 -15.521  1.00  0.00    -0.175 N 
ATOM     16  H10 UNL     1     -29.077 -67.497 -15.166  1.00  0.00     0.186 HD
HETATM   17  C11 UNL     1     -30.426 -66.117 -14.625  1.00  0.00     0.145 C 
HETATM   18  C12 UNL     1     -31.019 -64.895 -14.641  1.00  0.00     0.131 A 
ENDROOT
BRANCH   1  19
HETATM   19  C5  UNL     1     -31.450 -64.568 -12.197  1.00  0.00     0.217 C 
BRANCH  19  20
HETATM   20  C3  UNL     1     -30.390 -63.715 -11.567  1.00  0.00     0.115 C 
BRANCH  20  21
HETATM   21  C2  UNL     1     -29.095 -64.197 -11.090  1.00  0.00     0.307 C 
HETATM   22  O2  UNL     1     -28.822 -65.025 -10.226  1.00  0.00    -0.258 OA
BRANCH  21  23
HETATM   23  O1  UNL     1     -27.945 -63.619 -11.756  1.00  0.00    -0.322 OA
HETATM   24  C1  UNL     1     -27.831 -63.428 -13.111  1.00  0.00     0.213 C 
ENDBRANCH  21  23
ENDBRANCH  20  21
BRANCH  20  25
HETATM   25  N1  UNL     1     -30.669 -62.430 -11.082  1.00  0.00    -0.345 N 
ATOM     26  H1  UNL     1     -31.338 -61.826 -11.560  1.00  0.00     0.163 HD
BRANCH  25  27
HETATM   27  C4  UNL     1     -30.006 -61.994  -9.924  1.00  0.00     0.344 C 
BRANCH  27  28
HETATM   28  O3  UNL     1     -29.147 -60.916 -10.293  1.00  0.00    -0.361 OA
ATOM     29  H3  UNL     1     -28.264 -61.259 -10.365  1.00  0.00     0.213 HD
ENDBRANCH  27  28
BRANCH  27  30
HETATM   30  N2  UNL     1     -30.803 -61.590  -8.808  1.00  0.00    -0.050 NA
BRANCH  30  31
HETATM   31  O4  UNL     1     -29.944 -60.867  -8.007  1.00  0.00    -0.292 OA
ATOM     32  H4  UNL     1     -30.231 -61.049  -7.119  1.00  0.00     0.238 HD
ENDBRANCH  30  31
ENDBRANCH  27  30
ENDBRANCH  25  27
ENDBRANCH  20  25
ENDBRANCH  19  20
BRANCH  19  33
HETATM   33  C6  UNL     1     -32.829 -64.021 -11.709  1.00  0.00     0.065 A 
HETATM   34  C7  UNL     1     -33.056 -63.974 -10.339  1.00  0.00     0.098 A 
HETATM   35  S1  UNL     1     -34.623 -63.234 -10.283  1.00  0.00    -0.009 SA
HETATM   36  N3  UNL     1     -34.868 -63.057 -11.939  1.00  0.00    -0.270 N 
HETATM   37  N4  UNL     1     -33.778 -63.544 -12.456  1.00  0.00    -0.296 N 
ATOM     38  H3  UNL     1     -35.676 -62.663 -12.420  1.00  0.00     0.195 HD
ATOM     39  H4  UNL     1     -33.667 -63.552 -13.470  1.00  0.00     0.187 HD
ENDBRANCH  19  33
ENDBRANCH   1  19
BRANCH  17  40
HETATM   40  N11 UNL     1     -30.700 -66.821 -13.579  1.00  0.00    -0.383 N 
ATOM     41 2H11 UNL     1     -31.699 -66.950 -13.415  1.00  0.00     0.157 HD
ATOM     42 1H11 UNL     1     -29.890 -67.169 -13.065  1.00  0.00     0.157 HD
ENDBRANCH  17  40
TORSDOF 11
ENDMDL
MODEL 2
REMARK VINA RESULT: -8.909663065      3.405      6.512
REMARK  11 active torsions:
REMARK  status: ('A' for Active; 'I' for Inactive)
REMARK    1  A    between atoms: O1_2  and  C2_3 
REMARK    2  A    between atoms: C2_3  and  C3_5 
REMARK    3  A    between atoms: C3_5  and  N1_6 
REMARK    4  A    between atoms: C3_5  and  C5_14 
REMARK    5  A    between atoms: N1_6  and  C4_8 
REMARK    6  A    between atoms: C4_8  and  O3_9 
REMARK    7  A    between atoms: C4_8  and  N2_11 
REMARK    8  A    between atoms: N2_11  and  O4_12 
REMARK    9  A    between atoms: C5_14  and  C6_15 
REMARK   10  A    between atoms: C5_14  and  N5_22 
REMARK   11  A    between atoms: C11_38  and  N11_39 
ROOT
HETATM    1  N5  UNL     1     -31.493 -64.058 -14.047  1.00  0.00    -0.255 N 
HETATM    2  N6  UNL     1     -31.772 -63.211 -15.013  1.00  0.00    -0.238 N 
ATOM      3  H6  UNL     1     -31.225 -63.130 -15.870  1.00  0.00     0.208 HD
HETATM    4  N7  UNL     1     -32.827 -62.484 -14.755  1.00  0.00    -0.279 N 
ATOM      5  H7  UNL     1     -33.224 -61.760 -15.355  1.00  0.00     0.189 HD
HETATM    6  C8  UNL     1     -33.297 -62.868 -13.543  1.00  0.00     0.150 A 
HETATM    7  C9  UNL     1     -34.426 -62.415 -12.929  1.00  0.00     0.290 C 
HETATM    8  O5  UNL     1     -34.877 -61.315 -13.283  1.00  0.00    -0.265 OA
HETATM    9  N8  UNL     1     -35.136 -63.015 -11.948  1.00  0.00    -0.154 N 
ATOM     10  H8  UNL     1     -36.140 -62.835 -11.948  1.00  0.00     0.187 HD
HETATM   11  C10 UNL     1     -34.668 -63.843 -10.946  1.00  0.00     0.680 C 
HETATM   12  N9  UNL     1     -35.290 -63.965  -9.889  1.00  0.00    -0.234 N 
ATOM     13  H91 UNL     1     -34.945 -64.577  -9.149  1.00  0.00     0.174 HD
ATOM     14  H92 UNL     1     -36.146 -63.414  -9.829  1.00  0.00     0.174 HD
HETATM   15  N10 UNL     1     -33.508 -64.590 -11.027  1.00  0.00    -0.175 N 
ATOM     16  H10 UNL     1     -33.410 -65.327 -10.328  1.00  0.00     0.186 HD
HETATM   17  C11 UNL     1     -32.492 -64.482 -11.895  1.00  0.00     0.145 C 
HETATM   18  C12 UNL     1     -32.424 -63.878 -13.110  1.00  0.00     0.131 A 
ENDROOT
BRANCH   1  19
HETATM   19  C5  UNL     1     -30.455 -65.065 -14.098  1.00  0.00     0.217 C 
BRANCH  19  20
HETATM   20  C3  UNL     1     -30.487 -65.741 -15.437  1.00  0.00     0.115 C 
BRANCH  20  21
HETATM   21  C2  UNL     1     -31.450 -65.461 -16.499  1.00  0.00     0.307 C 
HETATM   22  O2  UNL     1     -32.568 -65.923 -16.703  1.00  0.00    -0.258 OA
BRANCH  21  23
HETATM   23  O1  UNL     1     -31.027 -64.460 -17.459  1.00  0.00    -0.322 OA
HETATM   24  C1  UNL     1     -31.541 -64.313 -18.724  1.00  0.00     0.213 C 
ENDBRANCH  21  23
ENDBRANCH  20  21
BRANCH  20  25
HETATM   25  N1  UNL     1     -29.792 -66.935 -15.676  1.00  0.00    -0.345 N 
ATOM     26  H1  UNL     1     -29.997 -67.776 -15.136  1.00  0.00     0.163 HD
BRANCH  25  27
HETATM   27  C4  UNL     1     -28.808 -66.945 -16.677  1.00  0.00     0.344 C 
BRANCH  27  28
HETATM   28  O3  UNL     1     -29.467 -67.058 -17.937  1.00  0.00    -0.361 OA
ATOM     29  H3  UNL     1     -29.280 -67.921 -18.287  1.00  0.00     0.213 HD
ENDBRANCH  27  28
BRANCH  27  30
HETATM   30  N2  UNL     1     -27.894 -65.846 -16.729  1.00  0.00    -0.050 NA
BRANCH  30  31
HETATM   31  O4  UNL     1     -28.182 -65.208 -17.918  1.00  0.00    -0.292 OA
ATOM     32  H4  UNL     1     -28.438 -64.329 -17.664  1.00  0.00     0.238 HD
ENDBRANCH  30  31
ENDBRANCH  27  30
ENDBRANCH  25  27
ENDBRANCH  20  25
ENDBRANCH  19  20
BRANCH  19  33
HETATM   33  C6  UNL     1     -29.196 -64.141 -14.081  1.00  0.00     0.065 A 
HETATM   34  C7  UNL     1     -28.549 -63.955 -12.865  1.00  0.00     0.098 A 
HETATM   35  S1  UNL     1     -27.207 -62.969 -13.346  1.00  0.00    -0.009 SA
HETATM   36  N3  UNL     1     -27.560 -62.861 -14.989  1.00  0.00    -0.270 N 
HETATM   37  N4  UNL     1     -28.648 -63.565 -15.107  1.00  0.00    -0.296 N 
ATOM     38  H3  UNL     1     -27.046 -62.363 -15.715  1.00  0.00     0.195 HD
ATOM     39  H4  UNL     1     -29.079 -63.667 -16.026  1.00  0.00     0.187 HD
ENDBRANCH  19  33
ENDBRANCH   1  19
BRANCH  17  40
HETATM   40  N11 UNL     1     -31.383 -65.020 -11.513  1.00  0.00    -0.383 N 
ATOM     41 2H11 UNL     1     -30.909 -65.557 -12.240  1.00  0.00     0.157 HD
ATOM     42 1H11 UNL     1     -31.117 -64.826 -10.547  1.00  0.00     0.157 HD
ENDBRANCH  17  40
TORSDOF 11
ENDMDL
MODEL 3
REMARK VINA RESULT: -8.807354571      3.342      5.374
REMARK  11 active torsions:
REMARK  status: ('A' for Active; 'I' for Inactive)
REMARK    1  A    between atoms: O1_2  and  C2_3 
REMARK    2  A    between atoms: C2_3  and  C3_5 
REMARK    3  A    between atoms: C3_5  and  N1_6 
REMARK    4  A    between atoms: C3_5  and  C5_14 
REMARK    5  A    between atoms: N1_6  and  C4_8 
REMARK    6  A    between atoms: C4_8  and  O3_9 
REMARK    7  A    between atoms: C4_8  and  N2_11 
REMARK    8  A    between atoms: N2_11  and  O4_12 
REMARK    9  A    between atoms: C5_14  and  C6_15 
REMARK   10  A    between atoms: C5_14  and  N5_22 
REMARK   11  A    between atoms: C11_38  and  N11_39 
ROOT
HETATM    1  N5  UNL     1     -31.115 -63.774 -14.538  1.00  0.00    -0.255 N 
HETATM    2  N6  UNL     1     -30.603 -63.303 -15.653  1.00  0.00    -0.238 N 
ATOM      3  H6  UNL     1     -31.151 -63.122 -16.495  1.00  0.00     0.208 HD
HETATM    4  N7  UNL     1     -29.316 -63.090 -15.566  1.00  0.00    -0.279 N 
ATOM      5  H7  UNL     1     -28.711 -62.733 -16.306  1.00  0.00     0.189 HD
HETATM    6  C8  UNL     1     -28.934 -63.430 -14.311  1.00  0.00     0.150 A 
HETATM    7  C9  UNL     1     -27.688 -63.293 -13.777  1.00  0.00     0.290 C 
HETATM    8  O5  UNL     1     -26.727 -63.215 -14.558  1.00  0.00    -0.265 OA
HETATM    9  N8  UNL     1     -27.345 -63.243 -12.470  1.00  0.00    -0.154 N 
ATOM     10  H8  UNL     1     -26.530 -62.673 -12.243  1.00  0.00     0.187 HD
HETATM   11  C10 UNL     1     -27.964 -63.867 -11.405  1.00  0.00     0.680 C 
HETATM   12  N9  UNL     1     -27.341 -64.114 -10.371  1.00  0.00    -0.234 N 
ATOM     13  H91 UNL     1     -27.798 -64.574  -9.584  1.00  0.00     0.174 HD
ATOM     14  H92 UNL     1     -26.363 -63.827 -10.382  1.00  0.00     0.174 HD
HETATM   15  N10 UNL     1     -29.291 -64.255 -11.390  1.00  0.00    -0.175 N 
ATOM     16  H10 UNL     1     -29.672 -64.481 -10.471  1.00  0.00     0.186 HD
HETATM   17  C11 UNL     1     -30.148 -64.378 -12.414  1.00  0.00     0.145 C 
HETATM   18  C12 UNL     1     -30.105 -63.867 -13.672  1.00  0.00     0.131 A 
ENDROOT
BRANCH   1  19
HETATM   19  C5  UNL     1     -32.524 -64.000 -14.299  1.00  0.00     0.217 C 
BRANCH  19  20
HETATM   20  C3  UNL     1     -33.128 -62.765 -13.699  1.00  0.00     0.115 C 
BRANCH  20  21
HETATM   21  C2  UNL     1     -33.217 -62.481 -12.269  1.00  0.00     0.307 C 
HETATM   22  O2  UNL     1     -32.879 -61.489 -11.630  1.00  0.00    -0.258 OA
BRANCH  21  23
HETATM   23  O1  UNL     1     -33.820 -63.532 -11.473  1.00  0.00    -0.322 OA
HETATM   24  C1  UNL     1     -33.791 -63.600 -10.102  1.00  0.00     0.213 C 
ENDBRANCH  21  23
ENDBRANCH  20  21
BRANCH  20  25
HETATM   25  N1  UNL     1     -33.953 -61.912 -14.444  1.00  0.00    -0.345 N 
ATOM     26  H1  UNL     1     -33.581 -61.382 -15.232  1.00  0.00     0.163 HD
BRANCH  25  27
HETATM   27  C4  UNL     1     -35.305 -61.805 -14.080  1.00  0.00     0.344 C 
BRANCH  27  28
HETATM   28  O3  UNL     1     -35.899 -60.799 -14.898  1.00  0.00    -0.361 OA
ATOM     29  H3  UNL     1     -36.707 -60.525 -14.481  1.00  0.00     0.213 HD
ENDBRANCH  27  28
BRANCH  27  30
HETATM   30  N2  UNL     1     -36.110 -62.986 -14.141  1.00  0.00    -0.050 NA
BRANCH  30  31
HETATM   31  O4  UNL     1     -36.587 -63.151 -12.857  1.00  0.00    -0.292 OA
ATOM     32  H4  UNL     1     -37.106 -62.373 -12.690  1.00  0.00     0.238 HD
ENDBRANCH  30  31
ENDBRANCH  27  30
ENDBRANCH  25  27
ENDBRANCH  20  25
ENDBRANCH  19  20
BRANCH  19  33
HETATM   33  C6  UNL     1     -33.026 -64.086 -15.775  1.00  0.00     0.065 A 
HETATM   34  C7  UNL     1     -33.535 -65.303 -16.214  1.00  0.00     0.098 A 
HETATM   35  S1  UNL     1     -34.035 -64.897 -17.823  1.00  0.00    -0.009 SA
HETATM   36  N3  UNL     1     -33.569 -63.279 -17.824  1.00  0.00    -0.270 N 
HETATM   37  N4  UNL     1     -33.074 -63.111 -16.632  1.00  0.00    -0.296 N 
ATOM     38  H3  UNL     1     -33.654 -62.596 -18.576  1.00  0.00     0.195 HD
ATOM     39  H4  UNL     1     -32.715 -62.194 -16.365  1.00  0.00     0.187 HD
ENDBRANCH  19  33
ENDBRANCH   1  19
BRANCH  17  40
HETATM   40  N11 UNL     1     -31.177 -65.121 -12.184  1.00  0.00    -0.383 N 
ATOM     41 2H11 UNL     1     -30.948 -66.044 -11.813  1.00  0.00     0.157 HD
ATOM     42 1H11 UNL     1     -32.078 -64.689 -12.384  1.00  0.00     0.157 HD
ENDBRANCH  17  40
TORSDOF 11
ENDMDL
MODEL 4
REMARK VINA RESULT: -8.789125479      1.146      2.280
REMARK  11 active torsions:
REMARK  status: ('A' for Active; 'I' for Inactive)
REMARK    1  A    between atoms: O1_2  and  C2_3 
REMARK    2  A    between atoms: C2_3  and  C3_5 
REMARK    3  A    between atoms: C3_5  and  N1_6 
REMARK    4  A    between atoms: C3_5  and  C5_14 
REMARK    5  A    between atoms: N1_6  and  C4_8 
REMARK    6  A    between atoms: C4_8  and  O3_9 
REMARK    7  A    between atoms: C4_8  and  N2_11 
REMARK    8  A    between atoms: N2_11  and  O4_12 
REMARK    9  A    between atoms: C5_14  and  C6_15 
REMARK   10  A    between atoms: C5_14  and  N5_22 
REMARK   11  A    between atoms: C11_38  and  N11_39 
ROOT
HETATM    1  N5  UNL     1     -31.803 -63.952 -13.364  1.00  0.00    -0.255 N 
HETATM    2  N6  UNL     1     -32.343 -62.915 -13.965  1.00  0.00    -0.238 N 
ATOM      3  H6  UNL     1     -32.879 -62.196 -13.480  1.00  0.00     0.208 HD
HETATM    4  N7  UNL     1     -32.116 -62.906 -15.253  1.00  0.00    -0.279 N 
ATOM      5  H7  UNL     1     -32.441 -62.205 -15.919  1.00  0.00     0.189 HD
HETATM    6  C8  UNL     1     -31.369 -64.000 -15.540  1.00  0.00     0.150 A 
HETATM    7  C9  UNL     1     -30.850 -64.333 -16.756  1.00  0.00     0.290 C 
HETATM    8  O5  UNL     1     -31.380 -63.845 -17.766  1.00  0.00    -0.265 OA
HETATM    9  N8  UNL     1     -29.813 -65.159 -17.018  1.00  0.00    -0.154 N 
ATOM     10  H8  UNL     1     -29.258 -64.931 -17.844  1.00  0.00     0.187 HD
HETATM   11  C10 UNL     1     -29.412 -66.272 -16.306  1.00  0.00     0.680 C 
HETATM   12  N9  UNL     1     -28.770 -67.171 -16.851  1.00  0.00    -0.234 N 
ATOM     13  H91 UNL     1     -28.473 -67.993 -16.325  1.00  0.00     0.174 HD
ATOM     14  H92 UNL     1     -28.576 -67.019 -17.841  1.00  0.00     0.174 HD
HETATM   15  N10 UNL     1     -29.675 -66.478 -14.964  1.00  0.00    -0.175 N 
ATOM     16  H10 UNL     1     -29.124 -67.211 -14.516  1.00  0.00     0.186 HD
HETATM   17  C11 UNL     1     -30.552 -65.849 -14.168  1.00  0.00     0.145 C 
HETATM   18  C12 UNL     1     -31.183 -64.655 -14.313  1.00  0.00     0.131 A 
ENDROOT
BRANCH   1  19
HETATM   19  C5  UNL     1     -31.791 -64.171 -11.934  1.00  0.00     0.217 C 
BRANCH  19  20
HETATM   20  C3  UNL     1     -30.949 -63.117 -11.279  1.00  0.00     0.115 C 
BRANCH  20  21
HETATM   21  C2  UNL     1     -31.457 -61.883 -10.684  1.00  0.00     0.307 C 
HETATM   22  O2  UNL     1     -32.156 -60.996 -11.163  1.00  0.00    -0.258 OA
BRANCH  21  23
HETATM   23  O1  UNL     1     -31.094 -61.680  -9.295  1.00  0.00    -0.322 OA
HETATM   24  C1  UNL     1     -29.858 -61.279  -8.853  1.00  0.00     0.213 C 
ENDBRANCH  21  23
ENDBRANCH  20  21
BRANCH  20  25
HETATM   25  N1  UNL     1     -29.561 -63.064 -11.462  1.00  0.00    -0.345 N 
ATOM     26  H1  UNL     1     -29.121 -62.251 -11.893  1.00  0.00     0.163 HD
BRANCH  25  27
HETATM   27  C4  UNL     1     -28.790 -64.158 -11.037  1.00  0.00     0.344 C 
BRANCH  27  28
HETATM   28  O3  UNL     1     -27.422 -63.862 -11.316  1.00  0.00    -0.361 OA
ATOM     29  H3  UNL     1     -27.374 -63.511 -12.198  1.00  0.00     0.213 HD
ENDBRANCH  27  28
BRANCH  27  30
HETATM   30  N2  UNL     1     -28.905 -64.570  -9.672  1.00  0.00    -0.050 NA
BRANCH  30  31
HETATM   31  O4  UNL     1     -27.631 -64.960  -9.315  1.00  0.00    -0.292 OA
ATOM     32  H4  UNL     1     -27.067 -64.575  -9.975  1.00  0.00     0.238 HD
ENDBRANCH  30  31
ENDBRANCH  27  30
ENDBRANCH  25  27
ENDBRANCH  20  25
ENDBRANCH  19  20
BRANCH  19  33
HETATM   33  C6  UNL     1     -33.281 -63.837 -11.608  1.00  0.00     0.065 A 
HETATM   34  C7  UNL     1     -33.754 -64.162 -10.342  1.00  0.00     0.098 A 
HETATM   35  S1  UNL     1     -35.369 -63.536 -10.415  1.00  0.00    -0.009 SA
HETATM   36  N3  UNL     1     -35.329 -62.942 -11.990  1.00  0.00    -0.270 N 
HETATM   37  N4  UNL     1     -34.122 -63.225 -12.385  1.00  0.00    -0.296 N 
ATOM     38  H3  UNL     1     -36.072 -62.474 -12.508  1.00  0.00     0.195 HD
ATOM     39  H4  UNL     1     -33.831 -62.961 -13.327  1.00  0.00     0.187 HD
ENDBRANCH  19  33
ENDBRANCH   1  19
BRANCH  17  40
HETATM   40  N11 UNL     1     -30.873 -66.487 -13.093  1.00  0.00    -0.383 N 
ATOM     41 2H11 UNL     1     -30.700 -65.966 -12.234  1.00  0.00     0.157 HD
ATOM     42 1H11 UNL     1     -31.271 -67.414 -13.242  1.00  0.00     0.157 HD
ENDBRANCH  17  40
TORSDOF 11
ENDMDL
MODEL 5
REMARK VINA RESULT: -8.604195592      3.068      4.977
REMARK  11 active torsions:
REMARK  status: ('A' for Active; 'I' for Inactive)
REMARK    1  A    between atoms: O1_2  and  C2_3 
REMARK    2  A    between atoms: C2_3  and  C3_5 
REMARK    3  A    between atoms: C3_5  and  N1_6 
REMARK    4  A    between atoms: C3_5  and  C5_14 
REMARK    5  A    between atoms: N1_6  and  C4_8 
REMARK    6  A    between atoms: C4_8  and  O3_9 
REMARK    7  A    between atoms: C4_8  and  N2_11 
REMARK    8  A    between atoms: N2_11  and  O4_12 
REMARK    9  A    between atoms: C5_14  and  C6_15 
REMARK   10  A    between atoms: C5_14  and  N5_22 
REMARK   11  A    between atoms: C11_38  and  N11_39 
ROOT
HETATM    1  N5  UNL     1     -31.016 -63.881 -13.792  1.00  0.00    -0.255 N 
HETATM    2  N6  UNL     1     -30.484 -63.426 -14.905  1.00  0.00    -0.238 N 
ATOM      3  H6  UNL     1     -31.017 -63.252 -15.757  1.00  0.00     0.208 HD
HETATM    4  N7  UNL     1     -29.196 -63.222 -14.800  1.00  0.00    -0.279 N 
ATOM      5  H7  UNL     1     -28.577 -62.878 -15.535  1.00  0.00     0.189 HD
HETATM    6  C8  UNL     1     -28.836 -63.550 -13.536  1.00  0.00     0.150 A 
HETATM    7  C9  UNL     1     -27.597 -63.415 -12.984  1.00  0.00     0.290 C 
HETATM    8  O5  UNL     1     -26.624 -63.354 -13.751  1.00  0.00    -0.265 OA
HETATM    9  N8  UNL     1     -27.275 -63.352 -11.673  1.00  0.00    -0.154 N 
ATOM     10  H8  UNL     1     -26.459 -62.786 -11.440  1.00  0.00     0.187 HD
HETATM   11  C10 UNL     1     -27.915 -63.959 -10.609  1.00  0.00     0.680 C 
HETATM   12  N9  UNL     1     -27.309 -64.197  -9.563  1.00  0.00    -0.234 N 
ATOM     13  H91 UNL     1     -27.782 -64.645  -8.778  1.00  0.00     0.174 HD
ATOM     14  H92 UNL     1     -26.329 -63.918  -9.563  1.00  0.00     0.174 HD
HETATM   15  N10 UNL     1     -29.245 -64.337 -10.611  1.00  0.00    -0.175 N 
ATOM     16  H10 UNL     1     -29.642 -64.548  -9.695  1.00  0.00     0.186 HD
HETATM   17  C11 UNL     1     -30.086 -64.466 -11.647  1.00  0.00     0.145 C 
HETATM   18  C12 UNL     1     -30.020 -63.970 -12.910  1.00  0.00     0.131 A 
ENDROOT
BRANCH   1  19
HETATM   19  C5  UNL     1     -32.431 -64.093 -13.572  1.00  0.00     0.217 C 
BRANCH  19  20
HETATM   20  C3  UNL     1     -33.015 -62.882 -12.909  1.00  0.00     0.115 C 
BRANCH  20  21
HETATM   21  C2  UNL     1     -34.394 -62.423 -13.060  1.00  0.00     0.307 C 
HETATM   22  O2  UNL     1     -34.877 -61.586 -13.817  1.00  0.00    -0.258 OA
BRANCH  21  23
HETATM   23  O1  UNL     1     -35.354 -63.072 -12.189  1.00  0.00    -0.322 OA
HETATM   24  C1  UNL     1     -36.314 -62.426 -11.451  1.00  0.00     0.213 C 
ENDBRANCH  21  23
ENDBRANCH  20  21
BRANCH  20  25
HETATM   25  N1  UNL     1     -32.205 -61.893 -12.335  1.00  0.00    -0.345 N 
ATOM     26  H1  UNL     1     -31.568 -61.342 -12.910  1.00  0.00     0.163 HD
BRANCH  25  27
HETATM   27  C4  UNL     1     -32.292 -61.680 -10.950  1.00  0.00     0.344 C 
BRANCH  27  28
HETATM   28  O3  UNL     1     -32.833 -62.861 -10.360  1.00  0.00    -0.361 OA
ATOM     29  H3  UNL     1     -32.238 -63.142  -9.675  1.00  0.00     0.213 HD
ENDBRANCH  27  28
BRANCH  27  30
HETATM   30  N2  UNL     1     -31.097 -61.319 -10.252  1.00  0.00    -0.050 NA
BRANCH  30  31
HETATM   31  O4  UNL     1     -31.118 -62.083  -9.103  1.00  0.00    -0.292 OA
ATOM     32  H4  UNL     1     -31.741 -61.646  -8.535  1.00  0.00     0.238 HD
ENDBRANCH  30  31
ENDBRANCH  27  30
ENDBRANCH  25  27
ENDBRANCH  20  25
ENDBRANCH  19  20
BRANCH  19  33
HETATM   33  C6  UNL     1     -32.926 -64.090 -15.053  1.00  0.00     0.065 A 
HETATM   34  C7  UNL     1     -33.033 -65.316 -15.700  1.00  0.00     0.098 A 
HETATM   35  S1  UNL     1     -33.688 -64.832 -17.231  1.00  0.00    -0.009 SA
HETATM   36  N3  UNL     1     -33.762 -63.173 -16.951  1.00  0.00    -0.270 N 
HETATM   37  N4  UNL     1     -33.309 -63.055 -15.736  1.00  0.00    -0.296 N 
ATOM     38  H3  UNL     1     -34.084 -62.439 -17.580  1.00  0.00     0.195 HD
ATOM     39  H4  UNL     1     -33.253 -62.129 -15.313  1.00  0.00     0.187 HD
ENDBRANCH  19  33
ENDBRANCH   1  19
BRANCH  17  40
HETATM   40  N11 UNL     1     -31.124 -65.199 -11.423  1.00  0.00    -0.383 N 
ATOM     41 2H11 UNL     1     -31.853 -64.734 -10.881  1.00  0.00     0.157 HD
ATOM     42 1H11 UNL     1     -31.090 -66.134 -11.828  1.00  0.00     0.157 HD
ENDBRANCH  17  40
TORSDOF 11
ENDMDL
