MODEL 1
REMARK VINA RESULT: -9.989971738      0.000      0.000
REMARK  11 active torsions:
REMARK  status: ('A' for Active; 'I' for Inactive)
REMARK    1  A    between atoms: N1_2  and  C2_3 
REMARK    2  A    between atoms: N1_2  and  C7_23 
REMARK    3  A    between atoms: C3_6  and  N3_7 
REMARK    4  A    between atoms: C4_12  and  C5_13 
REMARK       I    between atoms: C5_13  and  N5_15 
REMARK    5  A    between atoms: N5_15  and  N6_17 
REMARK    6  A    between atoms: C6_20  and  O2_21 
REMARK    7  A    between atoms: C8_26  and  N8_27 
REMARK       I    between atoms: N8_27  and  C10_30 
REMARK    8  A    between atoms: C10_30  and  C11_32 
REMARK    9  A    between atoms: N10_33  and  O4_35 
REMARK   10  A    between atoms: C12_39  and  N12_40 
REMARK   11  A    between atoms: C13_43  and  N13_44 
ROOT
HETATM    1  N8  UNL     1     -30.879 -62.985 -10.374  1.00  0.00    -0.041 N 
HETATM    2  C9  UNL     1     -30.476 -62.039  -9.442  1.00  0.00     0.207 C 
HETATM    3  N9  UNL     1     -30.159 -61.241  -8.664  1.00  0.00    -0.171 NA
HETATM    4  C10 UNL     1     -30.030 -64.071 -10.669  1.00  0.00     0.293 C 
HETATM    5  O3  UNL     1     -30.452 -64.914 -11.535  1.00  0.00    -0.265 OA
ENDROOT
BRANCH   1   6
HETATM    6  C8  UNL     1     -32.158 -62.844 -11.031  1.00  0.00     0.704 A 
HETATM    7  N7  UNL     1     -33.305 -63.123 -10.400  1.00  0.00    -0.172 N 
HETATM    8  C7  UNL     1     -34.516 -63.006 -10.972  1.00  0.00     0.161 A 
ATOM      9  H7  UNL     1     -33.259 -63.443  -9.432  1.00  0.00     0.186 HD
HETATM   10  C13 UNL     1     -34.601 -62.575 -12.283  1.00  0.00     0.191 A 
HETATM   11  C12 UNL     1     -33.415 -62.284 -12.941  1.00  0.00     0.152 A 
HETATM   12  N11 UNL     1     -32.245 -62.425 -12.305  1.00  0.00    -0.173 N 
ATOM     13  H11 UNL     1     -31.385 -62.206 -12.808  1.00  0.00     0.186 HD
BRANCH   8  14
HETATM   14  N1  UNL     1     -35.650 -63.338 -10.231  1.00  0.00    -0.318 N 
HETATM   15  C1  UNL     1     -36.005 -64.771 -10.185  1.00  0.00     0.159 C 
BRANCH  14  16
HETATM   16  C2  UNL     1     -36.501 -62.472  -9.496  1.00  0.00     0.160 A 
HETATM   17  N2  UNL     1     -37.775 -62.272  -9.869  1.00  0.00    -0.174 N 
HETATM   18  C3  UNL     1     -38.578 -61.465  -9.161  1.00  0.00     0.678 A 
ATOM     19  H2  UNL     1     -38.136 -62.740 -10.700  1.00  0.00     0.186 HD
HETATM   20  N4  UNL     1     -38.114 -60.838  -8.062  1.00  0.00    -0.183 N 
HETATM   21  C4  UNL     1     -36.831 -60.987  -7.615  1.00  0.00     0.155 A 
ATOM     22  H4  UNL     1     -38.746 -60.228  -7.544  1.00  0.00     0.184 HD
HETATM   23  C6  UNL     1     -36.009 -61.815  -8.340  1.00  0.00     0.144 A 
BRANCH  18  24
HETATM   24  N3  UNL     1     -39.807 -61.276  -9.525  1.00  0.00    -0.234 N 
ATOM     25  H32 UNL     1     -40.083 -61.497 -10.482  1.00  0.00     0.174 HD
ATOM     26  H31 UNL     1     -40.493 -60.912  -8.864  1.00  0.00     0.174 HD
ENDBRANCH  18  24
BRANCH  21  27
HETATM   27  C5  UNL     1     -36.377 -60.291  -6.431  1.00  0.00     0.289 C 
HETATM   28  O1  UNL     1     -35.671 -60.855  -5.569  1.00  0.00    -0.264 OA
HETATM   29  N5  UNL     1     -36.693 -58.931  -6.163  1.00  0.00    -0.271 N 
ATOM     30  H5  UNL     1     -37.265 -58.395  -6.816  1.00  0.00     0.189 HD
BRANCH  29  31
HETATM   31  N6  UNL     1     -36.211 -58.340  -4.997  1.00  0.00    -0.342 N 
ATOM     32  H62 UNL     1     -36.081 -58.911  -4.162  1.00  0.00     0.176 HD
ATOM     33  H61 UNL     1     -35.996 -57.343  -4.999  1.00  0.00     0.176 HD
ENDBRANCH  29  31
ENDBRANCH  21  27
BRANCH  23  34
HETATM   34  O2  UNL     1     -34.729 -62.061  -8.030  1.00  0.00    -0.355 OA
ATOM     35  H2  UNL     1     -34.393 -61.604  -7.269  1.00  0.00     0.218 HD
ENDBRANCH  23  34
ENDBRANCH  14  16
ENDBRANCH   8  14
BRANCH  10  36
HETATM   36  N13 UNL     1     -35.851 -62.435 -12.951  1.00  0.00    -0.108 N 
HETATM   37  O5  UNL     1     -36.696 -61.587 -12.642  1.00  0.00    -0.531 OA
HETATM   38  O6  UNL     1     -36.123 -63.289 -13.985  1.00  0.00    -0.531 OA
ENDBRANCH  10  36
BRANCH  11  39
HETATM   39  N12 UNL     1     -33.492 -61.881 -14.165  1.00  0.00    -0.383 N 
ATOM     40 2H12 UNL     1     -33.837 -62.544 -14.860  1.00  0.00     0.157 HD
ATOM     41 1H12 UNL     1     -33.225 -60.938 -14.448  1.00  0.00     0.157 HD
ENDBRANCH  11  39
ENDBRANCH   1   6
BRANCH   4  42
HETATM   42  C11 UNL     1     -28.736 -64.316 -10.083  1.00  0.00     0.189 C 
HETATM   43  N10 UNL     1     -27.599 -64.070 -10.645  1.00  0.00    -0.275 N 
ATOM     44  H10 UNL     1     -27.612 -63.667 -11.581  1.00  0.00     0.193 HD
BRANCH  43  45
HETATM   45  O4  UNL     1     -26.386 -64.309 -10.079  1.00  0.00    -0.290 OA
ATOM     46  H4  UNL     1     -25.558 -63.988 -10.416  1.00  0.00     0.244 HD
ENDBRANCH  43  45
ENDBRANCH   4  42
TORSDOF 11
ENDMDL
MODEL 2
REMARK VINA RESULT: -9.972166261      2.253      7.172
REMARK  11 active torsions:
REMARK  status: ('A' for Active; 'I' for Inactive)
REMARK    1  A    between atoms: N1_2  and  C2_3 
REMARK    2  A    between atoms: N1_2  and  C7_23 
REMARK    3  A    between atoms: C3_6  and  N3_7 
REMARK    4  A    between atoms: C4_12  and  C5_13 
REMARK       I    between atoms: C5_13  and  N5_15 
REMARK    5  A    between atoms: N5_15  and  N6_17 
REMARK    6  A    between atoms: C6_20  and  O2_21 
REMARK    7  A    between atoms: C8_26  and  N8_27 
REMARK       I    between atoms: N8_27  and  C10_30 
REMARK    8  A    between atoms: C10_30  and  C11_32 
REMARK    9  A    between atoms: N10_33  and  O4_35 
REMARK   10  A    between atoms: C12_39  and  N12_40 
REMARK   11  A    between atoms: C13_43  and  N13_44 
ROOT
HETATM    1  N8  UNL     1     -37.507 -60.490  -7.589  1.00  0.00    -0.041 N 
HETATM    2  C9  UNL     1     -38.648 -59.708  -7.704  1.00  0.00     0.207 C 
HETATM    3  N9  UNL     1     -39.609 -59.072  -7.812  1.00  0.00    -0.171 NA
HETATM    4  C10 UNL     1     -36.496 -60.108  -6.682  1.00  0.00     0.293 C 
HETATM    5  O3  UNL     1     -35.466 -60.865  -6.615  1.00  0.00    -0.265 OA
ENDROOT
BRANCH   1   6
HETATM    6  C8  UNL     1     -37.367 -61.679  -8.397  1.00  0.00     0.704 A 
HETATM    7  N7  UNL     1     -36.452 -61.760  -9.372  1.00  0.00    -0.172 N 
HETATM    8  C7  UNL     1     -36.287 -62.846 -10.147  1.00  0.00     0.161 A 
ATOM      9  H7  UNL     1     -35.848 -60.954  -9.535  1.00  0.00     0.186 HD
HETATM   10  C13 UNL     1     -37.097 -63.947  -9.942  1.00  0.00     0.191 A 
HETATM   11  C12 UNL     1     -38.046 -63.867  -8.934  1.00  0.00     0.152 A 
HETATM   12  N11 UNL     1     -38.151 -62.751  -8.201  1.00  0.00    -0.173 N 
ATOM     13  H11 UNL     1     -38.855 -62.714  -7.465  1.00  0.00     0.186 HD
BRANCH   8  14
HETATM   14  N1  UNL     1     -35.315 -62.822 -11.147  1.00  0.00    -0.318 N 
HETATM   15  C1  UNL     1     -35.716 -62.225 -12.437  1.00  0.00     0.159 C 
BRANCH  14  16
HETATM   16  C2  UNL     1     -33.975 -63.284 -11.077  1.00  0.00     0.160 A 
HETATM   17  N2  UNL     1     -33.650 -64.527 -11.467  1.00  0.00    -0.174 N 
HETATM   18  C3  UNL     1     -32.379 -64.952 -11.413  1.00  0.00     0.678 A 
ATOM     19  H2  UNL     1     -34.378 -65.154 -11.809  1.00  0.00     0.186 HD
HETATM   20  N4  UNL     1     -31.408 -64.135 -10.961  1.00  0.00    -0.183 N 
HETATM   21  C4  UNL     1     -31.654 -62.857 -10.545  1.00  0.00     0.155 A 
ATOM     22  H4  UNL     1     -30.451 -64.485 -10.929  1.00  0.00     0.184 HD
HETATM   23  C6  UNL     1     -32.955 -62.421 -10.602  1.00  0.00     0.144 A 
BRANCH  18  24
HETATM   24  N3  UNL     1     -32.071 -66.153 -11.791  1.00  0.00    -0.234 N 
ATOM     25  H32 UNL     1     -32.697 -66.924 -11.560  1.00  0.00     0.174 HD
ATOM     26  H31 UNL     1     -31.213 -66.326 -12.316  1.00  0.00     0.174 HD
ENDBRANCH  18  24
BRANCH  21  27
HETATM   27  C5  UNL     1     -30.578 -62.017 -10.065  1.00  0.00     0.289 C 
HETATM   28  O1  UNL     1     -30.693 -61.333  -9.026  1.00  0.00    -0.264 OA
HETATM   29  N5  UNL     1     -29.326 -61.908 -10.730  1.00  0.00    -0.271 N 
ATOM     30  H5  UNL     1     -29.148 -62.432 -11.586  1.00  0.00     0.189 HD
BRANCH  29  31
HETATM   31  N6  UNL     1     -28.346 -61.075 -10.196  1.00  0.00    -0.342 N 
ATOM     32  H62 UNL     1     -27.846 -61.363  -9.354  1.00  0.00     0.176 HD
ATOM     33  H61 UNL     1     -28.143 -60.188 -10.657  1.00  0.00     0.176 HD
ENDBRANCH  29  31
ENDBRANCH  21  27
BRANCH  23  34
HETATM   34  O2  UNL     1     -33.354 -61.198 -10.229  1.00  0.00    -0.355 OA
ATOM     35  H2  UNL     1     -32.826 -60.776  -9.563  1.00  0.00     0.218 HD
ENDBRANCH  23  34
ENDBRANCH  14  16
ENDBRANCH   8  14
BRANCH  10  36
HETATM   36  N13 UNL     1     -36.979 -65.126 -10.732  1.00  0.00    -0.108 N 
HETATM   37  O5  UNL     1     -36.182 -66.037 -10.480  1.00  0.00    -0.531 OA
HETATM   38  O6  UNL     1     -37.793 -65.248 -11.825  1.00  0.00    -0.531 OA
ENDBRANCH  10  36
BRANCH  11  39
HETATM   39  N12 UNL     1     -38.802 -64.895  -8.740  1.00  0.00    -0.383 N 
ATOM     40 2H12 UNL     1     -39.544 -64.812  -8.046  1.00  0.00     0.157 HD
ATOM     41 1H12 UNL     1     -38.679 -65.768  -9.254  1.00  0.00     0.157 HD
ENDBRANCH  11  39
ENDBRANCH   1   6
BRANCH   4  42
HETATM   42  C11 UNL     1     -36.520 -58.947  -5.828  1.00  0.00     0.189 C 
HETATM   43  N10 UNL     1     -36.142 -58.915  -4.593  1.00  0.00    -0.275 N 
ATOM     44  H10 UNL     1     -35.794 -59.782  -4.183  1.00  0.00     0.193 HD
BRANCH  43  45
HETATM   45  O4  UNL     1     -36.173 -57.812  -3.800  1.00  0.00    -0.290 OA
ATOM     46  H4  UNL     1     -36.479 -57.799  -2.901  1.00  0.00     0.244 HD
ENDBRANCH  43  45
ENDBRANCH   4  42
TORSDOF 11
ENDMDL
MODEL 3
REMARK VINA RESULT: -9.742099296      3.859      8.751
REMARK  11 active torsions:
REMARK  status: ('A' for Active; 'I' for Inactive)
REMARK    1  A    between atoms: N1_2  and  C2_3 
REMARK    2  A    between atoms: N1_2  and  C7_23 
REMARK    3  A    between atoms: C3_6  and  N3_7 
REMARK    4  A    between atoms: C4_12  and  C5_13 
REMARK       I    between atoms: C5_13  and  N5_15 
REMARK    5  A    between atoms: N5_15  and  N6_17 
REMARK    6  A    between atoms: C6_20  and  O2_21 
REMARK    7  A    between atoms: C8_26  and  N8_27 
REMARK       I    between atoms: N8_27  and  C10_30 
REMARK    8  A    between atoms: C10_30  and  C11_32 
REMARK    9  A    between atoms: N10_33  and  O4_35 
REMARK   10  A    between atoms: C12_39  and  N12_40 
REMARK   11  A    between atoms: C13_43  and  N13_44 
ROOT
HETATM    1  N8  UNL     1     -32.901 -62.944 -11.230  1.00  0.00    -0.041 N 
HETATM    2  C9  UNL     1     -31.981 -62.013 -10.769  1.00  0.00     0.207 C 
HETATM    3  N9  UNL     1     -31.207 -61.232 -10.404  1.00  0.00    -0.171 NA
HETATM    4  C10 UNL     1     -33.879 -63.446 -10.347  1.00  0.00     0.293 C 
HETATM    5  O3  UNL     1     -34.702 -64.302 -10.824  1.00  0.00    -0.265 OA
ENDROOT
BRANCH   1   6
HETATM    6  C8  UNL     1     -32.845 -63.388 -12.603  1.00  0.00     0.704 A 
HETATM    7  N7  UNL     1     -31.928 -64.273 -13.017  1.00  0.00    -0.172 N 
HETATM    8  C7  UNL     1     -31.840 -64.714 -14.284  1.00  0.00     0.161 A 
ATOM      9  H7  UNL     1     -31.260 -64.631 -12.334  1.00  0.00     0.186 HD
HETATM   10  C13 UNL     1     -32.734 -64.239 -15.225  1.00  0.00     0.191 A 
HETATM   11  C12 UNL     1     -33.686 -63.323 -14.801  1.00  0.00     0.152 A 
HETATM   12  N11 UNL     1     -33.712 -62.931 -13.521  1.00  0.00    -0.173 N 
ATOM     13  H11 UNL     1     -34.420 -62.256 -13.230  1.00  0.00     0.186 HD
BRANCH   8  14
HETATM   14  N1  UNL     1     -30.837 -65.625 -14.614  1.00  0.00    -0.318 N 
HETATM   15  C1  UNL     1     -31.147 -67.051 -14.388  1.00  0.00     0.159 C 
BRANCH  14  16
HETATM   16  C2  UNL     1     -29.554 -65.356 -15.161  1.00  0.00     0.160 A 
HETATM   17  N2  UNL     1     -29.318 -65.498 -16.474  1.00  0.00    -0.174 N 
HETATM   18  C3  UNL     1     -28.108 -65.228 -16.986  1.00  0.00     0.678 A 
ATOM     19  H2  UNL     1     -30.067 -65.814 -17.090  1.00  0.00     0.186 HD
HETATM   20  N4  UNL     1     -27.108 -64.812 -16.184  1.00  0.00    -0.183 N 
HETATM   21  C4  UNL     1     -27.265 -64.643 -14.836  1.00  0.00     0.155 A 
ATOM     22  H4  UNL     1     -26.198 -64.616 -16.599  1.00  0.00     0.184 HD
HETATM   23  C6  UNL     1     -28.505 -64.919 -14.313  1.00  0.00     0.144 A 
BRANCH  18  24
HETATM   24  N3  UNL     1     -27.885 -65.366 -18.255  1.00  0.00    -0.234 N 
ATOM     25  H32 UNL     1     -28.579 -65.839 -18.834  1.00  0.00     0.174 HD
ATOM     26  H31 UNL     1     -27.027 -65.004 -18.673  1.00  0.00     0.174 HD
ENDBRANCH  18  24
BRANCH  21  27
HETATM   27  C5  UNL     1     -26.162 -64.197 -14.015  1.00  0.00     0.289 C 
HETATM   28  O1  UNL     1     -25.798 -63.003 -13.997  1.00  0.00    -0.264 OA
HETATM   29  N5  UNL     1     -25.418 -65.073 -13.176  1.00  0.00    -0.271 N 
ATOM     30  H5  UNL     1     -25.649 -66.065 -13.131  1.00  0.00     0.189 HD
BRANCH  29  31
HETATM   31  N6  UNL     1     -24.370 -64.556 -12.417  1.00  0.00    -0.342 N 
ATOM     32  H62 UNL     1     -24.520 -64.352 -11.429  1.00  0.00     0.176 HD
ATOM     33  H61 UNL     1     -23.469 -64.390 -12.864  1.00  0.00     0.176 HD
ENDBRANCH  29  31
ENDBRANCH  21  27
BRANCH  23  34
HETATM   34  O2  UNL     1     -28.815 -64.802 -13.015  1.00  0.00    -0.355 OA
ATOM     35  H2  UNL     1     -29.355 -65.495 -12.655  1.00  0.00     0.218 HD
ENDBRANCH  23  34
ENDBRANCH  14  16
ENDBRANCH   8  14
BRANCH  10  36
HETATM   36  N13 UNL     1     -32.692 -64.660 -16.584  1.00  0.00    -0.108 N 
HETATM   37  O5  UNL     1     -32.034 -64.080 -17.455  1.00  0.00    -0.531 OA
HETATM   38  O6  UNL     1     -33.422 -65.763 -16.936  1.00  0.00    -0.531 OA
ENDBRANCH  10  36
BRANCH  11  39
HETATM   39  N12 UNL     1     -34.523 -62.880 -15.677  1.00  0.00    -0.383 N 
ATOM     40 2H12 UNL     1     -34.372 -61.939 -16.041  1.00  0.00     0.157 HD
ATOM     41 1H12 UNL     1     -35.312 -63.435 -16.009  1.00  0.00     0.157 HD
ENDBRANCH  11  39
ENDBRANCH   1   6
BRANCH   4  42
HETATM   42  C11 UNL     1     -34.032 -63.082  -8.960  1.00  0.00     0.189 C 
HETATM   43  N10 UNL     1     -35.061 -62.492  -8.448  1.00  0.00    -0.275 N 
ATOM     44  H10 UNL     1     -35.833 -62.262  -9.073  1.00  0.00     0.193 HD
BRANCH  43  45
HETATM   45  O4  UNL     1     -35.190 -62.154  -7.139  1.00  0.00    -0.290 OA
ATOM     46  H4  UNL     1     -35.966 -62.308  -6.612  1.00  0.00     0.244 HD
ENDBRANCH  43  45
ENDBRANCH   4  42
TORSDOF 11
ENDMDL
MODEL 4
REMARK VINA RESULT: -9.296039989      4.006      8.633
REMARK  11 active torsions:
REMARK  status: ('A' for Active; 'I' for Inactive)
REMARK    1  A    between atoms: N1_2  and  C2_3 
REMARK    2  A    between atoms: N1_2  and  C7_23 
REMARK    3  A    between atoms: C3_6  and  N3_7 
REMARK    4  A    between atoms: C4_12  and  C5_13 
REMARK       I    between atoms: C5_13  and  N5_15 
REMARK    5  A    between atoms: N5_15  and  N6_17 
REMARK    6  A    between atoms: C6_20  and  O2_21 
REMARK    7  A    between atoms: C8_26  and  N8_27 
REMARK       I    between atoms: N8_27  and  C10_30 
REMARK    8  A    between atoms: C10_30  and  C11_32 
REMARK    9  A    between atoms: N10_33  and  O4_35 
REMARK   10  A    between atoms: C12_39  and  N12_40 
REMARK   11  A    between atoms: C13_43  and  N13_44 
ROOT
HETATM    1  N8  UNL     1     -32.585 -62.668 -11.601  1.00  0.00    -0.041 N 
HETATM    2  C9  UNL     1     -33.740 -62.199 -10.989  1.00  0.00     0.207 C 
HETATM    3  N9  UNL     1     -34.715 -61.817 -10.495  1.00  0.00    -0.171 NA
HETATM    4  C10 UNL     1     -31.354 -62.566 -10.922  1.00  0.00     0.293 C 
HETATM    5  O3  UNL     1     -30.321 -63.014 -11.531  1.00  0.00    -0.265 OA
ENDROOT
BRANCH   1   6
HETATM    6  C8  UNL     1     -32.658 -63.250 -12.920  1.00  0.00     0.704 A 
HETATM    7  N7  UNL     1     -31.763 -64.154 -13.338  1.00  0.00    -0.172 N 
HETATM    8  C7  UNL     1     -31.794 -64.722 -14.557  1.00  0.00     0.161 A 
ATOM      9  H7  UNL     1     -31.017 -64.427 -12.698  1.00  0.00     0.186 HD
HETATM   10  C13 UNL     1     -32.795 -64.365 -15.440  1.00  0.00     0.191 A 
HETATM   11  C12 UNL     1     -33.725 -63.428 -15.011  1.00  0.00     0.152 A 
HETATM   12  N11 UNL     1     -33.630 -62.907 -13.782  1.00  0.00    -0.173 N 
ATOM     13  H11 UNL     1     -34.324 -62.220 -13.487  1.00  0.00     0.186 HD
BRANCH   8  14
HETATM   14  N1  UNL     1     -30.803 -65.642 -14.899  1.00  0.00    -0.318 N 
HETATM   15  C1  UNL     1     -31.155 -67.069 -14.750  1.00  0.00     0.159 C 
BRANCH  14  16
HETATM   16  C2  UNL     1     -29.498 -65.382 -15.392  1.00  0.00     0.160 A 
HETATM   17  N2  UNL     1     -29.209 -65.520 -16.696  1.00  0.00    -0.174 N 
HETATM   18  C3  UNL     1     -27.977 -65.258 -17.157  1.00  0.00     0.678 A 
ATOM     19  H2  UNL     1     -29.935 -65.828 -17.343  1.00  0.00     0.186 HD
HETATM   20  N4  UNL     1     -27.008 -64.853 -16.314  1.00  0.00    -0.183 N 
HETATM   21  C4  UNL     1     -27.218 -64.688 -14.973  1.00  0.00     0.155 A 
ATOM     22  H4  UNL     1     -26.080 -64.663 -16.691  1.00  0.00     0.184 HD
HETATM   23  C6  UNL     1     -28.480 -64.955 -14.501  1.00  0.00     0.144 A 
BRANCH  18  24
HETATM   24  N3  UNL     1     -27.705 -65.393 -18.417  1.00  0.00    -0.234 N 
ATOM     25  H32 UNL     1     -27.677 -64.566 -19.012  1.00  0.00     0.174 HD
ATOM     26  H31 UNL     1     -27.519 -66.317 -18.810  1.00  0.00     0.174 HD
ENDBRANCH  18  24
BRANCH  21  27
HETATM   27  C5  UNL     1     -26.145 -64.253 -14.106  1.00  0.00     0.289 C 
HETATM   28  O1  UNL     1     -25.781 -63.060 -14.060  1.00  0.00    -0.264 OA
HETATM   29  N5  UNL     1     -25.435 -65.140 -13.250  1.00  0.00    -0.271 N 
ATOM     30  H5  UNL     1     -25.668 -66.132 -13.225  1.00  0.00     0.189 HD
BRANCH  29  31
HETATM   31  N6  UNL     1     -24.415 -64.633 -12.446  1.00  0.00    -0.342 N 
ATOM     32  H62 UNL     1     -23.589 -64.225 -12.883  1.00  0.00     0.176 HD
ATOM     33  H61 UNL     1     -24.514 -64.680 -11.432  1.00  0.00     0.176 HD
ENDBRANCH  29  31
ENDBRANCH  21  27
BRANCH  23  34
HETATM   34  O2  UNL     1     -28.841 -64.841 -13.216  1.00  0.00    -0.355 OA
ATOM     35  H2  UNL     1     -29.175 -63.991 -12.955  1.00  0.00     0.218 HD
ENDBRANCH  23  34
ENDBRANCH  14  16
ENDBRANCH   8  14
BRANCH  10  36
HETATM   36  N13 UNL     1     -32.882 -64.923 -16.747  1.00  0.00    -0.108 N 
HETATM   37  O5  UNL     1     -33.610 -65.881 -17.031  1.00  0.00    -0.531 OA
HETATM   38  O6  UNL     1     -32.115 -64.364 -17.733  1.00  0.00    -0.531 OA
ENDBRANCH  10  36
BRANCH  11  39
HETATM   39  N12 UNL     1     -34.662 -63.095 -15.834  1.00  0.00    -0.383 N 
ATOM     40 2H12 UNL     1     -35.626 -63.183 -15.513  1.00  0.00     0.157 HD
ATOM     41 1H12 UNL     1     -34.467 -62.752 -16.775  1.00  0.00     0.157 HD
ENDBRANCH  11  39
ENDBRANCH   1   6
BRANCH   4  42
HETATM   42  C11 UNL     1     -31.155 -62.004  -9.609  1.00  0.00     0.189 C 
HETATM   43  N10 UNL     1     -30.049 -61.505  -9.165  1.00  0.00    -0.275 N 
ATOM     44  H10 UNL     1     -29.246 -61.504  -9.793  1.00  0.00     0.193 HD
BRANCH  43  45
HETATM   45  O4  UNL     1     -29.878 -60.980  -7.924  1.00  0.00    -0.290 OA
ATOM     46  H4  UNL     1     -29.125 -60.470  -7.650  1.00  0.00     0.244 HD
ENDBRANCH  43  45
ENDBRANCH   4  42
TORSDOF 11
ENDMDL
MODEL 5
REMARK VINA RESULT: -9.115825355      3.043      8.546
REMARK  11 active torsions:
REMARK  status: ('A' for Active; 'I' for Inactive)
REMARK    1  A    between atoms: N1_2  and  C2_3 
REMARK    2  A    between atoms: N1_2  and  C7_23 
REMARK    3  A    between atoms: C3_6  and  N3_7 
REMARK    4  A    between atoms: C4_12  and  C5_13 
REMARK       I    between atoms: C5_13  and  N5_15 
REMARK    5  A    between atoms: N5_15  and  N6_17 
REMARK    6  A    between atoms: C6_20  and  O2_21 
REMARK    7  A    between atoms: C8_26  and  N8_27 
REMARK       I    between atoms: N8_27  and  C10_30 
REMARK    8  A    between atoms: C10_30  and  C11_32 
REMARK    9  A    between atoms: N10_33  and  O4_35 
REMARK   10  A    between atoms: C12_39  and  N12_40 
REMARK   11  A    between atoms: C13_43  and  N13_44 
ROOT
HETATM    1  N8  UNL     1     -34.417 -62.932  -9.890  1.00  0.00    -0.041 N 
HETATM    2  C9  UNL     1     -34.805 -62.621  -8.594  1.00  0.00     0.207 C 
HETATM    3  N9  UNL     1     -35.109 -62.358  -7.507  1.00  0.00    -0.171 NA
HETATM    4  C10 UNL     1     -35.403 -63.132 -10.878  1.00  0.00     0.293 C 
HETATM    5  O3  UNL     1     -34.989 -63.415 -12.056  1.00  0.00    -0.265 OA
ENDROOT
BRANCH   1   6
HETATM    6  C8  UNL     1     -33.013 -63.048 -10.209  1.00  0.00     0.704 A 
HETATM    7  N7  UNL     1     -32.572 -63.925 -11.120  1.00  0.00    -0.172 N 
HETATM    8  C7  UNL     1     -31.275 -64.066 -11.448  1.00  0.00     0.161 A 
ATOM      9  H7  UNL     1     -33.255 -64.518 -11.590  1.00  0.00     0.186 HD
HETATM   10  C13 UNL     1     -30.333 -63.272 -10.822  1.00  0.00     0.191 A 
HETATM   11  C12 UNL     1     -30.786 -62.362  -9.877  1.00  0.00     0.152 A 
HETATM   12  N11 UNL     1     -32.094 -62.278  -9.603  1.00  0.00    -0.173 N 
ATOM     13  H11 UNL     1     -32.405 -61.603  -8.906  1.00  0.00     0.186 HD
BRANCH   8  14
HETATM   14  N1  UNL     1     -30.919 -65.022 -12.399  1.00  0.00    -0.318 N 
HETATM   15  C1  UNL     1     -30.878 -66.424 -11.936  1.00  0.00     0.159 C 
BRANCH  14  16
HETATM   16  C2  UNL     1     -30.605 -64.820 -13.769  1.00  0.00     0.160 A 
HETATM   17  N2  UNL     1     -29.334 -64.834 -14.198  1.00  0.00    -0.174 N 
HETATM   18  C3  UNL     1     -29.045 -64.658 -15.496  1.00  0.00     0.678 A 
ATOM     19  H2  UNL     1     -28.578 -64.979 -13.528  1.00  0.00     0.186 HD
HETATM   20  N4  UNL     1     -30.033 -64.462 -16.390  1.00  0.00    -0.183 N 
HETATM   21  C4  UNL     1     -31.353 -64.434 -16.037  1.00  0.00     0.155 A 
ATOM     22  H4  UNL     1     -29.786 -64.330 -17.371  1.00  0.00     0.184 HD
HETATM   23  C6  UNL     1     -31.648 -64.615 -14.708  1.00  0.00     0.144 A 
BRANCH  18  24
HETATM   24  N3  UNL     1     -27.815 -64.672 -15.904  1.00  0.00    -0.234 N 
ATOM     25  H32 UNL     1     -27.288 -65.545 -15.869  1.00  0.00     0.174 HD
ATOM     26  H31 UNL     1     -27.377 -63.820 -16.257  1.00  0.00     0.174 HD
ENDBRANCH  18  24
BRANCH  21  27
HETATM   27  C5  UNL     1     -32.380 -64.218 -17.033  1.00  0.00     0.289 C 
HETATM   28  O1  UNL     1     -32.441 -64.909 -18.072  1.00  0.00    -0.264 OA
HETATM   29  N5  UNL     1     -33.383 -63.218 -16.907  1.00  0.00    -0.271 N 
ATOM     30  H5  UNL     1     -33.406 -62.609 -16.089  1.00  0.00     0.189 HD
BRANCH  29  31
HETATM   31  N6  UNL     1     -34.334 -63.081 -17.916  1.00  0.00    -0.342 N 
ATOM     32  H62 UNL     1     -34.576 -63.889 -18.490  1.00  0.00     0.176 HD
ATOM     33  H61 UNL     1     -34.773 -62.172 -18.063  1.00  0.00     0.176 HD
ENDBRANCH  29  31
ENDBRANCH  21  27
BRANCH  23  34
HETATM   34  O2  UNL     1     -32.891 -64.614 -14.207  1.00  0.00    -0.355 OA
ATOM     35  H2  UNL     1     -33.591 -64.509 -14.840  1.00  0.00     0.218 HD
ENDBRANCH  23  34
ENDBRANCH  14  16
ENDBRANCH   8  14
BRANCH  10  36
HETATM   36  N13 UNL     1     -28.944 -63.376 -11.118  1.00  0.00    -0.108 N 
HETATM   37  O5  UNL     1     -28.380 -62.693 -11.981  1.00  0.00    -0.531 OA
HETATM   38  O6  UNL     1     -28.204 -64.280 -10.407  1.00  0.00    -0.531 OA
ENDBRANCH  10  36
BRANCH  11  39
HETATM   39  N12 UNL     1     -29.907 -61.620  -9.292  1.00  0.00    -0.383 N 
ATOM     40 2H12 UNL     1     -29.142 -62.087  -8.807  1.00  0.00     0.157 HD
ATOM     41 1H12 UNL     1     -29.958 -60.601  -9.304  1.00  0.00     0.157 HD
ENDBRANCH  11  39
ENDBRANCH   1   6
BRANCH   4  42
HETATM   42  C11 UNL     1     -36.828 -63.046 -10.680  1.00  0.00     0.189 C 
HETATM   43  N10 UNL     1     -37.573 -62.043 -11.010  1.00  0.00    -0.275 N 
ATOM     44  H10 UNL     1     -37.120 -61.243 -11.448  1.00  0.00     0.193 HD
BRANCH  43  45
HETATM   45  O4  UNL     1     -38.916 -61.977 -10.815  1.00  0.00    -0.290 OA
ATOM     46  H4  UNL     1     -39.530 -62.670 -11.029  1.00  0.00     0.244 HD
ENDBRANCH  43  45
ENDBRANCH   4  42
TORSDOF 11
ENDMDL
