MODEL 1
REMARK VINA RESULT: -8.143464287      0.000      0.000
REMARK  11 active torsions:
REMARK  status: ('A' for Active; 'I' for Inactive)
REMARK    1  A    between atoms: O1_2  and  C2_3 
REMARK    2  A    between atoms: C2_3  and  C3_5 
REMARK    3  A    between atoms: N1_9  and  C7_10 
REMARK    4  A    between atoms: C7_10  and  C8_11 
REMARK       I    between atoms: C8_11  and  N2_13 
REMARK    5  A    between atoms: N2_13  and  C9_15 
REMARK    6  A    between atoms: C9_15  and  C10_16 
REMARK    7  A    between atoms: C10_16  and  N3_17 
REMARK    8  A    between atoms: C12_19  and  C13_20 
REMARK    9  A    between atoms: C13_20  and  S1_21 
REMARK   10  A    between atoms: S1_21  and  C14_22 
REMARK   11  A    between atoms: N6_27  and  C15_28 
ROOT
HETATM    1  C14 UNL     1      -1.053   5.538  13.033  1.00  0.00     0.126 A 
HETATM    2  N4  UNL     1      -1.142   4.184  12.885  1.00  0.00    -0.276 N 
ATOM      3  H4  UNL     1      -1.822   3.580  13.346  1.00  0.00     0.189 HD
HETATM    4  N5  UNL     1      -0.214   3.790  12.059  1.00  0.00    -0.234 N 
ATOM      5  H5  UNL     1      -0.072   2.818  11.784  1.00  0.00     0.209 HD
HETATM    6  N6  UNL     1       0.523   4.794  11.619  1.00  0.00    -0.225 N 
HETATM    7  C21 UNL     1       0.005   5.899  12.224  1.00  0.00     0.172 A 
HETATM    8  C22 UNL     1       0.493   7.237  12.043  1.00  0.00     0.122 C 
HETATM    9  N9  UNL     1       0.883   8.318  11.915  1.00  0.00    -0.190 NA
ENDROOT
BRANCH   1  10
HETATM   10  S1  UNL     1      -2.096   6.564  14.055  1.00  0.00    -0.102 SA
BRANCH  10  11
HETATM   11  C13 UNL     1      -2.319   8.194  13.343  1.00  0.00     0.141 C 
BRANCH  11  12
HETATM   12  C12 UNL     1      -2.937   8.088  12.000  1.00  0.00     0.054 A 
HETATM   13  C11 UNL     1      -3.895   7.215  11.565  1.00  0.00     0.139 A 
HETATM   14  N3  UNL     1      -4.148   7.491  10.276  1.00  0.00    -0.286 N 
HETATM   15  N11 UNL     1      -3.378   8.499   9.911  1.00  0.00    -0.241 N 
HETATM   16  N10 UNL     1      -2.647   8.865  10.942  1.00  0.00    -0.288 N 
ATOM     17  H11 UNL     1      -3.354   8.925   8.984  1.00  0.00     0.208 HD
ATOM     18  H10 UNL     1      -1.964   9.622  10.938  1.00  0.00     0.188 HD
BRANCH  14  19
HETATM   19  C10 UNL     1      -5.096   6.813   9.409  1.00  0.00     0.169 C 
BRANCH  19  20
HETATM   20  C9  UNL     1      -4.506   5.570   8.779  1.00  0.00     0.144 C 
BRANCH  20  21
HETATM   21  N2  UNL     1      -4.884   4.361   9.498  1.00  0.00    -0.358 N 
HETATM   22  C8  UNL     1      -3.914   3.713  10.301  1.00  0.00     0.235 C 
HETATM   23  O3  UNL     1      -2.746   4.162  10.400  1.00  0.00    -0.272 OA
ATOM     24  H2  UNL     1      -5.831   3.988   9.424  1.00  0.00     0.162 HD
BRANCH  22  25
HETATM   25  C7  UNL     1      -4.277   2.496  11.030  1.00  0.00     0.230 C 
BRANCH  25  26
HETATM   26  N1  UNL     1      -4.692   2.755  12.392  1.00  0.00    -0.357 N 
HETATM   27  C6  UNL     1      -5.329   3.903  12.655  1.00  0.00     0.091 A 
HETATM   28  C5  UNL     1      -5.755   4.213  13.946  1.00  0.00     0.018 A 
HETATM   29  C4  UNL     1      -5.515   3.321  14.975  1.00  0.00     0.020 A 
HETATM   30  C3  UNL     1      -4.860   2.141  14.703  1.00  0.00     0.055 A 
HETATM   31  C23 UNL     1      -4.473   1.907  13.411  1.00  0.00     0.108 A 
BRANCH  30  32
HETATM   32  C2  UNL     1      -4.575   1.153  15.743  1.00  0.00     0.294 C 
HETATM   33  O2  UNL     1      -3.413   1.060  16.213  1.00  0.00    -0.259 OA
BRANCH  32  34
HETATM   34  O1  UNL     1      -5.532   0.303  16.247  1.00  0.00    -0.322 OA
HETATM   35  C1  UNL     1      -6.640   0.739  17.012  1.00  0.00     0.213 C 
ENDBRANCH  32  34
ENDBRANCH  30  32
ENDBRANCH  25  26
ENDBRANCH  22  25
ENDBRANCH  20  21
ENDBRANCH  19  20
ENDBRANCH  14  19
ENDBRANCH  11  12
ENDBRANCH  10  11
ENDBRANCH   1  10
BRANCH   6  36
HETATM   36  C15 UNL     1       1.613   4.714  10.709  1.00  0.00     0.106 A 
HETATM   37  C16 UNL     1       1.564   4.416   9.350  1.00  0.00     0.053 A 
HETATM   38  C17 UNL     1       0.302   4.123   8.601  1.00  0.00     0.072 C 
HETATM   39  N7  UNL     1       2.818   4.449   8.887  1.00  0.00    -0.301 N 
HETATM   40  N8  UNL     1       3.674   4.749   9.862  1.00  0.00    -0.299 N 
ATOM     41  H7  UNL     1       3.084   4.269   7.919  1.00  0.00     0.187 HD
HETATM   42  C18 UNL     1       5.111   4.868   9.710  1.00  0.00     0.177 C 
HETATM   43  C19 UNL     1       2.955   4.910  10.966  1.00  0.00     0.055 A 
HETATM   44  C20 UNL     1       3.516   5.257  12.302  1.00  0.00     0.072 C 
ENDBRANCH   6  36
TORSDOF 11
ENDMDL
MODEL 2
REMARK VINA RESULT: -8.092608611      2.664      7.693
REMARK  11 active torsions:
REMARK  status: ('A' for Active; 'I' for Inactive)
REMARK    1  A    between atoms: O1_2  and  C2_3 
REMARK    2  A    between atoms: C2_3  and  C3_5 
REMARK    3  A    between atoms: N1_9  and  C7_10 
REMARK    4  A    between atoms: C7_10  and  C8_11 
REMARK       I    between atoms: C8_11  and  N2_13 
REMARK    5  A    between atoms: N2_13  and  C9_15 
REMARK    6  A    between atoms: C9_15  and  C10_16 
REMARK    7  A    between atoms: C10_16  and  N3_17 
REMARK    8  A    between atoms: C12_19  and  C13_20 
REMARK    9  A    between atoms: C13_20  and  S1_21 
REMARK   10  A    between atoms: S1_21  and  C14_22 
REMARK   11  A    between atoms: N6_27  and  C15_28 
ROOT
HETATM    1  C14 UNL     1      -2.569   3.672  12.047  1.00  0.00     0.126 A 
HETATM    2  N4  UNL     1      -1.966   4.228  13.137  1.00  0.00    -0.276 N 
ATOM      3  H4  UNL     1      -1.041   4.656  13.149  1.00  0.00     0.189 HD
HETATM    4  N5  UNL     1      -2.766   4.122  14.160  1.00  0.00    -0.234 N 
ATOM      5  H5  UNL     1      -2.543   4.464  15.095  1.00  0.00     0.209 HD
HETATM    6  N6  UNL     1      -3.900   3.520  13.847  1.00  0.00    -0.225 N 
HETATM    7  C21 UNL     1      -3.788   3.231  12.520  1.00  0.00     0.172 A 
HETATM    8  C22 UNL     1      -4.793   2.569  11.739  1.00  0.00     0.122 C 
HETATM    9  N9  UNL     1      -5.589   2.026  11.100  1.00  0.00    -0.190 NA
ENDROOT
BRANCH   1  10
HETATM   10  S1  UNL     1      -1.892   3.564  10.398  1.00  0.00    -0.102 SA
BRANCH  10  11
HETATM   11  C13 UNL     1      -0.166   3.082  10.424  1.00  0.00     0.141 C 
BRANCH  11  12
HETATM   12  C12 UNL     1       0.670   4.192  10.939  1.00  0.00     0.054 A 
HETATM   13  C11 UNL     1       0.483   5.539  10.801  1.00  0.00     0.139 A 
HETATM   14  N3  UNL     1       1.491   6.161  11.433  1.00  0.00    -0.286 N 
HETATM   15  N11 UNL     1       2.284   5.241  11.949  1.00  0.00    -0.241 N 
HETATM   16  N10 UNL     1       1.798   4.054  11.658  1.00  0.00    -0.288 N 
ATOM     17  H11 UNL     1       3.133   5.420  12.486  1.00  0.00     0.208 HD
ATOM     18  H10 UNL     1       2.213   3.165  11.935  1.00  0.00     0.188 HD
BRANCH  14  19
HETATM   19  C10 UNL     1       1.699   7.594  11.542  1.00  0.00     0.169 C 
BRANCH  19  20
HETATM   20  C9  UNL     1       0.794   8.225  12.578  1.00  0.00     0.144 C 
BRANCH  20  21
HETATM   21  N2  UNL     1      -0.428   8.753  11.987  1.00  0.00    -0.358 N 
HETATM   22  C8  UNL     1      -1.658   8.114  12.279  1.00  0.00     0.235 C 
HETATM   23  O3  UNL     1      -1.708   7.111  13.030  1.00  0.00    -0.272 OA
ATOM     24  H2  UNL     1      -0.398   9.568  11.375  1.00  0.00     0.162 HD
BRANCH  22  25
HETATM   25  C7  UNL     1      -2.897   8.632  11.692  1.00  0.00     0.230 C 
BRANCH  25  26
HETATM   26  N1  UNL     1      -3.614   7.641  10.920  1.00  0.00    -0.357 N 
HETATM   27  C6  UNL     1      -4.665   7.033  11.486  1.00  0.00     0.091 A 
HETATM   28  C5  UNL     1      -5.398   6.069  10.796  1.00  0.00     0.018 A 
HETATM   29  C4  UNL     1      -5.036   5.731   9.504  1.00  0.00     0.020 A 
HETATM   30  C3  UNL     1      -3.956   6.357   8.925  1.00  0.00     0.055 A 
HETATM   31  C23 UNL     1      -3.285   7.294   9.664  1.00  0.00     0.108 A 
BRANCH  30  32
HETATM   32  C2  UNL     1      -3.518   6.050   7.563  1.00  0.00     0.294 C 
HETATM   33  O2  UNL     1      -4.000   6.690   6.594  1.00  0.00    -0.259 OA
BRANCH  32  34
HETATM   34  O1  UNL     1      -2.586   5.080   7.280  1.00  0.00    -0.322 OA
HETATM   35  C1  UNL     1      -1.214   5.353   7.060  1.00  0.00     0.213 C 
ENDBRANCH  32  34
ENDBRANCH  30  32
ENDBRANCH  25  26
ENDBRANCH  22  25
ENDBRANCH  20  21
ENDBRANCH  19  20
ENDBRANCH  14  19
ENDBRANCH  11  12
ENDBRANCH  10  11
ENDBRANCH   1  10
BRANCH   6  36
HETATM   36  C15 UNL     1      -4.986   3.246  14.723  1.00  0.00     0.106 A 
HETATM   37  C16 UNL     1      -6.075   4.065  15.007  1.00  0.00     0.053 A 
HETATM   38  C17 UNL     1      -6.282   5.421  14.408  1.00  0.00     0.072 C 
HETATM   39  N7  UNL     1      -6.851   3.413  15.880  1.00  0.00    -0.301 N 
HETATM   40  N8  UNL     1      -6.331   2.224  16.177  1.00  0.00    -0.299 N 
ATOM     41  H7  UNL     1      -7.722   3.777  16.266  1.00  0.00     0.187 HD
HETATM   42  C18 UNL     1      -6.911   1.259  17.090  1.00  0.00     0.177 C 
HETATM   43  C19 UNL     1      -5.205   2.114  15.483  1.00  0.00     0.055 A 
HETATM   44  C20 UNL     1      -4.297   0.933  15.517  1.00  0.00     0.072 C 
ENDBRANCH   6  36
TORSDOF 11
ENDMDL
MODEL 3
REMARK VINA RESULT: -8.041198900      2.740      7.869
REMARK  11 active torsions:
REMARK  status: ('A' for Active; 'I' for Inactive)
REMARK    1  A    between atoms: O1_2  and  C2_3 
REMARK    2  A    between atoms: C2_3  and  C3_5 
REMARK    3  A    between atoms: N1_9  and  C7_10 
REMARK    4  A    between atoms: C7_10  and  C8_11 
REMARK       I    between atoms: C8_11  and  N2_13 
REMARK    5  A    between atoms: N2_13  and  C9_15 
REMARK    6  A    between atoms: C9_15  and  C10_16 
REMARK    7  A    between atoms: C10_16  and  N3_17 
REMARK    8  A    between atoms: C12_19  and  C13_20 
REMARK    9  A    between atoms: C13_20  and  S1_21 
REMARK   10  A    between atoms: S1_21  and  C14_22 
REMARK   11  A    between atoms: N6_27  and  C15_28 
ROOT
HETATM    1  C14 UNL     1      -2.584   3.686  12.021  1.00  0.00     0.126 A 
HETATM    2  N4  UNL     1      -1.973   4.214  13.121  1.00  0.00    -0.276 N 
ATOM      3  H4  UNL     1      -1.046   4.638  13.138  1.00  0.00     0.189 HD
HETATM    4  N5  UNL     1      -2.768   4.087  14.145  1.00  0.00    -0.234 N 
ATOM      5  H5  UNL     1      -2.539   4.406  15.087  1.00  0.00     0.209 HD
HETATM    6  N6  UNL     1      -3.906   3.497  13.824  1.00  0.00    -0.225 N 
HETATM    7  C21 UNL     1      -3.802   3.239  12.491  1.00  0.00     0.172 A 
HETATM    8  C22 UNL     1      -4.813   2.599  11.699  1.00  0.00     0.122 C 
HETATM    9  N9  UNL     1      -5.615   2.074  11.052  1.00  0.00    -0.190 NA
ENDROOT
BRANCH   1  10
HETATM   10  S1  UNL     1      -1.916   3.614  10.367  1.00  0.00    -0.102 SA
BRANCH  10  11
HETATM   11  C13 UNL     1      -0.338   2.764  10.329  1.00  0.00     0.141 C 
BRANCH  11  12
HETATM   12  C12 UNL     1       0.774   3.740  10.418  1.00  0.00     0.054 A 
HETATM   13  C11 UNL     1       1.269   4.564   9.445  1.00  0.00     0.139 A 
HETATM   14  N3  UNL     1       2.276   5.273   9.980  1.00  0.00    -0.286 N 
HETATM   15  N11 UNL     1       2.411   4.909  11.242  1.00  0.00    -0.241 N 
HETATM   16  N10 UNL     1       1.511   3.988  11.513  1.00  0.00    -0.288 N 
ATOM     17  H11 UNL     1       3.098   5.280  11.898  1.00  0.00     0.208 HD
ATOM     18  H10 UNL     1       1.393   3.531  12.417  1.00  0.00     0.188 HD
BRANCH  14  19
HETATM   19  C10 UNL     1       3.091   6.270   9.311  1.00  0.00     0.169 C 
BRANCH  19  20
HETATM   20  C9  UNL     1       3.593   7.332  10.265  1.00  0.00     0.144 C 
BRANCH  20  21
HETATM   21  N2  UNL     1       2.654   8.438  10.393  1.00  0.00    -0.358 N 
HETATM   22  C8  UNL     1       1.858   8.525  11.562  1.00  0.00     0.235 C 
HETATM   23  O3  UNL     1       1.950   7.672  12.477  1.00  0.00    -0.272 OA
ATOM     24  H2  UNL     1       2.571   9.137   9.655  1.00  0.00     0.162 HD
BRANCH  22  25
HETATM   25  C7  UNL     1       0.908   9.631  11.707  1.00  0.00     0.230 C 
BRANCH  25  26
HETATM   26  N1  UNL     1       0.015   9.465  12.834  1.00  0.00    -0.357 N 
HETATM   27  C6  UNL     1       0.229  10.206  13.928  1.00  0.00     0.091 A 
HETATM   28  C5  UNL     1      -0.594  10.094  15.048  1.00  0.00     0.018 A 
HETATM   29  C4  UNL     1      -1.651   9.202  15.031  1.00  0.00     0.020 A 
HETATM   30  C3  UNL     1      -1.869   8.441  13.904  1.00  0.00     0.055 A 
HETATM   31  C23 UNL     1      -1.019   8.607  12.844  1.00  0.00     0.108 A 
BRANCH  30  32
HETATM   32  C2  UNL     1      -2.968   7.479  13.817  1.00  0.00     0.294 C 
HETATM   33  O2  UNL     1      -3.633   7.197  14.846  1.00  0.00    -0.259 OA
BRANCH  32  34
HETATM   34  O1  UNL     1      -3.321   6.856  12.643  1.00  0.00    -0.322 OA
HETATM   35  C1  UNL     1      -4.371   7.303  11.805  1.00  0.00     0.213 C 
ENDBRANCH  32  34
ENDBRANCH  30  32
ENDBRANCH  25  26
ENDBRANCH  22  25
ENDBRANCH  20  21
ENDBRANCH  19  20
ENDBRANCH  14  19
ENDBRANCH  11  12
ENDBRANCH  10  11
ENDBRANCH   1  10
BRANCH   6  36
HETATM   36  C15 UNL     1      -4.989   3.206  14.699  1.00  0.00     0.106 A 
HETATM   37  C16 UNL     1      -6.137   3.964  14.910  1.00  0.00     0.053 A 
HETATM   38  C17 UNL     1      -6.423   5.260  14.218  1.00  0.00     0.072 C 
HETATM   39  N7  UNL     1      -6.883   3.319  15.813  1.00  0.00    -0.301 N 
HETATM   40  N8  UNL     1      -6.289   2.191  16.197  1.00  0.00    -0.299 N 
ATOM     41  H7  UNL     1      -7.785   3.646  16.159  1.00  0.00     0.187 HD
HETATM   42  C18 UNL     1      -6.821   1.250  17.164  1.00  0.00     0.177 C 
HETATM   43  C19 UNL     1      -5.145   2.115  15.530  1.00  0.00     0.055 A 
HETATM   44  C20 UNL     1      -4.159   1.004  15.658  1.00  0.00     0.072 C 
ENDBRANCH   6  36
TORSDOF 11
ENDMDL
MODEL 4
REMARK VINA RESULT: -7.963903279      2.854      6.242
REMARK  11 active torsions:
REMARK  status: ('A' for Active; 'I' for Inactive)
REMARK    1  A    between atoms: O1_2  and  C2_3 
REMARK    2  A    between atoms: C2_3  and  C3_5 
REMARK    3  A    between atoms: N1_9  and  C7_10 
REMARK    4  A    between atoms: C7_10  and  C8_11 
REMARK       I    between atoms: C8_11  and  N2_13 
REMARK    5  A    between atoms: N2_13  and  C9_15 
REMARK    6  A    between atoms: C9_15  and  C10_16 
REMARK    7  A    between atoms: C10_16  and  N3_17 
REMARK    8  A    between atoms: C12_19  and  C13_20 
REMARK    9  A    between atoms: C13_20  and  S1_21 
REMARK   10  A    between atoms: S1_21  and  C14_22 
REMARK   11  A    between atoms: N6_27  and  C15_28 
ROOT
HETATM    1  C14 UNL     1      -2.891   5.904   8.312  1.00  0.00     0.126 A 
HETATM    2  N4  UNL     1      -3.957   5.159   7.899  1.00  0.00    -0.276 N 
ATOM      3  H4  UNL     1      -3.998   4.141   7.879  1.00  0.00     0.189 HD
HETATM    4  N5  UNL     1      -4.914   5.964   7.533  1.00  0.00    -0.234 N 
ATOM      5  H5  UNL     1      -5.820   5.650   7.184  1.00  0.00     0.209 HD
HETATM    6  N6  UNL     1      -4.578   7.235   7.667  1.00  0.00    -0.225 N 
HETATM    7  C21 UNL     1      -3.307   7.210   8.156  1.00  0.00     0.172 A 
HETATM    8  C22 UNL     1      -2.524   8.373   8.461  1.00  0.00     0.122 C 
HETATM    9  N9  UNL     1      -1.878   9.302   8.700  1.00  0.00    -0.190 NA
ENDROOT
BRANCH   1  10
HETATM   10  S1  UNL     1      -1.329   5.279   8.913  1.00  0.00    -0.102 SA
BRANCH  10  11
HETATM   11  C13 UNL     1      -1.561   3.986  10.132  1.00  0.00     0.141 C 
BRANCH  11  12
HETATM   12  C12 UNL     1      -1.475   4.548  11.501  1.00  0.00     0.054 A 
HETATM   13  C11 UNL     1      -1.694   5.833  11.913  1.00  0.00     0.139 A 
HETATM   14  N3  UNL     1      -1.502   5.877  13.241  1.00  0.00    -0.286 N 
HETATM   15  N11 UNL     1      -1.174   4.666  13.650  1.00  0.00    -0.241 N 
HETATM   16  N10 UNL     1      -1.156   3.860  12.610  1.00  0.00    -0.288 N 
ATOM     17  H11 UNL     1      -0.968   4.398  14.613  1.00  0.00     0.208 HD
ATOM     18  H10 UNL     1      -0.932   2.866  12.641  1.00  0.00     0.188 HD
BRANCH  14  19
HETATM   19  C10 UNL     1      -1.625   7.041  14.101  1.00  0.00     0.169 C 
BRANCH  19  20
HETATM   20  C9  UNL     1      -3.045   7.559  14.161  1.00  0.00     0.144 C 
BRANCH  20  21
HETATM   21  N2  UNL     1      -4.012   6.484  14.342  1.00  0.00    -0.358 N 
HETATM   22  C8  UNL     1      -5.003   6.283  13.350  1.00  0.00     0.235 C 
HETATM   23  O3  UNL     1      -5.059   7.011  12.330  1.00  0.00    -0.272 OA
ATOM     24  H2  UNL     1      -3.975   5.888  15.169  1.00  0.00     0.162 HD
BRANCH  22  25
HETATM   25  C7  UNL     1      -5.983   5.208  13.517  1.00  0.00     0.230 C 
BRANCH  25  26
HETATM   26  N1  UNL     1      -5.392   3.889  13.448  1.00  0.00    -0.357 N 
HETATM   27  C6  UNL     1      -5.004   3.429  12.251  1.00  0.00     0.091 A 
HETATM   28  C5  UNL     1      -4.428   2.167  12.116  1.00  0.00     0.018 A 
HETATM   29  C4  UNL     1      -4.254   1.373  13.234  1.00  0.00     0.020 A 
HETATM   30  C3  UNL     1      -4.654   1.847  14.463  1.00  0.00     0.055 A 
HETATM   31  C23 UNL     1      -5.211   3.097  14.517  1.00  0.00     0.108 A 
BRANCH  30  32
HETATM   32  C2  UNL     1      -4.499   1.061  15.688  1.00  0.00     0.294 C 
HETATM   33  O2  UNL     1      -3.416   1.105  16.323  1.00  0.00    -0.259 OA
BRANCH  32  34
HETATM   34  O1  UNL     1      -5.499   0.262  16.192  1.00  0.00    -0.322 OA
HETATM   35  C1  UNL     1      -6.569   0.751  16.979  1.00  0.00     0.213 C 
ENDBRANCH  32  34
ENDBRANCH  30  32
ENDBRANCH  25  26
ENDBRANCH  22  25
ENDBRANCH  20  21
ENDBRANCH  19  20
ENDBRANCH  14  19
ENDBRANCH  11  12
ENDBRANCH  10  11
ENDBRANCH   1  10
BRANCH   6  36
HETATM   36  C15 UNL     1      -5.386   8.365   7.362  1.00  0.00     0.106 A 
HETATM   37  C16 UNL     1      -5.394   9.109   6.186  1.00  0.00     0.053 A 
HETATM   38  C17 UNL     1      -4.516   8.824   5.008  1.00  0.00     0.072 C 
HETATM   39  N7  UNL     1      -6.305  10.078   6.331  1.00  0.00    -0.301 N 
HETATM   40  N8  UNL     1      -6.885  10.005   7.526  1.00  0.00    -0.299 N 
ATOM     41  H7  UNL     1      -6.525  10.777   5.622  1.00  0.00     0.187 HD
HETATM   42  C18 UNL     1      -7.917  10.899   8.014  1.00  0.00     0.177 C 
HETATM   43  C19 UNL     1      -6.336   8.973   8.156  1.00  0.00     0.055 A 
HETATM   44  C20 UNL     1      -6.695   8.530   9.533  1.00  0.00     0.072 C 
ENDBRANCH   6  36
TORSDOF 11
ENDMDL
MODEL 5
REMARK VINA RESULT: -7.954337959      2.940      8.403
REMARK  11 active torsions:
REMARK  status: ('A' for Active; 'I' for Inactive)
REMARK    1  A    between atoms: O1_2  and  C2_3 
REMARK    2  A    between atoms: C2_3  and  C3_5 
REMARK    3  A    between atoms: N1_9  and  C7_10 
REMARK    4  A    between atoms: C7_10  and  C8_11 
REMARK       I    between atoms: C8_11  and  N2_13 
REMARK    5  A    between atoms: N2_13  and  C9_15 
REMARK    6  A    between atoms: C9_15  and  C10_16 
REMARK    7  A    between atoms: C10_16  and  N3_17 
REMARK    8  A    between atoms: C12_19  and  C13_20 
REMARK    9  A    between atoms: C13_20  and  S1_21 
REMARK   10  A    between atoms: S1_21  and  C14_22 
REMARK   11  A    between atoms: N6_27  and  C15_28 
ROOT
HETATM    1  C14 UNL     1      -2.580   3.742  12.102  1.00  0.00     0.126 A 
HETATM    2  N4  UNL     1      -1.963   4.236  13.214  1.00  0.00    -0.276 N 
ATOM      3  H4  UNL     1      -1.029   4.643  13.244  1.00  0.00     0.189 HD
HETATM    4  N5  UNL     1      -2.764   4.100  14.234  1.00  0.00    -0.234 N 
ATOM      5  H5  UNL     1      -2.533   4.395  15.182  1.00  0.00     0.209 HD
HETATM    6  N6  UNL     1      -3.911   3.538  13.897  1.00  0.00    -0.225 N 
HETATM    7  C21 UNL     1      -3.807   3.307  12.558  1.00  0.00     0.172 A 
HETATM    8  C22 UNL     1      -4.827   2.702  11.750  1.00  0.00     0.122 C 
HETATM    9  N9  UNL     1      -5.636   2.205  11.089  1.00  0.00    -0.190 NA
ENDROOT
BRANCH   1  10
HETATM   10  S1  UNL     1      -1.908   3.694  10.449  1.00  0.00    -0.102 SA
BRANCH  10  11
HETATM   11  C13 UNL     1      -0.410   2.713  10.374  1.00  0.00     0.141 C 
BRANCH  11  12
HETATM   12  C12 UNL     1       0.781   3.578  10.547  1.00  0.00     0.054 A 
HETATM   13  C11 UNL     1       1.754   3.886   9.636  1.00  0.00     0.139 A 
HETATM   14  N3  UNL     1       2.633   4.705  10.235  1.00  0.00    -0.286 N 
HETATM   15  N11 UNL     1       2.230   4.905  11.477  1.00  0.00    -0.241 N 
HETATM   16  N10 UNL     1       1.117   4.231  11.672  1.00  0.00    -0.288 N 
ATOM     17  H11 UNL     1       2.703   5.485  12.169  1.00  0.00     0.208 HD
ATOM     18  H10 UNL     1       0.590   4.207  12.545  1.00  0.00     0.188 HD
BRANCH  14  19
HETATM   19  C10 UNL     1       3.828   5.283   9.646  1.00  0.00     0.169 C 
BRANCH  19  20
HETATM   20  C9  UNL     1       4.658   6.037  10.661  1.00  0.00     0.144 C 
BRANCH  20  21
HETATM   21  N2  UNL     1       4.159   7.388  10.879  1.00  0.00    -0.358 N 
HETATM   22  C8  UNL     1       4.213   7.932  12.186  1.00  0.00     0.235 C 
HETATM   23  O3  UNL     1       4.679   7.273  13.147  1.00  0.00    -0.272 OA
ATOM     24  H2  UNL     1       3.779   7.932  10.105  1.00  0.00     0.162 HD
BRANCH  22  25
HETATM   25  C7  UNL     1       3.715   9.289  12.423  1.00  0.00     0.230 C 
BRANCH  25  26
HETATM   26  N1  UNL     1       2.375   9.312  12.970  1.00  0.00    -0.357 N 
HETATM   27  C6  UNL     1       2.060  10.282  13.839  1.00  0.00     0.091 A 
HETATM   28  C5  UNL     1       0.787  10.359  14.402  1.00  0.00     0.018 A 
HETATM   29  C4  UNL     1      -0.169   9.421  14.060  1.00  0.00     0.020 A 
HETATM   30  C3  UNL     1       0.157   8.426  13.166  1.00  0.00     0.055 A 
HETATM   31  C23 UNL     1       1.427   8.415  12.654  1.00  0.00     0.108 A 
BRANCH  30  32
HETATM   32  C2  UNL     1      -0.805   7.402  12.758  1.00  0.00     0.294 C 
HETATM   33  O2  UNL     1      -0.540   6.649  11.788  1.00  0.00    -0.259 OA
BRANCH  32  34
HETATM   34  O1  UNL     1      -2.010   7.215  13.395  1.00  0.00    -0.322 OA
HETATM   35  C1  UNL     1      -3.263   7.478  12.791  1.00  0.00     0.213 C 
ENDBRANCH  32  34
ENDBRANCH  30  32
ENDBRANCH  25  26
ENDBRANCH  22  25
ENDBRANCH  20  21
ENDBRANCH  19  20
ENDBRANCH  14  19
ENDBRANCH  11  12
ENDBRANCH  10  11
ENDBRANCH   1  10
BRANCH   6  36
HETATM   36  C15 UNL     1      -5.002   3.248  14.762  1.00  0.00     0.106 A 
HETATM   37  C16 UNL     1      -6.096   4.058  15.049  1.00  0.00     0.053 A 
HETATM   38  C17 UNL     1      -6.306   5.420  14.466  1.00  0.00     0.072 C 
HETATM   39  N7  UNL     1      -6.874   3.391  15.909  1.00  0.00    -0.301 N 
HETATM   40  N8  UNL     1      -6.350   2.202  16.195  1.00  0.00    -0.299 N 
ATOM     41  H7  UNL     1      -7.749   3.746  16.293  1.00  0.00     0.187 HD
HETATM   42  C18 UNL     1      -6.932   1.222  17.092  1.00  0.00     0.177 C 
HETATM   43  C19 UNL     1      -5.220   2.106  15.507  1.00  0.00     0.055 A 
HETATM   44  C20 UNL     1      -4.306   0.929  15.532  1.00  0.00     0.072 C 
ENDBRANCH   6  36
TORSDOF 11
ENDMDL
