MODEL 1
REMARK VINA RESULT: -7.231454528      0.000      0.000
REMARK  11 active torsions:
REMARK  status: ('A' for Active; 'I' for Inactive)
REMARK    1  A    between atoms: C2_2  and  C3_3 
REMARK    2  A    between atoms: C3_3  and  N1_4 
REMARK    3  A    between atoms: C6_9  and  C7_10 
REMARK    4  A    between atoms: C7_10  and  N3_11 
REMARK    5  A    between atoms: N4_14  and  C10_15 
REMARK    6  A    between atoms: C10_15  and  C11_16 
REMARK    7  A    between atoms: C12_19  and  N6_20 
REMARK    8  A    between atoms: N6_20  and  C13_22 
REMARK    9  A    between atoms: C13_22  and  C14_23 
REMARK   10  A    between atoms: C14_23  and  N7_24 
REMARK   11  A    between atoms: N9_34  and  C21_35 
ROOT
HETATM    1  C11 UNL     1      -3.504   6.135  10.251  1.00  0.00     0.113 A 
HETATM    2  N5  UNL     1      -3.516   5.366  11.349  1.00  0.00    -0.329 N 
ATOM      3  H5  UNL     1      -2.721   4.744  11.495  1.00  0.00     0.168 HD
HETATM    4  C12 UNL     1      -4.482   5.351  12.261  1.00  0.00     0.133 A 
HETATM    5  C19 UNL     1      -5.551   6.204  12.045  1.00  0.00     0.122 A 
HETATM    6  N8  UNL     1      -6.682   6.461  12.727  1.00  0.00    -0.346 N 
ATOM      7  H8  UNL     1      -6.956   6.020  13.604  1.00  0.00     0.167 HD
HETATM    8  C20 UNL     1      -7.394   7.393  12.067  1.00  0.00     0.192 A 
HETATM    9  N9  UNL     1      -6.692   7.728  10.945  1.00  0.00    -0.276 N 
HETATM   10  C25 UNL     1      -5.554   7.001  10.920  1.00  0.00     0.146 A 
HETATM   11  N12 UNL     1      -4.536   6.962  10.034  1.00  0.00    -0.328 N 
ATOM     12  H12 UNL     1      -4.553   7.558   9.207  1.00  0.00     0.169 HD
ENDROOT
BRANCH   1  13
HETATM   13  C10 UNL     1      -2.401   6.096   9.290  1.00  0.00     0.350 C 
BRANCH  13  14
HETATM   14  N4  UNL     1      -1.176   5.559   9.776  1.00  0.00     0.125 N 
HETATM   15  C9  UNL     1      -0.106   6.449   9.969  1.00  0.00     0.305 C 
HETATM   16  C8  UNL     1       0.928   6.012   8.951  1.00  0.00     0.305 C 
HETATM   17  N3  UNL     1       0.707   4.581   8.790  1.00  0.00     0.125 N 
HETATM   18  C26 UNL     1      -0.711   4.400   9.059  1.00  0.00     0.543 C 
BRANCH  17  19
HETATM   19  C7  UNL     1       1.524   3.902   9.777  1.00  0.00     0.350 C 
BRANCH  19  20
HETATM   20  C6  UNL     1       2.977   4.271   9.587  1.00  0.00     0.112 A 
HETATM   21  N1  UNL     1       3.697   4.979  10.459  1.00  0.00    -0.344 N 
HETATM   22  C4  UNL     1       4.941   5.134   9.992  1.00  0.00     0.109 A 
HETATM   23  C5  UNL     1       4.984   4.490   8.774  1.00  0.00     0.106 A 
HETATM   24  N2  UNL     1       3.767   3.973   8.559  1.00  0.00    -0.353 N 
ATOM     25  H2  UNL     1       3.490   3.437   7.738  1.00  0.00     0.166 HD
BRANCH  21  26
HETATM   26  C3  UNL     1       3.244   5.516  11.730  1.00  0.00     0.129 C 
BRANCH  26  27
HETATM   27  C2  UNL     1       4.377   5.560  12.741  1.00  0.00     0.016 C 
HETATM   28  C1  UNL     1       4.692   6.983  13.152  1.00  0.00     0.006 C 
ENDBRANCH  26  27
ENDBRANCH  21  26
ENDBRANCH  19  20
ENDBRANCH  17  19
ENDBRANCH  13  14
ENDBRANCH   1  13
BRANCH   4  29
HETATM   29  N6  UNL     1      -4.469   4.597  13.315  1.00  0.00    -0.373 N 
ATOM     30  H6  UNL     1      -3.983   4.912  14.155  1.00  0.00     0.161 HD
BRANCH  29  31
HETATM   31  C13 UNL     1      -5.130   3.324  13.314  1.00  0.00     0.151 C 
BRANCH  31  32
HETATM   32  C14 UNL     1      -4.904   2.504  12.086  1.00  0.00     0.292 C 
BRANCH  32  33
HETATM   33  N7  UNL     1      -3.817   1.573  12.180  1.00  0.00     0.094 N 
HETATM   34  C15 UNL     1      -2.751   1.999  11.326  1.00  0.00     0.298 C 
HETATM   35  C16 UNL     1      -2.126   0.727  10.740  1.00  0.00     0.198 C 
HETATM   36  O1  UNL     1      -3.055   0.227   9.841  1.00  0.00    -0.388 OA
HETATM   37  C17 UNL     1      -4.254  -0.066  10.456  1.00  0.00     0.198 C 
HETATM   38  C18 UNL     1      -4.271   0.220  11.937  1.00  0.00     0.298 C 
ENDBRANCH  32  33
ENDBRANCH  31  32
ENDBRANCH  29  31
ENDBRANCH   4  29
BRANCH   9  39
HETATM   39  C21 UNL     1      -7.088   8.681   9.965  1.00  0.00     0.130 A 
HETATM   40  C22 UNL     1      -6.516   9.916   9.792  1.00  0.00     0.069 A 
HETATM   41  C23 UNL     1      -7.167  10.551   8.753  1.00  0.00     0.113 A 
HETATM   42  N10 UNL     1      -8.110   9.690   8.324  1.00  0.00    -0.306 N 
HETATM   43  C24 UNL     1      -9.034   9.978   7.222  1.00  0.00     0.177 C 
HETATM   44  N11 UNL     1      -8.068   8.579   9.040  1.00  0.00    -0.284 N 
ATOM     45  H11 UNL     1      -8.681   7.773   8.914  1.00  0.00     0.188 HD
ENDBRANCH   9  39
TORSDOF 11
ENDMDL
MODEL 2
REMARK VINA RESULT: -7.220252424      2.530      3.307
REMARK  11 active torsions:
REMARK  status: ('A' for Active; 'I' for Inactive)
REMARK    1  A    between atoms: C2_2  and  C3_3 
REMARK    2  A    between atoms: C3_3  and  N1_4 
REMARK    3  A    between atoms: C6_9  and  C7_10 
REMARK    4  A    between atoms: C7_10  and  N3_11 
REMARK    5  A    between atoms: N4_14  and  C10_15 
REMARK    6  A    between atoms: C10_15  and  C11_16 
REMARK    7  A    between atoms: C12_19  and  N6_20 
REMARK    8  A    between atoms: N6_20  and  C13_22 
REMARK    9  A    between atoms: C13_22  and  C14_23 
REMARK   10  A    between atoms: C14_23  and  N7_24 
REMARK   11  A    between atoms: N9_34  and  C21_35 
ROOT
HETATM    1  C11 UNL     1      -4.413   4.025  11.296  1.00  0.00     0.113 A 
HETATM    2  N5  UNL     1      -5.205   4.070  12.376  1.00  0.00    -0.329 N 
ATOM      3  H5  UNL     1      -5.172   3.277  13.017  1.00  0.00     0.168 HD
HETATM    4  C12 UNL     1      -6.031   5.066  12.677  1.00  0.00     0.133 A 
HETATM    5  C19 UNL     1      -6.060   6.133  11.795  1.00  0.00     0.122 A 
HETATM    6  N8  UNL     1      -6.748   7.290  11.764  1.00  0.00    -0.346 N 
ATOM      7  H8  UNL     1      -7.428   7.592  12.462  1.00  0.00     0.167 HD
HETATM    8  C20 UNL     1      -6.397   7.984  10.667  1.00  0.00     0.192 A 
HETATM    9  N9  UNL     1      -5.467   7.245   9.993  1.00  0.00    -0.276 N 
HETATM   10  C25 UNL     1      -5.252   6.102  10.679  1.00  0.00     0.146 A 
HETATM   11  N12 UNL     1      -4.437   5.053  10.438  1.00  0.00    -0.328 N 
ATOM     12  H12 UNL     1      -3.844   5.044   9.608  1.00  0.00     0.169 HD
ENDROOT
BRANCH   1  13
HETATM   13  C10 UNL     1      -3.527   2.890  11.032  1.00  0.00     0.350 C 
BRANCH  13  14
HETATM   14  N4  UNL     1      -2.165   3.069  11.403  1.00  0.00     0.125 N 
HETATM   15  C9  UNL     1      -1.863   4.118  12.288  1.00  0.00     0.305 C 
HETATM   16  C8  UNL     1      -1.025   5.073  11.461  1.00  0.00     0.305 C 
HETATM   17  N3  UNL     1      -0.342   4.222  10.495  1.00  0.00     0.125 N 
HETATM   18  C26 UNL     1      -1.248   3.102  10.294  1.00  0.00     0.543 C 
BRANCH  17  19
HETATM   19  C7  UNL     1       0.905   3.793  11.099  1.00  0.00     0.350 C 
BRANCH  19  20
HETATM   20  C6  UNL     1       2.074   4.317  10.297  1.00  0.00     0.112 A 
HETATM   21  N1  UNL     1       2.896   5.286  10.705  1.00  0.00    -0.344 N 
HETATM   22  C4  UNL     1       3.820   5.515   9.765  1.00  0.00     0.109 A 
HETATM   23  C5  UNL     1       3.549   4.645   8.731  1.00  0.00     0.106 A 
HETATM   24  N2  UNL     1       2.476   3.927   9.091  1.00  0.00    -0.353 N 
ATOM     25  H2  UNL     1       2.038   3.198   8.530  1.00  0.00     0.166 HD
BRANCH  21  26
HETATM   26  C3  UNL     1       2.837   6.006  11.965  1.00  0.00     0.129 C 
BRANCH  26  27
HETATM   27  C2  UNL     1       4.075   5.742  12.805  1.00  0.00     0.016 C 
HETATM   28  C1  UNL     1       4.821   7.026  13.101  1.00  0.00     0.006 C 
ENDBRANCH  26  27
ENDBRANCH  21  26
ENDBRANCH  19  20
ENDBRANCH  17  19
ENDBRANCH  13  14
ENDBRANCH   1  13
BRANCH   4  29
HETATM   29  N6  UNL     1      -6.788   5.086  13.729  1.00  0.00    -0.373 N 
ATOM     30  H6  UNL     1      -7.778   5.314  13.634  1.00  0.00     0.161 HD
BRANCH  29  31
HETATM   31  C13 UNL     1      -6.249   4.790  15.025  1.00  0.00     0.151 C 
BRANCH  31  32
HETATM   32  C14 UNL     1      -6.585   3.431  15.546  1.00  0.00     0.292 C 
BRANCH  32  33
HETATM   33  N7  UNL     1      -5.482   2.728  16.136  1.00  0.00     0.094 N 
HETATM   34  C15 UNL     1      -4.892   1.864  15.161  1.00  0.00     0.298 C 
HETATM   35  C16 UNL     1      -4.460   0.595  15.906  1.00  0.00     0.198 C 
HETATM   36  O1  UNL     1      -5.631  -0.070  16.234  1.00  0.00    -0.388 OA
HETATM   37  C17 UNL     1      -6.450   0.699  17.031  1.00  0.00     0.198 C 
HETATM   38  C18 UNL     1      -5.888   2.061  17.357  1.00  0.00     0.298 C 
ENDBRANCH  32  33
ENDBRANCH  31  32
ENDBRANCH  29  31
ENDBRANCH   4  29
BRANCH   9  39
HETATM   39  C21 UNL     1      -4.830   7.613   8.775  1.00  0.00     0.130 A 
HETATM   40  C22 UNL     1      -3.588   8.189   8.680  1.00  0.00     0.069 A 
HETATM   41  C23 UNL     1      -3.313   8.402   7.344  1.00  0.00     0.113 A 
HETATM   42  N10 UNL     1      -4.387   7.952   6.667  1.00  0.00    -0.306 N 
HETATM   43  C24 UNL     1      -4.505   7.993   5.206  1.00  0.00     0.177 C 
HETATM   44  N11 UNL     1      -5.291   7.484   7.512  1.00  0.00    -0.284 N 
ATOM     45  H11 UNL     1      -6.194   7.087   7.250  1.00  0.00     0.188 HD
ENDBRANCH   9  39
TORSDOF 11
ENDMDL
MODEL 3
REMARK VINA RESULT: -7.184569560      2.577      7.837
REMARK  11 active torsions:
REMARK  status: ('A' for Active; 'I' for Inactive)
REMARK    1  A    between atoms: C2_2  and  C3_3 
REMARK    2  A    between atoms: C3_3  and  N1_4 
REMARK    3  A    between atoms: C6_9  and  C7_10 
REMARK    4  A    between atoms: C7_10  and  N3_11 
REMARK    5  A    between atoms: N4_14  and  C10_15 
REMARK    6  A    between atoms: C10_15  and  C11_16 
REMARK    7  A    between atoms: C12_19  and  N6_20 
REMARK    8  A    between atoms: N6_20  and  C13_22 
REMARK    9  A    between atoms: C13_22  and  C14_23 
REMARK   10  A    between atoms: C14_23  and  N7_24 
REMARK   11  A    between atoms: N9_34  and  C21_35 
ROOT
HETATM    1  C11 UNL     1      -0.129   4.068  10.921  1.00  0.00     0.113 A 
HETATM    2  N5  UNL     1       1.145   4.256  11.295  1.00  0.00    -0.329 N 
ATOM      3  H5  UNL     1       1.776   3.456  11.233  1.00  0.00     0.168 HD
HETATM    4  C12 UNL     1       1.650   5.401  11.740  1.00  0.00     0.133 A 
HETATM    5  C19 UNL     1       0.778   6.474  11.816  1.00  0.00     0.122 A 
HETATM    6  N8  UNL     1       0.918   7.754  12.205  1.00  0.00    -0.346 N 
ATOM      7  H8  UNL     1       1.783   8.179  12.541  1.00  0.00     0.167 HD
HETATM    8  C20 UNL     1      -0.263   8.386  12.081  1.00  0.00     0.192 A 
HETATM    9  N9  UNL     1      -1.165   7.480  11.602  1.00  0.00    -0.276 N 
HETATM   10  C25 UNL     1      -0.535   6.297  11.435  1.00  0.00     0.146 A 
HETATM   11  N12 UNL     1      -0.978   5.102  10.992  1.00  0.00    -0.328 N 
ATOM     12  H12 UNL     1      -1.952   4.986  10.714  1.00  0.00     0.169 HD
ENDROOT
BRANCH   1  13
HETATM   13  C10 UNL     1      -0.611   2.773  10.439  1.00  0.00     0.350 C 
BRANCH  13  14
HETATM   14  N4  UNL     1      -1.563   2.120  11.271  1.00  0.00     0.125 N 
HETATM   15  C9  UNL     1      -1.948   0.815  10.919  1.00  0.00     0.305 C 
HETATM   16  C8  UNL     1      -3.414   0.945  10.554  1.00  0.00     0.305 C 
HETATM   17  N3  UNL     1      -3.900   2.050  11.371  1.00  0.00     0.125 N 
HETATM   18  C26 UNL     1      -2.737   2.902  11.558  1.00  0.00     0.543 C 
BRANCH  17  19
HETATM   19  C7  UNL     1      -4.356   1.492  12.629  1.00  0.00     0.350 C 
BRANCH  19  20
HETATM   20  C6  UNL     1      -5.119   2.536  13.411  1.00  0.00     0.112 A 
HETATM   21  N1  UNL     1      -5.212   2.565  14.742  1.00  0.00    -0.344 N 
HETATM   22  C4  UNL     1      -5.959   3.611  15.116  1.00  0.00     0.109 A 
HETATM   23  C5  UNL     1      -6.342   4.251  13.957  1.00  0.00     0.106 A 
HETATM   24  N2  UNL     1      -5.811   3.567  12.935  1.00  0.00    -0.353 N 
ATOM     25  H2  UNL     1      -5.919   3.801  11.949  1.00  0.00     0.166 HD
BRANCH  21  26
HETATM   26  C3  UNL     1      -4.612   1.632  15.678  1.00  0.00     0.129 C 
BRANCH  26  27
HETATM   27  C2  UNL     1      -5.321   1.671  17.021  1.00  0.00     0.016 C 
HETATM   28  C1  UNL     1      -6.456   0.671  17.071  1.00  0.00     0.006 C 
ENDBRANCH  26  27
ENDBRANCH  21  26
ENDBRANCH  19  20
ENDBRANCH  17  19
ENDBRANCH  13  14
ENDBRANCH   1  13
BRANCH   4  29
HETATM   29  N6  UNL     1       2.887   5.556  12.096  1.00  0.00    -0.373 N 
ATOM     30  H6  UNL     1       3.166   5.347  13.055  1.00  0.00     0.161 HD
BRANCH  29  31
HETATM   31  C13 UNL     1       3.868   6.019  11.157  1.00  0.00     0.151 C 
BRANCH  31  32
HETATM   32  C14 UNL     1       4.536   4.940  10.370  1.00  0.00     0.292 C 
BRANCH  32  33
HETATM   33  N7  UNL     1       4.428   5.085   8.947  1.00  0.00     0.094 N 
HETATM   34  C15 UNL     1       3.179   4.542   8.507  1.00  0.00     0.298 C 
HETATM   35  C16 UNL     1       3.443   3.880   7.150  1.00  0.00     0.198 C 
HETATM   36  O1  UNL     1       4.190   2.744   7.420  1.00  0.00    -0.388 OA
HETATM   37  C17 UNL     1       5.380   3.052   8.045  1.00  0.00     0.198 C 
HETATM   38  C18 UNL     1       5.587   4.527   8.280  1.00  0.00     0.298 C 
ENDBRANCH  32  33
ENDBRANCH  31  32
ENDBRANCH  29  31
ENDBRANCH   4  29
BRANCH   9  39
HETATM   39  C21 UNL     1      -2.538   7.734  11.325  1.00  0.00     0.130 A 
HETATM   40  C22 UNL     1      -3.005   8.759  10.542  1.00  0.00     0.069 A 
HETATM   41  C23 UNL     1      -4.383   8.683  10.510  1.00  0.00     0.113 A 
HETATM   42  N10 UNL     1      -4.714   7.620  11.268  1.00  0.00    -0.306 N 
HETATM   43  C24 UNL     1      -6.096   7.185  11.501  1.00  0.00     0.177 C 
HETATM   44  N11 UNL     1      -3.623   7.054  11.755  1.00  0.00    -0.284 N 
ATOM     45  H11 UNL     1      -3.605   6.233  12.360  1.00  0.00     0.188 HD
ENDBRANCH   9  39
TORSDOF 11
ENDMDL
MODEL 4
REMARK VINA RESULT: -7.183676316      2.215      2.814
REMARK  11 active torsions:
REMARK  status: ('A' for Active; 'I' for Inactive)
REMARK    1  A    between atoms: C2_2  and  C3_3 
REMARK    2  A    between atoms: C3_3  and  N1_4 
REMARK    3  A    between atoms: C6_9  and  C7_10 
REMARK    4  A    between atoms: C7_10  and  N3_11 
REMARK    5  A    between atoms: N4_14  and  C10_15 
REMARK    6  A    between atoms: C10_15  and  C11_16 
REMARK    7  A    between atoms: C12_19  and  N6_20 
REMARK    8  A    between atoms: N6_20  and  C13_22 
REMARK    9  A    between atoms: C13_22  and  C14_23 
REMARK   10  A    between atoms: C14_23  and  N7_24 
REMARK   11  A    between atoms: N9_34  and  C21_35 
ROOT
HETATM    1  C11 UNL     1      -4.467   5.382  10.523  1.00  0.00     0.113 A 
HETATM    2  N5  UNL     1      -4.621   4.885  11.758  1.00  0.00    -0.329 N 
ATOM      3  H5  UNL     1      -3.989   4.137  12.046  1.00  0.00     0.168 HD
HETATM    4  C12 UNL     1      -5.531   5.289  12.637  1.00  0.00     0.133 A 
HETATM    5  C19 UNL     1      -6.377   6.306  12.228  1.00  0.00     0.122 A 
HETATM    6  N8  UNL     1      -7.393   6.960  12.822  1.00  0.00    -0.346 N 
ATOM      7  H8  UNL     1      -7.732   6.789  13.768  1.00  0.00     0.167 HD
HETATM    8  C20 UNL     1      -7.889   7.874  11.968  1.00  0.00     0.192 A 
HETATM    9  N9  UNL     1      -7.167   7.791  10.812  1.00  0.00    -0.276 N 
HETATM   10  C25 UNL     1      -6.232   6.828  10.960  1.00  0.00     0.146 A 
HETATM   11  N12 UNL     1      -5.283   6.365  10.120  1.00  0.00    -0.328 N 
ATOM     12  H12 UNL     1      -5.188   6.761   9.185  1.00  0.00     0.169 HD
ENDROOT
BRANCH   1  13
HETATM   13  C10 UNL     1      -3.438   4.883   9.610  1.00  0.00     0.350 C 
BRANCH  13  14
HETATM   14  N4  UNL     1      -2.112   4.858  10.127  1.00  0.00     0.125 N 
HETATM   15  C9  UNL     1      -1.248   5.903   9.756  1.00  0.00     0.305 C 
HETATM   16  C8  UNL     1      -0.178   5.223   8.925  1.00  0.00     0.305 C 
HETATM   17  N3  UNL     1      -0.097   3.871   9.464  1.00  0.00     0.125 N 
HETATM   18  C26 UNL     1      -1.435   3.599   9.964  1.00  0.00     0.543 C 
BRANCH  17  19
HETATM   19  C7  UNL     1       0.877   3.890  10.539  1.00  0.00     0.350 C 
BRANCH  19  20
HETATM   20  C6  UNL     1       2.240   4.247   9.994  1.00  0.00     0.112 A 
HETATM   21  N1  UNL     1       3.100   5.075  10.592  1.00  0.00    -0.344 N 
HETATM   22  C4  UNL     1       4.210   5.179   9.852  1.00  0.00     0.109 A 
HETATM   23  C5  UNL     1       4.019   4.377   8.747  1.00  0.00     0.106 A 
HETATM   24  N2  UNL     1       2.806   3.823   8.868  1.00  0.00    -0.353 N 
ATOM     25  H2  UNL     1       2.383   3.177   8.202  1.00  0.00     0.166 HD
BRANCH  21  26
HETATM   26  C3  UNL     1       2.905   5.774  11.850  1.00  0.00     0.129 C 
BRANCH  26  27
HETATM   27  C2  UNL     1       4.108   5.603  12.763  1.00  0.00     0.016 C 
HETATM   28  C1  UNL     1       4.775   6.932  13.045  1.00  0.00     0.006 C 
ENDBRANCH  26  27
ENDBRANCH  21  26
ENDBRANCH  19  20
ENDBRANCH  17  19
ENDBRANCH  13  14
ENDBRANCH   1  13
BRANCH   4  29
HETATM   29  N6  UNL     1      -5.659   4.791  13.827  1.00  0.00    -0.373 N 
ATOM     30  H6  UNL     1      -6.492   5.003  14.376  1.00  0.00     0.161 HD
BRANCH  29  31
HETATM   31  C13 UNL     1      -4.642   3.945  14.381  1.00  0.00     0.151 C 
BRANCH  31  32
HETATM   32  C14 UNL     1      -5.083   2.549  14.675  1.00  0.00     0.292 C 
BRANCH  32  33
HETATM   33  N7  UNL     1      -5.183   2.236  16.072  1.00  0.00     0.094 N 
HETATM   34  C15 UNL     1      -4.894   0.849  16.271  1.00  0.00     0.298 C 
HETATM   35  C16 UNL     1      -5.824   0.365  17.390  1.00  0.00     0.198 C 
HETATM   36  O1  UNL     1      -7.096   0.335  16.840  1.00  0.00    -0.388 OA
HETATM   37  C17 UNL     1      -7.489   1.578  16.393  1.00  0.00     0.198 C 
HETATM   38  C18 UNL     1      -6.461   2.661  16.607  1.00  0.00     0.298 C 
ENDBRANCH  32  33
ENDBRANCH  31  32
ENDBRANCH  29  31
ENDBRANCH   4  29
BRANCH   9  39
HETATM   39  C21 UNL     1      -7.362   8.584   9.647  1.00  0.00     0.130 A 
HETATM   40  C22 UNL     1      -8.424   8.467   8.785  1.00  0.00     0.069 A 
HETATM   41  C23 UNL     1      -8.266   9.399   7.778  1.00  0.00     0.113 A 
HETATM   42  N10 UNL     1      -7.121  10.052   8.053  1.00  0.00    -0.306 N 
HETATM   43  C24 UNL     1      -6.581  11.132   7.220  1.00  0.00     0.177 C 
HETATM   44  N11 UNL     1      -6.580   9.572   9.159  1.00  0.00    -0.284 N 
ATOM     45  H11 UNL     1      -5.708   9.897   9.579  1.00  0.00     0.188 HD
ENDBRANCH   9  39
TORSDOF 11
ENDMDL
MODEL 5
REMARK VINA RESULT: -7.182152727      3.862      8.605
REMARK  11 active torsions:
REMARK  status: ('A' for Active; 'I' for Inactive)
REMARK    1  A    between atoms: C2_2  and  C3_3 
REMARK    2  A    between atoms: C3_3  and  N1_4 
REMARK    3  A    between atoms: C6_9  and  C7_10 
REMARK    4  A    between atoms: C7_10  and  N3_11 
REMARK    5  A    between atoms: N4_14  and  C10_15 
REMARK    6  A    between atoms: C10_15  and  C11_16 
REMARK    7  A    between atoms: C12_19  and  N6_20 
REMARK    8  A    between atoms: N6_20  and  C13_22 
REMARK    9  A    between atoms: C13_22  and  C14_23 
REMARK   10  A    between atoms: C14_23  and  N7_24 
REMARK   11  A    between atoms: N9_34  and  C21_35 
ROOT
HETATM    1  C11 UNL     1       0.116   3.724  10.229  1.00  0.00     0.113 A 
HETATM    2  N5  UNL     1       1.345   3.714   9.692  1.00  0.00    -0.329 N 
ATOM      3  H5  UNL     1       1.566   2.962   9.039  1.00  0.00     0.168 HD
HETATM    4  C12 UNL     1       2.296   4.606   9.945  1.00  0.00     0.133 A 
HETATM    5  C19 UNL     1       1.976   5.618  10.834  1.00  0.00     0.122 A 
HETATM    6  N8  UNL     1       2.657   6.671  11.322  1.00  0.00    -0.346 N 
ATOM      7  H8  UNL     1       3.619   6.912  11.087  1.00  0.00     0.167 HD
HETATM    8  C20 UNL     1       1.866   7.354  12.170  1.00  0.00     0.192 A 
HETATM    9  N9  UNL     1       0.660   6.714  12.213  1.00  0.00    -0.276 N 
HETATM   10  C25 UNL     1       0.716   5.642  11.394  1.00  0.00     0.146 A 
HETATM   11  N12 UNL     1      -0.201   4.700  11.090  1.00  0.00    -0.328 N 
ATOM     12  H12 UNL     1      -1.128   4.731  11.513  1.00  0.00     0.169 HD
ENDROOT
BRANCH   1  13
HETATM   13  C10 UNL     1      -0.881   2.704   9.899  1.00  0.00     0.350 C 
BRANCH  13  14
HETATM   14  N4  UNL     1      -1.628   2.193  10.997  1.00  0.00     0.125 N 
HETATM   15  C9  UNL     1      -1.905   0.815  11.011  1.00  0.00     0.305 C 
HETATM   16  C8  UNL     1      -3.412   0.738  10.866  1.00  0.00     0.305 C 
HETATM   17  N3  UNL     1      -3.905   1.962  11.483  1.00  0.00     0.125 N 
HETATM   18  C26 UNL     1      -2.833   2.925  11.288  1.00  0.00     0.543 C 
BRANCH  17  19
HETATM   19  C7  UNL     1      -4.117   1.684  12.891  1.00  0.00     0.350 C 
BRANCH  19  20
HETATM   20  C6  UNL     1      -5.047   2.715  13.487  1.00  0.00     0.112 A 
HETATM   21  N1  UNL     1      -5.345   2.804  14.785  1.00  0.00    -0.344 N 
HETATM   22  C4  UNL     1      -6.196   3.817  14.981  1.00  0.00     0.109 A 
HETATM   23  C5  UNL     1      -6.431   4.375  13.743  1.00  0.00     0.106 A 
HETATM   24  N2  UNL     1      -5.712   3.676  12.854  1.00  0.00    -0.353 N 
ATOM     25  H2  UNL     1      -5.680   3.855  11.850  1.00  0.00     0.166 HD
BRANCH  21  26
HETATM   26  C3  UNL     1      -4.845   1.957  15.853  1.00  0.00     0.129 C 
BRANCH  26  27
HETATM   27  C2  UNL     1      -5.785   1.968  17.046  1.00  0.00     0.016 C 
HETATM   28  C1  UNL     1      -6.798   0.846  16.957  1.00  0.00     0.006 C 
ENDBRANCH  26  27
ENDBRANCH  21  26
ENDBRANCH  19  20
ENDBRANCH  17  19
ENDBRANCH  13  14
ENDBRANCH   1  13
BRANCH   4  29
HETATM   29  N6  UNL     1       3.478   4.573   9.413  1.00  0.00    -0.373 N 
ATOM     30  H6  UNL     1       4.220   5.160   9.795  1.00  0.00     0.161 HD
BRANCH  29  31
HETATM   31  C13 UNL     1       3.754   3.721   8.293  1.00  0.00     0.151 C 
BRANCH  31  32
HETATM   32  C14 UNL     1       3.929   4.435   6.993  1.00  0.00     0.292 C 
BRANCH  32  33
HETATM   33  N7  UNL     1       2.708   4.889   6.392  1.00  0.00     0.094 N 
HETATM   34  C15 UNL     1       1.854   3.768   6.143  1.00  0.00     0.298 C 
HETATM   35  C16 UNL     1       1.130   4.055   4.822  1.00  0.00     0.198 C 
HETATM   36  O1  UNL     1       2.090   3.934   3.829  1.00  0.00    -0.388 OA
HETATM   37  C17 UNL     1       3.128   4.822   4.010  1.00  0.00     0.198 C 
HETATM   38  C18 UNL     1       2.977   5.704   5.225  1.00  0.00     0.298 C 
ENDBRANCH  32  33
ENDBRANCH  31  32
ENDBRANCH  29  31
ENDBRANCH   4  29
BRANCH   9  39
HETATM   39  C21 UNL     1      -0.466   7.107  12.989  1.00  0.00     0.130 A 
HETATM   40  C22 UNL     1      -0.597   8.313  13.630  1.00  0.00     0.069 A 
HETATM   41  C23 UNL     1      -1.817   8.326  14.278  1.00  0.00     0.113 A 
HETATM   42  N10 UNL     1      -2.390   7.136  14.014  1.00  0.00    -0.306 N 
HETATM   43  C24 UNL     1      -3.708   6.738  14.520  1.00  0.00     0.177 C 
HETATM   44  N11 UNL     1      -1.593   6.408  13.251  1.00  0.00    -0.284 N 
ATOM     45  H11 UNL     1      -1.796   5.467  12.913  1.00  0.00     0.188 HD
ENDBRANCH   9  39
TORSDOF 11
ENDMDL
