MODEL 1
REMARK VINA RESULT: -7.951408291      0.000      0.000
REMARK  11 active torsions:
REMARK  status: ('A' for Active; 'I' for Inactive)
REMARK    1  A    between atoms: C5_8  and  C6_9 
REMARK    2  A    between atoms: C6_9  and  O1_10 
REMARK    3  A    between atoms: O1_10  and  C7_11 
REMARK    4  A    between atoms: C7_11  and  C8_12 
REMARK    5  A    between atoms: C8_12  and  O2_13 
REMARK    6  A    between atoms: O2_13  and  C9_14 
REMARK    7  A    between atoms: C12_17  and  C13_18 
REMARK    8  A    between atoms: N3_19  and  N4_21 
REMARK    9  A    between atoms: N4_21  and  C14_23 
REMARK   10  A    between atoms: C15_26  and  N6_27 
REMARK   11  A    between atoms: C20_35  and  N8_36 
ROOT
HETATM    1  N4  UNL     1      -5.532   6.568  13.906  1.00  0.00    -0.131 N 
ATOM      2  H4  UNL     1      -5.981   7.165  13.211  1.00  0.00     0.205 HD
ENDROOT
BRANCH   1   3
HETATM    3  N3  UNL     1      -5.145   7.046  15.122  1.00  0.00    -0.297 N 
HETATM    4  C13 UNL     1      -4.157   7.586  15.582  1.00  0.00     0.119 C 
ATOM      5  H3  UNL     1      -5.870   6.918  15.827  1.00  0.00     0.186 HD
BRANCH   4   6
HETATM    6  C12 UNL     1      -2.894   7.941  14.949  1.00  0.00    -0.019 A 
HETATM    7  C11 UNL     1      -2.289   9.158  15.229  1.00  0.00     0.015 A 
HETATM    8  C10 UNL     1      -1.072   9.482  14.638  1.00  0.00     0.037 A 
HETATM    9  C9  UNL     1      -0.397   8.624  13.757  1.00  0.00     0.068 A 
HETATM   10  C26 UNL     1      -1.016   7.405  13.502  1.00  0.00     0.037 A 
HETATM   11  C25 UNL     1      -2.250   7.082  14.098  1.00  0.00     0.015 A 
BRANCH   9  12
HETATM   12  O2  UNL     1       0.739   8.984  13.222  1.00  0.00    -0.349 OA
BRANCH  12  13
HETATM   13  C8  UNL     1       1.763   8.929  12.412  1.00  0.00     0.201 C 
BRANCH  13  14
HETATM   14  C7  UNL     1       1.562   8.142  11.109  1.00  0.00     0.194 C 
BRANCH  14  15
HETATM   15  O1  UNL     1       1.557   6.915  11.049  1.00  0.00    -0.384 OA
BRANCH  15  16
HETATM   16  C6  UNL     1       1.623   5.656  11.000  1.00  0.00     0.209 C 
BRANCH  16  17
HETATM   17  C5  UNL     1       3.000   5.143  10.616  1.00  0.00     0.006 A 
HETATM   18  C2  UNL     1       4.141   5.256  11.361  1.00  0.00     0.032 A 
HETATM   19  C1  UNL     1       4.122   5.561  12.823  1.00  0.00     0.070 C 
HETATM   20  N1  UNL     1       5.177   4.901  10.602  1.00  0.00    -0.303 N 
HETATM   21  N2  UNL     1       4.713   4.564   9.390  1.00  0.00    -0.307 N 
ATOM     22  H1  UNL     1       6.154   4.889  10.893  1.00  0.00     0.186 HD
HETATM   23  C3  UNL     1       5.519   4.116   8.283  1.00  0.00     0.177 C 
HETATM   24  C4  UNL     1       3.371   4.714   9.396  1.00  0.00     0.120 A 
ENDBRANCH  16  17
ENDBRANCH  15  16
ENDBRANCH  14  15
ENDBRANCH  13  14
ENDBRANCH  12  13
ENDBRANCH   9  12
ENDBRANCH   4   6
ENDBRANCH   1   3
BRANCH   1  25
HETATM   25  C14 UNL     1      -5.288   5.266  13.674  1.00  0.00     0.726 A 
HETATM   26  N5  UNL     1      -4.829   4.860  12.517  1.00  0.00    -0.020 N 
HETATM   27  C15 UNL     1      -4.554   3.537  12.307  1.00  0.00     0.709 A 
ATOM     28  H5  UNL     1      -4.676   5.534  11.766  1.00  0.00     0.203 HD
HETATM   29  N7  UNL     1      -4.806   2.720  13.375  1.00  0.00    -0.021 N 
HETATM   30  C20 UNL     1      -5.273   3.104  14.562  1.00  0.00     0.709 A 
ATOM     31  H7  UNL     1      -4.619   1.725  13.252  1.00  0.00     0.203 HD
HETATM   32  N9  UNL     1      -5.522   4.429  14.712  1.00  0.00    -0.020 N 
ATOM     33  H9  UNL     1      -5.881   4.790  15.596  1.00  0.00     0.203 HD
BRANCH  27  34
HETATM   34  N6  UNL     1      -3.952   3.008  11.167  1.00  0.00    -0.213 N 
HETATM   35  C16 UNL     1      -4.103   1.647  10.716  1.00  0.00     0.167 C 
HETATM   36  C17 UNL     1      -2.753   1.010  11.104  1.00  0.00     0.188 C 
HETATM   37  O3  UNL     1      -1.840   1.912  11.579  1.00  0.00    -0.388 OA
HETATM   38  C18 UNL     1      -1.637   3.102  10.960  1.00  0.00     0.188 C 
HETATM   39  C19 UNL     1      -2.957   3.741  10.411  1.00  0.00     0.167 C 
ENDBRANCH  27  34
BRANCH  30  40
HETATM   40  N8  UNL     1      -5.502   2.247  15.662  1.00  0.00    -0.213 N 
HETATM   41  C21 UNL     1      -6.605   2.598  16.551  1.00  0.00     0.167 C 
HETATM   42  C22 UNL     1      -7.537   1.421  16.627  1.00  0.00     0.188 C 
HETATM   43  O4  UNL     1      -6.882   0.221  16.761  1.00  0.00    -0.388 OA
HETATM   44  C23 UNL     1      -5.538   0.340  17.054  1.00  0.00     0.188 C 
HETATM   45  C24 UNL     1      -4.757   1.073  15.943  1.00  0.00     0.167 C 
ENDBRANCH  30  40
ENDBRANCH   1  25
TORSDOF 11
ENDMDL
MODEL 2
REMARK VINA RESULT: -7.928401170      3.641      4.858
REMARK  11 active torsions:
REMARK  status: ('A' for Active; 'I' for Inactive)
REMARK    1  A    between atoms: C5_8  and  C6_9 
REMARK    2  A    between atoms: C6_9  and  O1_10 
REMARK    3  A    between atoms: O1_10  and  C7_11 
REMARK    4  A    between atoms: C7_11  and  C8_12 
REMARK    5  A    between atoms: C8_12  and  O2_13 
REMARK    6  A    between atoms: O2_13  and  C9_14 
REMARK    7  A    between atoms: C12_17  and  C13_18 
REMARK    8  A    between atoms: N3_19  and  N4_21 
REMARK    9  A    between atoms: N4_21  and  C14_23 
REMARK   10  A    between atoms: C15_26  and  N6_27 
REMARK   11  A    between atoms: C20_35  and  N8_36 
ROOT
HETATM    1  N4  UNL     1      -5.834   6.493  13.605  1.00  0.00    -0.131 N 
ATOM      2  H4  UNL     1      -5.190   7.177  14.003  1.00  0.00     0.205 HD
ENDROOT
BRANCH   1   3
HETATM    3  N3  UNL     1      -7.088   6.837  13.200  1.00  0.00    -0.297 N 
HETATM    4  C13 UNL     1      -7.589   7.325  12.205  1.00  0.00     0.119 C 
ATOM      5  H3  UNL     1      -7.786   6.632  13.915  1.00  0.00     0.186 HD
BRANCH   4   6
HETATM    6  C12 UNL     1      -6.975   7.783  10.966  1.00  0.00    -0.019 A 
HETATM    7  C11 UNL     1      -6.469   6.866  10.055  1.00  0.00     0.015 A 
HETATM    8  C10 UNL     1      -5.903   7.310   8.865  1.00  0.00     0.037 A 
HETATM    9  C9  UNL     1      -5.818   8.666   8.516  1.00  0.00     0.068 A 
HETATM   10  C26 UNL     1      -6.343   9.565   9.439  1.00  0.00     0.037 A 
HETATM   11  C25 UNL     1      -6.912   9.114  10.645  1.00  0.00     0.015 A 
BRANCH   9  12
HETATM   12  O2  UNL     1      -5.266   9.027   7.389  1.00  0.00    -0.349 OA
BRANCH  12  13
HETATM   13  C8  UNL     1      -4.378   9.043   6.430  1.00  0.00     0.201 C 
BRANCH  13  14
HETATM   14  C7  UNL     1      -4.232   7.752   5.611  1.00  0.00     0.194 C 
BRANCH  14  15
HETATM   15  O1  UNL     1      -3.673   6.741   6.030  1.00  0.00    -0.384 OA
BRANCH  15  16
HETATM   16  C6  UNL     1      -3.129   5.716   6.525  1.00  0.00     0.209 C 
BRANCH  16  17
HETATM   17  C5  UNL     1      -2.057   6.044   7.550  1.00  0.00     0.006 A 
HETATM   18  C2  UNL     1      -0.841   5.431   7.670  1.00  0.00     0.032 A 
HETATM   19  C1  UNL     1      -0.239   4.610   6.577  1.00  0.00     0.070 C 
HETATM   20  N1  UNL     1      -0.282   5.826   8.814  1.00  0.00    -0.303 N 
HETATM   21  N2  UNL     1      -1.121   6.679   9.419  1.00  0.00    -0.307 N 
ATOM     22  H1  UNL     1       0.628   5.530   9.168  1.00  0.00     0.186 HD
HETATM   23  C3  UNL     1      -0.879   7.335  10.678  1.00  0.00     0.177 C 
HETATM   24  C4  UNL     1      -2.217   6.814   8.641  1.00  0.00     0.120 A 
ENDBRANCH  16  17
ENDBRANCH  15  16
ENDBRANCH  14  15
ENDBRANCH  13  14
ENDBRANCH  12  13
ENDBRANCH   9  12
ENDBRANCH   4   6
ENDBRANCH   1   3
BRANCH   1  25
HETATM   25  C14 UNL     1      -5.492   5.201  13.450  1.00  0.00     0.726 A 
HETATM   26  N5  UNL     1      -4.980   4.767  12.326  1.00  0.00    -0.020 N 
HETATM   27  C15 UNL     1      -4.607   3.458  12.195  1.00  0.00     0.709 A 
ATOM     28  H5  UNL     1      -4.859   5.409  11.542  1.00  0.00     0.203 HD
HETATM   29  N7  UNL     1      -4.823   2.684  13.303  1.00  0.00    -0.021 N 
HETATM   30  C20 UNL     1      -5.342   3.097  14.457  1.00  0.00     0.709 A 
ATOM     31  H7  UNL     1      -4.563   1.700  13.238  1.00  0.00     0.203 HD
HETATM   32  N9  UNL     1      -5.689   4.407  14.529  1.00  0.00    -0.020 N 
ATOM     33  H9  UNL     1      -6.092   4.788  15.384  1.00  0.00     0.203 HD
BRANCH  27  34
HETATM   34  N6  UNL     1      -3.943   2.913  11.097  1.00  0.00    -0.213 N 
HETATM   35  C16 UNL     1      -4.008   1.528  10.705  1.00  0.00     0.167 C 
HETATM   36  C17 UNL     1      -2.639   0.982  11.159  1.00  0.00     0.188 C 
HETATM   37  O3  UNL     1      -1.790   1.952  11.618  1.00  0.00    -0.388 OA
HETATM   38  C18 UNL     1      -1.631   3.123  10.951  1.00  0.00     0.188 C 
HETATM   39  C19 UNL     1      -2.966   3.666  10.337  1.00  0.00     0.167 C 
ENDBRANCH  27  34
BRANCH  30  40
HETATM   40  N8  UNL     1      -5.534   2.286  15.599  1.00  0.00    -0.213 N 
HETATM   41  C21 UNL     1      -6.643   2.640  16.478  1.00  0.00     0.167 C 
HETATM   42  C22 UNL     1      -7.532   1.436  16.617  1.00  0.00     0.188 C 
HETATM   43  O4  UNL     1      -6.834   0.268  16.804  1.00  0.00    -0.388 OA
HETATM   44  C23 UNL     1      -5.493   0.449  17.081  1.00  0.00     0.188 C 
HETATM   45  C24 UNL     1      -4.745   1.155  15.931  1.00  0.00     0.167 C 
ENDBRANCH  30  40
ENDBRANCH   1  25
TORSDOF 11
ENDMDL
MODEL 3
REMARK VINA RESULT: -7.843856378      3.287      4.494
REMARK  11 active torsions:
REMARK  status: ('A' for Active; 'I' for Inactive)
REMARK    1  A    between atoms: C5_8  and  C6_9 
REMARK    2  A    between atoms: C6_9  and  O1_10 
REMARK    3  A    between atoms: O1_10  and  C7_11 
REMARK    4  A    between atoms: C7_11  and  C8_12 
REMARK    5  A    between atoms: C8_12  and  O2_13 
REMARK    6  A    between atoms: O2_13  and  C9_14 
REMARK    7  A    between atoms: C12_17  and  C13_18 
REMARK    8  A    between atoms: N3_19  and  N4_21 
REMARK    9  A    between atoms: N4_21  and  C14_23 
REMARK   10  A    between atoms: C15_26  and  N6_27 
REMARK   11  A    between atoms: C20_35  and  N8_36 
ROOT
HETATM    1  N4  UNL     1      -6.190   6.575  13.613  1.00  0.00    -0.131 N 
ATOM      2  H4  UNL     1      -5.660   7.267  14.145  1.00  0.00     0.205 HD
ENDROOT
BRANCH   1   3
HETATM    3  N3  UNL     1      -7.382   6.877  13.027  1.00  0.00    -0.297 N 
HETATM    4  C13 UNL     1      -7.748   7.358  11.972  1.00  0.00     0.119 C 
ATOM      5  H3  UNL     1      -8.170   6.636  13.627  1.00  0.00     0.186 HD
BRANCH   4   6
HETATM    6  C12 UNL     1      -6.974   7.857  10.843  1.00  0.00    -0.019 A 
HETATM    7  C11 UNL     1      -6.459   6.974   9.903  1.00  0.00     0.015 A 
HETATM    8  C10 UNL     1      -5.740   7.458   8.816  1.00  0.00     0.037 A 
HETATM    9  C9  UNL     1      -5.502   8.824   8.603  1.00  0.00     0.068 A 
HETATM   10  C26 UNL     1      -6.037   9.690   9.550  1.00  0.00     0.037 A 
HETATM   11  C25 UNL     1      -6.762   9.197  10.652  1.00  0.00     0.015 A 
BRANCH   9  12
HETATM   12  O2  UNL     1      -4.810   9.222   7.569  1.00  0.00    -0.349 OA
BRANCH  12  13
HETATM   13  C8  UNL     1      -3.790   9.297   6.756  1.00  0.00     0.201 C 
BRANCH  13  14
HETATM   14  C7  UNL     1      -2.424   8.896   7.333  1.00  0.00     0.194 C 
BRANCH  14  15
HETATM   15  O1  UNL     1      -2.063   9.164   8.477  1.00  0.00    -0.384 OA
BRANCH  15  16
HETATM   16  C6  UNL     1      -1.624   9.433   9.629  1.00  0.00     0.209 C 
BRANCH  16  17
HETATM   17  C5  UNL     1      -1.236   8.199  10.425  1.00  0.00     0.006 A 
HETATM   18  C2  UNL     1      -1.913   7.684  11.495  1.00  0.00     0.032 A 
HETATM   19  C1  UNL     1      -3.332   8.038  11.799  1.00  0.00     0.070 C 
HETATM   20  N1  UNL     1      -1.151   6.750  12.065  1.00  0.00    -0.303 N 
HETATM   21  N2  UNL     1      -0.006   6.663  11.374  1.00  0.00    -0.307 N 
ATOM     22  H1  UNL     1      -1.398   6.197  12.885  1.00  0.00     0.186 HD
HETATM   23  C3  UNL     1       1.080   5.763  11.667  1.00  0.00     0.177 C 
HETATM   24  C4  UNL     1      -0.056   7.557  10.362  1.00  0.00     0.120 A 
ENDBRANCH  16  17
ENDBRANCH  15  16
ENDBRANCH  14  15
ENDBRANCH  13  14
ENDBRANCH  12  13
ENDBRANCH   9  12
ENDBRANCH   4   6
ENDBRANCH   1   3
BRANCH   1  25
HETATM   25  C14 UNL     1      -5.750   5.315  13.451  1.00  0.00     0.726 A 
HETATM   26  N5  UNL     1      -5.196   4.930  12.329  1.00  0.00    -0.020 N 
HETATM   27  C15 UNL     1      -4.724   3.654  12.191  1.00  0.00     0.709 A 
ATOM     28  H5  UNL     1      -5.118   5.586  11.551  1.00  0.00     0.203 HD
HETATM   29  N7  UNL     1      -4.890   2.857  13.291  1.00  0.00    -0.021 N 
HETATM   30  C20 UNL     1      -5.450   3.219  14.443  1.00  0.00     0.709 A 
ATOM     31  H7  UNL     1      -4.555   1.896  13.222  1.00  0.00     0.203 HD
HETATM   32  N9  UNL     1      -5.895   4.498  14.522  1.00  0.00    -0.020 N 
ATOM     33  H9  UNL     1      -6.334   4.841  15.377  1.00  0.00     0.203 HD
BRANCH  27  34
HETATM   34  N6  UNL     1      -4.010   3.170  11.096  1.00  0.00    -0.213 N 
HETATM   35  C16 UNL     1      -4.166   1.852  10.534  1.00  0.00     0.167 C 
HETATM   36  C17 UNL     1      -2.902   1.121  11.033  1.00  0.00     0.188 C 
HETATM   37  O3  UNL     1      -2.015   1.940  11.676  1.00  0.00    -0.388 OA
HETATM   38  C18 UNL     1      -1.686   3.156  11.172  1.00  0.00     0.188 C 
HETATM   39  C19 UNL     1      -2.900   3.899  10.518  1.00  0.00     0.167 C 
ENDBRANCH  27  34
BRANCH  30  40
HETATM   40  N8  UNL     1      -5.590   2.387  15.577  1.00  0.00    -0.213 N 
HETATM   41  C21 UNL     1      -6.718   2.661  16.460  1.00  0.00     0.167 C 
HETATM   42  C22 UNL     1      -7.529   1.402  16.587  1.00  0.00     0.188 C 
HETATM   43  O4  UNL     1      -6.759   0.278  16.762  1.00  0.00    -0.388 OA
HETATM   44  C23 UNL     1      -5.432   0.541  17.041  1.00  0.00     0.188 C 
HETATM   45  C24 UNL     1      -4.730   1.304  15.898  1.00  0.00     0.167 C 
ENDBRANCH  30  40
ENDBRANCH   1  25
TORSDOF 11
ENDMDL
MODEL 4
REMARK VINA RESULT: -7.827316314      3.543      6.413
REMARK  11 active torsions:
REMARK  status: ('A' for Active; 'I' for Inactive)
REMARK    1  A    between atoms: C5_8  and  C6_9 
REMARK    2  A    between atoms: C6_9  and  O1_10 
REMARK    3  A    between atoms: O1_10  and  C7_11 
REMARK    4  A    between atoms: C7_11  and  C8_12 
REMARK    5  A    between atoms: C8_12  and  O2_13 
REMARK    6  A    between atoms: O2_13  and  C9_14 
REMARK    7  A    between atoms: C12_17  and  C13_18 
REMARK    8  A    between atoms: N3_19  and  N4_21 
REMARK    9  A    between atoms: N4_21  and  C14_23 
REMARK   10  A    between atoms: C15_26  and  N6_27 
REMARK   11  A    between atoms: C20_35  and  N8_36 
ROOT
HETATM    1  N4  UNL     1      -0.759   4.993  13.212  1.00  0.00    -0.131 N 
ATOM      2  H4  UNL     1      -0.226   5.862  13.252  1.00  0.00     0.205 HD
ENDROOT
BRANCH   1   3
HETATM    3  N3  UNL     1      -1.510   4.560  14.264  1.00  0.00    -0.297 N 
HETATM    4  C13 UNL     1      -2.674   4.634  14.603  1.00  0.00     0.119 C 
ATOM      5  H3  UNL     1      -0.950   4.040  14.939  1.00  0.00     0.186 HD
BRANCH   4   6
HETATM    6  C12 UNL     1      -3.805   5.291  13.960  1.00  0.00    -0.019 A 
HETATM    7  C11 UNL     1      -5.056   4.687  13.956  1.00  0.00     0.015 A 
HETATM    8  C10 UNL     1      -6.135   5.329  13.360  1.00  0.00     0.037 A 
HETATM    9  C9  UNL     1      -6.036   6.589  12.751  1.00  0.00     0.068 A 
HETATM   10  C26 UNL     1      -4.777   7.180  12.778  1.00  0.00     0.037 A 
HETATM   11  C25 UNL     1      -3.684   6.526  13.379  1.00  0.00     0.015 A 
BRANCH   9  12
HETATM   12  O2  UNL     1      -7.081   7.141  12.196  1.00  0.00    -0.349 OA
BRANCH  12  13
HETATM   13  C8  UNL     1      -7.753   7.998  11.475  1.00  0.00     0.201 C 
BRANCH  13  14
HETATM   14  C7  UNL     1      -7.186   8.316  10.083  1.00  0.00     0.194 C 
BRANCH  14  15
HETATM   15  O1  UNL     1      -6.568   7.504   9.399  1.00  0.00    -0.384 OA
BRANCH  15  16
HETATM   16  C6  UNL     1      -5.929   6.720   8.644  1.00  0.00     0.209 C 
BRANCH  16  17
HETATM   17  C5  UNL     1      -4.428   6.755   8.877  1.00  0.00     0.006 A 
HETATM   18  C2  UNL     1      -3.711   5.887   9.652  1.00  0.00     0.032 A 
HETATM   19  C1  UNL     1      -4.242   4.557  10.076  1.00  0.00     0.070 C 
HETATM   20  N1  UNL     1      -2.478   6.372   9.797  1.00  0.00    -0.303 N 
HETATM   21  N2  UNL     1      -2.401   7.529   9.126  1.00  0.00    -0.307 N 
ATOM     22  H1  UNL     1      -1.724   5.936  10.327  1.00  0.00     0.186 HD
HETATM   23  C3  UNL     1      -1.229   8.362   9.031  1.00  0.00     0.177 C 
HETATM   24  C4  UNL     1      -3.603   7.768   8.558  1.00  0.00     0.120 A 
ENDBRANCH  16  17
ENDBRANCH  15  16
ENDBRANCH  14  15
ENDBRANCH  13  14
ENDBRANCH  12  13
ENDBRANCH   9  12
ENDBRANCH   4   6
ENDBRANCH   1   3
BRANCH   1  25
HETATM   25  C14 UNL     1      -0.759   4.209  12.119  1.00  0.00     0.726 A 
HETATM   26  N5  UNL     1       0.038   4.456  11.110  1.00  0.00    -0.020 N 
HETATM   27  C15 UNL     1       0.050   3.631  10.019  1.00  0.00     0.709 A 
ATOM     28  H5  UNL     1       0.653   5.270  11.137  1.00  0.00     0.203 HD
HETATM   29  N7  UNL     1      -0.821   2.578  10.084  1.00  0.00    -0.021 N 
HETATM   30  C20 UNL     1      -1.642   2.303  11.095  1.00  0.00     0.709 A 
ATOM     31  H7  UNL     1      -0.843   1.945   9.285  1.00  0.00     0.203 HD
HETATM   32  N9  UNL     1      -1.607   3.154  12.151  1.00  0.00    -0.020 N 
ATOM     33  H9  UNL     1      -2.211   3.001  12.959  1.00  0.00     0.203 HD
BRANCH  27  34
HETATM   34  N6  UNL     1       0.936   3.723   8.947  1.00  0.00    -0.213 N 
HETATM   35  C16 UNL     1       2.372   3.712   9.068  1.00  0.00     0.167 C 
HETATM   36  C17 UNL     1       2.742   5.192   8.839  1.00  0.00     0.188 C 
HETATM   37  O3  UNL     1       1.680   5.968   8.464  1.00  0.00    -0.388 OA
HETATM   38  C18 UNL     1       0.802   5.551   7.517  1.00  0.00     0.188 C 
HETATM   39  C19 UNL     1       0.489   4.019   7.602  1.00  0.00     0.167 C 
ENDBRANCH  27  34
BRANCH  30  40
HETATM   40  N8  UNL     1      -2.518   1.194  11.154  1.00  0.00    -0.213 N 
HETATM   41  C21 UNL     1      -3.685   1.322  12.019  1.00  0.00     0.167 C 
HETATM   42  C22 UNL     1      -4.912   1.069  11.189  1.00  0.00     0.188 C 
HETATM   43  O4  UNL     1      -4.780  -0.005  10.343  1.00  0.00    -0.388 OA
HETATM   44  C23 UNL     1      -3.671  -0.788  10.593  1.00  0.00     0.188 C 
HETATM   45  C24 UNL     1      -2.350  -0.010  10.421  1.00  0.00     0.167 C 
ENDBRANCH  30  40
ENDBRANCH   1  25
TORSDOF 11
ENDMDL
MODEL 5
REMARK VINA RESULT: -7.825696505      2.424      4.933
REMARK  11 active torsions:
REMARK  status: ('A' for Active; 'I' for Inactive)
REMARK    1  A    between atoms: C5_8  and  C6_9 
REMARK    2  A    between atoms: C6_9  and  O1_10 
REMARK    3  A    between atoms: O1_10  and  C7_11 
REMARK    4  A    between atoms: C7_11  and  C8_12 
REMARK    5  A    between atoms: C8_12  and  O2_13 
REMARK    6  A    between atoms: O2_13  and  C9_14 
REMARK    7  A    between atoms: C12_17  and  C13_18 
REMARK    8  A    between atoms: N3_19  and  N4_21 
REMARK    9  A    between atoms: N4_21  and  C14_23 
REMARK   10  A    between atoms: C15_26  and  N6_27 
REMARK   11  A    between atoms: C20_35  and  N8_36 
ROOT
HETATM    1  N4  UNL     1      -6.075   5.239  12.396  1.00  0.00    -0.131 N 
ATOM      2  H4  UNL     1      -6.628   5.161  11.542  1.00  0.00     0.205 HD
ENDROOT
BRANCH   1   3
HETATM    3  N3  UNL     1      -5.786   6.445  12.959  1.00  0.00    -0.297 N 
HETATM    4  C13 UNL     1      -4.781   7.086  13.199  1.00  0.00     0.119 C 
ATOM      5  H3  UNL     1      -6.629   6.937  13.256  1.00  0.00     0.186 HD
BRANCH   4   6
HETATM    6  C12 UNL     1      -3.379   6.766  12.968  1.00  0.00    -0.019 A 
HETATM    7  C11 UNL     1      -2.684   7.372  11.931  1.00  0.00     0.015 A 
HETATM    8  C10 UNL     1      -1.340   7.077  11.729  1.00  0.00     0.037 A 
HETATM    9  C9  UNL     1      -0.622   6.185  12.539  1.00  0.00     0.068 A 
HETATM   10  C26 UNL     1      -1.335   5.599  13.580  1.00  0.00     0.037 A 
HETATM   11  C25 UNL     1      -2.697   5.896  13.779  1.00  0.00     0.015 A 
BRANCH   9  12
HETATM   12  O2  UNL     1       0.637   5.937  12.297  1.00  0.00    -0.349 OA
BRANCH  12  13
HETATM   13  C8  UNL     1       1.847   6.156  11.854  1.00  0.00     0.201 C 
BRANCH  13  14
HETATM   14  C7  UNL     1       2.540   4.982  11.147  1.00  0.00     0.194 C 
BRANCH  14  15
HETATM   15  O1  UNL     1       1.955   4.190  10.412  1.00  0.00    -0.384 OA
BRANCH  15  16
HETATM   16  C6  UNL     1       1.418   3.362   9.625  1.00  0.00     0.209 C 
BRANCH  16  17
HETATM   17  C5  UNL     1       0.294   3.964   8.799  1.00  0.00     0.006 A 
HETATM   18  C2  UNL     1       0.337   4.246   7.462  1.00  0.00     0.032 A 
HETATM   19  C1  UNL     1       1.357   3.656   6.545  1.00  0.00     0.070 C 
HETATM   20  N1  UNL     1      -0.738   4.971   7.151  1.00  0.00    -0.303 N 
HETATM   21  N2  UNL     1      -1.460   5.151   8.265  1.00  0.00    -0.307 N 
ATOM     22  H1  UNL     1      -0.970   5.327   6.224  1.00  0.00     0.186 HD
HETATM   23  C3  UNL     1      -2.702   5.877   8.347  1.00  0.00     0.177 C 
HETATM   24  C4  UNL     1      -0.825   4.531   9.283  1.00  0.00     0.120 A 
ENDBRANCH  16  17
ENDBRANCH  15  16
ENDBRANCH  14  15
ENDBRANCH  13  14
ENDBRANCH  12  13
ENDBRANCH   9  12
ENDBRANCH   4   6
ENDBRANCH   1   3
BRANCH   1  25
HETATM   25  C14 UNL     1      -5.590   4.156  13.029  1.00  0.00     0.726 A 
HETATM   26  N5  UNL     1      -5.823   3.956  14.302  1.00  0.00    -0.020 N 
HETATM   27  C15 UNL     1      -5.351   2.832  14.924  1.00  0.00     0.709 A 
ATOM     28  H5  UNL     1      -6.360   4.641  14.834  1.00  0.00     0.203 HD
HETATM   29  N7  UNL     1      -4.636   1.987  14.120  1.00  0.00    -0.021 N 
HETATM   30  C20 UNL     1      -4.382   2.165  12.825  1.00  0.00     0.709 A 
ATOM     31  H7  UNL     1      -4.262   1.142  14.553  1.00  0.00     0.203 HD
HETATM   32  N9  UNL     1      -4.880   3.294  12.262  1.00  0.00    -0.020 N 
ATOM     33  H9  UNL     1      -4.722   3.492  11.274  1.00  0.00     0.203 HD
BRANCH  27  34
HETATM   34  N6  UNL     1      -5.638   2.454  16.234  1.00  0.00    -0.213 N 
HETATM   35  C16 UNL     1      -4.813   1.584  17.034  1.00  0.00     0.167 C 
HETATM   36  C17 UNL     1      -5.604   0.259  17.019  1.00  0.00     0.188 C 
HETATM   37  O3  UNL     1      -6.832   0.364  16.424  1.00  0.00    -0.388 OA
HETATM   38  C18 UNL     1      -7.661   1.403  16.694  1.00  0.00     0.188 C 
HETATM   39  C19 UNL     1      -6.904   2.763  16.865  1.00  0.00     0.167 C 
ENDBRANCH  27  34
BRANCH  30  40
HETATM   40  N8  UNL     1      -3.662   1.266  12.006  1.00  0.00    -0.213 N 
HETATM   41  C21 UNL     1      -4.237  -0.062  11.823  1.00  0.00     0.167 C 
HETATM   42  C22 UNL     1      -4.400  -0.302  10.348  1.00  0.00     0.188 C 
HETATM   43  O4  UNL     1      -3.312   0.099   9.612  1.00  0.00    -0.388 OA
HETATM   44  C23 UNL     1      -2.197   0.400  10.369  1.00  0.00     0.188 C 
HETATM   45  C24 UNL     1      -2.446   1.572  11.342  1.00  0.00     0.167 C 
ENDBRANCH  30  40
ENDBRANCH   1  25
TORSDOF 11
ENDMDL
