MODEL 1
REMARK VINA RESULT: -6.403677476      0.000      0.000
REMARK  12 active torsions:
REMARK  status: ('A' for Active; 'I' for Inactive)
REMARK    1  A    between atoms: C4_5  and  C5_6 
REMARK    2  A    between atoms: C5_6  and  N5_19 
REMARK    3  A    between atoms: N2_7  and  C6_9 
REMARK    4  A    between atoms: C6_9  and  N3_10 
REMARK    5  A    between atoms: C6_9  and  C7_14 
REMARK    6  A    between atoms: C7_14  and  N4_15 
REMARK    7  A    between atoms: N5_19  and  C8_21 
REMARK    8  A    between atoms: C8_21  and  C9_22 
REMARK    9  A    between atoms: C9_22  and  C10_23 
REMARK   10  A    between atoms: C10_23  and  C11_24 
REMARK   11  A    between atoms: C11_24  and  N6_25 
REMARK   12  A    between atoms: C13_29  and  N8_30 
ROOT
HETATM    1  C5  UNL     1     -16.247 -29.772  11.759  1.00  0.00     0.109 C 
HETATM    2  N2  UNL     1     -16.420 -29.403  12.988  1.00  0.00    -0.347 N 
ATOM      3  H2  UNL     1     -16.648 -28.424  13.162  1.00  0.00     0.163 HD
ENDROOT
BRANCH   1   4
HETATM    4  C4  UNL     1     -16.377 -28.809  10.661  1.00  0.00     0.010 A 
HETATM    5  C3  UNL     1     -15.760 -27.578  10.698  1.00  0.00     0.032 A 
HETATM    6  C2  UNL     1     -15.905 -26.695   9.643  1.00  0.00     0.091 A 
HETATM    7  N1  UNL     1     -16.634 -26.977   8.548  1.00  0.00    -0.371 N 
HETATM    8  C1  UNL     1     -16.753 -26.008   7.462  1.00  0.00     0.154 C 
HETATM    9  C15 UNL     1     -17.239 -28.175   8.501  1.00  0.00     0.091 A 
HETATM   10  C14 UNL     1     -17.121 -29.088   9.535  1.00  0.00     0.032 A 
ENDBRANCH   1   4
BRANCH   1  11
HETATM   11  N5  UNL     1     -15.931 -31.130  11.515  1.00  0.00    -0.376 N 
ATOM     12  H5  UNL     1     -16.644 -31.847  11.654  1.00  0.00     0.161 HD
BRANCH  11  13
HETATM   13  C8  UNL     1     -14.613 -31.514  11.072  1.00  0.00     0.121 C 
BRANCH  13  14
HETATM   14  C9  UNL     1     -13.845 -32.191  12.160  1.00  0.00     0.021 C 
BRANCH  14  15
HETATM   15  C10 UNL     1     -12.743 -31.321  12.682  1.00  0.00     0.023 C 
BRANCH  15  16
HETATM   16  C11 UNL     1     -12.706 -29.971  12.003  1.00  0.00     0.150 C 
BRANCH  16  17
HETATM   17  N6  UNL     1     -12.076 -29.028  12.901  1.00  0.00    -0.273 N 
HETATM   18  C12 UNL     1     -11.152 -29.307  13.835  1.00  0.00     0.218 A 
HETATM   19  N7  UNL     1     -10.841 -28.135  14.441  1.00  0.00    -0.185 N 
HETATM   20  C13 UNL     1     -11.570 -27.157  13.877  1.00  0.00     0.691 A 
ATOM     21  H7  UNL     1     -10.167 -28.015  15.197  1.00  0.00     0.185 HD
HETATM   22  N9  UNL     1     -12.337 -27.735  12.915  1.00  0.00    -0.129 N 
ATOM     23  H9  UNL     1     -13.001 -27.252  12.308  1.00  0.00     0.206 HD
BRANCH  20  24
HETATM   24  N8  UNL     1     -11.579 -25.898  14.155  1.00  0.00    -0.233 N 
ATOM     25  H82 UNL     1     -11.693 -25.517  15.093  1.00  0.00     0.174 HD
ATOM     26  H81 UNL     1     -11.480 -25.106  13.520  1.00  0.00     0.174 HD
ENDBRANCH  20  24
ENDBRANCH  16  17
ENDBRANCH  15  16
ENDBRANCH  14  15
ENDBRANCH  13  14
ENDBRANCH  11  13
ENDBRANCH   1  11
BRANCH   2  27
HETATM   27  C6  UNL     1     -16.314 -30.274  14.120  1.00  0.00     0.308 C 
BRANCH  27  28
HETATM   28  N3  UNL     1     -17.468 -30.291  14.974  1.00  0.00    -0.057 N 
ATOM     29  H33 UNL     1     -18.264 -29.864  14.501  1.00  0.00     0.276 HD
ATOM     30  H32 UNL     1     -17.816 -31.245  15.078  1.00  0.00     0.276 HD
ATOM     31  H31 UNL     1     -17.327 -29.863  15.888  1.00  0.00     0.276 HD
ENDBRANCH  27  28
BRANCH  27  32
HETATM   32  C7  UNL     1     -15.052 -29.942  14.893  1.00  0.00     0.283 C 
BRANCH  32  33
HETATM   33  N4  UNL     1     -15.274 -29.965  16.318  1.00  0.00    -0.076 N 
ATOM     34  H43 UNL     1     -14.734 -29.239  16.789  1.00  0.00     0.274 HD
ATOM     35  H42 UNL     1     -16.213 -29.645  16.552  1.00  0.00     0.274 HD
ATOM     36  H41 UNL     1     -15.086 -30.885  16.716  1.00  0.00     0.274 HD
ENDBRANCH  32  33
ENDBRANCH  27  32
ENDBRANCH   2  27
TORSDOF 12
ENDMDL
MODEL 2
REMARK VINA RESULT: -6.312711463      1.568      4.218
REMARK  12 active torsions:
REMARK  status: ('A' for Active; 'I' for Inactive)
REMARK    1  A    between atoms: C4_5  and  C5_6 
REMARK    2  A    between atoms: C5_6  and  N5_19 
REMARK    3  A    between atoms: N2_7  and  C6_9 
REMARK    4  A    between atoms: C6_9  and  N3_10 
REMARK    5  A    between atoms: C6_9  and  C7_14 
REMARK    6  A    between atoms: C7_14  and  N4_15 
REMARK    7  A    between atoms: N5_19  and  C8_21 
REMARK    8  A    between atoms: C8_21  and  C9_22 
REMARK    9  A    between atoms: C9_22  and  C10_23 
REMARK   10  A    between atoms: C10_23  and  C11_24 
REMARK   11  A    between atoms: C11_24  and  N6_25 
REMARK   12  A    between atoms: C13_29  and  N8_30 
ROOT
HETATM    1  C5  UNL     1     -14.693 -27.704  11.731  1.00  0.00     0.109 C 
HETATM    2  N2  UNL     1     -14.173 -26.614  12.198  1.00  0.00    -0.347 N 
ATOM      3  H2  UNL     1     -14.465 -25.731  11.778  1.00  0.00     0.163 HD
ENDROOT
BRANCH   1   4
HETATM    4  C4  UNL     1     -15.668 -27.662  10.637  1.00  0.00     0.010 A 
HETATM    5  C3  UNL     1     -16.010 -26.482  10.013  1.00  0.00     0.032 A 
HETATM    6  C2  UNL     1     -16.934 -26.481   8.984  1.00  0.00     0.091 A 
HETATM    7  N1  UNL     1     -17.537 -27.599   8.541  1.00  0.00    -0.371 N 
HETATM    8  C1  UNL     1     -18.505 -27.541   7.450  1.00  0.00     0.154 C 
HETATM    9  C15 UNL     1     -17.211 -28.755   9.141  1.00  0.00     0.091 A 
HETATM   10  C14 UNL     1     -16.291 -28.800  10.176  1.00  0.00     0.032 A 
ENDBRANCH   1   4
BRANCH   1  11
HETATM   11  N5  UNL     1     -14.290 -28.930  12.312  1.00  0.00    -0.376 N 
ATOM     12  H5  UNL     1     -14.883 -29.376  13.012  1.00  0.00     0.161 HD
BRANCH  11  13
HETATM   13  C8  UNL     1     -13.050 -29.558  11.926  1.00  0.00     0.121 C 
BRANCH  13  14
HETATM   14  C9  UNL     1     -12.736 -30.730  12.796  1.00  0.00     0.021 C 
BRANCH  14  15
HETATM   15  C10 UNL     1     -13.089 -32.024  12.128  1.00  0.00     0.023 C 
BRANCH  15  16
HETATM   16  C11 UNL     1     -14.055 -32.849  12.947  1.00  0.00     0.150 C 
BRANCH  16  17
HETATM   17  N6  UNL     1     -15.287 -32.105  13.083  1.00  0.00    -0.273 N 
HETATM   18  C12 UNL     1     -16.212 -31.907  12.130  1.00  0.00     0.218 A 
HETATM   19  N7  UNL     1     -17.195 -31.159  12.688  1.00  0.00    -0.185 N 
HETATM   20  C13 UNL     1     -16.868 -30.909  13.967  1.00  0.00     0.691 A 
ATOM     21  H7  UNL     1     -18.042 -30.840  12.216  1.00  0.00     0.185 HD
HETATM   22  N9  UNL     1     -15.670 -31.509  14.196  1.00  0.00    -0.129 N 
ATOM     23  H9  UNL     1     -15.156 -31.500  15.078  1.00  0.00     0.206 HD
BRANCH  20  24
HETATM   24  N8  UNL     1     -17.525 -30.237  14.848  1.00  0.00    -0.233 N 
ATOM     25  H82 UNL     1     -17.469 -29.225  14.961  1.00  0.00     0.174 HD
ATOM     26  H81 UNL     1     -18.180 -30.580  15.551  1.00  0.00     0.174 HD
ENDBRANCH  20  24
ENDBRANCH  16  17
ENDBRANCH  15  16
ENDBRANCH  14  15
ENDBRANCH  13  14
ENDBRANCH  11  13
ENDBRANCH   1  11
BRANCH   2  27
HETATM   27  C6  UNL     1     -13.217 -26.561  13.262  1.00  0.00     0.308 C 
BRANCH  27  28
HETATM   28  N3  UNL     1     -13.710 -25.993  14.484  1.00  0.00    -0.057 N 
ATOM     29  H33 UNL     1     -13.821 -24.984  14.386  1.00  0.00     0.276 HD
ATOM     30  H32 UNL     1     -14.682 -26.262  14.633  1.00  0.00     0.276 HD
ATOM     31  H31 UNL     1     -13.152 -26.208  15.310  1.00  0.00     0.276 HD
ENDBRANCH  27  28
BRANCH  27  32
HETATM   32  C7  UNL     1     -11.966 -25.851  12.781  1.00  0.00     0.283 C 
BRANCH  32  33
HETATM   33  N4  UNL     1     -10.845 -26.751  12.671  1.00  0.00    -0.076 N 
ATOM     34  H43 UNL     1     -10.369 -26.861  13.566  1.00  0.00     0.274 HD
ATOM     35  H42 UNL     1     -11.155 -27.713  12.534  1.00  0.00     0.274 HD
ATOM     36  H41 UNL     1     -10.197 -26.463  11.939  1.00  0.00     0.274 HD
ENDBRANCH  32  33
ENDBRANCH  27  32
ENDBRANCH   2  27
TORSDOF 12
ENDMDL
MODEL 3
REMARK VINA RESULT: -6.272571690      1.826      2.916
REMARK  12 active torsions:
REMARK  status: ('A' for Active; 'I' for Inactive)
REMARK    1  A    between atoms: C4_5  and  C5_6 
REMARK    2  A    between atoms: C5_6  and  N5_19 
REMARK    3  A    between atoms: N2_7  and  C6_9 
REMARK    4  A    between atoms: C6_9  and  N3_10 
REMARK    5  A    between atoms: C6_9  and  C7_14 
REMARK    6  A    between atoms: C7_14  and  N4_15 
REMARK    7  A    between atoms: N5_19  and  C8_21 
REMARK    8  A    between atoms: C8_21  and  C9_22 
REMARK    9  A    between atoms: C9_22  and  C10_23 
REMARK   10  A    between atoms: C10_23  and  C11_24 
REMARK   11  A    between atoms: C11_24  and  N6_25 
REMARK   12  A    between atoms: C13_29  and  N8_30 
ROOT
HETATM    1  C5  UNL     1     -14.902 -30.163  13.485  1.00  0.00     0.109 C 
HETATM    2  N2  UNL     1     -15.357 -29.660  14.587  1.00  0.00    -0.347 N 
ATOM      3  H2  UNL     1     -16.255 -29.178  14.554  1.00  0.00     0.163 HD
ENDROOT
BRANCH   1   4
HETATM    4  C4  UNL     1     -15.659 -30.039  12.235  1.00  0.00     0.010 A 
HETATM    5  C3  UNL     1     -15.795 -28.833  11.584  1.00  0.00     0.032 A 
HETATM    6  C2  UNL     1     -16.516 -28.754  10.407  1.00  0.00     0.091 A 
HETATM    7  N1  UNL     1     -17.110 -29.819   9.841  1.00  0.00    -0.371 N 
HETATM    8  C1  UNL     1     -17.860 -29.680   8.595  1.00  0.00     0.154 C 
HETATM    9  C15 UNL     1     -16.984 -31.002  10.466  1.00  0.00     0.091 A 
HETATM   10  C14 UNL     1     -16.271 -31.124  11.647  1.00  0.00     0.032 A 
ENDBRANCH   1   4
BRANCH   1  11
HETATM   11  N5  UNL     1     -13.656 -30.833  13.528  1.00  0.00    -0.376 N 
ATOM     12  H5  UNL     1     -13.574 -31.713  14.038  1.00  0.00     0.161 HD
BRANCH  11  13
HETATM   13  C8  UNL     1     -12.500 -30.286  12.861  1.00  0.00     0.121 C 
BRANCH  13  14
HETATM   14  C9  UNL     1     -11.314 -30.241  13.768  1.00  0.00     0.021 C 
BRANCH  14  15
HETATM   15  C10 UNL     1     -10.606 -28.924  13.684  1.00  0.00     0.023 C 
BRANCH  15  16
HETATM   16  C11 UNL     1     -11.329 -27.832  14.441  1.00  0.00     0.150 C 
BRANCH  16  17
HETATM   17  N6  UNL     1     -11.962 -26.955  13.481  1.00  0.00    -0.273 N 
HETATM   18  C12 UNL     1     -11.344 -26.191  12.566  1.00  0.00     0.218 A 
HETATM   19  N7  UNL     1     -12.314 -25.535  11.883  1.00  0.00    -0.185 N 
HETATM   20  C13 UNL     1     -13.508 -25.901  12.381  1.00  0.00     0.691 A 
ATOM     21  H7  UNL     1     -12.164 -24.875  11.120  1.00  0.00     0.185 HD
HETATM   22  N9  UNL     1     -13.267 -26.791  13.381  1.00  0.00    -0.129 N 
ATOM     23  H9  UNL     1     -13.974 -27.252  13.954  1.00  0.00     0.206 HD
BRANCH  20  24
HETATM   24  N8  UNL     1     -14.683 -25.516  12.018  1.00  0.00    -0.233 N 
ATOM     25  H82 UNL     1     -15.398 -25.170  12.658  1.00  0.00     0.174 HD
ATOM     26  H81 UNL     1     -15.083 -25.491  11.080  1.00  0.00     0.174 HD
ENDBRANCH  20  24
ENDBRANCH  16  17
ENDBRANCH  15  16
ENDBRANCH  14  15
ENDBRANCH  13  14
ENDBRANCH  11  13
ENDBRANCH   1  11
BRANCH   2  27
HETATM   27  C6  UNL     1     -14.687 -29.734  15.850  1.00  0.00     0.308 C 
BRANCH  27  28
HETATM   28  N3  UNL     1     -15.510 -30.175  16.941  1.00  0.00    -0.057 N 
ATOM     29  H33 UNL     1     -16.495 -30.118  16.686  1.00  0.00     0.276 HD
ATOM     30  H32 UNL     1     -15.419 -31.183  17.068  1.00  0.00     0.276 HD
ATOM     31  H31 UNL     1     -15.343 -29.690  17.823  1.00  0.00     0.276 HD
ENDBRANCH  27  28
BRANCH  27  32
HETATM   32  C7  UNL     1     -14.030 -28.400  16.151  1.00  0.00     0.283 C 
BRANCH  32  33
HETATM   33  N4  UNL     1     -13.523 -28.342  17.499  1.00  0.00    -0.076 N 
ATOM     34  H43 UNL     1     -13.115 -29.234  17.780  1.00  0.00     0.274 HD
ATOM     35  H42 UNL     1     -12.689 -27.758  17.557  1.00  0.00     0.274 HD
ATOM     36  H41 UNL     1     -14.236 -28.035  18.160  1.00  0.00     0.274 HD
ENDBRANCH  32  33
ENDBRANCH  27  32
ENDBRANCH   2  27
TORSDOF 12
ENDMDL
MODEL 4
REMARK VINA RESULT: -6.199514298      1.753      3.478
REMARK  12 active torsions:
REMARK  status: ('A' for Active; 'I' for Inactive)
REMARK    1  A    between atoms: C4_5  and  C5_6 
REMARK    2  A    between atoms: C5_6  and  N5_19 
REMARK    3  A    between atoms: N2_7  and  C6_9 
REMARK    4  A    between atoms: C6_9  and  N3_10 
REMARK    5  A    between atoms: C6_9  and  C7_14 
REMARK    6  A    between atoms: C7_14  and  N4_15 
REMARK    7  A    between atoms: N5_19  and  C8_21 
REMARK    8  A    between atoms: C8_21  and  C9_22 
REMARK    9  A    between atoms: C9_22  and  C10_23 
REMARK   10  A    between atoms: C10_23  and  C11_24 
REMARK   11  A    between atoms: C11_24  and  N6_25 
REMARK   12  A    between atoms: C13_29  and  N8_30 
ROOT
HETATM    1  C5  UNL     1     -15.459 -27.213  10.969  1.00  0.00     0.109 C 
HETATM    2  N2  UNL     1     -14.614 -26.369  11.467  1.00  0.00    -0.347 N 
ATOM      3  H2  UNL     1     -14.445 -25.506  10.950  1.00  0.00     0.163 HD
ENDROOT
BRANCH   1   4
HETATM    4  C4  UNL     1     -16.146 -26.931   9.704  1.00  0.00     0.010 A 
HETATM    5  C3  UNL     1     -17.455 -27.303   9.490  1.00  0.00     0.032 A 
HETATM    6  C2  UNL     1     -18.071 -27.020   8.284  1.00  0.00     0.091 A 
HETATM    7  N1  UNL     1     -17.448 -26.382   7.277  1.00  0.00    -0.371 N 
HETATM    8  C1  UNL     1     -18.145 -26.108   6.024  1.00  0.00     0.154 C 
HETATM    9  C15 UNL     1     -16.171 -26.013   7.475  1.00  0.00     0.091 A 
HETATM   10  C14 UNL     1     -15.518 -26.278   8.667  1.00  0.00     0.032 A 
ENDBRANCH   1   4
BRANCH   1  11
HETATM   11  N5  UNL     1     -15.695 -28.412  11.683  1.00  0.00    -0.376 N 
ATOM     12  H5  UNL     1     -15.995 -28.367  12.658  1.00  0.00     0.161 HD
BRANCH  11  13
HETATM   13  C8  UNL     1     -15.519 -29.697  11.051  1.00  0.00     0.121 C 
BRANCH  13  14
HETATM   14  C9  UNL     1     -16.550 -30.676  11.505  1.00  0.00     0.021 C 
BRANCH  14  15
HETATM   15  C10 UNL     1     -16.632 -30.740  13.000  1.00  0.00     0.023 C 
BRANCH  15  16
HETATM   16  C11 UNL     1     -15.445 -31.449  13.611  1.00  0.00     0.150 C 
BRANCH  16  17
HETATM   17  N6  UNL     1     -14.590 -30.458  14.226  1.00  0.00    -0.273 N 
HETATM   18  C12 UNL     1     -13.349 -30.119  13.839  1.00  0.00     0.218 A 
HETATM   19  N7  UNL     1     -12.922 -29.157  14.692  1.00  0.00    -0.185 N 
HETATM   20  C13 UNL     1     -13.896 -28.915  15.586  1.00  0.00     0.691 A 
ATOM     21  H7  UNL     1     -12.013 -28.693  14.661  1.00  0.00     0.185 HD
HETATM   22  N9  UNL     1     -14.932 -29.739  15.279  1.00  0.00    -0.129 N 
ATOM     23  H9  UNL     1     -15.822 -29.793  15.776  1.00  0.00     0.206 HD
BRANCH  20  24
HETATM   24  N8  UNL     1     -13.900 -28.076  16.564  1.00  0.00    -0.233 N 
ATOM     25  H82 UNL     1     -13.888 -27.063  16.453  1.00  0.00     0.174 HD
ATOM     26  H81 UNL     1     -13.913 -28.267  17.566  1.00  0.00     0.174 HD
ENDBRANCH  20  24
ENDBRANCH  16  17
ENDBRANCH  15  16
ENDBRANCH  14  15
ENDBRANCH  13  14
ENDBRANCH  11  13
ENDBRANCH   1  11
BRANCH   2  27
HETATM   27  C6  UNL     1     -13.899 -26.563  12.692  1.00  0.00     0.308 C 
BRANCH  27  28
HETATM   28  N3  UNL     1     -14.472 -25.901  13.831  1.00  0.00    -0.057 N 
ATOM     29  H33 UNL     1     -13.742 -25.648  14.497  1.00  0.00     0.276 HD
ATOM     30  H32 UNL     1     -14.802 -24.971  13.571  1.00  0.00     0.276 HD
ATOM     31  H31 UNL     1     -15.213 -26.422  14.298  1.00  0.00     0.276 HD
ENDBRANCH  27  28
BRANCH  27  32
HETATM   32  C7  UNL     1     -12.446 -26.177  12.495  1.00  0.00     0.283 C 
BRANCH  32  33
HETATM   33  N4  UNL     1     -11.794 -25.882  13.747  1.00  0.00    -0.076 N 
ATOM     34  H43 UNL     1     -12.025 -26.576  14.457  1.00  0.00     0.274 HD
ATOM     35  H42 UNL     1     -10.788 -26.042  13.687  1.00  0.00     0.274 HD
ATOM     36  H41 UNL     1     -12.000 -24.937  14.069  1.00  0.00     0.274 HD
ENDBRANCH  32  33
ENDBRANCH  27  32
ENDBRANCH   2  27
TORSDOF 12
ENDMDL
MODEL 5
REMARK VINA RESULT: -6.186520905      1.748      3.009
REMARK  12 active torsions:
REMARK  status: ('A' for Active; 'I' for Inactive)
REMARK    1  A    between atoms: C4_5  and  C5_6 
REMARK    2  A    between atoms: C5_6  and  N5_19 
REMARK    3  A    between atoms: N2_7  and  C6_9 
REMARK    4  A    between atoms: C6_9  and  N3_10 
REMARK    5  A    between atoms: C6_9  and  C7_14 
REMARK    6  A    between atoms: C7_14  and  N4_15 
REMARK    7  A    between atoms: N5_19  and  C8_21 
REMARK    8  A    between atoms: C8_21  and  C9_22 
REMARK    9  A    between atoms: C9_22  and  C10_23 
REMARK   10  A    between atoms: C10_23  and  C11_24 
REMARK   11  A    between atoms: C11_24  and  N6_25 
REMARK   12  A    between atoms: C13_29  and  N8_30 
ROOT
HETATM    1  C5  UNL     1     -15.336 -27.419  11.151  1.00  0.00     0.109 C 
HETATM    2  N2  UNL     1     -14.599 -26.455  11.602  1.00  0.00    -0.347 N 
ATOM      3  H2  UNL     1     -14.623 -25.566  11.103  1.00  0.00     0.163 HD
ENDROOT
BRANCH   1   4
HETATM    4  C4  UNL     1     -16.173 -27.231   9.962  1.00  0.00     0.010 A 
HETATM    5  C3  UNL     1     -15.772 -26.439   8.910  1.00  0.00     0.032 A 
HETATM    6  C2  UNL     1     -16.588 -26.284   7.804  1.00  0.00     0.091 A 
HETATM    7  N1  UNL     1     -17.788 -26.882   7.692  1.00  0.00    -0.371 N 
HETATM    8  C1  UNL     1     -18.610 -26.685   6.501  1.00  0.00     0.154 C 
HETATM    9  C15 UNL     1     -18.189 -27.658   8.712  1.00  0.00     0.091 A 
HETATM   10  C14 UNL     1     -17.403 -27.839   9.837  1.00  0.00     0.032 A 
ENDBRANCH   1   4
BRANCH   1  11
HETATM   11  N5  UNL     1     -15.304 -28.654  11.842  1.00  0.00    -0.376 N 
ATOM     12  H5  UNL     1     -15.743 -28.729  12.761  1.00  0.00     0.161 HD
BRANCH  11  13
HETATM   13  C8  UNL     1     -14.660 -29.808  11.264  1.00  0.00     0.121 C 
BRANCH  13  14
HETATM   14  C9  UNL     1     -15.041 -31.063  11.979  1.00  0.00     0.021 C 
BRANCH  14  15
HETATM   15  C10 UNL     1     -14.015 -31.449  13.001  1.00  0.00     0.023 C 
BRANCH  15  16
HETATM   16  C11 UNL     1     -12.743 -30.643  12.871  1.00  0.00     0.150 C 
BRANCH  16  17
HETATM   17  N6  UNL     1     -12.651 -29.750  14.005  1.00  0.00    -0.273 N 
HETATM   18  C12 UNL     1     -11.554 -29.100  14.425  1.00  0.00     0.218 A 
HETATM   19  N7  UNL     1     -11.919 -28.380  15.515  1.00  0.00    -0.185 N 
HETATM   20  C13 UNL     1     -13.224 -28.594  15.750  1.00  0.00     0.691 A 
ATOM     21  H7  UNL     1     -11.305 -27.778  16.064  1.00  0.00     0.185 HD
HETATM   22  N9  UNL     1     -13.666 -29.455  14.795  1.00  0.00    -0.129 N 
ATOM     23  H9  UNL     1     -14.618 -29.811  14.704  1.00  0.00     0.206 HD
BRANCH  20  24
HETATM   24  N8  UNL     1     -13.964 -28.104  16.685  1.00  0.00    -0.233 N 
ATOM     25  H82 UNL     1     -13.882 -27.153  17.044  1.00  0.00     0.174 HD
ATOM     26  H81 UNL     1     -14.719 -28.555  17.201  1.00  0.00     0.174 HD
ENDBRANCH  20  24
ENDBRANCH  16  17
ENDBRANCH  15  16
ENDBRANCH  14  15
ENDBRANCH  13  14
ENDBRANCH  11  13
ENDBRANCH   1  11
BRANCH   2  27
HETATM   27  C6  UNL     1     -13.753 -26.551  12.754  1.00  0.00     0.308 C 
BRANCH  27  28
HETATM   28  N3  UNL     1     -14.250 -25.877  13.921  1.00  0.00    -0.057 N 
ATOM     29  H33 UNL     1     -14.139 -24.869  13.821  1.00  0.00     0.276 HD
ATOM     30  H32 UNL     1     -15.267 -25.939  13.959  1.00  0.00     0.276 HD
ATOM     31  H31 UNL     1     -13.842 -26.193  14.800  1.00  0.00     0.276 HD
ENDBRANCH  27  28
BRANCH  27  32
HETATM   32  C7  UNL     1     -12.356 -26.083  12.393  1.00  0.00     0.283 C 
BRANCH  32  33
HETATM   33  N4  UNL     1     -11.628 -25.622  13.548  1.00  0.00    -0.076 N 
ATOM     34  H43 UNL     1     -11.764 -26.246  14.345  1.00  0.00     0.274 HD
ATOM     35  H42 UNL     1     -10.623 -25.737  13.423  1.00  0.00     0.274 HD
ATOM     36  H41 UNL     1     -11.864 -24.659  13.787  1.00  0.00     0.274 HD
ENDBRANCH  32  33
ENDBRANCH  27  32
ENDBRANCH   2  27
TORSDOF 12
ENDMDL
