MODEL 1
REMARK VINA RESULT: -7.785392222      0.000      0.000
REMARK  7 active torsions:
REMARK  status: ('A' for Active; 'I' for Inactive)
REMARK    1  A    between atoms: C4_9  and  C5_10 
REMARK    2  A    between atoms: C10_15  and  C11_16 
REMARK    3  A    between atoms: C11_16  and  N3_17 
REMARK    4  A    between atoms: N3_17  and  S1_19 
REMARK    5  A    between atoms: S1_19  and  N4_22 
REMARK    6  A    between atoms: N4_22  and  C12_24 
REMARK    7  A    between atoms: C12_24  and  N5_25 
ROOT
HETATM    1  C5  UNL     1     -13.521 -28.353  14.386  1.00  0.00    -0.011 A 
HETATM    2  C6  UNL     1     -13.585 -28.244  15.760  1.00  0.00     0.013 A 
HETATM    3  C7  UNL     1     -14.367 -29.070  16.500  1.00  0.00     0.001 A 
HETATM    4  C8  UNL     1     -15.106 -30.034  15.861  1.00  0.00     0.001 A 
HETATM    5  C9  UNL     1     -15.048 -30.151  14.475  1.00  0.00     0.010 A 
HETATM    6  C10 UNL     1     -14.262 -29.325  13.704  1.00  0.00    -0.029 A 
ENDROOT
BRANCH   6   7
HETATM    7  C11 UNL     1     -14.168 -29.421  12.215  1.00  0.00     0.173 C 
BRANCH   7   8
HETATM    8  N3  UNL     1     -15.114 -30.422  11.779  1.00  0.00    -0.299 N 
ATOM      9  H3  UNL     1     -15.029 -31.421  11.967  1.00  0.00     0.174 HD
BRANCH   8  10
HETATM   10  S1  UNL     1     -16.419 -29.692  10.888  1.00  0.00     0.316 S 
HETATM   11  O2  UNL     1     -16.974 -28.567  11.697  1.00  0.00    -0.183 OA
HETATM   12  O3  UNL     1     -17.515 -30.683  10.625  1.00  0.00    -0.183 OA
BRANCH  10  13
HETATM   13  N4  UNL     1     -15.751 -29.121   9.405  1.00  0.00    -0.285 N 
ATOM     14  H4  UNL     1     -15.150 -29.658   8.780  1.00  0.00     0.175 HD
BRANCH  13  15
HETATM   15  C12 UNL     1     -16.190 -27.736   9.190  1.00  0.00     0.273 C 
BRANCH  15  16
HETATM   16  N5  UNL     1     -15.457 -26.825   9.991  1.00  0.00    -0.324 N 
HETATM   17  N6  UNL     1     -16.010 -25.903  10.601  1.00  0.00    -0.348 N 
ATOM     18  H62 UNL     1     -17.022 -25.809  10.513  1.00  0.00     0.176 HD
ATOM     19  H61 UNL     1     -15.483 -25.247  11.178  1.00  0.00     0.176 HD
ATOM     20  H5  UNL     1     -14.446 -26.934  10.067  1.00  0.00     0.181 HD
ENDBRANCH  15  16
ENDBRANCH  13  15
ENDBRANCH  10  13
ENDBRANCH   8  10
ENDBRANCH   7   8
ENDBRANCH   6   7
BRANCH   1  21
HETATM   21  C4  UNL     1     -12.691 -27.478  13.578  1.00  0.00     0.068 A 
HETATM   22  C2  UNL     1     -11.348 -27.571  13.312  1.00  0.00     0.038 A 
HETATM   23  C1  UNL     1     -10.413 -28.617  13.803  1.00  0.00     0.071 C 
HETATM   24  N1  UNL     1     -10.984 -26.528  12.504  1.00  0.00    -0.301 N 
HETATM   25  N2  UNL     1     -12.073 -25.814  12.281  1.00  0.00    -0.266 N 
ATOM     26  H1  UNL     1     -10.049 -26.337  12.143  1.00  0.00     0.186 HD
HETATM   27  C3  UNL     1     -13.141 -26.363  12.921  1.00  0.00     0.272 A 
ATOM     28  H2  UNL     1     -12.109 -24.971  11.708  1.00  0.00     0.190 HD
HETATM   29  O1  UNL     1     -14.303 -25.869  12.867  1.00  0.00    -0.266 OA
ENDBRANCH   1  21
TORSDOF 7
ENDMDL
MODEL 2
REMARK VINA RESULT: -7.573309586      2.104      2.744
REMARK  7 active torsions:
REMARK  status: ('A' for Active; 'I' for Inactive)
REMARK    1  A    between atoms: C4_9  and  C5_10 
REMARK    2  A    between atoms: C10_15  and  C11_16 
REMARK    3  A    between atoms: C11_16  and  N3_17 
REMARK    4  A    between atoms: N3_17  and  S1_19 
REMARK    5  A    between atoms: S1_19  and  N4_22 
REMARK    6  A    between atoms: N4_22  and  C12_24 
REMARK    7  A    between atoms: C12_24  and  N5_25 
ROOT
HETATM    1  C5  UNL     1     -14.030 -28.683  13.437  1.00  0.00    -0.011 A 
HETATM    2  C6  UNL     1     -14.147 -29.583  14.477  1.00  0.00     0.013 A 
HETATM    3  C7  UNL     1     -15.242 -30.373  14.610  1.00  0.00     0.001 A 
HETATM    4  C8  UNL     1     -16.251 -30.270  13.685  1.00  0.00     0.001 A 
HETATM    5  C9  UNL     1     -16.141 -29.365  12.633  1.00  0.00     0.010 A 
HETATM    6  C10 UNL     1     -15.041 -28.554  12.477  1.00  0.00    -0.029 A 
ENDROOT
BRANCH   6   7
HETATM    7  C11 UNL     1     -14.882 -27.574  11.360  1.00  0.00     0.173 C 
BRANCH   7   8
HETATM    8  N3  UNL     1     -15.747 -27.994  10.281  1.00  0.00    -0.299 N 
ATOM      9  H3  UNL     1     -15.672 -28.887   9.792  1.00  0.00     0.174 HD
BRANCH   8  10
HETATM   10  S1  UNL     1     -16.932 -26.770   9.927  1.00  0.00     0.316 S 
HETATM   11  O2  UNL     1     -16.430 -25.461  10.438  1.00  0.00    -0.183 OA
HETATM   12  O3  UNL     1     -18.242 -27.078  10.593  1.00  0.00    -0.183 OA
BRANCH  10  13
HETATM   13  N4  UNL     1     -17.118 -26.738   8.214  1.00  0.00    -0.285 N 
ATOM     14  H4  UNL     1     -17.991 -26.565   7.714  1.00  0.00     0.175 HD
BRANCH  13  15
HETATM   15  C12 UNL     1     -15.814 -27.002   7.590  1.00  0.00     0.273 C 
BRANCH  15  16
HETATM   16  N5  UNL     1     -14.962 -25.872   7.661  1.00  0.00    -0.324 N 
HETATM   17  N6  UNL     1     -14.188 -25.580   6.743  1.00  0.00    -0.348 N 
ATOM     18  H62 UNL     1     -14.175 -26.181   5.919  1.00  0.00     0.176 HD
ATOM     19  H61 UNL     1     -13.575 -24.767   6.794  1.00  0.00     0.176 HD
ATOM     20  H5  UNL     1     -14.990 -25.282   8.493  1.00  0.00     0.181 HD
ENDBRANCH  15  16
ENDBRANCH  13  15
ENDBRANCH  10  13
ENDBRANCH   8  10
ENDBRANCH   7   8
ENDBRANCH   6   7
BRANCH   1  21
HETATM   21  C4  UNL     1     -12.866 -27.830  13.279  1.00  0.00     0.068 A 
HETATM   22  C2  UNL     1     -12.721 -26.504  13.600  1.00  0.00     0.038 A 
HETATM   23  C1  UNL     1     -13.751 -25.615  14.199  1.00  0.00     0.071 C 
HETATM   24  N1  UNL     1     -11.451 -26.106  13.279  1.00  0.00    -0.301 N 
HETATM   25  N2  UNL     1     -10.834 -27.160  12.774  1.00  0.00    -0.266 N 
ATOM     26  H1  UNL     1     -11.057 -25.174  13.405  1.00  0.00     0.186 HD
HETATM   27  C3  UNL     1     -11.665 -28.236  12.756  1.00  0.00     0.272 A 
ATOM     28  H2  UNL     1      -9.869 -27.166  12.444  1.00  0.00     0.190 HD
HETATM   29  O1  UNL     1     -11.315 -29.369  12.320  1.00  0.00    -0.266 OA
ENDBRANCH   1  21
TORSDOF 7
ENDMDL
MODEL 3
REMARK VINA RESULT: -7.453064407      1.897      2.330
REMARK  7 active torsions:
REMARK  status: ('A' for Active; 'I' for Inactive)
REMARK    1  A    between atoms: C4_9  and  C5_10 
REMARK    2  A    between atoms: C10_15  and  C11_16 
REMARK    3  A    between atoms: C11_16  and  N3_17 
REMARK    4  A    between atoms: N3_17  and  S1_19 
REMARK    5  A    between atoms: S1_19  and  N4_22 
REMARK    6  A    between atoms: N4_22  and  C12_24 
REMARK    7  A    between atoms: C12_24  and  N5_25 
ROOT
HETATM    1  C5  UNL     1     -14.235 -28.616  13.634  1.00  0.00    -0.011 A 
HETATM    2  C6  UNL     1     -14.418 -29.525  14.656  1.00  0.00     0.013 A 
HETATM    3  C7  UNL     1     -15.449 -30.408  14.641  1.00  0.00     0.001 A 
HETATM    4  C8  UNL     1     -16.323 -30.391  13.583  1.00  0.00     0.001 A 
HETATM    5  C9  UNL     1     -16.145 -29.476  12.548  1.00  0.00     0.010 A 
HETATM    6  C10 UNL     1     -15.108 -28.572  12.541  1.00  0.00    -0.029 A 
ENDROOT
BRANCH   6   7
HETATM    7  C11 UNL     1     -14.879 -27.579  11.448  1.00  0.00     0.173 C 
BRANCH   7   8
HETATM    8  N3  UNL     1     -15.681 -27.981  10.314  1.00  0.00    -0.299 N 
ATOM      9  H3  UNL     1     -15.557 -28.851   9.796  1.00  0.00     0.174 HD
BRANCH   8  10
HETATM   10  S1  UNL     1     -16.886 -26.778   9.953  1.00  0.00     0.316 S 
HETATM   11  O2  UNL     1     -16.404 -25.458  10.455  1.00  0.00    -0.183 OA
HETATM   12  O3  UNL     1     -18.190 -27.102  10.621  1.00  0.00    -0.183 OA
BRANCH  10  13
HETATM   13  N4  UNL     1     -17.073 -26.761   8.239  1.00  0.00    -0.285 N 
ATOM     14  H4  UNL     1     -17.948 -26.601   7.739  1.00  0.00     0.175 HD
BRANCH  13  15
HETATM   15  C12 UNL     1     -15.766 -27.013   7.617  1.00  0.00     0.273 C 
BRANCH  15  16
HETATM   16  N5  UNL     1     -14.941 -25.862   7.648  1.00  0.00    -0.324 N 
HETATM   17  N6  UNL     1     -14.186 -25.575   6.712  1.00  0.00    -0.348 N 
ATOM     18  H62 UNL     1     -14.169 -26.196   5.903  1.00  0.00     0.176 HD
ATOM     19  H61 UNL     1     -13.592 -24.746   6.734  1.00  0.00     0.176 HD
ATOM     20  H5  UNL     1     -14.971 -25.253   8.466  1.00  0.00     0.181 HD
ENDBRANCH  15  16
ENDBRANCH  13  15
ENDBRANCH  10  13
ENDBRANCH   8  10
ENDBRANCH   7   8
ENDBRANCH   6   7
BRANCH   1  21
HETATM   21  C4  UNL     1     -13.138 -27.664  13.633  1.00  0.00     0.068 A 
HETATM   22  C2  UNL     1     -11.822 -27.869  13.305  1.00  0.00     0.038 A 
HETATM   23  C1  UNL     1     -11.202 -29.146  12.864  1.00  0.00     0.071 C 
HETATM   24  N1  UNL     1     -11.141 -26.690  13.448  1.00  0.00    -0.301 N 
HETATM   25  N2  UNL     1     -12.016 -25.786  13.853  1.00  0.00    -0.266 N 
ATOM     26  H1  UNL     1     -10.147 -26.538  13.275  1.00  0.00     0.186 HD
HETATM   27  C3  UNL     1     -13.251 -26.343  13.978  1.00  0.00     0.272 A 
ATOM     28  H2  UNL     1     -11.797 -24.809  14.044  1.00  0.00     0.190 HD
HETATM   29  O1  UNL     1     -14.266 -25.688  14.352  1.00  0.00    -0.266 OA
ENDBRANCH   1  21
TORSDOF 7
ENDMDL
MODEL 4
REMARK VINA RESULT: -7.353035059      2.463      3.311
REMARK  7 active torsions:
REMARK  status: ('A' for Active; 'I' for Inactive)
REMARK    1  A    between atoms: C4_9  and  C5_10 
REMARK    2  A    between atoms: C10_15  and  C11_16 
REMARK    3  A    between atoms: C11_16  and  N3_17 
REMARK    4  A    between atoms: N3_17  and  S1_19 
REMARK    5  A    between atoms: S1_19  and  N4_22 
REMARK    6  A    between atoms: N4_22  and  C12_24 
REMARK    7  A    between atoms: C12_24  and  N5_25 
ROOT
HETATM    1  C5  UNL     1     -13.603 -30.523  12.895  1.00  0.00    -0.011 A 
HETATM    2  C6  UNL     1     -13.130 -31.819  12.924  1.00  0.00     0.013 A 
HETATM    3  C7  UNL     1     -13.346 -32.675  11.894  1.00  0.00     0.001 A 
HETATM    4  C8  UNL     1     -14.051 -32.235  10.801  1.00  0.00     0.001 A 
HETATM    5  C9  UNL     1     -14.532 -30.929  10.763  1.00  0.00     0.010 A 
HETATM    6  C10 UNL     1     -14.325 -30.043  11.796  1.00  0.00    -0.029 A 
ENDROOT
BRANCH   6   7
HETATM    7  C11 UNL     1     -14.820 -28.633  11.792  1.00  0.00     0.173 C 
BRANCH   7   8
HETATM    8  N3  UNL     1     -16.264 -28.674  11.857  1.00  0.00    -0.299 N 
ATOM      9  H3  UNL     1     -16.799 -29.024  12.651  1.00  0.00     0.174 HD
BRANCH   8  10
HETATM   10  S1  UNL     1     -16.965 -28.046  10.392  1.00  0.00     0.316 S 
HETATM   11  O2  UNL     1     -18.030 -27.067  10.758  1.00  0.00    -0.183 OA
HETATM   12  O3  UNL     1     -17.580 -29.144   9.573  1.00  0.00    -0.183 OA
BRANCH  10  13
HETATM   13  N4  UNL     1     -15.691 -27.281   9.519  1.00  0.00    -0.285 N 
ATOM     14  H4  UNL     1     -14.795 -26.988   9.910  1.00  0.00     0.175 HD
BRANCH  13  15
HETATM   15  C12 UNL     1     -16.105 -27.121   8.118  1.00  0.00     0.273 C 
BRANCH  15  16
HETATM   16  N5  UNL     1     -17.325 -26.407   8.012  1.00  0.00    -0.324 N 
HETATM   17  N6  UNL     1     -18.322 -26.898   7.473  1.00  0.00    -0.348 N 
ATOM     18  H62 UNL     1     -18.249 -27.844   7.099  1.00  0.00     0.176 HD
ATOM     19  H61 UNL     1     -19.200 -26.384   7.397  1.00  0.00     0.176 HD
ATOM     20  H5  UNL     1     -17.380 -25.462   8.392  1.00  0.00     0.181 HD
ENDBRANCH  15  16
ENDBRANCH  13  15
ENDBRANCH  10  13
ENDBRANCH   8  10
ENDBRANCH   7   8
ENDBRANCH   6   7
BRANCH   1  21
HETATM   21  C4  UNL     1     -13.382 -29.594  13.988  1.00  0.00     0.068 A 
HETATM   22  C2  UNL     1     -12.313 -28.762  14.207  1.00  0.00     0.038 A 
HETATM   23  C1  UNL     1     -11.106 -28.619  13.350  1.00  0.00     0.071 C 
HETATM   24  N1  UNL     1     -12.526 -28.062  15.363  1.00  0.00    -0.301 N 
HETATM   25  N2  UNL     1     -13.694 -28.453  15.841  1.00  0.00    -0.266 N 
ATOM     26  H1  UNL     1     -11.902 -27.369  15.778  1.00  0.00     0.186 HD
HETATM   27  C3  UNL     1     -14.251 -29.391  15.028  1.00  0.00     0.272 A 
ATOM     28  H2  UNL     1     -14.119 -28.102  16.699  1.00  0.00     0.190 HD
HETATM   29  O1  UNL     1     -15.371 -29.928  15.264  1.00  0.00    -0.266 OA
ENDBRANCH   1  21
TORSDOF 7
ENDMDL
MODEL 5
REMARK VINA RESULT: -7.352481314      2.297      3.162
REMARK  7 active torsions:
REMARK  status: ('A' for Active; 'I' for Inactive)
REMARK    1  A    between atoms: C4_9  and  C5_10 
REMARK    2  A    between atoms: C10_15  and  C11_16 
REMARK    3  A    between atoms: C11_16  and  N3_17 
REMARK    4  A    between atoms: N3_17  and  S1_19 
REMARK    5  A    between atoms: S1_19  and  N4_22 
REMARK    6  A    between atoms: N4_22  and  C12_24 
REMARK    7  A    between atoms: C12_24  and  N5_25 
ROOT
HETATM    1  C5  UNL     1     -13.565 -30.621  12.966  1.00  0.00    -0.011 A 
HETATM    2  C6  UNL     1     -13.061 -31.905  13.023  1.00  0.00     0.013 A 
HETATM    3  C7  UNL     1     -13.263 -32.790  12.014  1.00  0.00     0.001 A 
HETATM    4  C8  UNL     1     -13.983 -32.391  10.915  1.00  0.00     0.001 A 
HETATM    5  C9  UNL     1     -14.495 -31.098  10.850  1.00  0.00     0.010 A 
HETATM    6  C10 UNL     1     -14.303 -30.183  11.861  1.00  0.00    -0.029 A 
ENDROOT
BRANCH   6   7
HETATM    7  C11 UNL     1     -14.830 -28.786  11.827  1.00  0.00     0.173 C 
BRANCH   7   8
HETATM    8  N3  UNL     1     -16.273 -28.859  11.892  1.00  0.00    -0.299 N 
ATOM      9  H3  UNL     1     -16.801 -29.187  12.701  1.00  0.00     0.174 HD
BRANCH   8  10
HETATM   10  S1  UNL     1     -16.986 -28.312  10.401  1.00  0.00     0.316 S 
HETATM   11  O2  UNL     1     -18.035 -27.300  10.720  1.00  0.00    -0.183 OA
HETATM   12  O3  UNL     1     -17.623 -29.450   9.657  1.00  0.00    -0.183 OA
BRANCH  10  13
HETATM   13  N4  UNL     1     -15.715 -27.617   9.468  1.00  0.00    -0.285 N 
ATOM     14  H4  UNL     1     -14.979 -28.135   8.987  1.00  0.00     0.175 HD
BRANCH  13  15
HETATM   15  C12 UNL     1     -15.864 -26.155   9.478  1.00  0.00     0.273 C 
BRANCH  15  16
HETATM   16  N5  UNL     1     -15.765 -25.628  10.790  1.00  0.00    -0.324 N 
HETATM   17  N6  UNL     1     -14.673 -25.434  11.334  1.00  0.00    -0.348 N 
ATOM     18  H62 UNL     1     -13.828 -25.665  10.809  1.00  0.00     0.176 HD
ATOM     19  H61 UNL     1     -14.601 -25.055  12.278  1.00  0.00     0.176 HD
ATOM     20  H5  UNL     1     -16.620 -25.404  11.299  1.00  0.00     0.181 HD
ENDBRANCH  15  16
ENDBRANCH  13  15
ENDBRANCH  10  13
ENDBRANCH   8  10
ENDBRANCH   7   8
ENDBRANCH   6   7
BRANCH   1  21
HETATM   21  C4  UNL     1     -13.359 -29.662  14.036  1.00  0.00     0.068 A 
HETATM   22  C2  UNL     1     -12.289 -28.832  14.253  1.00  0.00     0.038 A 
HETATM   23  C1  UNL     1     -11.064 -28.721  13.418  1.00  0.00     0.071 C 
HETATM   24  N1  UNL     1     -12.521 -28.096  15.384  1.00  0.00    -0.301 N 
HETATM   25  N2  UNL     1     -13.701 -28.466  15.849  1.00  0.00    -0.266 N 
ATOM     26  H1  UNL     1     -11.900 -27.396  15.791  1.00  0.00     0.186 HD
HETATM   27  C3  UNL     1     -14.248 -29.424  15.052  1.00  0.00     0.272 A 
ATOM     28  H2  UNL     1     -14.141 -28.087  16.687  1.00  0.00     0.190 HD
HETATM   29  O1  UNL     1     -15.376 -29.946  15.280  1.00  0.00    -0.266 OA
ENDBRANCH   1  21
TORSDOF 7
ENDMDL
