MODEL 1
REMARK VINA RESULT: -6.663391116      0.000      0.000
REMARK  7 active torsions:
REMARK  status: ('A' for Active; 'I' for Inactive)
REMARK    1  A    between atoms: N2_6  and  C4_8 
REMARK    2  A    between atoms: C4_8  and  C5_9 
REMARK    3  A    between atoms: C5_9  and  C6_10 
REMARK    4  A    between atoms: C6_10  and  N3_11 
REMARK       I    between atoms: N3_11  and  C7_13 
REMARK       I    between atoms: C7_13  and  N5_17 
REMARK    5  A    between atoms: N5_17  and  C8_19 
REMARK    6  A    between atoms: C8_19  and  C9_20 
REMARK    7  A    between atoms: C9_20  and  O1_21 
ROOT
HETATM    1  C1  UNL     1     -14.239 -28.601  17.406  1.00  0.00     0.063 C 
HETATM    2  C2  UNL     1     -13.983 -28.908  16.150  1.00  0.00     0.097 A 
HETATM    3  N1  UNL     1     -12.811 -28.681  15.534  1.00  0.00    -0.327 N 
ATOM      4  H1  UNL     1     -11.992 -28.243  15.955  1.00  0.00     0.169 HD
HETATM    5  C3  UNL     1     -12.898 -29.124  14.278  1.00  0.00     0.134 A 
HETATM    6  N2  UNL     1     -12.079 -29.025  13.333  1.00  0.00    -0.354 N 
ATOM      7  H2  UNL     1     -12.415 -29.471  12.479  1.00  0.00     0.166 HD
HETATM    8  C11 UNL     1     -14.204 -29.661  14.093  1.00  0.00     0.085 A 
HETATM    9  C12 UNL     1     -14.620 -30.192  12.926  1.00  0.00    -0.014 A 
HETATM   10  C13 UNL     1     -14.184 -30.474  11.615  1.00  0.00     0.035 A 
HETATM   11  C14 UNL     1     -15.213 -31.108  11.264  1.00  0.00     0.015 A 
HETATM   12  N6  UNL     1     -16.412 -31.860  10.824  1.00  0.00    -0.391 N 
ATOM     13  H6  UNL     1     -16.744 -32.339   9.986  1.00  0.00     0.159 HD
HETATM   14  C15 UNL     1     -16.873 -31.590  12.130  1.00  0.00     0.135 A 
HETATM   15  C16 UNL     1     -15.879 -30.928  12.604  1.00  0.00     0.088 A 
HETATM   16  N7  UNL     1     -14.814 -29.504  15.257  1.00  0.00    -0.340 N 
ATOM     17  H7  UNL     1     -15.773 -29.790  15.456  1.00  0.00     0.167 HD
ENDROOT
BRANCH   6  18
HETATM   18  C4  UNL     1     -10.821 -28.452  13.171  1.00  0.00     0.064 C 
BRANCH  18  19
HETATM   19  C5  UNL     1     -10.615 -27.063  12.720  1.00  0.00     0.065 C 
BRANCH  19  20
HETATM   20  C6  UNL     1     -11.623 -26.049  13.123  1.00  0.00     0.143 C 
BRANCH  20  21
HETATM   21  N3  UNL     1     -12.599 -25.763  12.070  1.00  0.00    -0.227 N 
HETATM   22  C7  UNL     1     -13.895 -26.306  12.195  1.00  0.00     0.667 C 
HETATM   23  N4  UNL     1     -14.539 -26.123  13.312  1.00  0.00    -0.235 N 
HETATM   24  N5  UNL     1     -14.522 -27.028  11.191  1.00  0.00    -0.225 N 
ATOM     25  H42 UNL     1     -14.078 -25.592  14.050  1.00  0.00     0.174 HD
ATOM     26  H41 UNL     1     -15.477 -26.515  13.401  1.00  0.00     0.174 HD
ATOM     27  H5  UNL     1     -14.070 -27.834  10.759  1.00  0.00     0.177 HD
ATOM     28  H3  UNL     1     -12.348 -25.186  11.267  1.00  0.00     0.177 HD
BRANCH  24  29
HETATM   29  C8  UNL     1     -15.872 -26.589  10.767  1.00  0.00     0.164 C 
BRANCH  29  30
HETATM   30  C9  UNL     1     -16.649 -27.820  10.427  1.00  0.00     0.187 C 
BRANCH  30  31
HETATM   31  O1  UNL     1     -17.967 -27.560  10.075  1.00  0.00    -0.394 OA
HETATM   32  C10 UNL     1     -18.255 -27.926   8.784  1.00  0.00     0.201 C 
ENDBRANCH  30  31
ENDBRANCH  29  30
ENDBRANCH  24  29
ENDBRANCH  20  21
ENDBRANCH  19  20
ENDBRANCH  18  19
ENDBRANCH   6  18
TORSDOF 7
ENDMDL
MODEL 2
REMARK VINA RESULT: -6.579585790      1.751      4.515
REMARK  7 active torsions:
REMARK  status: ('A' for Active; 'I' for Inactive)
REMARK    1  A    between atoms: N2_6  and  C4_8 
REMARK    2  A    between atoms: C4_8  and  C5_9 
REMARK    3  A    between atoms: C5_9  and  C6_10 
REMARK    4  A    between atoms: C6_10  and  N3_11 
REMARK       I    between atoms: N3_11  and  C7_13 
REMARK       I    between atoms: C7_13  and  N5_17 
REMARK    5  A    between atoms: N5_17  and  C8_19 
REMARK    6  A    between atoms: C8_19  and  C9_20 
REMARK    7  A    between atoms: C9_20  and  O1_21 
ROOT
HETATM    1  C1  UNL     1     -14.871 -29.500  18.333  1.00  0.00     0.063 C 
HETATM    2  C2  UNL     1     -14.655 -29.422  17.035  1.00  0.00     0.097 A 
HETATM    3  N1  UNL     1     -15.168 -30.265  16.125  1.00  0.00    -0.327 N 
ATOM      4  H1  UNL     1     -15.773 -31.061  16.326  1.00  0.00     0.169 HD
HETATM    5  C3  UNL     1     -14.753 -29.889  14.913  1.00  0.00     0.134 A 
HETATM    6  N2  UNL     1     -14.913 -30.445  13.800  1.00  0.00    -0.354 N 
ATOM      7  H2  UNL     1     -14.488 -29.918  13.038  1.00  0.00     0.166 HD
HETATM    8  C11 UNL     1     -13.929 -28.738  15.072  1.00  0.00     0.085 A 
HETATM    9  C12 UNL     1     -13.345 -28.106  14.034  1.00  0.00    -0.014 A 
HETATM   10  C13 UNL     1     -13.229 -28.149  12.629  1.00  0.00     0.035 A 
HETATM   11  C14 UNL     1     -12.587 -27.072  12.514  1.00  0.00     0.015 A 
HETATM   12  N6  UNL     1     -11.831 -25.807  12.349  1.00  0.00    -0.391 N 
ATOM     13  H6  UNL     1     -11.433 -25.254  11.590  1.00  0.00     0.159 HD
HETATM   14  C15 UNL     1     -11.932 -25.742  13.755  1.00  0.00     0.135 A 
HETATM   15  C16 UNL     1     -12.588 -26.819  14.000  1.00  0.00     0.088 A 
HETATM   16  N7  UNL     1     -13.905 -28.502  16.374  1.00  0.00    -0.340 N 
ATOM     17  H7  UNL     1     -13.396 -27.737  16.818  1.00  0.00     0.167 HD
ENDROOT
BRANCH   6  18
HETATM   18  C4  UNL     1     -15.531 -31.612  13.359  1.00  0.00     0.064 C 
BRANCH  18  19
HETATM   19  C5  UNL     1     -16.872 -31.637  12.748  1.00  0.00     0.065 C 
BRANCH  19  20
HETATM   20  C6  UNL     1     -16.956 -31.703  11.266  1.00  0.00     0.143 C 
BRANCH  20  21
HETATM   21  N3  UNL     1     -17.259 -30.409  10.652  1.00  0.00    -0.227 N 
HETATM   22  C7  UNL     1     -16.229 -29.446  10.579  1.00  0.00     0.667 C 
HETATM   23  N4  UNL     1     -15.083 -29.802  10.073  1.00  0.00    -0.235 N 
HETATM   24  N5  UNL     1     -16.371 -28.139  11.021  1.00  0.00    -0.225 N 
ATOM     25  H42 UNL     1     -14.978 -30.763   9.748  1.00  0.00     0.174 HD
ATOM     26  H41 UNL     1     -14.339 -29.105  10.020  1.00  0.00     0.174 HD
ATOM     27  H5  UNL     1     -16.693 -27.934  11.967  1.00  0.00     0.177 HD
ATOM     28  H3  UNL     1     -18.189 -30.208  10.286  1.00  0.00     0.177 HD
BRANCH  24  29
HETATM   29  C8  UNL     1     -16.037 -27.052  10.072  1.00  0.00     0.164 C 
BRANCH  29  30
HETATM   30  C9  UNL     1     -17.330 -26.506   9.557  1.00  0.00     0.187 C 
BRANCH  30  31
HETATM   31  O1  UNL     1     -17.171 -25.409   8.721  1.00  0.00    -0.394 OA
HETATM   32  C10 UNL     1     -16.903 -25.763   7.422  1.00  0.00     0.201 C 
ENDBRANCH  30  31
ENDBRANCH  29  30
ENDBRANCH  24  29
ENDBRANCH  20  21
ENDBRANCH  19  20
ENDBRANCH  18  19
ENDBRANCH   6  18
TORSDOF 7
ENDMDL
MODEL 3
REMARK VINA RESULT: -6.544897590      2.420      5.506
REMARK  7 active torsions:
REMARK  status: ('A' for Active; 'I' for Inactive)
REMARK    1  A    between atoms: N2_6  and  C4_8 
REMARK    2  A    between atoms: C4_8  and  C5_9 
REMARK    3  A    between atoms: C5_9  and  C6_10 
REMARK    4  A    between atoms: C6_10  and  N3_11 
REMARK       I    between atoms: N3_11  and  C7_13 
REMARK       I    between atoms: C7_13  and  N5_17 
REMARK    5  A    between atoms: N5_17  and  C8_19 
REMARK    6  A    between atoms: C8_19  and  C9_20 
REMARK    7  A    between atoms: C9_20  and  O1_21 
ROOT
HETATM    1  C1  UNL     1     -17.170 -30.992  13.307  1.00  0.00     0.063 C 
HETATM    2  C2  UNL     1     -16.270 -30.090  12.970  1.00  0.00     0.097 A 
HETATM    3  N1  UNL     1     -16.510 -29.036  12.173  1.00  0.00    -0.327 N 
ATOM      4  H1  UNL     1     -17.403 -28.814  11.732  1.00  0.00     0.169 HD
HETATM    5  C3  UNL     1     -15.384 -28.328  12.052  1.00  0.00     0.134 A 
HETATM    6  N2  UNL     1     -15.135 -27.333  11.331  1.00  0.00    -0.354 N 
ATOM      7  H2  UNL     1     -14.181 -26.992  11.455  1.00  0.00     0.166 HD
HETATM    8  C11 UNL     1     -14.376 -28.977  12.821  1.00  0.00     0.085 A 
HETATM    9  C12 UNL     1     -13.113 -28.516  12.911  1.00  0.00    -0.014 A 
HETATM   10  C13 UNL     1     -12.279 -27.465  12.475  1.00  0.00     0.035 A 
HETATM   11  C14 UNL     1     -11.283 -27.784  13.176  1.00  0.00     0.015 A 
HETATM   12  N6  UNL     1     -10.095 -28.135  13.990  1.00  0.00    -0.391 N 
ATOM     13  H6  UNL     1      -9.151 -27.782  14.148  1.00  0.00     0.159 HD
HETATM   14  C15 UNL     1     -10.908 -29.197  14.440  1.00  0.00     0.135 A 
HETATM   15  C16 UNL     1     -11.986 -28.973  13.777  1.00  0.00     0.088 A 
HETATM   16  N7  UNL     1     -14.968 -30.035  13.353  1.00  0.00    -0.340 N 
ATOM     17  H7  UNL     1     -14.512 -30.713  13.963  1.00  0.00     0.167 HD
ENDROOT
BRANCH   6  18
HETATM   18  C4  UNL     1     -15.849 -26.582  10.401  1.00  0.00     0.064 C 
BRANCH  18  19
HETATM   19  C5  UNL     1     -15.907 -26.915   8.965  1.00  0.00     0.065 C 
BRANCH  19  20
HETATM   20  C6  UNL     1     -16.637 -28.147   8.570  1.00  0.00     0.143 C 
BRANCH  20  21
HETATM   21  N3  UNL     1     -15.745 -29.262   8.250  1.00  0.00    -0.227 N 
HETATM   22  C7  UNL     1     -15.776 -30.403   9.079  1.00  0.00     0.667 C 
HETATM   23  N4  UNL     1     -16.928 -30.954   9.333  1.00  0.00    -0.235 N 
HETATM   24  N5  UNL     1     -14.643 -30.970   9.644  1.00  0.00    -0.225 N 
ATOM     25  H42 UNL     1     -17.761 -30.537   8.918  1.00  0.00     0.174 HD
ATOM     26  H41 UNL     1     -16.951 -31.779   9.932  1.00  0.00     0.174 HD
ATOM     27  H5  UNL     1     -13.991 -30.411  10.194  1.00  0.00     0.177 HD
ATOM     28  H3  UNL     1     -15.116 -29.215   7.448  1.00  0.00     0.177 HD
BRANCH  24  29
HETATM   29  C8  UNL     1     -14.414 -32.416   9.421  1.00  0.00     0.164 C 
BRANCH  29  30
HETATM   30  C9  UNL     1     -13.348 -32.845  10.377  1.00  0.00     0.187 C 
BRANCH  30  31
HETATM   31  O1  UNL     1     -13.133 -31.937  11.406  1.00  0.00    -0.394 OA
HETATM   32  C10 UNL     1     -12.931 -32.546  12.620  1.00  0.00     0.201 C 
ENDBRANCH  30  31
ENDBRANCH  29  30
ENDBRANCH  24  29
ENDBRANCH  20  21
ENDBRANCH  19  20
ENDBRANCH  18  19
ENDBRANCH   6  18
TORSDOF 7
ENDMDL
MODEL 4
REMARK VINA RESULT: -6.395446652      3.873      6.311
REMARK  7 active torsions:
REMARK  status: ('A' for Active; 'I' for Inactive)
REMARK    1  A    between atoms: N2_6  and  C4_8 
REMARK    2  A    between atoms: C4_8  and  C5_9 
REMARK    3  A    between atoms: C5_9  and  C6_10 
REMARK    4  A    between atoms: C6_10  and  N3_11 
REMARK       I    between atoms: N3_11  and  C7_13 
REMARK       I    between atoms: C7_13  and  N5_17 
REMARK    5  A    between atoms: N5_17  and  C8_19 
REMARK    6  A    between atoms: C8_19  and  C9_20 
REMARK    7  A    between atoms: C9_20  and  O1_21 
ROOT
HETATM    1  C1  UNL     1     -15.782 -31.703  10.963  1.00  0.00     0.063 C 
HETATM    2  C2  UNL     1     -15.559 -30.416  11.138  1.00  0.00     0.097 A 
HETATM    3  N1  UNL     1     -16.333 -29.435  10.647  1.00  0.00    -0.327 N 
ATOM      4  H1  UNL     1     -17.172 -29.565  10.081  1.00  0.00     0.169 HD
HETATM    5  C3  UNL     1     -15.822 -28.260  11.021  1.00  0.00     0.134 A 
HETATM    6  N2  UNL     1     -16.167 -27.096  10.705  1.00  0.00    -0.354 N 
ATOM      7  H2  UNL     1     -15.592 -26.385  11.157  1.00  0.00     0.166 HD
HETATM    8  C11 UNL     1     -14.655 -28.519  11.795  1.00  0.00     0.085 A 
HETATM    9  C12 UNL     1     -13.895 -27.540  12.326  1.00  0.00    -0.014 A 
HETATM   10  C13 UNL     1     -13.808 -26.137  12.436  1.00  0.00     0.035 A 
HETATM   11  C14 UNL     1     -12.839 -26.124  13.240  1.00  0.00     0.015 A 
HETATM   12  N6  UNL     1     -11.699 -26.080  14.186  1.00  0.00    -0.391 N 
ATOM     13  H6  UNL     1     -11.140 -25.376  14.670  1.00  0.00     0.159 HD
HETATM   14  C15 UNL     1     -11.764 -27.486  14.092  1.00  0.00     0.135 A 
HETATM   15  C16 UNL     1     -12.746 -27.628  13.276  1.00  0.00     0.088 A 
HETATM   16  N7  UNL     1     -14.545 -29.838  11.831  1.00  0.00    -0.340 N 
ATOM     17  H7  UNL     1     -13.804 -30.347  12.313  1.00  0.00     0.167 HD
ENDROOT
BRANCH   6  18
HETATM   18  C4  UNL     1     -17.147 -26.544   9.885  1.00  0.00     0.064 C 
BRANCH  18  19
HETATM   19  C5  UNL     1     -17.237 -26.810   8.438  1.00  0.00     0.065 C 
BRANCH  19  20
HETATM   20  C6  UNL     1     -16.380 -26.001   7.533  1.00  0.00     0.143 C 
BRANCH  20  21
HETATM   21  N3  UNL     1     -14.993 -26.469   7.489  1.00  0.00    -0.227 N 
HETATM   22  C7  UNL     1     -14.408 -26.711   6.228  1.00  0.00     0.667 C 
HETATM   23  N4  UNL     1     -14.479 -25.778   5.322  1.00  0.00    -0.235 N 
HETATM   24  N5  UNL     1     -13.762 -27.893   5.898  1.00  0.00    -0.225 N 
ATOM     25  H42 UNL     1     -14.954 -24.909   5.565  1.00  0.00     0.174 HD
ATOM     26  H41 UNL     1     -14.056 -25.953   4.411  1.00  0.00     0.174 HD
ATOM     27  H5  UNL     1     -14.220 -28.797   6.020  1.00  0.00     0.177 HD
ATOM     28  H3  UNL     1     -14.464 -26.617   8.348  1.00  0.00     0.177 HD
BRANCH  24  29
HETATM   29  C8  UNL     1     -12.385 -27.798   5.362  1.00  0.00     0.164 C 
BRANCH  29  30
HETATM   30  C9  UNL     1     -11.776 -29.159   5.471  1.00  0.00     0.187 C 
BRANCH  30  31
HETATM   31  O1  UNL     1     -10.462 -29.140   5.920  1.00  0.00    -0.394 OA
HETATM   32  C10 UNL     1     -10.113 -30.284   6.594  1.00  0.00     0.201 C 
ENDBRANCH  30  31
ENDBRANCH  29  30
ENDBRANCH  24  29
ENDBRANCH  20  21
ENDBRANCH  19  20
ENDBRANCH  18  19
ENDBRANCH   6  18
TORSDOF 7
ENDMDL
MODEL 5
REMARK VINA RESULT: -6.390832712      3.034      5.913
REMARK  7 active torsions:
REMARK  status: ('A' for Active; 'I' for Inactive)
REMARK    1  A    between atoms: N2_6  and  C4_8 
REMARK    2  A    between atoms: C4_8  and  C5_9 
REMARK    3  A    between atoms: C5_9  and  C6_10 
REMARK    4  A    between atoms: C6_10  and  N3_11 
REMARK       I    between atoms: N3_11  and  C7_13 
REMARK       I    between atoms: C7_13  and  N5_17 
REMARK    5  A    between atoms: N5_17  and  C8_19 
REMARK    6  A    between atoms: C8_19  and  C9_20 
REMARK    7  A    between atoms: C9_20  and  O1_21 
ROOT
HETATM    1  C1  UNL     1     -16.821 -31.384  11.692  1.00  0.00     0.063 C 
HETATM    2  C2  UNL     1     -16.143 -30.254  11.726  1.00  0.00     0.097 A 
HETATM    3  N1  UNL     1     -16.458 -29.155  11.021  1.00  0.00    -0.327 N 
ATOM      4  H1  UNL     1     -17.246 -29.065  10.378  1.00  0.00     0.169 HD
HETATM    5  C3  UNL     1     -15.570 -28.199  11.302  1.00  0.00     0.134 A 
HETATM    6  N2  UNL     1     -15.431 -27.058  10.799  1.00  0.00    -0.354 N 
ATOM      7  H2  UNL     1     -14.663 -26.538  11.222  1.00  0.00     0.166 HD
HETATM    8  C11 UNL     1     -14.639 -28.730  12.240  1.00  0.00     0.085 A 
HETATM    9  C12 UNL     1     -13.606 -28.017  12.731  1.00  0.00    -0.014 A 
HETATM   10  C13 UNL     1     -13.006 -26.742  12.670  1.00  0.00     0.035 A 
HETATM   11  C14 UNL     1     -12.159 -26.948  13.578  1.00  0.00     0.015 A 
HETATM   12  N6  UNL     1     -11.152 -27.162  14.644  1.00  0.00    -0.391 N 
ATOM     13  H6  UNL     1     -10.403 -26.638  15.098  1.00  0.00     0.159 HD
HETATM   14  C15 UNL     1     -11.733 -28.445  14.724  1.00  0.00     0.135 A 
HETATM   15  C16 UNL     1     -12.639 -28.356  13.818  1.00  0.00     0.088 A 
HETATM   16  N7  UNL     1     -15.035 -29.974  12.459  1.00  0.00    -0.340 N 
ATOM     17  H7  UNL     1     -14.573 -30.630  13.090  1.00  0.00     0.167 HD
ENDROOT
BRANCH   6  18
HETATM   18  C4  UNL     1     -16.076 -26.333   9.800  1.00  0.00     0.064 C 
BRANCH  18  19
HETATM   19  C5  UNL     1     -15.867 -26.574   8.361  1.00  0.00     0.065 C 
BRANCH  19  20
HETATM   20  C6  UNL     1     -16.798 -27.506   7.673  1.00  0.00     0.143 C 
BRANCH  20  21
HETATM   21  N3  UNL     1     -18.143 -27.499   8.252  1.00  0.00    -0.227 N 
HETATM   22  C7  UNL     1     -18.972 -28.620   8.030  1.00  0.00     0.667 C 
HETATM   23  N4  UNL     1     -18.496 -29.804   8.290  1.00  0.00    -0.235 N 
HETATM   24  N5  UNL     1     -20.267 -28.529   7.544  1.00  0.00    -0.225 N 
ATOM     25  H42 UNL     1     -17.543 -29.871   8.647  1.00  0.00     0.174 HD
ATOM     26  H41 UNL     1     -19.096 -30.614   8.130  1.00  0.00     0.174 HD
ATOM     27  H5  UNL     1     -20.474 -28.024   6.682  1.00  0.00     0.177 HD
ATOM     28  H3  UNL     1     -18.472 -26.706   8.801  1.00  0.00     0.177 HD
BRANCH  24  29
HETATM   29  C8  UNL     1     -21.341 -29.191   8.321  1.00  0.00     0.164 C 
BRANCH  29  30
HETATM   30  C9  UNL     1     -22.644 -28.740   7.743  1.00  0.00     0.187 C 
BRANCH  30  31
HETATM   31  O1  UNL     1     -22.859 -27.374   7.870  1.00  0.00    -0.394 OA
HETATM   32  C10 UNL     1     -24.189 -27.037   7.823  1.00  0.00     0.201 C 
ENDBRANCH  30  31
ENDBRANCH  29  30
ENDBRANCH  24  29
ENDBRANCH  20  21
ENDBRANCH  19  20
ENDBRANCH  18  19
ENDBRANCH   6  18
TORSDOF 7
ENDMDL
