MODEL 1
REMARK VINA RESULT: -7.504283026      0.000      0.000
REMARK  10 active torsions:
REMARK  status: ('A' for Active; 'I' for Inactive)
REMARK    1  A    between atoms: C3_4  and  C4_5 
REMARK    2  A    between atoms: C4_5  and  C5_6 
REMARK    3  A    between atoms: C5_6  and  N2_7 
REMARK    4  A    between atoms: N2_7  and  C6_9 
REMARK    5  A    between atoms: C6_9  and  C7_10 
REMARK    6  A    between atoms: C7_10  and  C8_11 
REMARK    7  A    between atoms: C8_11  and  C9_12 
REMARK    8  A    between atoms: C9_12  and  N3_13 
REMARK    9  A    between atoms: N5_21  and  N6_23 
REMARK   10  A    between atoms: C15_29  and  N8_30 
ROOT
HETATM    1  C6  UNL     1     -15.979 -31.010  13.614  1.00  0.00     0.091 C 
HETATM    2  N5  UNL     1     -16.158 -30.189  14.574  1.00  0.00    -0.296 N 
ATOM      3  H5  UNL     1     -17.037 -29.677  14.633  1.00  0.00     0.187 HD
ENDROOT
BRANCH   1   4
HETATM    4  N2  UNL     1     -14.742 -31.729  13.532  1.00  0.00    -0.378 N 
ATOM      5  H2  UNL     1     -14.539 -32.465  14.210  1.00  0.00     0.160 HD
BRANCH   4   6
HETATM    6  C5  UNL     1     -13.778 -31.424  12.500  1.00  0.00     0.125 C 
BRANCH   6   7
HETATM    7  C4  UNL     1     -12.440 -31.057  13.060  1.00  0.00     0.061 C 
BRANCH   7   8
HETATM    8  C3  UNL     1     -12.250 -29.612  13.315  1.00  0.00    -0.025 A 
HETATM    9  C2  UNL     1     -13.066 -28.606  12.856  1.00  0.00     0.117 A 
HETATM   10  N1  UNL     1     -12.823 -27.291  13.119  1.00  0.00    -0.198 N 
HETATM   11  C1  UNL     1     -13.736 -26.276  12.596  1.00  0.00     0.174 C 
HETATM   12  C15 UNL     1     -11.754 -26.942  13.853  1.00  0.00     0.677 A 
HETATM   13  N7  UNL     1     -10.935 -27.900  14.318  1.00  0.00    -0.201 N 
HETATM   14  C14 UNL     1     -11.146 -29.204  14.075  1.00  0.00     0.114 A 
ATOM     15  H7  UNL     1     -10.125 -27.628  14.875  1.00  0.00     0.183 HD
BRANCH  12  16
HETATM   16  N8  UNL     1     -11.563 -25.685  14.078  1.00  0.00    -0.234 N 
ATOM     17  H82 UNL     1     -12.324 -25.035  14.272  1.00  0.00     0.174 HD
ATOM     18  H81 UNL     1     -10.603 -25.339  14.057  1.00  0.00     0.174 HD
ENDBRANCH  12  16
ENDBRANCH   7   8
ENDBRANCH   6   7
ENDBRANCH   4   6
ENDBRANCH   1   4
BRANCH   1  19
HETATM   19  C7  UNL     1     -17.054 -31.193  12.614  1.00  0.00     0.079 C 
BRANCH  19  20
HETATM   20  C8  UNL     1     -16.606 -30.792  11.227  1.00  0.00     0.027 C 
BRANCH  20  21
HETATM   21  C9  UNL     1     -16.577 -29.279  11.115  1.00  0.00     0.128 C 
BRANCH  21  22
HETATM   22  N3  UNL     1     -16.968 -28.814   9.822  1.00  0.00    -0.334 N 
HETATM   23  C10 UNL     1     -16.693 -29.552   8.605  1.00  0.00     0.129 C 
HETATM   24  C11 UNL     1     -16.122 -28.551   7.614  1.00  0.00     0.040 C 
HETATM   25  C12 UNL     1     -17.270 -27.621   7.241  1.00  0.00     0.126 C 
HETATM   26  N4  UNL     1     -17.815 -26.967   8.411  1.00  0.00    -0.343 N 
HETATM   27  C13 UNL     1     -17.656 -27.579   9.687  1.00  0.00     0.318 C 
ATOM     28  H4  UNL     1     -18.308 -26.079   8.323  1.00  0.00     0.164 HD
HETATM   29  O1  UNL     1     -18.116 -27.058  10.751  1.00  0.00    -0.247 OA
ENDBRANCH  21  22
ENDBRANCH  20  21
ENDBRANCH  19  20
ENDBRANCH   1  19
BRANCH   2  30
HETATM   30  N6  UNL     1     -15.178 -29.977  15.546  1.00  0.00    -0.344 N 
ATOM     31  H62 UNL     1     -14.247 -29.697  15.239  1.00  0.00     0.176 HD
ATOM     32  H61 UNL     1     -15.377 -30.096  16.540  1.00  0.00     0.176 HD
ENDBRANCH   2  30
TORSDOF 10
ENDMDL
MODEL 2
REMARK VINA RESULT: -7.052163757      1.095      1.267
REMARK  10 active torsions:
REMARK  status: ('A' for Active; 'I' for Inactive)
REMARK    1  A    between atoms: C3_4  and  C4_5 
REMARK    2  A    between atoms: C4_5  and  C5_6 
REMARK    3  A    between atoms: C5_6  and  N2_7 
REMARK    4  A    between atoms: N2_7  and  C6_9 
REMARK    5  A    between atoms: C6_9  and  C7_10 
REMARK    6  A    between atoms: C7_10  and  C8_11 
REMARK    7  A    between atoms: C8_11  and  C9_12 
REMARK    8  A    between atoms: C9_12  and  N3_13 
REMARK    9  A    between atoms: N5_21  and  N6_23 
REMARK   10  A    between atoms: C15_29  and  N8_30 
ROOT
HETATM    1  C6  UNL     1     -15.849 -30.683  13.623  1.00  0.00     0.091 C 
HETATM    2  N5  UNL     1     -16.108 -30.004  14.671  1.00  0.00    -0.296 N 
ATOM      3  H5  UNL     1     -16.933 -29.406  14.686  1.00  0.00     0.187 HD
ENDROOT
BRANCH   1   4
HETATM    4  N2  UNL     1     -14.688 -31.523  13.604  1.00  0.00    -0.378 N 
ATOM      5  H2  UNL     1     -14.542 -32.200  14.353  1.00  0.00     0.160 HD
BRANCH   4   6
HETATM    6  C5  UNL     1     -13.722 -31.421  12.535  1.00  0.00     0.125 C 
BRANCH   6   7
HETATM    7  C4  UNL     1     -12.364 -31.030  13.029  1.00  0.00     0.061 C 
BRANCH   7   8
HETATM    8  C3  UNL     1     -12.195 -29.585  13.298  1.00  0.00    -0.025 A 
HETATM    9  C2  UNL     1     -12.993 -28.581  12.802  1.00  0.00     0.117 A 
HETATM   10  N1  UNL     1     -12.772 -27.266  13.082  1.00  0.00    -0.198 N 
HETATM   11  C1  UNL     1     -13.662 -26.254  12.518  1.00  0.00     0.174 C 
HETATM   12  C15 UNL     1     -11.742 -26.914  13.870  1.00  0.00     0.677 A 
HETATM   13  N7  UNL     1     -10.942 -27.870  14.372  1.00  0.00    -0.201 N 
HETATM   14  C14 UNL     1     -11.134 -29.174  14.114  1.00  0.00     0.114 A 
ATOM     15  H7  UNL     1     -10.162 -27.595  14.970  1.00  0.00     0.183 HD
BRANCH  12  16
HETATM   16  N8  UNL     1     -11.570 -25.657  14.109  1.00  0.00    -0.234 N 
ATOM     17  H82 UNL     1     -12.245 -24.944  13.837  1.00  0.00     0.174 HD
ATOM     18  H81 UNL     1     -10.715 -25.378  14.592  1.00  0.00     0.174 HD
ENDBRANCH  12  16
ENDBRANCH   7   8
ENDBRANCH   6   7
ENDBRANCH   4   6
ENDBRANCH   1   4
BRANCH   1  19
HETATM   19  C7  UNL     1     -16.757 -30.582  12.459  1.00  0.00     0.079 C 
BRANCH  19  20
HETATM   20  C8  UNL     1     -16.503 -29.327  11.655  1.00  0.00     0.027 C 
BRANCH  20  21
HETATM   21  C9  UNL     1     -16.083 -29.698  10.245  1.00  0.00     0.128 C 
BRANCH  21  22
HETATM   22  N3  UNL     1     -16.773 -28.944   9.247  1.00  0.00    -0.334 N 
HETATM   23  C10 UNL     1     -16.227 -27.740   8.654  1.00  0.00     0.129 C 
HETATM   24  C11 UNL     1     -17.339 -26.704   8.679  1.00  0.00     0.040 C 
HETATM   25  C12 UNL     1     -18.383 -27.179   7.675  1.00  0.00     0.126 C 
HETATM   26  N4  UNL     1     -18.869 -28.500   8.012  1.00  0.00    -0.343 N 
HETATM   27  C13 UNL     1     -18.052 -29.365   8.794  1.00  0.00     0.318 C 
ATOM     28  H4  UNL     1     -19.788 -28.808   7.694  1.00  0.00     0.164 HD
HETATM   29  O1  UNL     1     -18.420 -30.536   9.119  1.00  0.00    -0.247 OA
ENDBRANCH  21  22
ENDBRANCH  20  21
ENDBRANCH  19  20
ENDBRANCH   1  19
BRANCH   2  30
HETATM   30  N6  UNL     1     -15.287 -30.061  15.799  1.00  0.00    -0.344 N 
ATOM     31  H62 UNL     1     -14.969 -30.976  16.118  1.00  0.00     0.176 HD
ATOM     32  H61 UNL     1     -15.005 -29.217  16.298  1.00  0.00     0.176 HD
ENDBRANCH   2  30
TORSDOF 10
ENDMDL
MODEL 3
REMARK VINA RESULT: -7.003221704      1.468      4.485
REMARK  10 active torsions:
REMARK  status: ('A' for Active; 'I' for Inactive)
REMARK    1  A    between atoms: C3_4  and  C4_5 
REMARK    2  A    between atoms: C4_5  and  C5_6 
REMARK    3  A    between atoms: C5_6  and  N2_7 
REMARK    4  A    between atoms: N2_7  and  C6_9 
REMARK    5  A    between atoms: C6_9  and  C7_10 
REMARK    6  A    between atoms: C7_10  and  C8_11 
REMARK    7  A    between atoms: C8_11  and  C9_12 
REMARK    8  A    between atoms: C9_12  and  N3_13 
REMARK    9  A    between atoms: N5_21  and  N6_23 
REMARK   10  A    between atoms: C15_29  and  N8_30 
ROOT
HETATM    1  C6  UNL     1     -12.178 -26.672  13.353  1.00  0.00     0.091 C 
HETATM    2  N5  UNL     1     -11.312 -26.675  12.415  1.00  0.00    -0.296 N 
ATOM      3  H5  UNL     1     -11.577 -26.334  11.492  1.00  0.00     0.187 HD
ENDROOT
BRANCH   1   4
HETATM    4  N2  UNL     1     -11.803 -27.153  14.650  1.00  0.00    -0.378 N 
ATOM      5  H2  UNL     1     -11.152 -26.612  15.221  1.00  0.00     0.160 HD
BRANCH   4   6
HETATM    6  C5  UNL     1     -12.337 -28.395  15.158  1.00  0.00     0.125 C 
BRANCH   6   7
HETATM    7  C4  UNL     1     -12.492 -29.429  14.087  1.00  0.00     0.061 C 
BRANCH   7   8
HETATM    8  C3  UNL     1     -13.855 -29.991  13.963  1.00  0.00    -0.025 A 
HETATM    9  C2  UNL     1     -14.341 -30.678  12.876  1.00  0.00     0.117 A 
HETATM   10  N1  UNL     1     -15.615 -31.159  12.824  1.00  0.00    -0.198 N 
HETATM   11  C1  UNL     1     -16.060 -31.880  11.634  1.00  0.00     0.174 C 
HETATM   12  C15 UNL     1     -16.445 -30.965  13.863  1.00  0.00     0.677 A 
HETATM   13  N7  UNL     1     -16.004 -30.298  14.942  1.00  0.00    -0.201 N 
HETATM   14  C14 UNL     1     -14.755 -29.812  15.023  1.00  0.00     0.114 A 
ATOM     15  H7  UNL     1     -16.640 -30.155  15.727  1.00  0.00     0.183 HD
BRANCH  12  16
HETATM   16  N8  UNL     1     -17.643 -31.438  13.771  1.00  0.00    -0.234 N 
ATOM     17  H82 UNL     1     -18.145 -31.509  12.886  1.00  0.00     0.174 HD
ATOM     18  H81 UNL     1     -18.098 -31.750  14.629  1.00  0.00     0.174 HD
ENDBRANCH  12  16
ENDBRANCH   7   8
ENDBRANCH   6   7
ENDBRANCH   4   6
ENDBRANCH   1   4
BRANCH   1  19
HETATM   19  C7  UNL     1     -13.542 -26.173  13.071  1.00  0.00     0.079 C 
BRANCH  19  20
HETATM   20  C8  UNL     1     -14.288 -27.082  12.122  1.00  0.00     0.027 C 
BRANCH  20  21
HETATM   21  C9  UNL     1     -15.068 -26.250  11.121  1.00  0.00     0.128 C 
BRANCH  21  22
HETATM   22  N3  UNL     1     -16.032 -27.017  10.398  1.00  0.00    -0.334 N 
HETATM   23  C10 UNL     1     -15.951 -28.457  10.264  1.00  0.00     0.129 C 
HETATM   24  C11 UNL     1     -16.182 -28.768   8.795  1.00  0.00     0.040 C 
HETATM   25  C12 UNL     1     -17.645 -28.444   8.517  1.00  0.00     0.126 C 
HETATM   26  N4  UNL     1     -17.943 -27.063   8.829  1.00  0.00    -0.343 N 
HETATM   27  C13 UNL     1     -17.130 -26.370   9.769  1.00  0.00     0.318 C 
ATOM     28  H4  UNL     1     -18.728 -26.590   8.379  1.00  0.00     0.164 HD
HETATM   29  O1  UNL     1     -17.343 -25.159  10.088  1.00  0.00    -0.247 OA
ENDBRANCH  21  22
ENDBRANCH  20  21
ENDBRANCH  19  20
ENDBRANCH   1  19
BRANCH   2  30
HETATM   30  N6  UNL     1     -10.010 -27.134  12.625  1.00  0.00    -0.344 N 
ATOM     31  H62 UNL     1      -9.236 -26.544  12.321  1.00  0.00     0.176 HD
ATOM     32  H61 UNL     1      -9.826 -28.033  13.070  1.00  0.00     0.176 HD
ENDBRANCH   2  30
TORSDOF 10
ENDMDL
MODEL 4
REMARK VINA RESULT: -6.921290730      2.268      5.932
REMARK  10 active torsions:
REMARK  status: ('A' for Active; 'I' for Inactive)
REMARK    1  A    between atoms: C3_4  and  C4_5 
REMARK    2  A    between atoms: C4_5  and  C5_6 
REMARK    3  A    between atoms: C5_6  and  N2_7 
REMARK    4  A    between atoms: N2_7  and  C6_9 
REMARK    5  A    between atoms: C6_9  and  C7_10 
REMARK    6  A    between atoms: C7_10  and  C8_11 
REMARK    7  A    between atoms: C8_11  and  C9_12 
REMARK    8  A    between atoms: C9_12  and  N3_13 
REMARK    9  A    between atoms: N5_21  and  N6_23 
REMARK   10  A    between atoms: C15_29  and  N8_30 
ROOT
HETATM    1  C6  UNL     1     -15.571 -31.348  13.394  1.00  0.00     0.091 C 
HETATM    2  N5  UNL     1     -15.768 -30.769  14.514  1.00  0.00    -0.296 N 
ATOM      3  H5  UNL     1     -14.992 -30.673  15.168  1.00  0.00     0.187 HD
ENDROOT
BRANCH   1   4
HETATM    4  N2  UNL     1     -16.664 -31.482  12.476  1.00  0.00    -0.378 N 
ATOM      5  H2  UNL     1     -17.463 -32.066  12.724  1.00  0.00     0.160 HD
BRANCH   4   6
HETATM    6  C5  UNL     1     -16.644 -30.801  11.203  1.00  0.00     0.125 C 
BRANCH   6   7
HETATM    7  C4  UNL     1     -16.534 -29.316  11.353  1.00  0.00     0.061 C 
BRANCH   7   8
HETATM    8  C3  UNL     1     -16.292 -28.582  10.091  1.00  0.00    -0.025 A 
HETATM    9  C2  UNL     1     -16.473 -29.087   8.825  1.00  0.00     0.117 A 
HETATM   10  N1  UNL     1     -16.218 -28.357   7.703  1.00  0.00    -0.198 N 
HETATM   11  C1  UNL     1     -16.435 -28.962   6.391  1.00  0.00     0.174 C 
HETATM   12  C15 UNL     1     -15.772 -27.095   7.814  1.00  0.00     0.677 A 
HETATM   13  N7  UNL     1     -15.584 -26.569   9.036  1.00  0.00    -0.201 N 
HETATM   14  C14 UNL     1     -15.826 -27.262  10.160  1.00  0.00     0.114 A 
ATOM     15  H7  UNL     1     -15.246 -25.609   9.112  1.00  0.00     0.183 HD
BRANCH  12  16
HETATM   16  N8  UNL     1     -15.544 -26.440   6.725  1.00  0.00    -0.234 N 
ATOM     17  H82 UNL     1     -15.128 -26.867   5.898  1.00  0.00     0.174 HD
ATOM     18  H81 UNL     1     -15.795 -25.452   6.703  1.00  0.00     0.174 HD
ENDBRANCH  12  16
ENDBRANCH   7   8
ENDBRANCH   6   7
ENDBRANCH   4   6
ENDBRANCH   1   4
BRANCH   1  19
HETATM   19  C7  UNL     1     -14.220 -31.861  13.078  1.00  0.00     0.079 C 
BRANCH  19  20
HETATM   20  C8  UNL     1     -13.350 -30.801  12.442  1.00  0.00     0.027 C 
BRANCH  20  21
HETATM   21  C9  UNL     1     -12.342 -30.289  13.455  1.00  0.00     0.128 C 
BRANCH  21  22
HETATM   22  N3  UNL     1     -12.473 -28.889  13.704  1.00  0.00    -0.334 N 
HETATM   23  C10 UNL     1     -13.611 -28.113  13.253  1.00  0.00     0.129 C 
HETATM   24  C11 UNL     1     -13.047 -26.857  12.609  1.00  0.00     0.040 C 
HETATM   25  C12 UNL     1     -12.452 -26.030  13.742  1.00  0.00     0.126 C 
HETATM   26  N4  UNL     1     -11.433 -26.773  14.452  1.00  0.00    -0.343 N 
HETATM   27  C13 UNL     1     -11.463 -28.196  14.424  1.00  0.00     0.318 C 
ATOM     28  H4  UNL     1     -10.703 -26.283  14.968  1.00  0.00     0.164 HD
HETATM   29  O1  UNL     1     -10.601 -28.906  15.031  1.00  0.00    -0.247 OA
ENDBRANCH  21  22
ENDBRANCH  20  21
ENDBRANCH  19  20
ENDBRANCH   1  19
BRANCH   2  30
HETATM   30  N6  UNL     1     -17.022 -30.266  14.865  1.00  0.00    -0.344 N 
ATOM     31  H62 UNL     1     -17.826 -30.890  14.805  1.00  0.00     0.176 HD
ATOM     32  H61 UNL     1     -17.143 -29.301  15.175  1.00  0.00     0.176 HD
ENDBRANCH   2  30
TORSDOF 10
ENDMDL
MODEL 5
REMARK VINA RESULT: -6.904828315      1.681      5.352
REMARK  10 active torsions:
REMARK  status: ('A' for Active; 'I' for Inactive)
REMARK    1  A    between atoms: C3_4  and  C4_5 
REMARK    2  A    between atoms: C4_5  and  C5_6 
REMARK    3  A    between atoms: C5_6  and  N2_7 
REMARK    4  A    between atoms: N2_7  and  C6_9 
REMARK    5  A    between atoms: C6_9  and  C7_10 
REMARK    6  A    between atoms: C7_10  and  C8_11 
REMARK    7  A    between atoms: C8_11  and  C9_12 
REMARK    8  A    between atoms: C9_12  and  N3_13 
REMARK    9  A    between atoms: N5_21  and  N6_23 
REMARK   10  A    between atoms: C15_29  and  N8_30 
ROOT
HETATM    1  C6  UNL     1     -15.652 -31.404  13.269  1.00  0.00     0.091 C 
HETATM    2  N5  UNL     1     -15.871 -30.834  14.390  1.00  0.00    -0.296 N 
ATOM      3  H5  UNL     1     -15.131 -30.814  15.091  1.00  0.00     0.187 HD
ENDROOT
BRANCH   1   4
HETATM    4  N2  UNL     1     -16.694 -31.432  12.285  1.00  0.00    -0.378 N 
ATOM      5  H2  UNL     1     -17.640 -31.151  12.543  1.00  0.00     0.160 HD
BRANCH   4   6
HETATM    6  C5  UNL     1     -16.417 -31.854  10.932  1.00  0.00     0.125 C 
BRANCH   6   7
HETATM    7  C4  UNL     1     -17.329 -31.208   9.936  1.00  0.00     0.061 C 
BRANCH   7   8
HETATM    8  C3  UNL     1     -16.808 -29.958   9.340  1.00  0.00    -0.025 A 
HETATM    9  C2  UNL     1     -17.112 -28.685   9.760  1.00  0.00     0.117 A 
HETATM   10  N1  UNL     1     -16.604 -27.574   9.155  1.00  0.00    -0.198 N 
HETATM   11  C1  UNL     1     -16.974 -26.253   9.657  1.00  0.00     0.174 C 
HETATM   12  C15 UNL     1     -15.773 -27.704   8.107  1.00  0.00     0.677 A 
HETATM   13  N7  UNL     1     -15.453 -28.934   7.671  1.00  0.00    -0.201 N 
HETATM   14  C14 UNL     1     -15.938 -30.047   8.245  1.00  0.00     0.114 A 
ATOM     15  H7  UNL     1     -14.821 -29.026   6.875  1.00  0.00     0.183 HD
BRANCH  12  16
HETATM   16  N8  UNL     1     -15.315 -26.626   7.565  1.00  0.00    -0.234 N 
ATOM     17  H82 UNL     1     -15.243 -25.741   8.066  1.00  0.00     0.174 HD
ATOM     18  H81 UNL     1     -15.016 -26.674   6.591  1.00  0.00     0.174 HD
ENDBRANCH  12  16
ENDBRANCH   7   8
ENDBRANCH   6   7
ENDBRANCH   4   6
ENDBRANCH   1   4
BRANCH   1  19
HETATM   19  C7  UNL     1     -14.329 -32.017  13.021  1.00  0.00     0.079 C 
BRANCH  19  20
HETATM   20  C8  UNL     1     -13.218 -30.993  13.057  1.00  0.00     0.027 C 
BRANCH  20  21
HETATM   21  C9  UNL     1     -13.450 -29.947  11.983  1.00  0.00     0.128 C 
BRANCH  21  22
HETATM   22  N3  UNL     1     -13.296 -28.612  12.470  1.00  0.00    -0.334 N 
HETATM   23  C10 UNL     1     -12.008 -27.958  12.575  1.00  0.00     0.129 C 
HETATM   24  C11 UNL     1     -11.956 -27.325  13.955  1.00  0.00     0.040 C 
HETATM   25  C12 UNL     1     -12.961 -26.179  13.935  1.00  0.00     0.126 C 
HETATM   26  N4  UNL     1     -14.289 -26.655  13.610  1.00  0.00    -0.343 N 
HETATM   27  C13 UNL     1     -14.435 -27.867  12.877  1.00  0.00     0.318 C 
ATOM     28  H4  UNL     1     -15.112 -26.127  13.902  1.00  0.00     0.164 HD
HETATM   29  O1  UNL     1     -15.572 -28.334  12.557  1.00  0.00    -0.247 OA
ENDBRANCH  21  22
ENDBRANCH  20  21
ENDBRANCH  19  20
ENDBRANCH   1  19
BRANCH   2  30
HETATM   30  N6  UNL     1     -17.100 -30.239  14.678  1.00  0.00    -0.344 N 
ATOM     31  H62 UNL     1     -17.150 -29.220  14.697  1.00  0.00     0.176 HD
ATOM     32  H61 UNL     1     -17.933 -30.797  14.866  1.00  0.00     0.176 HD
ENDBRANCH   2  30
TORSDOF 10
ENDMDL
