MODEL 1
REMARK VINA RESULT: -6.636089921      0.000      0.000
REMARK  11 active torsions:
REMARK  status: ('A' for Active; 'I' for Inactive)
REMARK    1  A    between atoms: N1_1  and  C1_4 
REMARK    2  A    between atoms: C2_7  and  C3_8 
REMARK    3  A    between atoms: C3_8  and  C4_9 
REMARK    4  A    between atoms: C4_9  and  C5_10 
REMARK    5  A    between atoms: C5_10  and  C6_11 
REMARK    6  A    between atoms: C6_11  and  C7_12 
REMARK    7  A    between atoms: C7_12  and  C8_13 
REMARK    8  A    between atoms: C8_13  and  C9_14 
REMARK    9  A    between atoms: C9_14  and  O1_15 
REMARK   10  A    between atoms: C10_17  and  C11_18 
REMARK   11  A    between atoms: C11_18  and  N3_19 
ROOT
HETATM    1  C1  UNL     1     -14.821 -26.637  11.680  1.00  0.00     0.676 A 
HETATM    2  N2  UNL     1     -14.626 -27.331  12.807  1.00  0.00    -0.190 N 
ATOM      3  H2  UNL     1     -14.302 -26.945  13.693  1.00  0.00     0.184 HD
HETATM    4  C2  UNL     1     -14.933 -28.641  12.574  1.00  0.00     0.074 A 
HETATM    5  C10 UNL     1     -15.326 -28.735  11.257  1.00  0.00     0.091 A 
HETATM    6  N5  UNL     1     -15.246 -27.496  10.746  1.00  0.00    -0.189 N 
ATOM      7  H5  UNL     1     -15.475 -27.246   9.784  1.00  0.00     0.184 HD
ENDROOT
BRANCH   5   8
HETATM    8  C11 UNL     1     -15.709 -29.808  10.606  1.00  0.00     0.119 C 
BRANCH   8   9
HETATM    9  N3  UNL     1     -16.402 -29.742   9.367  1.00  0.00    -0.373 N 
HETATM   10  C12 UNL     1     -16.019 -29.724   7.970  1.00  0.00     0.134 C 
HETATM   11  C13 UNL     1     -17.382 -30.286   7.642  1.00  0.00     0.059 C 
HETATM   12  C14 UNL     1     -17.974 -29.699   6.441  1.00  0.00    -0.001 C 
HETATM   13  C17 UNL     1     -17.781 -29.666   8.934  1.00  0.00     0.185 C 
HETATM   14  C15 UNL     1     -18.647 -28.563   6.395  1.00  0.00     0.087 C 
HETATM   15  N4  UNL     1     -18.853 -27.796   7.576  1.00  0.00    -0.336 N 
HETATM   16  C16 UNL     1     -18.316 -28.290   8.780  1.00  0.00     0.245 C 
ATOM     17  H4  UNL     1     -19.372 -26.918   7.551  1.00  0.00     0.168 HD
HETATM   18  O2  UNL     1     -18.283 -27.537   9.785  1.00  0.00    -0.271 OA
ENDBRANCH   8   9
ENDBRANCH   5   8
BRANCH   4  19
HETATM   19  C3  UNL     1     -14.882 -29.662  13.409  1.00  0.00     0.006 C 
BRANCH  19  20
HETATM   20  C4  UNL     1     -13.641 -30.018  14.127  1.00  0.00     0.029 C 
BRANCH  20  21
HETATM   21  C5  UNL     1     -12.458 -30.206  13.174  1.00  0.00     0.004 C 
BRANCH  21  22
HETATM   22  C6  UNL     1     -11.206 -29.740  13.859  1.00  0.00     0.000 C 
BRANCH  22  23
HETATM   23  C7  UNL     1     -11.143 -28.263  14.046  1.00  0.00     0.002 C 
BRANCH  23  24
HETATM   24  C8  UNL     1     -11.055 -27.503  12.748  1.00  0.00     0.026 C 
BRANCH  24  25
HETATM   25  C9  UNL     1     -11.374 -26.049  12.966  1.00  0.00     0.164 C 
BRANCH  25  26
HETATM   26  O1  UNL     1     -11.435 -25.389  11.718  1.00  0.00    -0.401 OA
ATOM     27  H1  UNL     1     -10.724 -24.760  11.657  1.00  0.00     0.209 HD
ENDBRANCH  25  26
ENDBRANCH  24  25
ENDBRANCH  23  24
ENDBRANCH  22  23
ENDBRANCH  21  22
ENDBRANCH  20  21
ENDBRANCH  19  20
ENDBRANCH   4  19
BRANCH   1  28
HETATM   28  N1  UNL     1     -14.638 -25.387  11.519  1.00  0.00    -0.234 N 
ATOM     29  H12 UNL     1     -15.144 -24.641  11.996  1.00  0.00     0.174 HD
ATOM     30  H11 UNL     1     -13.962 -24.949  10.893  1.00  0.00     0.174 HD
ENDBRANCH   1  28
TORSDOF 11
ENDMDL
MODEL 2
REMARK VINA RESULT: -6.582241118      2.458      3.399
REMARK  11 active torsions:
REMARK  status: ('A' for Active; 'I' for Inactive)
REMARK    1  A    between atoms: N1_1  and  C1_4 
REMARK    2  A    between atoms: C2_7  and  C3_8 
REMARK    3  A    between atoms: C3_8  and  C4_9 
REMARK    4  A    between atoms: C4_9  and  C5_10 
REMARK    5  A    between atoms: C5_10  and  C6_11 
REMARK    6  A    between atoms: C6_11  and  C7_12 
REMARK    7  A    between atoms: C7_12  and  C8_13 
REMARK    8  A    between atoms: C8_13  and  C9_14 
REMARK    9  A    between atoms: C9_14  and  O1_15 
REMARK   10  A    between atoms: C10_17  and  C11_18 
REMARK   11  A    between atoms: C11_18  and  N3_19 
ROOT
HETATM    1  C1  UNL     1     -15.233 -30.325  14.757  1.00  0.00     0.676 A 
HETATM    2  N2  UNL     1     -14.056 -29.727  14.540  1.00  0.00    -0.190 N 
ATOM      3  H2  UNL     1     -13.676 -28.951  15.081  1.00  0.00     0.184 HD
HETATM    4  C2  UNL     1     -13.447 -30.329  13.476  1.00  0.00     0.074 A 
HETATM    5  C10 UNL     1     -14.292 -31.325  13.038  1.00  0.00     0.091 A 
HETATM    6  N5  UNL     1     -15.368 -31.293  13.842  1.00  0.00    -0.189 N 
ATOM      7  H5  UNL     1     -16.172 -31.915  13.766  1.00  0.00     0.184 HD
ENDROOT
BRANCH   5   8
HETATM    8  C11 UNL     1     -14.109 -32.155  12.039  1.00  0.00     0.119 C 
BRANCH   8   9
HETATM    9  N3  UNL     1     -14.785 -32.016  10.797  1.00  0.00    -0.373 N 
HETATM   10  C12 UNL     1     -14.388 -31.733   9.432  1.00  0.00     0.134 C 
HETATM   11  C13 UNL     1     -15.640 -32.446   8.976  1.00  0.00     0.059 C 
HETATM   12  C14 UNL     1     -16.298 -31.786   7.848  1.00  0.00    -0.001 C 
HETATM   13  C17 UNL     1     -16.151 -32.091  10.326  1.00  0.00     0.185 C 
HETATM   14  C15 UNL     1     -17.142 -30.774   7.940  1.00  0.00     0.087 C 
HETATM   15  N4  UNL     1     -17.485 -30.230   9.210  1.00  0.00    -0.336 N 
HETATM   16  C16 UNL     1     -16.896 -30.807  10.350  1.00  0.00     0.245 C 
ATOM     17  H4  UNL     1     -18.137 -29.449   9.291  1.00  0.00     0.168 HD
HETATM   18  O2  UNL     1     -16.998 -30.214  11.453  1.00  0.00    -0.271 OA
ENDBRANCH   8   9
ENDBRANCH   5   8
BRANCH   4  19
HETATM   19  C3  UNL     1     -12.278 -30.054  12.929  1.00  0.00     0.006 C 
BRANCH  19  20
HETATM   20  C4  UNL     1     -11.060 -29.872  13.745  1.00  0.00     0.029 C 
BRANCH  20  21
HETATM   21  C5  UNL     1     -10.765 -28.395  14.017  1.00  0.00     0.004 C 
BRANCH  21  22
HETATM   22  C6  UNL     1     -10.918 -27.628  12.736  1.00  0.00     0.000 C 
BRANCH  22  23
HETATM   23  C7  UNL     1     -11.627 -26.327  12.902  1.00  0.00     0.002 C 
BRANCH  23  24
HETATM   24  C8  UNL     1     -13.119 -26.436  12.720  1.00  0.00     0.026 C 
BRANCH  24  25
HETATM   25  C9  UNL     1     -13.837 -25.927  13.940  1.00  0.00     0.164 C 
BRANCH  25  26
HETATM   26  O1  UNL     1     -13.870 -26.941  14.924  1.00  0.00    -0.401 OA
ATOM     27  H1  UNL     1     -13.319 -26.690  15.656  1.00  0.00     0.209 HD
ENDBRANCH  25  26
ENDBRANCH  24  25
ENDBRANCH  23  24
ENDBRANCH  22  23
ENDBRANCH  21  22
ENDBRANCH  20  21
ENDBRANCH  19  20
ENDBRANCH   4  19
BRANCH   1  28
HETATM   28  N1  UNL     1     -16.075 -30.032  15.666  1.00  0.00    -0.234 N 
ATOM     29  H12 UNL     1     -16.143 -29.139  16.155  1.00  0.00     0.174 HD
ATOM     30  H11 UNL     1     -16.802 -30.643  16.038  1.00  0.00     0.174 HD
ENDBRANCH   1  28
TORSDOF 11
ENDMDL
MODEL 3
REMARK VINA RESULT: -6.523854761      2.034      2.761
REMARK  11 active torsions:
REMARK  status: ('A' for Active; 'I' for Inactive)
REMARK    1  A    between atoms: N1_1  and  C1_4 
REMARK    2  A    between atoms: C2_7  and  C3_8 
REMARK    3  A    between atoms: C3_8  and  C4_9 
REMARK    4  A    between atoms: C4_9  and  C5_10 
REMARK    5  A    between atoms: C5_10  and  C6_11 
REMARK    6  A    between atoms: C6_11  and  C7_12 
REMARK    7  A    between atoms: C7_12  and  C8_13 
REMARK    8  A    between atoms: C8_13  and  C9_14 
REMARK    9  A    between atoms: C9_14  and  O1_15 
REMARK   10  A    between atoms: C10_17  and  C11_18 
REMARK   11  A    between atoms: C11_18  and  N3_19 
ROOT
HETATM    1  C1  UNL     1     -16.343 -29.942  13.755  1.00  0.00     0.676 A 
HETATM    2  N2  UNL     1     -15.094 -30.415  13.663  1.00  0.00    -0.190 N 
ATOM      3  H2  UNL     1     -14.705 -31.177  14.219  1.00  0.00     0.184 HD
HETATM    4  C2  UNL     1     -14.428 -29.709  12.703  1.00  0.00     0.074 A 
HETATM    5  C10 UNL     1     -15.311 -28.777  12.202  1.00  0.00     0.091 A 
HETATM    6  N5  UNL     1     -16.465 -28.950  12.866  1.00  0.00    -0.189 N 
ATOM      7  H5  UNL     1     -17.313 -28.405  12.714  1.00  0.00     0.184 HD
ENDROOT
BRANCH   5   8
HETATM    8  C11 UNL     1     -15.095 -27.887  11.263  1.00  0.00     0.119 C 
BRANCH   8   9
HETATM    9  N3  UNL     1     -16.001 -27.675  10.189  1.00  0.00    -0.373 N 
HETATM   10  C12 UNL     1     -16.926 -26.624   9.812  1.00  0.00     0.134 C 
HETATM   11  C13 UNL     1     -16.791 -27.091   8.381  1.00  0.00     0.059 C 
HETATM   12  C14 UNL     1     -18.056 -27.074   7.649  1.00  0.00    -0.001 C 
HETATM   13  C17 UNL     1     -16.413 -28.389   9.000  1.00  0.00     0.185 C 
HETATM   14  C15 UNL     1     -18.966 -28.032   7.670  1.00  0.00     0.087 C 
HETATM   15  N4  UNL     1     -18.762 -29.207   8.448  1.00  0.00    -0.336 N 
HETATM   16  C16 UNL     1     -17.567 -29.304   9.185  1.00  0.00     0.245 C 
ATOM     17  H4  UNL     1     -19.458 -29.953   8.470  1.00  0.00     0.168 HD
HETATM   18  O2  UNL     1     -17.458 -30.210  10.049  1.00  0.00    -0.271 OA
ENDBRANCH   8   9
ENDBRANCH   5   8
BRANCH   4  19
HETATM   19  C3  UNL     1     -13.181 -29.846  12.293  1.00  0.00     0.006 C 
BRANCH  19  20
HETATM   20  C4  UNL     1     -12.177 -30.584  13.088  1.00  0.00     0.029 C 
BRANCH  20  21
HETATM   21  C5  UNL     1     -11.253 -29.642  13.864  1.00  0.00     0.004 C 
BRANCH  21  22
HETATM   22  C6  UNL     1     -11.136 -28.349  13.110  1.00  0.00     0.000 C 
BRANCH  22  23
HETATM   23  C7  UNL     1     -11.512 -27.153  13.916  1.00  0.00     0.002 C 
BRANCH  23  24
HETATM   24  C8  UNL     1     -12.449 -26.221  13.193  1.00  0.00     0.026 C 
BRANCH  24  25
HETATM   25  C9  UNL     1     -13.702 -26.006  13.998  1.00  0.00     0.164 C 
BRANCH  25  26
HETATM   26  O1  UNL     1     -13.842 -27.052  14.938  1.00  0.00    -0.401 OA
ATOM     27  H1  UNL     1     -14.397 -27.733  14.574  1.00  0.00     0.209 HD
ENDBRANCH  25  26
ENDBRANCH  24  25
ENDBRANCH  23  24
ENDBRANCH  22  23
ENDBRANCH  21  22
ENDBRANCH  20  21
ENDBRANCH  19  20
ENDBRANCH   4  19
BRANCH   1  28
HETATM   28  N1  UNL     1     -17.253 -30.357  14.543  1.00  0.00    -0.234 N 
ATOM     29  H12 UNL     1     -17.954 -31.067  14.329  1.00  0.00     0.174 HD
ATOM     30  H11 UNL     1     -17.416 -30.043  15.500  1.00  0.00     0.174 HD
ENDBRANCH   1  28
TORSDOF 11
ENDMDL
MODEL 4
REMARK VINA RESULT: -6.520727718      2.106      2.783
REMARK  11 active torsions:
REMARK  status: ('A' for Active; 'I' for Inactive)
REMARK    1  A    between atoms: N1_1  and  C1_4 
REMARK    2  A    between atoms: C2_7  and  C3_8 
REMARK    3  A    between atoms: C3_8  and  C4_9 
REMARK    4  A    between atoms: C4_9  and  C5_10 
REMARK    5  A    between atoms: C5_10  and  C6_11 
REMARK    6  A    between atoms: C6_11  and  C7_12 
REMARK    7  A    between atoms: C7_12  and  C8_13 
REMARK    8  A    between atoms: C8_13  and  C9_14 
REMARK    9  A    between atoms: C9_14  and  O1_15 
REMARK   10  A    between atoms: C10_17  and  C11_18 
REMARK   11  A    between atoms: C11_18  and  N3_19 
ROOT
HETATM    1  C1  UNL     1     -16.907 -30.885  13.796  1.00  0.00     0.676 A 
HETATM    2  N2  UNL     1     -15.733 -30.757  14.425  1.00  0.00    -0.190 N 
ATOM      3  H2  UNL     1     -15.492 -31.178  15.323  1.00  0.00     0.184 HD
HETATM    4  C2  UNL     1     -14.912 -29.971  13.668  1.00  0.00     0.074 A 
HETATM    5  C10 UNL     1     -15.621 -29.615  12.542  1.00  0.00     0.091 A 
HETATM    6  N5  UNL     1     -16.830 -30.189  12.655  1.00  0.00    -0.189 N 
ATOM      7  H5  UNL     1     -17.581 -30.107  11.971  1.00  0.00     0.184 HD
ENDROOT
BRANCH   5   8
HETATM    8  C11 UNL     1     -15.222 -28.865  11.543  1.00  0.00     0.119 C 
BRANCH   8   9
HETATM    9  N3  UNL     1     -16.048 -28.582  10.422  1.00  0.00    -0.373 N 
HETATM   10  C12 UNL     1     -16.131 -29.057   9.055  1.00  0.00     0.134 C 
HETATM   11  C13 UNL     1     -17.587 -28.653   9.058  1.00  0.00     0.059 C 
HETATM   12  C14 UNL     1     -18.017 -28.041   7.801  1.00  0.00    -0.001 C 
HETATM   13  C17 UNL     1     -17.166 -27.711  10.129  1.00  0.00     0.185 C 
HETATM   14  C15 UNL     1     -17.866 -26.770   7.477  1.00  0.00     0.087 C 
HETATM   15  N4  UNL     1     -17.243 -25.862   8.379  1.00  0.00    -0.336 N 
HETATM   16  C16 UNL     1     -16.799 -26.368   9.615  1.00  0.00     0.245 C 
ATOM     17  H4  UNL     1     -17.122 -24.877   8.138  1.00  0.00     0.168 HD
HETATM   18  O2  UNL     1     -16.051 -25.656  10.330  1.00  0.00    -0.271 OA
ENDBRANCH   8   9
ENDBRANCH   5   8
BRANCH   4  19
HETATM   19  C3  UNL     1     -13.672 -29.593  13.915  1.00  0.00     0.006 C 
BRANCH  19  20
HETATM   20  C4  UNL     1     -12.513 -30.283  13.310  1.00  0.00     0.029 C 
BRANCH  20  21
HETATM   21  C5  UNL     1     -11.183 -29.757  13.855  1.00  0.00     0.004 C 
BRANCH  21  22
HETATM   22  C6  UNL     1     -11.272 -28.264  13.991  1.00  0.00     0.000 C 
BRANCH  22  23
HETATM   23  C7  UNL     1     -10.877 -27.529  12.756  1.00  0.00     0.002 C 
BRANCH  23  24
HETATM   24  C8  UNL     1     -11.441 -26.134  12.690  1.00  0.00     0.026 C 
BRANCH  24  25
HETATM   25  C9  UNL     1     -12.910 -26.144  13.014  1.00  0.00     0.164 C 
BRANCH  25  26
HETATM   26  O1  UNL     1     -13.648 -25.782  11.863  1.00  0.00    -0.401 OA
ATOM     27  H1  UNL     1     -14.541 -26.094  11.949  1.00  0.00     0.209 HD
ENDBRANCH  25  26
ENDBRANCH  24  25
ENDBRANCH  23  24
ENDBRANCH  22  23
ENDBRANCH  21  22
ENDBRANCH  20  21
ENDBRANCH  19  20
ENDBRANCH   4  19
BRANCH   1  28
HETATM   28  N1  UNL     1     -17.916 -31.546  14.202  1.00  0.00    -0.234 N 
ATOM     29  H12 UNL     1     -17.971 -32.561  14.291  1.00  0.00     0.174 HD
ATOM     30  H11 UNL     1     -18.813 -31.162  14.498  1.00  0.00     0.174 HD
ENDBRANCH   1  28
TORSDOF 11
ENDMDL
MODEL 5
REMARK VINA RESULT: -6.398002019      2.069      2.784
REMARK  11 active torsions:
REMARK  status: ('A' for Active; 'I' for Inactive)
REMARK    1  A    between atoms: N1_1  and  C1_4 
REMARK    2  A    between atoms: C2_7  and  C3_8 
REMARK    3  A    between atoms: C3_8  and  C4_9 
REMARK    4  A    between atoms: C4_9  and  C5_10 
REMARK    5  A    between atoms: C5_10  and  C6_11 
REMARK    6  A    between atoms: C6_11  and  C7_12 
REMARK    7  A    between atoms: C7_12  and  C8_13 
REMARK    8  A    between atoms: C8_13  and  C9_14 
REMARK    9  A    between atoms: C9_14  and  O1_15 
REMARK   10  A    between atoms: C10_17  and  C11_18 
REMARK   11  A    between atoms: C11_18  and  N3_19 
ROOT
HETATM    1  C1  UNL     1     -16.162 -29.918  14.156  1.00  0.00     0.676 A 
HETATM    2  N2  UNL     1     -14.881 -30.287  14.036  1.00  0.00    -0.190 N 
ATOM      3  H2  UNL     1     -14.359 -30.846  14.710  1.00  0.00     0.184 HD
HETATM    4  C2  UNL     1     -14.390 -29.791  12.862  1.00  0.00     0.074 A 
HETATM    5  C10 UNL     1     -15.415 -29.098  12.256  1.00  0.00     0.091 A 
HETATM    6  N5  UNL     1     -16.477 -29.198  13.072  1.00  0.00    -0.189 N 
ATOM      7  H5  UNL     1     -17.392 -28.785  12.893  1.00  0.00     0.184 HD
ENDROOT
BRANCH   5   8
HETATM    8  C11 UNL     1     -15.389 -28.459  11.111  1.00  0.00     0.119 C 
BRANCH   8   9
HETATM    9  N3  UNL     1     -16.050 -28.945   9.950  1.00  0.00    -0.373 N 
HETATM   10  C12 UNL     1     -16.829 -28.350   8.882  1.00  0.00     0.134 C 
HETATM   11  C13 UNL     1     -16.431 -29.520   8.012  1.00  0.00     0.059 C 
HETATM   12  C14 UNL     1     -17.521 -30.006   7.168  1.00  0.00    -0.001 C 
HETATM   13  C17 UNL     1     -16.248 -30.226   9.308  1.00  0.00     0.185 C 
HETATM   14  C15 UNL     1     -18.461 -30.855   7.543  1.00  0.00     0.087 C 
HETATM   15  N4  UNL     1     -18.474 -31.383   8.865  1.00  0.00    -0.336 N 
HETATM   16  C16 UNL     1     -17.457 -30.968   9.745  1.00  0.00     0.245 C 
ATOM     17  H4  UNL     1     -19.195 -32.041   9.164  1.00  0.00     0.168 HD
HETATM   18  O2  UNL     1     -17.568 -31.232  10.969  1.00  0.00    -0.271 OA
ENDBRANCH   8   9
ENDBRANCH   5   8
BRANCH   4  19
HETATM   19  C3  UNL     1     -13.178 -29.917  12.355  1.00  0.00     0.006 C 
BRANCH  19  20
HETATM   20  C4  UNL     1     -12.069 -30.513  13.129  1.00  0.00     0.029 C 
BRANCH  20  21
HETATM   21  C5  UNL     1     -11.238 -29.451  13.853  1.00  0.00     0.004 C 
BRANCH  21  22
HETATM   22  C6  UNL     1     -11.112 -28.247  12.965  1.00  0.00     0.000 C 
BRANCH  22  23
HETATM   23  C7  UNL     1     -11.540 -26.978  13.618  1.00  0.00     0.002 C 
BRANCH  23  24
HETATM   24  C8  UNL     1     -12.714 -26.325  12.935  1.00  0.00     0.026 C 
BRANCH  24  25
HETATM   25  C9  UNL     1     -13.841 -26.117  13.909  1.00  0.00     0.164 C 
BRANCH  25  26
HETATM   26  O1  UNL     1     -13.836 -27.159  14.864  1.00  0.00    -0.401 OA
ATOM     27  H1  UNL     1     -13.189 -27.811  14.619  1.00  0.00     0.209 HD
ENDBRANCH  25  26
ENDBRANCH  24  25
ENDBRANCH  23  24
ENDBRANCH  22  23
ENDBRANCH  21  22
ENDBRANCH  20  21
ENDBRANCH  19  20
ENDBRANCH   4  19
BRANCH   1  28
HETATM   28  N1  UNL     1     -16.943 -30.198  15.121  1.00  0.00    -0.234 N 
ATOM     29  H12 UNL     1     -17.359 -31.110  15.311  1.00  0.00     0.174 HD
ATOM     30  H11 UNL     1     -17.267 -29.555  15.845  1.00  0.00     0.174 HD
ENDBRANCH   1  28
TORSDOF 11
ENDMDL
