MODEL 1
REMARK VINA RESULT: -6.791635237      0.000      0.000
REMARK  4 active torsions:
REMARK  status: ('A' for Active; 'I' for Inactive)
REMARK    1  A    between atoms: N1_1  and  C1_4 
REMARK    2  A    between atoms: C6_15  and  C7_16 
REMARK    3  A    between atoms: C7_16  and  N5_17 
REMARK    4  A    between atoms: C7_16  and  N6_21 
ROOT
HETATM    1  C1  UNL     1     -21.945 -28.084  -0.899  1.00  0.00     0.116 A 
HETATM    2  C2  UNL     1     -22.497 -27.068  -0.151  1.00  0.00     0.138 A 
HETATM    3  N2  UNL     1     -23.626 -26.486  -0.578  1.00  0.00    -0.346 N 
ATOM      4  H2  UNL     1     -24.036 -25.732  -0.025  1.00  0.00     0.167 HD
HETATM    5  C3  UNL     1     -24.240 -26.873  -1.728  1.00  0.00     0.146 A 
HETATM    6  C4  UNL     1     -23.671 -27.898  -2.470  1.00  0.00     0.147 A 
HETATM    7  N3  UNL     1     -22.540 -28.464  -2.022  1.00  0.00    -0.325 N 
ATOM      8  H3  UNL     1     -22.121 -29.218  -2.566  1.00  0.00     0.169 HD
HETATM    9  N4  UNL     1     -24.233 -28.281  -3.562  1.00  0.00    -0.371 N 
ATOM     10  H4  UNL     1     -23.790 -29.038  -4.084  1.00  0.00     0.161 HD
HETATM   11  C5  UNL     1     -25.422 -27.729  -4.091  1.00  0.00     0.150 A 
HETATM   12  C6  UNL     1     -26.013 -26.647  -3.296  1.00  0.00     0.158 A 
HETATM   13  N7  UNL     1     -25.314 -26.311  -2.121  1.00  0.00    -0.363 N 
ATOM     14  H7  UNL     1     -25.694 -25.562  -1.542  1.00  0.00     0.161 HD
ENDROOT
BRANCH  12  15
HETATM   15  C7  UNL     1     -26.310 -25.397  -4.140  1.00  0.00     0.401 C 
BRANCH  15  16
HETATM   16  N5  UNL     1     -25.305 -25.392  -5.192  1.00  0.00    -0.048 N 
ATOM     17  H53 UNL     1     -25.061 -26.322  -5.531  1.00  0.00     0.276 HD
ATOM     18  H52 UNL     1     -25.644 -25.024  -6.081  1.00  0.00     0.276 HD
ATOM     19  H51 UNL     1     -24.514 -24.874  -4.808  1.00  0.00     0.276 HD
ENDBRANCH  15  16
BRANCH  15  20
HETATM   20  N6  UNL     1     -26.150 -24.202  -3.371  1.00  0.00    -0.048 N 
ATOM     21  H63 UNL     1     -26.454 -24.334  -2.406  1.00  0.00     0.276 HD
ATOM     22  H62 UNL     1     -25.167 -23.996  -3.199  1.00  0.00     0.276 HD
ATOM     23  H61 UNL     1     -26.627 -23.414  -3.808  1.00  0.00     0.276 HD
ENDBRANCH  15  20
ENDBRANCH  12  15
BRANCH   1  24
HETATM   24  N1  UNL     1     -20.842 -28.641  -0.467  1.00  0.00    -0.384 N 
ATOM     25  H12 UNL     1     -19.948 -28.149  -0.460  1.00  0.00     0.157 HD
ATOM     26  H11 UNL     1     -20.889 -29.601  -0.127  1.00  0.00     0.157 HD
ENDBRANCH   1  24
TORSDOF 4
ENDMDL
MODEL 2
REMARK VINA RESULT: -6.639682300      1.749      4.556
REMARK  4 active torsions:
REMARK  status: ('A' for Active; 'I' for Inactive)
REMARK    1  A    between atoms: N1_1  and  C1_4 
REMARK    2  A    between atoms: C6_15  and  C7_16 
REMARK    3  A    between atoms: C7_16  and  N5_17 
REMARK    4  A    between atoms: C7_16  and  N6_21 
ROOT
HETATM    1  C1  UNL     1     -25.778 -26.519  -5.151  1.00  0.00     0.116 A 
HETATM    2  C2  UNL     1     -26.086 -25.389  -4.427  1.00  0.00     0.138 A 
HETATM    3  N2  UNL     1     -25.757 -25.338  -3.129  1.00  0.00    -0.346 N 
ATOM      4  H2  UNL     1     -25.985 -24.502  -2.591  1.00  0.00     0.167 HD
HETATM    5  C3  UNL     1     -25.127 -26.373  -2.510  1.00  0.00     0.146 A 
HETATM    6  C4  UNL     1     -24.825 -27.504  -3.254  1.00  0.00     0.147 A 
HETATM    7  N3  UNL     1     -25.165 -27.531  -4.551  1.00  0.00    -0.325 N 
ATOM      8  H3  UNL     1     -24.944 -28.362  -5.098  1.00  0.00     0.169 HD
HETATM    9  N4  UNL     1     -24.230 -28.496  -2.689  1.00  0.00    -0.371 N 
ATOM     10  H4  UNL     1     -24.021 -29.313  -3.264  1.00  0.00     0.161 HD
HETATM   11  C5  UNL     1     -23.845 -28.535  -1.330  1.00  0.00     0.150 A 
HETATM   12  C6  UNL     1     -24.170 -27.332  -0.556  1.00  0.00     0.158 A 
HETATM   13  N7  UNL     1     -24.820 -26.310  -1.275  1.00  0.00    -0.363 N 
ATOM     14  H7  UNL     1     -25.063 -25.457  -0.770  1.00  0.00     0.161 HD
ENDROOT
BRANCH  12  15
HETATM   15  C7  UNL     1     -24.923 -27.659   0.744  1.00  0.00     0.401 C 
BRANCH  15  16
HETATM   16  N5  UNL     1     -25.967 -28.597   0.361  1.00  0.00    -0.048 N 
ATOM     17  H53 UNL     1     -26.562 -28.262  -0.397  1.00  0.00     0.276 HD
ATOM     18  H52 UNL     1     -25.617 -29.427  -0.117  1.00  0.00     0.276 HD
ATOM     19  H51 UNL     1     -26.475 -28.802   1.221  1.00  0.00     0.276 HD
ENDBRANCH  15  16
BRANCH  15  20
HETATM   20  N6  UNL     1     -25.552 -26.495   1.285  1.00  0.00    -0.048 N 
ATOM     21  H63 UNL     1     -26.505 -26.388   0.938  1.00  0.00     0.276 HD
ATOM     22  H62 UNL     1     -25.759 -26.608   2.277  1.00  0.00     0.276 HD
ATOM     23  H61 UNL     1     -24.995 -25.658   1.112  1.00  0.00     0.276 HD
ENDBRANCH  15  20
ENDBRANCH  12  15
BRANCH   1  24
HETATM   24  N1  UNL     1     -26.108 -26.551  -6.417  1.00  0.00    -0.384 N 
ATOM     25  H12 UNL     1     -27.072 -26.446  -6.734  1.00  0.00     0.157 HD
ATOM     26  H11 UNL     1     -25.366 -26.685  -7.105  1.00  0.00     0.157 HD
ENDBRANCH   1  24
TORSDOF 4
ENDMDL
MODEL 3
REMARK VINA RESULT: -6.413780611      1.458      1.726
REMARK  4 active torsions:
REMARK  status: ('A' for Active; 'I' for Inactive)
REMARK    1  A    between atoms: N1_1  and  C1_4 
REMARK    2  A    between atoms: C6_15  and  C7_16 
REMARK    3  A    between atoms: C7_16  and  N5_17 
REMARK    4  A    between atoms: C7_16  and  N6_21 
ROOT
HETATM    1  C1  UNL     1     -23.320 -28.331   0.831  1.00  0.00     0.116 A 
HETATM    2  C2  UNL     1     -24.267 -27.381   1.144  1.00  0.00     0.138 A 
HETATM    3  N2  UNL     1     -25.019 -26.865   0.163  1.00  0.00    -0.346 N 
ATOM      4  H2  UNL     1     -25.721 -26.160   0.392  1.00  0.00     0.167 HD
HETATM    5  C3  UNL     1     -24.872 -27.254  -1.133  1.00  0.00     0.146 A 
HETATM    6  C4  UNL     1     -23.912 -28.211  -1.430  1.00  0.00     0.147 A 
HETATM    7  N3  UNL     1     -23.172 -28.712  -0.430  1.00  0.00    -0.325 N 
ATOM      8  H3  UNL     1     -22.467 -29.416  -0.649  1.00  0.00     0.169 HD
HETATM    9  N4  UNL     1     -23.754 -28.595  -2.649  1.00  0.00    -0.371 N 
ATOM     10  H4  UNL     1     -23.041 -29.300  -2.835  1.00  0.00     0.161 HD
HETATM   11  C5  UNL     1     -24.497 -28.109  -3.748  1.00  0.00     0.150 A 
HETATM   12  C6  UNL     1     -25.508 -27.098  -3.418  1.00  0.00     0.158 A 
HETATM   13  N7  UNL     1     -25.594 -26.754  -2.055  1.00  0.00    -0.363 N 
ATOM     14  H7  UNL     1     -26.286 -26.054  -1.787  1.00  0.00     0.161 HD
ENDROOT
BRANCH  12  15
HETATM   15  C7  UNL     1     -25.389 -25.843  -4.298  1.00  0.00     0.401 C 
BRANCH  15  16
HETATM   16  N5  UNL     1     -26.097 -24.796  -3.578  1.00  0.00    -0.048 N 
ATOM     17  H53 UNL     1     -26.154 -23.914  -4.086  1.00  0.00     0.276 HD
ATOM     18  H52 UNL     1     -27.102 -24.957  -3.503  1.00  0.00     0.276 HD
ATOM     19  H51 UNL     1     -25.625 -24.721  -2.677  1.00  0.00     0.276 HD
ENDBRANCH  15  16
BRANCH  15  20
HETATM   20  N6  UNL     1     -26.040 -26.030  -5.558  1.00  0.00    -0.048 N 
ATOM     21  H63 UNL     1     -26.395 -25.149  -5.929  1.00  0.00     0.276 HD
ATOM     22  H62 UNL     1     -25.372 -26.252  -6.295  1.00  0.00     0.276 HD
ATOM     23  H61 UNL     1     -26.775 -26.733  -5.494  1.00  0.00     0.276 HD
ENDBRANCH  15  20
ENDBRANCH  12  15
BRANCH   1  24
HETATM   24  N1  UNL     1     -22.595 -28.824   1.803  1.00  0.00    -0.384 N 
ATOM     25  H12 UNL     1     -21.619 -29.093   1.674  1.00  0.00     0.157 HD
ATOM     26  H11 UNL     1     -23.030 -28.938   2.718  1.00  0.00     0.157 HD
ENDBRANCH   1  24
TORSDOF 4
ENDMDL
MODEL 4
REMARK VINA RESULT: -6.155588350      1.909      4.956
REMARK  4 active torsions:
REMARK  status: ('A' for Active; 'I' for Inactive)
REMARK    1  A    between atoms: N1_1  and  C1_4 
REMARK    2  A    between atoms: C6_15  and  C7_16 
REMARK    3  A    between atoms: C7_16  and  N5_17 
REMARK    4  A    between atoms: C7_16  and  N6_21 
ROOT
HETATM    1  C1  UNL     1     -25.313 -28.706  -5.063  1.00  0.00     0.116 A 
HETATM    2  C2  UNL     1     -24.388 -29.720  -4.946  1.00  0.00     0.138 A 
HETATM    3  N2  UNL     1     -23.780 -29.912  -3.768  1.00  0.00    -0.346 N 
ATOM      4  H2  UNL     1     -23.093 -30.662  -3.679  1.00  0.00     0.167 HD
HETATM    5  C3  UNL     1     -24.053 -29.133  -2.686  1.00  0.00     0.146 A 
HETATM    6  C4  UNL     1     -24.987 -28.116  -2.822  1.00  0.00     0.147 A 
HETATM    7  N3  UNL     1     -25.581 -27.944  -4.012  1.00  0.00    -0.325 N 
ATOM      8  H3  UNL     1     -26.268 -27.197  -4.112  1.00  0.00     0.169 HD
HETATM    9  N4  UNL     1     -25.261 -27.366  -1.812  1.00  0.00    -0.371 N 
ATOM     10  H4  UNL     1     -25.953 -26.628  -1.944  1.00  0.00     0.161 HD
HETATM   11  C5  UNL     1     -24.672 -27.492  -0.534  1.00  0.00     0.150 A 
HETATM   12  C6  UNL     1     -23.687 -28.571  -0.405  1.00  0.00     0.158 A 
HETATM   13  N7  UNL     1     -23.467 -29.328  -1.572  1.00  0.00    -0.363 N 
ATOM     14  H7  UNL     1     -22.788 -30.088  -1.522  1.00  0.00     0.161 HD
ENDROOT
BRANCH  12  15
HETATM   15  C7  UNL     1     -22.360 -28.083   0.197  1.00  0.00     0.401 C 
BRANCH  15  16
HETATM   16  N5  UNL     1     -22.378 -26.636   0.053  1.00  0.00    -0.048 N 
ATOM     17  H53 UNL     1     -21.560 -26.260  -0.426  1.00  0.00     0.276 HD
ATOM     18  H52 UNL     1     -23.073 -26.299  -0.614  1.00  0.00     0.276 HD
ATOM     19  H51 UNL     1     -22.505 -26.271   0.996  1.00  0.00     0.276 HD
ENDBRANCH  15  16
BRANCH  15  20
HETATM   20  N6  UNL     1     -21.241 -28.586  -0.538  1.00  0.00    -0.048 N 
ATOM     21  H63 UNL     1     -21.312 -28.358  -1.529  1.00  0.00     0.276 HD
ATOM     22  H62 UNL     1     -20.388 -28.071  -0.319  1.00  0.00     0.276 HD
ATOM     23  H61 UNL     1     -21.122 -29.588  -0.392  1.00  0.00     0.276 HD
ENDBRANCH  15  20
ENDBRANCH  12  15
BRANCH   1  24
HETATM   24  N1  UNL     1     -25.897 -28.533  -6.222  1.00  0.00    -0.384 N 
ATOM     25  H12 UNL     1     -26.313 -29.304  -6.745  1.00  0.00     0.157 HD
ATOM     26  H11 UNL     1     -25.932 -27.589  -6.607  1.00  0.00     0.157 HD
ENDBRANCH   1  24
TORSDOF 4
ENDMDL
MODEL 5
REMARK VINA RESULT: -6.104694548      1.964      4.377
REMARK  4 active torsions:
REMARK  status: ('A' for Active; 'I' for Inactive)
REMARK    1  A    between atoms: N1_1  and  C1_4 
REMARK    2  A    between atoms: C6_15  and  C7_16 
REMARK    3  A    between atoms: C7_16  and  N5_17 
REMARK    4  A    between atoms: C7_16  and  N6_21 
ROOT
HETATM    1  C1  UNL     1     -24.734 -28.912  -4.659  1.00  0.00     0.116 A 
HETATM    2  C2  UNL     1     -25.582 -27.837  -4.511  1.00  0.00     0.138 A 
HETATM    3  N2  UNL     1     -25.642 -27.215  -3.325  1.00  0.00    -0.346 N 
ATOM      4  H2  UNL     1     -26.270 -26.419  -3.213  1.00  0.00     0.167 HD
HETATM    5  C3  UNL     1     -24.889 -27.619  -2.266  1.00  0.00     0.146 A 
HETATM    6  C4  UNL     1     -24.041 -28.705  -2.433  1.00  0.00     0.147 A 
HETATM    7  N3  UNL     1     -23.999 -29.310  -3.629  1.00  0.00    -0.325 N 
ATOM      8  H3  UNL     1     -23.376 -30.108  -3.752  1.00  0.00     0.169 HD
HETATM    9  N4  UNL     1     -23.319 -29.105  -1.445  1.00  0.00    -0.371 N 
ATOM     10  H4  UNL     1     -22.706 -29.905  -1.600  1.00  0.00     0.161 HD
HETATM   11  C5  UNL     1     -23.316 -28.515  -0.161  1.00  0.00     0.150 A 
HETATM   12  C6  UNL     1     -24.216 -27.369   0.001  1.00  0.00     0.158 A 
HETATM   13  N7  UNL     1     -24.957 -27.018  -1.145  1.00  0.00    -0.363 N 
ATOM     14  H7  UNL     1     -25.595 -26.225  -1.072  1.00  0.00     0.161 HD
ENDROOT
BRANCH  12  15
HETATM   15  C7  UNL     1     -25.130 -27.511   1.228  1.00  0.00     0.401 C 
BRANCH  15  16
HETATM   16  N5  UNL     1     -26.115 -28.518   0.863  1.00  0.00    -0.048 N 
ATOM     17  H53 UNL     1     -26.243 -29.241   1.570  1.00  0.00     0.276 HD
ATOM     18  H52 UNL     1     -27.075 -28.173   0.869  1.00  0.00     0.276 HD
ATOM     19  H51 UNL     1     -25.813 -28.877  -0.042  1.00  0.00     0.276 HD
ENDBRANCH  15  16
BRANCH  15  20
HETATM   20  N6  UNL     1     -25.826 -26.292   1.501  1.00  0.00    -0.048 N 
ATOM     21  H63 UNL     1     -25.719 -26.010   2.476  1.00  0.00     0.276 HD
ATOM     22  H62 UNL     1     -25.371 -25.494   1.058  1.00  0.00     0.276 HD
ATOM     23  H61 UNL     1     -26.808 -26.359   1.236  1.00  0.00     0.276 HD
ENDBRANCH  15  20
ENDBRANCH  12  15
BRANCH   1  24
HETATM   24  N1  UNL     1     -24.689 -29.507  -5.824  1.00  0.00    -0.384 N 
ATOM     25  H12 UNL     1     -25.198 -30.369  -6.019  1.00  0.00     0.157 HD
ATOM     26  H11 UNL     1     -24.120 -29.084  -6.558  1.00  0.00     0.157 HD
ENDBRANCH   1  24
TORSDOF 4
ENDMDL
