MODEL 1
REMARK VINA RESULT: -7.496933483      0.000      0.000
REMARK  6 active torsions:
REMARK  status: ('A' for Active; 'I' for Inactive)
REMARK    1  A    between atoms: C2_3  and  O2_4 
REMARK    2  A    between atoms: C3_6  and  N1_7 
REMARK    3  A    between atoms: N1_7  and  C4_9 
REMARK    4  A    between atoms: C4_9  and  C5_10 
REMARK    5  A    between atoms: C4_9  and  C14_22 
REMARK    6  A    between atoms: C8_14  and  C9_15 
ROOT
HETATM    1  C4  UNL     1      22.105  44.421  55.674  1.00  0.00     0.125 C 
ENDROOT
BRANCH   1   2
HETATM    2  N1  UNL     1      20.893  44.937  55.012  1.00  0.00    -0.375 N 
ATOM      3  H1  UNL     1      20.751  45.947  55.019  1.00  0.00     0.160 HD
BRANCH   2   4
HETATM    4  C3  UNL     1      19.933  44.167  54.382  1.00  0.00     0.121 A 
HETATM    5  C2  UNL     1      18.622  43.744  54.639  1.00  0.00     0.151 A 
HETATM    6  C1  UNL     1      18.552  43.033  53.490  1.00  0.00     0.259 A 
HETATM    7  O1  UNL     1      17.696  42.327  52.928  1.00  0.00    -0.281 OA
HETATM    8  C18 UNL     1      19.832  43.419  53.198  1.00  0.00     0.253 A 
HETATM    9  O3  UNL     1      20.681  43.255  52.293  1.00  0.00    -0.281 OA
BRANCH   5  10
HETATM   10  O2  UNL     1      17.725  43.963  55.674  1.00  0.00    -0.355 OA
ATOM     11  H2  UNL     1      17.200  44.713  55.932  1.00  0.00     0.218 HD
ENDBRANCH   5  10
ENDBRANCH   2   4
ENDBRANCH   1   2
BRANCH   1  12
HETATM   12  C5  UNL     1      23.283  44.810  54.802  1.00  0.00     0.044 A 
HETATM   13  C6  UNL     1      23.726  43.996  53.778  1.00  0.00     0.128 A 
HETATM   14  F1  UNL     1      23.135  42.750  53.712  1.00  0.00    -0.205 F 
HETATM   15  C7  UNL     1      24.688  44.357  52.872  1.00  0.00     0.052 A 
HETATM   16  C8  UNL     1      25.279  45.589  52.935  1.00  0.00    -0.026 A 
HETATM   17  C12 UNL     1      24.869  46.425  53.927  1.00  0.00     0.080 A 
HETATM   18 CL1  UNL     1      25.603  48.011  54.022  1.00  0.00    -0.080 Cl
HETATM   19  C13 UNL     1      23.886  46.044  54.848  1.00  0.00     0.150 A 
HETATM   20  F2  UNL     1      23.522  46.978  55.713  1.00  0.00    -0.203 F 
BRANCH  16  21
HETATM   21  C9  UNL     1      26.257  46.063  51.905  1.00  0.00     0.020 A 
HETATM   22  C10 UNL     1      26.447  45.353  50.609  1.00  0.00     0.010 A 
HETATM   23  C11 UNL     1      25.589  46.570  50.646  1.00  0.00     0.010 A 
ENDBRANCH  16  21
ENDBRANCH   1  12
BRANCH   1  24
HETATM   24  C14 UNL     1      22.285  44.713  57.072  1.00  0.00     0.013 C 
HETATM   25  C15 UNL     1      23.546  44.358  57.817  1.00  0.00     0.007 C 
HETATM   26  C16 UNL     1      22.814  45.046  59.010  1.00  0.00     0.001 C 
HETATM   27  C17 UNL     1      21.554  44.450  58.286  1.00  0.00     0.007 C 
ENDBRANCH   1  24
TORSDOF 6
ENDMDL
MODEL 2
REMARK VINA RESULT: -7.153822416      2.841      4.822
REMARK  6 active torsions:
REMARK  status: ('A' for Active; 'I' for Inactive)
REMARK    1  A    between atoms: C2_3  and  O2_4 
REMARK    2  A    between atoms: C3_6  and  N1_7 
REMARK    3  A    between atoms: N1_7  and  C4_9 
REMARK    4  A    between atoms: C4_9  and  C5_10 
REMARK    5  A    between atoms: C4_9  and  C14_22 
REMARK    6  A    between atoms: C8_14  and  C9_15 
ROOT
HETATM    1  C4  UNL     1      20.582  44.141  55.578  1.00  0.00     0.125 C 
ENDROOT
BRANCH   1   2
HETATM    2  N1  UNL     1      20.828  43.254  56.729  1.00  0.00    -0.375 N 
ATOM      3  H1  UNL     1      21.054  42.280  56.527  1.00  0.00     0.160 HD
BRANCH   2   4
HETATM    4  C3  UNL     1      20.777  43.630  58.058  1.00  0.00     0.121 A 
HETATM    5  C2  UNL     1      19.791  43.841  59.031  1.00  0.00     0.151 A 
HETATM    6  C1  UNL     1      20.696  44.200  59.971  1.00  0.00     0.259 A 
HETATM    7  O1  UNL     1      20.653  44.554  61.162  1.00  0.00    -0.281 OA
HETATM    8  C18 UNL     1      21.693  44.008  59.052  1.00  0.00     0.253 A 
HETATM    9  O3  UNL     1      22.941  44.093  58.986  1.00  0.00    -0.281 OA
BRANCH   5  10
HETATM   10  O2  UNL     1      18.409  43.729  59.040  1.00  0.00    -0.355 OA
ATOM     11  H2  UNL     1      17.783  43.359  58.428  1.00  0.00     0.218 HD
ENDBRANCH   5  10
ENDBRANCH   2   4
ENDBRANCH   1   2
BRANCH   1  12
HETATM   12  C5  UNL     1      21.904  44.802  55.241  1.00  0.00     0.044 A 
HETATM   13  C6  UNL     1      22.225  46.062  55.711  1.00  0.00     0.128 A 
HETATM   14  F1  UNL     1      21.207  46.730  56.362  1.00  0.00    -0.205 F 
HETATM   15  C7  UNL     1      23.454  46.647  55.559  1.00  0.00     0.052 A 
HETATM   16  C8  UNL     1      24.465  45.990  54.913  1.00  0.00    -0.026 A 
HETATM   17  C12 UNL     1      24.193  44.745  54.436  1.00  0.00     0.080 A 
HETATM   18 CL1  UNL     1      25.474  43.881  53.615  1.00  0.00    -0.080 Cl
HETATM   19  C13 UNL     1      22.932  44.157  54.597  1.00  0.00     0.150 A 
HETATM   20  F2  UNL     1      22.823  42.913  54.158  1.00  0.00    -0.203 F 
BRANCH  16  21
HETATM   21  C9  UNL     1      25.851  46.549  54.816  1.00  0.00     0.020 A 
HETATM   22  C10 UNL     1      26.292  47.717  55.630  1.00  0.00     0.010 A 
HETATM   23  C11 UNL     1      26.659  46.344  56.078  1.00  0.00     0.010 A 
ENDBRANCH  16  21
ENDBRANCH   1  12
BRANCH   1  24
HETATM   24  C14 UNL     1      19.890  43.595  54.440  1.00  0.00     0.013 C 
HETATM   25  C15 UNL     1      20.047  44.156  53.050  1.00  0.00     0.007 C 
HETATM   26  C16 UNL     1      19.077  42.994  52.672  1.00  0.00     0.001 C 
HETATM   27  C17 UNL     1      18.520  43.294  54.109  1.00  0.00     0.007 C 
ENDBRANCH   1  24
TORSDOF 6
ENDMDL
MODEL 3
REMARK VINA RESULT: -6.945845208      1.555      2.436
REMARK  6 active torsions:
REMARK  status: ('A' for Active; 'I' for Inactive)
REMARK    1  A    between atoms: C2_3  and  O2_4 
REMARK    2  A    between atoms: C3_6  and  N1_7 
REMARK    3  A    between atoms: N1_7  and  C4_9 
REMARK    4  A    between atoms: C4_9  and  C5_10 
REMARK    5  A    between atoms: C4_9  and  C14_22 
REMARK    6  A    between atoms: C8_14  and  C9_15 
ROOT
HETATM    1  C4  UNL     1      21.873  44.494  56.106  1.00  0.00     0.125 C 
ENDROOT
BRANCH   1   2
HETATM    2  N1  UNL     1      20.674  44.959  55.388  1.00  0.00    -0.375 N 
ATOM      3  H1  UNL     1      20.439  45.949  55.462  1.00  0.00     0.160 HD
BRANCH   2   4
HETATM    4  C3  UNL     1      19.839  44.167  54.623  1.00  0.00     0.121 A 
HETATM    5  C2  UNL     1      18.522  43.692  54.692  1.00  0.00     0.151 A 
HETATM    6  C1  UNL     1      18.636  43.000  53.535  1.00  0.00     0.259 A 
HETATM    7  O1  UNL     1      17.892  42.274  52.852  1.00  0.00    -0.281 OA
HETATM    8  C18 UNL     1      19.929  43.438  53.426  1.00  0.00     0.253 A 
HETATM    9  O3  UNL     1      20.899  43.322  52.643  1.00  0.00    -0.281 OA
BRANCH   5  10
HETATM   10  O2  UNL     1      17.485  43.859  55.599  1.00  0.00    -0.355 OA
ATOM     11  H2  UNL     1      17.445  44.202  56.484  1.00  0.00     0.218 HD
ENDBRANCH   5  10
ENDBRANCH   2   4
ENDBRANCH   1   2
BRANCH   1  12
HETATM   12  C5  UNL     1      23.068  45.144  55.436  1.00  0.00     0.044 A 
HETATM   13  C6  UNL     1      23.502  46.406  55.796  1.00  0.00     0.128 A 
HETATM   14  F1  UNL     1      22.685  47.086  56.676  1.00  0.00    -0.205 F 
HETATM   15  C7  UNL     1      24.654  46.982  55.329  1.00  0.00     0.052 A 
HETATM   16  C8  UNL     1      25.465  46.313  54.455  1.00  0.00    -0.026 A 
HETATM   17  C12 UNL     1      25.078  45.065  54.077  1.00  0.00     0.080 A 
HETATM   18 CL1  UNL     1      26.105  44.185  52.967  1.00  0.00    -0.080 Cl
HETATM   19  C13 UNL     1      23.897  44.486  54.559  1.00  0.00     0.150 A 
HETATM   20  F2  UNL     1      23.676  43.238  54.177  1.00  0.00    -0.203 F 
BRANCH  16  21
HETATM   21  C9  UNL     1      26.783  46.863  54.002  1.00  0.00     0.020 A 
HETATM   22  C10 UNL     1      27.426  48.028  54.672  1.00  0.00     0.010 A 
HETATM   23  C11 UNL     1      27.888  46.654  55.014  1.00  0.00     0.010 A 
ENDBRANCH  16  21
ENDBRANCH   1  12
BRANCH   1  24
HETATM   24  C14 UNL     1      21.880  44.591  57.542  1.00  0.00     0.013 C 
HETATM   25  C15 UNL     1      23.100  44.278  58.370  1.00  0.00     0.007 C 
HETATM   26  C16 UNL     1      22.173  44.687  59.555  1.00  0.00     0.001 C 
HETATM   27  C17 UNL     1      21.078  44.065  58.618  1.00  0.00     0.007 C 
ENDBRANCH   1  24
TORSDOF 6
ENDMDL
MODEL 4
REMARK VINA RESULT: -6.908844246      2.882      5.018
REMARK  6 active torsions:
REMARK  status: ('A' for Active; 'I' for Inactive)
REMARK    1  A    between atoms: C2_3  and  O2_4 
REMARK    2  A    between atoms: C3_6  and  N1_7 
REMARK    3  A    between atoms: N1_7  and  C4_9 
REMARK    4  A    between atoms: C4_9  and  C5_10 
REMARK    5  A    between atoms: C4_9  and  C14_22 
REMARK    6  A    between atoms: C8_14  and  C9_15 
ROOT
HETATM    1  C4  UNL     1      20.542  44.160  55.632  1.00  0.00     0.125 C 
ENDROOT
BRANCH   1   2
HETATM    2  N1  UNL     1      20.784  43.270  56.781  1.00  0.00    -0.375 N 
ATOM      3  H1  UNL     1      20.853  42.270  56.592  1.00  0.00     0.160 HD
BRANCH   2   4
HETATM    4  C3  UNL     1      20.926  43.676  58.095  1.00  0.00     0.121 A 
HETATM    5  C2  UNL     1      21.968  44.073  58.944  1.00  0.00     0.151 A 
HETATM    6  C1  UNL     1      21.140  44.238  60.000  1.00  0.00     0.259 A 
HETATM    7  O1  UNL     1      21.266  44.588  61.187  1.00  0.00    -0.281 OA
HETATM    8  C18 UNL     1      20.090  43.855  59.209  1.00  0.00     0.253 A 
HETATM    9  O3  UNL     1      18.852  43.690  59.303  1.00  0.00    -0.281 OA
BRANCH   5  10
HETATM   10  O2  UNL     1      23.336  44.236  58.776  1.00  0.00    -0.355 OA
ATOM     11  H2  UNL     1      24.032  43.647  58.507  1.00  0.00     0.218 HD
ENDBRANCH   5  10
ENDBRANCH   2   4
ENDBRANCH   1   2
BRANCH   1  12
HETATM   12  C5  UNL     1      21.869  44.809  55.290  1.00  0.00     0.044 A 
HETATM   13  C6  UNL     1      22.198  46.070  55.750  1.00  0.00     0.128 A 
HETATM   14  F1  UNL     1      21.184  46.750  56.394  1.00  0.00    -0.205 F 
HETATM   15  C7  UNL     1      23.431  46.645  55.593  1.00  0.00     0.052 A 
HETATM   16  C8  UNL     1      24.438  45.976  54.953  1.00  0.00    -0.026 A 
HETATM   17  C12 UNL     1      24.158  44.730  54.487  1.00  0.00     0.080 A 
HETATM   18 CL1  UNL     1      25.433  43.850  53.674  1.00  0.00    -0.080 Cl
HETATM   19  C13 UNL     1      22.893  44.152  54.652  1.00  0.00     0.150 A 
HETATM   20  F2  UNL     1      22.776  42.905  54.223  1.00  0.00    -0.203 F 
BRANCH  16  21
HETATM   21  C9  UNL     1      25.828  46.525  54.853  1.00  0.00     0.020 A 
HETATM   22  C10 UNL     1      26.278  47.695  55.658  1.00  0.00     0.010 A 
HETATM   23  C11 UNL     1      26.635  46.323  56.116  1.00  0.00     0.010 A 
ENDBRANCH  16  21
ENDBRANCH   1  12
BRANCH   1  24
HETATM   24  C14 UNL     1      19.841  43.620  54.497  1.00  0.00     0.013 C 
HETATM   25  C15 UNL     1      20.008  44.171  53.103  1.00  0.00     0.007 C 
HETATM   26  C16 UNL     1      19.018  43.025  52.731  1.00  0.00     0.001 C 
HETATM   27  C17 UNL     1      18.466  43.342  54.167  1.00  0.00     0.007 C 
ENDBRANCH   1  24
TORSDOF 6
ENDMDL
MODEL 5
REMARK VINA RESULT: -6.906860589      3.471      5.603
REMARK  6 active torsions:
REMARK  status: ('A' for Active; 'I' for Inactive)
REMARK    1  A    between atoms: C2_3  and  O2_4 
REMARK    2  A    between atoms: C3_6  and  N1_7 
REMARK    3  A    between atoms: N1_7  and  C4_9 
REMARK    4  A    between atoms: C4_9  and  C5_10 
REMARK    5  A    between atoms: C4_9  and  C14_22 
REMARK    6  A    between atoms: C8_14  and  C9_15 
ROOT
HETATM    1  C4  UNL     1      22.079  44.345  55.695  1.00  0.00     0.125 C 
ENDROOT
BRANCH   1   2
HETATM    2  N1  UNL     1      21.103  44.671  56.750  1.00  0.00    -0.375 N 
ATOM      3  H1  UNL     1      20.337  45.296  56.502  1.00  0.00     0.160 HD
BRANCH   2   4
HETATM    4  C3  UNL     1      21.140  44.201  58.050  1.00  0.00     0.121 A 
HETATM    5  C2  UNL     1      20.222  43.756  59.010  1.00  0.00     0.151 A 
HETATM    6  C1  UNL     1      21.185  43.547  59.937  1.00  0.00     0.259 A 
HETATM    7  O1  UNL     1      21.220  43.139  61.111  1.00  0.00    -0.281 OA
HETATM    8  C18 UNL     1      22.118  43.976  59.032  1.00  0.00     0.253 A 
HETATM    9  O3  UNL     1      23.357  44.146  58.966  1.00  0.00    -0.281 OA
BRANCH   5  10
HETATM   10  O2  UNL     1      18.844  43.590  59.020  1.00  0.00    -0.355 OA
ATOM     11  H2  UNL     1      18.234  43.258  59.669  1.00  0.00     0.218 HD
ENDBRANCH   5  10
ENDBRANCH   2   4
ENDBRANCH   1   2
BRANCH   1  12
HETATM   12  C5  UNL     1      21.287  43.847  54.501  1.00  0.00     0.044 A 
HETATM   13  C6  UNL     1      21.911  43.298  53.397  1.00  0.00     0.128 A 
HETATM   14  F1  UNL     1      23.289  43.386  53.388  1.00  0.00    -0.205 F 
HETATM   15  C7  UNL     1      21.246  42.705  52.357  1.00  0.00     0.052 A 
HETATM   16  C8  UNL     1      19.880  42.618  52.359  1.00  0.00    -0.026 A 
HETATM   17  C12 UNL     1      19.226  43.143  53.430  1.00  0.00     0.080 A 
HETATM   18 CL1  UNL     1      17.480  43.035  53.461  1.00  0.00    -0.080 Cl
HETATM   19  C13 UNL     1      19.917  43.749  54.487  1.00  0.00     0.150 A 
HETATM   20  F2  UNL     1      19.168  44.147  55.504  1.00  0.00    -0.203 F 
BRANCH  16  21
HETATM   21  C9  UNL     1      19.121  41.887  51.295  1.00  0.00     0.020 A 
HETATM   22  C10 UNL     1      19.717  40.751  50.537  1.00  0.00     0.010 A 
HETATM   23  C11 UNL     1      18.802  40.458  51.675  1.00  0.00     0.010 A 
ENDBRANCH  16  21
ENDBRANCH   1  12
BRANCH   1  24
HETATM   24  C14 UNL     1      23.076  45.331  55.370  1.00  0.00     0.013 C 
HETATM   25  C15 UNL     1      24.536  45.145  55.693  1.00  0.00     0.007 C 
HETATM   26  C16 UNL     1      24.678  46.528  54.987  1.00  0.00     0.001 C 
HETATM   27  C17 UNL     1      23.254  46.740  55.613  1.00  0.00     0.007 C 
ENDBRANCH   1  24
TORSDOF 6
ENDMDL
