MODEL 1
REMARK VINA RESULT: -5.816675871      0.000      0.000
REMARK  8 active torsions:
REMARK  status: ('A' for Active; 'I' for Inactive)
REMARK    1  A    between atoms: N2_6  and  C4_8 
REMARK    2  A    between atoms: C4_8  and  C5_9 
REMARK    3  A    between atoms: C5_9  and  C6_10 
REMARK    4  A    between atoms: C6_10  and  N3_11 
REMARK    5  A    between atoms: N5_18  and  C8_20 
REMARK    6  A    between atoms: C8_20  and  C9_21 
REMARK    7  A    between atoms: C9_21  and  C10_22 
REMARK    8  A    between atoms: C10_22  and  N6_23 
ROOT
HETATM    1  C1  UNL     1     -22.646  36.571 -13.472  1.00  0.00     0.064 C 
HETATM    2  C2  UNL     1     -22.138  35.350 -13.483  1.00  0.00     0.127 A 
HETATM    3  N1  UNL     1     -20.893  35.094 -12.836  1.00  0.00    -0.177 N 
ATOM      4  H1  UNL     1     -20.406  35.859 -12.370  1.00  0.00     0.185 HD
HETATM    5  C3  UNL     1     -20.315  33.791 -12.828  1.00  0.00     0.694 A 
HETATM    6  N2  UNL     1     -19.190  33.568 -12.240  1.00  0.00    -0.225 N 
ATOM      7  H2  UNL     1     -18.821  32.617 -12.264  1.00  0.00     0.177 HD
HETATM    8  N4  UNL     1     -21.018  32.746 -13.487  1.00  0.00    -0.022 N 
ATOM      9  H4  UNL     1     -20.612  31.810 -13.485  1.00  0.00     0.203 HD
HETATM   10  C7  UNL     1     -22.261  32.945 -14.148  1.00  0.00     0.694 A 
HETATM   11  N5  UNL     1     -22.875  31.959 -14.741  1.00  0.00    -0.225 N 
ATOM     12  H5  UNL     1     -22.439  31.038 -14.719  1.00  0.00     0.177 HD
HETATM   13  N7  UNL     1     -22.797  34.266 -14.127  1.00  0.00    -0.177 N 
ATOM     14  H7  UNL     1     -23.687  34.442 -14.592  1.00  0.00     0.185 HD
ENDROOT
BRANCH   6  15
HETATM   15  C4  UNL     1     -18.424  34.562 -11.558  1.00  0.00     0.139 C 
BRANCH  15  16
HETATM   16  C5  UNL     1     -17.526  33.914 -10.508  1.00  0.00     0.047 C 
BRANCH  16  17
HETATM   17  C6  UNL     1     -18.283  32.907  -9.691  1.00  0.00     0.231 C 
BRANCH  17  18
HETATM   18  N3  UNL     1     -17.341  32.149  -8.887  1.00  0.00    -0.079 N 
ATOM     19  H33 UNL     1     -17.712  31.243  -8.603  1.00  0.00     0.274 HD
ATOM     20  H32 UNL     1     -16.547  31.814  -9.431  1.00  0.00     0.274 HD
ATOM     21  H31 UNL     1     -17.054  32.718  -8.090  1.00  0.00     0.274 HD
ENDBRANCH  17  18
ENDBRANCH  16  17
ENDBRANCH  15  16
ENDBRANCH   6  15
BRANCH  11  22
HETATM   22  C8  UNL     1     -24.121  32.098 -15.417  1.00  0.00     0.139 C 
BRANCH  22  23
HETATM   23  C9  UNL     1     -24.572  30.712 -15.885  1.00  0.00     0.047 C 
BRANCH  23  24
HETATM   24  C10 UNL     1     -25.467  30.126 -14.812  1.00  0.00     0.231 C 
BRANCH  24  25
HETATM   25  N6  UNL     1     -24.776  29.196 -13.958  1.00  0.00    -0.079 N 
ATOM     26  H63 UNL     1     -23.983  28.775 -14.442  1.00  0.00     0.274 HD
ATOM     27  H62 UNL     1     -24.277  29.684 -13.214  1.00  0.00     0.274 HD
ATOM     28  H61 UNL     1     -25.393  28.480 -13.574  1.00  0.00     0.274 HD
ENDBRANCH  24  25
ENDBRANCH  23  24
ENDBRANCH  22  23
ENDBRANCH  11  22
TORSDOF 8
ENDMDL
MODEL 2
REMARK VINA RESULT: -5.784799214      0.097      6.446
REMARK  8 active torsions:
REMARK  status: ('A' for Active; 'I' for Inactive)
REMARK    1  A    between atoms: N2_6  and  C4_8 
REMARK    2  A    between atoms: C4_8  and  C5_9 
REMARK    3  A    between atoms: C5_9  and  C6_10 
REMARK    4  A    between atoms: C6_10  and  N3_11 
REMARK    5  A    between atoms: N5_18  and  C8_20 
REMARK    6  A    between atoms: C8_20  and  C9_21 
REMARK    7  A    between atoms: C9_21  and  C10_22 
REMARK    8  A    between atoms: C10_22  and  N6_23 
ROOT
HETATM    1  C1  UNL     1     -22.700  36.575 -13.470  1.00  0.00     0.064 C 
HETATM    2  C2  UNL     1     -22.140  35.378 -13.444  1.00  0.00     0.127 A 
HETATM    3  N1  UNL     1     -22.772  34.284 -14.105  1.00  0.00    -0.177 N 
ATOM      4  H1  UNL     1     -23.654  34.439 -14.594  1.00  0.00     0.185 HD
HETATM    5  C3  UNL     1     -22.198  32.980 -14.097  1.00  0.00     0.694 A 
HETATM    6  N2  UNL     1     -22.775  31.997 -14.698  1.00  0.00    -0.225 N 
ATOM      7  H2  UNL     1     -22.321  31.084 -14.661  1.00  0.00     0.177 HD
HETATM    8  N4  UNL     1     -20.969  32.797 -13.406  1.00  0.00    -0.022 N 
ATOM      9  H4  UNL     1     -20.550  31.866 -13.396  1.00  0.00     0.203 HD
HETATM   10  C7  UNL     1     -20.296  33.851 -12.729  1.00  0.00     0.694 A 
HETATM   11  N5  UNL     1     -19.169  33.642 -12.107  1.00  0.00    -0.225 N 
ATOM     12  H5  UNL     1     -18.781  32.699 -12.117  1.00  0.00     0.177 HD
HETATM   13  N7  UNL     1     -20.911  35.137 -12.767  1.00  0.00    -0.177 N 
ATOM     14  H7  UNL     1     -20.454  35.914 -12.292  1.00  0.00     0.185 HD
ENDROOT
BRANCH   6  15
HETATM   15  C4  UNL     1     -24.008  32.099 -15.412  1.00  0.00     0.139 C 
BRANCH  15  16
HETATM   16  C5  UNL     1     -24.503  30.714 -15.820  1.00  0.00     0.047 C 
BRANCH  16  17
HETATM   17  C6  UNL     1     -25.472  30.164 -14.811  1.00  0.00     0.231 C 
BRANCH  17  18
HETATM   18  N3  UNL     1     -24.781  29.203 -13.971  1.00  0.00    -0.079 N 
ATOM     19  H33 UNL     1     -24.762  28.270 -14.382  1.00  0.00     0.274 HD
ATOM     20  H32 UNL     1     -23.775  29.366 -13.940  1.00  0.00     0.274 HD
ATOM     21  H31 UNL     1     -25.204  29.210 -13.043  1.00  0.00     0.274 HD
ENDBRANCH  17  18
ENDBRANCH  16  17
ENDBRANCH  15  16
ENDBRANCH   6  15
BRANCH  11  22
HETATM   22  C8  UNL     1     -18.450  34.657 -11.414  1.00  0.00     0.139 C 
BRANCH  22  23
HETATM   23  C9  UNL     1     -17.455  33.982 -10.467  1.00  0.00     0.047 C 
BRANCH  23  24
HETATM   24  C10 UNL     1     -18.196  32.900  -9.706  1.00  0.00     0.231 C 
BRANCH  24  25
HETATM   25  N6  UNL     1     -17.334  32.142  -8.838  1.00  0.00    -0.079 N 
ATOM     26  H63 UNL     1     -16.505  31.818  -9.336  1.00  0.00     0.274 HD
ATOM     27  H62 UNL     1     -16.887  32.745  -8.147  1.00  0.00     0.274 HD
ATOM     28  H61 UNL     1     -17.816  31.365  -8.386  1.00  0.00     0.274 HD
ENDBRANCH  24  25
ENDBRANCH  23  24
ENDBRANCH  22  23
ENDBRANCH  11  22
TORSDOF 8
ENDMDL
MODEL 3
REMARK VINA RESULT: -5.736637909      1.225      6.455
REMARK  8 active torsions:
REMARK  status: ('A' for Active; 'I' for Inactive)
REMARK    1  A    between atoms: N2_6  and  C4_8 
REMARK    2  A    between atoms: C4_8  and  C5_9 
REMARK    3  A    between atoms: C5_9  and  C6_10 
REMARK    4  A    between atoms: C6_10  and  N3_11 
REMARK    5  A    between atoms: N5_18  and  C8_20 
REMARK    6  A    between atoms: C8_20  and  C9_21 
REMARK    7  A    between atoms: C9_21  and  C10_22 
REMARK    8  A    between atoms: C10_22  and  N6_23 
ROOT
HETATM    1  C1  UNL     1     -20.992  37.281 -12.818  1.00  0.00     0.064 C 
HETATM    2  C2  UNL     1     -20.865  35.965 -12.807  1.00  0.00     0.127 A 
HETATM    3  N1  UNL     1     -21.813  35.155 -13.500  1.00  0.00    -0.177 N 
ATOM      4  H1  UNL     1     -22.582  35.603 -13.999  1.00  0.00     0.185 HD
HETATM    5  C3  UNL     1     -21.709  33.734 -13.509  1.00  0.00     0.694 A 
HETATM    6  N2  UNL     1     -22.570  33.010 -14.139  1.00  0.00    -0.225 N 
ATOM      7  H2  UNL     1     -22.448  31.997 -14.113  1.00  0.00     0.177 HD
HETATM    8  N4  UNL     1     -20.627  33.140 -12.803  1.00  0.00    -0.022 N 
ATOM      9  H4  UNL     1     -20.545  32.124 -12.805  1.00  0.00     0.203 HD
HETATM   10  C7  UNL     1     -19.655  33.899 -12.095  1.00  0.00     0.694 A 
HETATM   11  N5  UNL     1     -18.676  33.316 -11.460  1.00  0.00    -0.225 N 
ATOM     12  H5  UNL     1     -18.626  32.298 -11.483  1.00  0.00     0.177 HD
HETATM   13  N7  UNL     1     -19.803  35.317 -12.117  1.00  0.00    -0.177 N 
ATOM     14  H7  UNL     1     -19.122  35.889 -11.619  1.00  0.00     0.185 HD
ENDROOT
BRANCH   6  15
HETATM   15  C4  UNL     1     -23.681  33.529 -14.869  1.00  0.00     0.139 C 
BRANCH  15  16
HETATM   16  C5  UNL     1     -24.573  32.392 -15.361  1.00  0.00     0.047 C 
BRANCH  16  17
HETATM   17  C6  UNL     1     -23.793  31.117 -15.515  1.00  0.00     0.231 C 
BRANCH  17  18
HETATM   18  N3  UNL     1     -24.368  30.106 -14.645  1.00  0.00    -0.079 N 
ATOM     19  H33 UNL     1     -25.159  29.628 -15.075  1.00  0.00     0.274 HD
ATOM     20  H32 UNL     1     -23.757  29.298 -14.533  1.00  0.00     0.274 HD
ATOM     21  H31 UNL     1     -24.611  30.537 -13.754  1.00  0.00     0.274 HD
ENDBRANCH  17  18
ENDBRANCH  16  17
ENDBRANCH  15  16
ENDBRANCH   6  15
BRANCH  11  22
HETATM   22  C8  UNL     1     -17.674  34.022 -10.736  1.00  0.00     0.139 C 
BRANCH  22  23
HETATM   23  C9  UNL     1     -17.014  33.050  -9.754  1.00  0.00     0.047 C 
BRANCH  23  24
HETATM   24  C10 UNL     1     -18.099  32.477  -8.865  1.00  0.00     0.231 C 
BRANCH  24  25
HETATM   25  N6  UNL     1     -17.587  31.558  -7.883  1.00  0.00    -0.079 N 
ATOM     26  H63 UNL     1     -16.778  31.052  -8.243  1.00  0.00     0.274 HD
ATOM     27  H62 UNL     1     -17.140  32.056  -7.113  1.00  0.00     0.274 HD
ATOM     28  H61 UNL     1     -18.297  30.914  -7.537  1.00  0.00     0.274 HD
ENDBRANCH  24  25
ENDBRANCH  23  24
ENDBRANCH  22  23
ENDBRANCH  11  22
TORSDOF 8
ENDMDL
MODEL 4
REMARK VINA RESULT: -5.712403858      1.202      1.345
REMARK  8 active torsions:
REMARK  status: ('A' for Active; 'I' for Inactive)
REMARK    1  A    between atoms: N2_6  and  C4_8 
REMARK    2  A    between atoms: C4_8  and  C5_9 
REMARK    3  A    between atoms: C5_9  and  C6_10 
REMARK    4  A    between atoms: C6_10  and  N3_11 
REMARK    5  A    between atoms: N5_18  and  C8_20 
REMARK    6  A    between atoms: C8_20  and  C9_21 
REMARK    7  A    between atoms: C9_21  and  C10_22 
REMARK    8  A    between atoms: C10_22  and  N6_23 
ROOT
HETATM    1  C1  UNL     1     -21.054  37.281 -12.738  1.00  0.00     0.064 C 
HETATM    2  C2  UNL     1     -20.942  35.964 -12.784  1.00  0.00     0.127 A 
HETATM    3  N1  UNL     1     -19.868  35.319 -12.102  1.00  0.00    -0.177 N 
ATOM      4  H1  UNL     1     -19.195  35.884 -11.584  1.00  0.00     0.185 HD
HETATM    5  C3  UNL     1     -19.715  33.903 -12.131  1.00  0.00     0.694 A 
HETATM    6  N2  UNL     1     -18.742  33.327 -11.511  1.00  0.00    -0.225 N 
ATOM      7  H2  UNL     1     -18.680  32.311 -11.563  1.00  0.00     0.177 HD
HETATM    8  N4  UNL     1     -20.669  33.144 -12.863  1.00  0.00    -0.022 N 
ATOM      9  H4  UNL     1     -20.567  32.129 -12.888  1.00  0.00     0.203 HD
HETATM   10  C7  UNL     1     -21.757  33.734 -13.562  1.00  0.00     0.694 A 
HETATM   11  N5  UNL     1     -22.611  33.003 -14.222  1.00  0.00    -0.225 N 
ATOM     12  H5  UNL     1     -22.478  31.992 -14.225  1.00  0.00     0.177 HD
HETATM   13  N7  UNL     1     -21.866  35.155 -13.502  1.00  0.00    -0.177 N 
ATOM     14  H7  UNL     1     -22.636  35.609 -13.993  1.00  0.00     0.185 HD
ENDROOT
BRANCH   6  15
HETATM   15  C4  UNL     1     -17.746  34.018 -10.755  1.00  0.00     0.139 C 
BRANCH  15  16
HETATM   16  C5  UNL     1     -17.136  33.091  -9.707  1.00  0.00     0.047 C 
BRANCH  16  17
HETATM   17  C6  UNL     1     -18.200  32.436  -8.873  1.00  0.00     0.231 C 
BRANCH  17  18
HETATM   18  N3  UNL     1     -17.567  31.569  -7.897  1.00  0.00    -0.079 N 
ATOM     19  H33 UNL     1     -18.220  30.903  -7.486  1.00  0.00     0.274 HD
ATOM     20  H32 UNL     1     -16.931  30.899  -8.327  1.00  0.00     0.274 HD
ATOM     21  H31 UNL     1     -17.106  32.146  -7.193  1.00  0.00     0.274 HD
ENDBRANCH  17  18
ENDBRANCH  16  17
ENDBRANCH  15  16
ENDBRANCH   6  15
BRANCH  11  22
HETATM   22  C8  UNL     1     -23.720  33.537 -14.939  1.00  0.00     0.139 C 
BRANCH  22  23
HETATM   23  C9  UNL     1     -24.629  32.378 -15.356  1.00  0.00     0.047 C 
BRANCH  23  24
HETATM   24  C10 UNL     1     -23.784  31.121 -15.411  1.00  0.00     0.231 C 
BRANCH  24  25
HETATM   25  N6  UNL     1     -24.340  30.042 -14.637  1.00  0.00    -0.079 N 
ATOM     26  H63 UNL     1     -24.888  30.399 -13.854  1.00  0.00     0.274 HD
ATOM     27  H62 UNL     1     -25.079  29.564 -15.152  1.00  0.00     0.274 HD
ATOM     28  H61 UNL     1     -23.633  29.382 -14.317  1.00  0.00     0.274 HD
ENDBRANCH  24  25
ENDBRANCH  23  24
ENDBRANCH  22  23
ENDBRANCH  11  22
TORSDOF 8
ENDMDL
MODEL 5
REMARK VINA RESULT: -5.685701628      1.116      6.506
REMARK  8 active torsions:
REMARK  status: ('A' for Active; 'I' for Inactive)
REMARK    1  A    between atoms: N2_6  and  C4_8 
REMARK    2  A    between atoms: C4_8  and  C5_9 
REMARK    3  A    between atoms: C5_9  and  C6_10 
REMARK    4  A    between atoms: C6_10  and  N3_11 
REMARK    5  A    between atoms: N5_18  and  C8_20 
REMARK    6  A    between atoms: C8_20  and  C9_21 
REMARK    7  A    between atoms: C9_21  and  C10_22 
REMARK    8  A    between atoms: C10_22  and  N6_23 
ROOT
HETATM    1  C1  UNL     1     -23.939  35.628 -14.142  1.00  0.00     0.064 C 
HETATM    2  C2  UNL     1     -23.192  34.538 -14.113  1.00  0.00     0.127 A 
HETATM    3  N1  UNL     1     -23.617  33.367 -14.807  1.00  0.00    -0.177 N 
ATOM      4  H1  UNL     1     -24.497  33.385 -15.322  1.00  0.00     0.185 HD
HETATM    5  C3  UNL     1     -22.838  32.174 -14.797  1.00  0.00     0.694 A 
HETATM    6  N2  UNL     1     -23.229  31.121 -15.429  1.00  0.00    -0.225 N 
ATOM      7  H2  UNL     1     -22.633  30.294 -15.389  1.00  0.00     0.177 HD
HETATM    8  N4  UNL     1     -21.616  32.182 -14.071  1.00  0.00    -0.022 N 
ATOM      9  H4  UNL     1     -21.051  31.332 -14.058  1.00  0.00     0.203 HD
HETATM   10  C7  UNL     1     -21.144  33.320 -13.360  1.00  0.00     0.694 A 
HETATM   11  N5  UNL     1     -20.017  33.287 -12.705  1.00  0.00    -0.225 N 
ATOM     12  H5  UNL     1     -19.480  32.420 -12.715  1.00  0.00     0.177 HD
HETATM   13  N7  UNL     1     -21.960  34.489 -13.401  1.00  0.00    -0.177 N 
ATOM     14  H7  UNL     1     -21.650  35.321 -12.902  1.00  0.00     0.185 HD
ENDROOT
BRANCH   6  15
HETATM   15  C4  UNL     1     -24.440  31.033 -16.180  1.00  0.00     0.139 C 
BRANCH  15  16
HETATM   16  C5  UNL     1     -25.340  29.938 -15.613  1.00  0.00     0.047 C 
BRANCH  16  17
HETATM   17  C6  UNL     1     -25.967  30.366 -14.316  1.00  0.00     0.231 C 
BRANCH  17  18
HETATM   18  N3  UNL     1     -25.530  29.467 -13.263  1.00  0.00    -0.079 N 
ATOM     19  H33 UNL     1     -24.518  29.345 -13.252  1.00  0.00     0.274 HD
ATOM     20  H32 UNL     1     -25.634  29.876 -12.335  1.00  0.00     0.274 HD
ATOM     21  H31 UNL     1     -26.027  28.582 -13.356  1.00  0.00     0.274 HD
ENDBRANCH  17  18
ENDBRANCH  16  17
ENDBRANCH  15  16
ENDBRANCH   6  15
BRANCH  11  22
HETATM   22  C8  UNL     1     -19.495  34.393 -11.977  1.00  0.00     0.139 C 
BRANCH  22  23
HETATM   23  C9  UNL     1     -18.007  34.140 -11.716  1.00  0.00     0.047 C 
BRANCH  23  24
HETATM   24  C10 UNL     1     -17.851  33.736 -10.264  1.00  0.00     0.231 C 
BRANCH  24  25
HETATM   25  N6  UNL     1     -17.314  32.409 -10.111  1.00  0.00    -0.079 N 
ATOM     26  H63 UNL     1     -18.039  31.753  -9.819  1.00  0.00     0.274 HD
ATOM     27  H62 UNL     1     -17.078  32.003 -11.017  1.00  0.00     0.274 HD
ATOM     28  H61 UNL     1     -16.516  32.377  -9.478  1.00  0.00     0.274 HD
ENDBRANCH  24  25
ENDBRANCH  23  24
ENDBRANCH  22  23
ENDBRANCH  11  22
TORSDOF 8
ENDMDL
