MODEL 1
REMARK VINA RESULT: -6.373219516      0.000      0.000
REMARK  8 active torsions:
REMARK  status: ('A' for Active; 'I' for Inactive)
REMARK    1  A    between atoms: N1_1  and  C1_5 
REMARK    2  A    between atoms: C1_5  and  C2_6 
REMARK    3  A    between atoms: C2_6  and  C3_7 
REMARK    4  A    between atoms: C3_7  and  N2_8 
REMARK    5  A    between atoms: N2_8  and  C4_10 
REMARK    6  A    between atoms: C4_10  and  C5_11 
REMARK    7  A    between atoms: C5_11  and  N3_12 
REMARK    8  A    between atoms: N3_12  and  C6_14 
ROOT
HETATM    1  C6  UNL     1     -25.459  30.024 -14.225  1.00  0.00     0.681 A 
HETATM    2  N4  UNL     1     -26.038  28.873 -13.879  1.00  0.00    -0.154 N 
ATOM      3  H4  UNL     1     -25.459  28.032 -13.895  1.00  0.00     0.187 HD
HETATM    4  C7  UNL     1     -27.334  28.732 -13.508  1.00  0.00     0.288 A 
HETATM    5  O1  UNL     1     -27.799  27.610 -13.199  1.00  0.00    -0.265 OA
HETATM    6  C8  UNL     1     -28.097  29.890 -13.495  1.00  0.00     0.129 A 
HETATM    7  N5  UNL     1     -29.388  30.104 -13.189  1.00  0.00    -0.360 N 
ATOM      8  H5  UNL     1     -30.034  29.371 -12.895  1.00  0.00     0.165 HD
HETATM    9  C9  UNL     1     -29.727  31.390 -13.313  1.00  0.00     0.091 A 
HETATM   10  C10 UNL     1     -28.571  32.025 -13.725  1.00  0.00     0.049 A 
HETATM   11  C11 UNL     1     -27.537  31.099 -13.844  1.00  0.00     0.082 A 
HETATM   12  N6  UNL     1     -26.261  31.144 -14.194  1.00  0.00    -0.189 N 
ATOM     13  H6  UNL     1     -25.855  32.044 -14.451  1.00  0.00     0.184 HD
ENDROOT
BRANCH   1  14
HETATM   14  N3  UNL     1     -24.248  30.168 -14.625  1.00  0.00    -0.224 N 
ATOM     15  H3  UNL     1     -23.518  29.695 -14.093  1.00  0.00     0.177 HD
BRANCH  14  16
HETATM   16  C5  UNL     1     -23.843  30.936 -15.752  1.00  0.00     0.157 C 
BRANCH  16  17
HETATM   17  C4  UNL     1     -22.608  31.800 -15.384  1.00  0.00     0.139 C 
BRANCH  17  18
HETATM   18  N2  UNL     1     -22.838  32.603 -14.262  1.00  0.00    -0.401 N 
ATOM     19  H2  UNL     1     -22.986  32.156 -13.357  1.00  0.00     0.158 HD
BRANCH  18  20
HETATM   20  C3  UNL     1     -22.873  34.001 -14.343  1.00  0.00     0.057 C 
BRANCH  20  21
HETATM   21  C2  UNL     1     -23.478  34.625 -15.539  1.00  0.00     0.071 C 
BRANCH  21  22
HETATM   22  C1  UNL     1     -24.844  35.173 -15.429  1.00  0.00     0.234 C 
BRANCH  22  23
HETATM   23  N1  UNL     1     -25.796  34.134 -15.878  1.00  0.00    -0.079 N 
ATOM     24  H13 UNL     1     -25.708  33.922 -16.872  1.00  0.00     0.274 HD
ATOM     25  H12 UNL     1     -25.565  33.207 -15.519  1.00  0.00     0.274 HD
ATOM     26  H11 UNL     1     -26.737  34.431 -15.620  1.00  0.00     0.274 HD
ENDBRANCH  22  23
ENDBRANCH  21  22
ENDBRANCH  20  21
ENDBRANCH  18  20
ENDBRANCH  17  18
ENDBRANCH  16  17
ENDBRANCH  14  16
ENDBRANCH   1  14
TORSDOF 8
ENDMDL
MODEL 2
REMARK VINA RESULT: -6.219321448      1.128      2.123
REMARK  8 active torsions:
REMARK  status: ('A' for Active; 'I' for Inactive)
REMARK    1  A    between atoms: N1_1  and  C1_5 
REMARK    2  A    between atoms: C1_5  and  C2_6 
REMARK    3  A    between atoms: C2_6  and  C3_7 
REMARK    4  A    between atoms: C3_7  and  N2_8 
REMARK    5  A    between atoms: N2_8  and  C4_10 
REMARK    6  A    between atoms: C4_10  and  C5_11 
REMARK    7  A    between atoms: C5_11  and  N3_12 
REMARK    8  A    between atoms: N3_12  and  C6_14 
ROOT
HETATM    1  C6  UNL     1     -25.451  30.025 -14.242  1.00  0.00     0.681 A 
HETATM    2  N4  UNL     1     -26.029  28.877 -13.886  1.00  0.00    -0.154 N 
ATOM      3  H4  UNL     1     -25.450  28.037 -13.894  1.00  0.00     0.187 HD
HETATM    4  C7  UNL     1     -27.325  28.739 -13.513  1.00  0.00     0.288 A 
HETATM    5  O1  UNL     1     -27.789  27.619 -13.193  1.00  0.00    -0.265 OA
HETATM    6  C8  UNL     1     -28.089  29.896 -13.508  1.00  0.00     0.129 A 
HETATM    7  N5  UNL     1     -29.380  30.112 -13.203  1.00  0.00    -0.360 N 
ATOM      8  H5  UNL     1     -30.025  29.381 -12.903  1.00  0.00     0.165 HD
HETATM    9  C9  UNL     1     -29.720  31.396 -13.338  1.00  0.00     0.091 A 
HETATM   10  C10 UNL     1     -28.565  32.029 -13.757  1.00  0.00     0.049 A 
HETATM   11  C11 UNL     1     -27.529  31.102 -13.868  1.00  0.00     0.082 A 
HETATM   12  N6  UNL     1     -26.254  31.145 -14.220  1.00  0.00    -0.189 N 
ATOM     13  H6  UNL     1     -25.849  32.043 -14.485  1.00  0.00     0.184 HD
ENDROOT
BRANCH   1  14
HETATM   14  N3  UNL     1     -24.241  30.166 -14.644  1.00  0.00    -0.224 N 
ATOM     15  H3  UNL     1     -23.515  29.665 -14.133  1.00  0.00     0.177 HD
BRANCH  14  16
HETATM   16  C5  UNL     1     -23.831  30.968 -15.745  1.00  0.00     0.157 C 
BRANCH  16  17
HETATM   17  C4  UNL     1     -22.592  31.814 -15.349  1.00  0.00     0.139 C 
BRANCH  17  18
HETATM   18  N2  UNL     1     -22.825  32.594 -14.212  1.00  0.00    -0.401 N 
ATOM     19  H2  UNL     1     -23.119  32.136 -13.350  1.00  0.00     0.158 HD
BRANCH  18  20
HETATM   20  C3  UNL     1     -22.666  33.986 -14.220  1.00  0.00     0.057 C 
BRANCH  20  21
HETATM   21  C2  UNL     1     -21.814  34.606 -13.182  1.00  0.00     0.071 C 
BRANCH  21  22
HETATM   22  C1  UNL     1     -21.168  33.726 -12.188  1.00  0.00     0.234 C 
BRANCH  22  23
HETATM   23  N1  UNL     1     -19.808  33.405 -12.671  1.00  0.00    -0.079 N 
ATOM     24  H13 UNL     1     -19.619  32.403 -12.676  1.00  0.00     0.274 HD
ATOM     25  H12 UNL     1     -19.695  33.572 -13.671  1.00  0.00     0.274 HD
ATOM     26  H11 UNL     1     -19.138  33.929 -12.107  1.00  0.00     0.274 HD
ENDBRANCH  22  23
ENDBRANCH  21  22
ENDBRANCH  20  21
ENDBRANCH  18  20
ENDBRANCH  17  18
ENDBRANCH  16  17
ENDBRANCH  14  16
ENDBRANCH   1  14
TORSDOF 8
ENDMDL
MODEL 3
REMARK VINA RESULT: -6.176424873      1.088      1.291
REMARK  8 active torsions:
REMARK  status: ('A' for Active; 'I' for Inactive)
REMARK    1  A    between atoms: N1_1  and  C1_5 
REMARK    2  A    between atoms: C1_5  and  C2_6 
REMARK    3  A    between atoms: C2_6  and  C3_7 
REMARK    4  A    between atoms: C3_7  and  N2_8 
REMARK    5  A    between atoms: N2_8  and  C4_10 
REMARK    6  A    between atoms: C4_10  and  C5_11 
REMARK    7  A    between atoms: C5_11  and  N3_12 
REMARK    8  A    between atoms: N3_12  and  C6_14 
ROOT
HETATM    1  C6  UNL     1     -25.460  30.014 -14.227  1.00  0.00     0.681 A 
HETATM    2  N4  UNL     1     -26.054  28.871 -13.881  1.00  0.00    -0.154 N 
ATOM      3  H4  UNL     1     -25.486  28.023 -13.896  1.00  0.00     0.187 HD
HETATM    4  C7  UNL     1     -27.352  28.747 -13.512  1.00  0.00     0.288 A 
HETATM    5  O1  UNL     1     -27.831  27.631 -13.203  1.00  0.00    -0.265 OA
HETATM    6  C8  UNL     1     -28.101  29.914 -13.499  1.00  0.00     0.129 A 
HETATM    7  N5  UNL     1     -29.389  30.145 -13.194  1.00  0.00    -0.360 N 
ATOM      8  H5  UNL     1     -30.044  29.420 -12.901  1.00  0.00     0.165 HD
HETATM    9  C9  UNL     1     -29.712  31.435 -13.319  1.00  0.00     0.091 A 
HETATM   10  C10 UNL     1     -28.548  32.055 -13.730  1.00  0.00     0.049 A 
HETATM   11  C11 UNL     1     -27.524  31.116 -13.848  1.00  0.00     0.082 A 
HETATM   12  N6  UNL     1     -26.248  31.145 -14.197  1.00  0.00    -0.189 N 
ATOM     13  H6  UNL     1     -25.831  32.040 -14.454  1.00  0.00     0.184 HD
ENDROOT
BRANCH   1  14
HETATM   14  N3  UNL     1     -24.247  30.143 -14.626  1.00  0.00    -0.224 N 
ATOM     15  H3  UNL     1     -23.530  29.621 -14.124  1.00  0.00     0.177 HD
BRANCH  14  16
HETATM   16  C5  UNL     1     -23.824  30.957 -15.714  1.00  0.00     0.157 C 
BRANCH  16  17
HETATM   17  C4  UNL     1     -22.501  31.680 -15.347  1.00  0.00     0.139 C 
BRANCH  17  18
HETATM   18  N2  UNL     1     -22.704  32.733 -14.449  1.00  0.00    -0.401 N 
ATOM     19  H2  UNL     1     -22.346  32.648 -13.498  1.00  0.00     0.158 HD
BRANCH  18  20
HETATM   20  C3  UNL     1     -23.384  33.902 -14.816  1.00  0.00     0.057 C 
BRANCH  20  21
HETATM   21  C2  UNL     1     -24.558  34.317 -14.018  1.00  0.00     0.071 C 
BRANCH  21  22
HETATM   22  C1  UNL     1     -24.374  34.555 -12.573  1.00  0.00     0.234 C 
BRANCH  22  23
HETATM   23  N1  UNL     1     -25.168  33.549 -11.834  1.00  0.00    -0.079 N 
ATOM     24  H13 UNL     1     -26.169  33.741 -11.862  1.00  0.00     0.274 HD
ATOM     25  H12 UNL     1     -25.188  32.643 -12.302  1.00  0.00     0.274 HD
ATOM     26  H11 UNL     1     -24.804  33.493 -10.883  1.00  0.00     0.274 HD
ENDBRANCH  22  23
ENDBRANCH  21  22
ENDBRANCH  20  21
ENDBRANCH  18  20
ENDBRANCH  17  18
ENDBRANCH  16  17
ENDBRANCH  14  16
ENDBRANCH   1  14
TORSDOF 8
ENDMDL
MODEL 4
REMARK VINA RESULT: -6.062203603      1.707      2.098
REMARK  8 active torsions:
REMARK  status: ('A' for Active; 'I' for Inactive)
REMARK    1  A    between atoms: N1_1  and  C1_5 
REMARK    2  A    between atoms: C1_5  and  C2_6 
REMARK    3  A    between atoms: C2_6  and  C3_7 
REMARK    4  A    between atoms: C3_7  and  N2_8 
REMARK    5  A    between atoms: N2_8  and  C4_10 
REMARK    6  A    between atoms: C4_10  and  C5_11 
REMARK    7  A    between atoms: C5_11  and  N3_12 
REMARK    8  A    between atoms: N3_12  and  C6_14 
ROOT
HETATM    1  C6  UNL     1     -25.469  30.572 -14.203  1.00  0.00     0.681 A 
HETATM    2  N4  UNL     1     -26.299  31.518 -14.646  1.00  0.00    -0.154 N 
ATOM      3  H4  UNL     1     -26.046  32.000 -15.508  1.00  0.00     0.187 HD
HETATM    4  C7  UNL     1     -27.453  31.889 -14.038  1.00  0.00     0.288 A 
HETATM    5  O1  UNL     1     -28.176  32.791 -14.523  1.00  0.00    -0.265 OA
HETATM    6  C8  UNL     1     -27.774  31.217 -12.869  1.00  0.00     0.129 A 
HETATM    7  N5  UNL     1     -28.818  31.335 -12.030  1.00  0.00    -0.360 N 
ATOM      8  H5  UNL     1     -29.584  31.996 -12.162  1.00  0.00     0.165 HD
HETATM    9  C9  UNL     1     -28.736  30.485 -11.003  1.00  0.00     0.091 A 
HETATM   10  C10 UNL     1     -27.561  29.787 -11.212  1.00  0.00     0.049 A 
HETATM   11  C11 UNL     1     -26.944  30.233 -12.379  1.00  0.00     0.082 A 
HETATM   12  N6  UNL     1     -25.835  29.935 -13.037  1.00  0.00    -0.189 N 
ATOM     13  H6  UNL     1     -25.226  29.205 -12.666  1.00  0.00     0.184 HD
ENDROOT
BRANCH   1  14
HETATM   14  N3  UNL     1     -24.349  30.242 -14.737  1.00  0.00    -0.224 N 
ATOM     15  H3  UNL     1     -23.842  29.463 -14.320  1.00  0.00     0.177 HD
BRANCH  14  16
HETATM   16  C5  UNL     1     -23.761  30.877 -15.866  1.00  0.00     0.157 C 
BRANCH  16  17
HETATM   17  C4  UNL     1     -22.517  31.692 -15.423  1.00  0.00     0.139 C 
BRANCH  17  18
HETATM   18  N2  UNL     1     -22.795  32.540 -14.346  1.00  0.00    -0.401 N 
ATOM     19  H2  UNL     1     -22.930  32.134 -13.419  1.00  0.00     0.158 HD
BRANCH  18  20
HETATM   20  C3  UNL     1     -22.894  33.929 -14.499  1.00  0.00     0.057 C 
BRANCH  20  21
HETATM   21  C2  UNL     1     -23.858  34.464 -15.486  1.00  0.00     0.071 C 
BRANCH  21  22
HETATM   22  C1  UNL     1     -25.161  34.953 -14.997  1.00  0.00     0.234 C 
BRANCH  22  23
HETATM   23  N1  UNL     1     -26.169  34.717 -16.054  1.00  0.00    -0.079 N 
ATOM     24  H13 UNL     1     -26.856  35.469 -16.117  1.00  0.00     0.274 HD
ATOM     25  H12 UNL     1     -25.782  34.804 -16.993  1.00  0.00     0.274 HD
ATOM     26  H11 UNL     1     -26.597  33.806 -15.888  1.00  0.00     0.274 HD
ENDBRANCH  22  23
ENDBRANCH  21  22
ENDBRANCH  20  21
ENDBRANCH  18  20
ENDBRANCH  17  18
ENDBRANCH  16  17
ENDBRANCH  14  16
ENDBRANCH   1  14
TORSDOF 8
ENDMDL
MODEL 5
REMARK VINA RESULT: -6.059634731      1.832      3.364
REMARK  8 active torsions:
REMARK  status: ('A' for Active; 'I' for Inactive)
REMARK    1  A    between atoms: N1_1  and  C1_5 
REMARK    2  A    between atoms: C1_5  and  C2_6 
REMARK    3  A    between atoms: C2_6  and  C3_7 
REMARK    4  A    between atoms: C3_7  and  N2_8 
REMARK    5  A    between atoms: N2_8  and  C4_10 
REMARK    6  A    between atoms: C4_10  and  C5_11 
REMARK    7  A    between atoms: C5_11  and  N3_12 
REMARK    8  A    between atoms: N3_12  and  C6_14 
ROOT
HETATM    1  C6  UNL     1     -27.690  31.493 -12.374  1.00  0.00     0.681 A 
HETATM    2  N4  UNL     1     -27.901  30.245 -12.796  1.00  0.00    -0.154 N 
ATOM      3  H4  UNL     1     -27.102  29.610 -12.805  1.00  0.00     0.187 HD
HETATM    4  C7  UNL     1     -29.094  29.754 -13.214  1.00  0.00     0.288 A 
HETATM    5  O1  UNL     1     -29.204  28.566 -13.597  1.00  0.00    -0.265 OA
HETATM    6  C8  UNL     1     -30.162  30.637 -13.191  1.00  0.00     0.129 A 
HETATM    7  N5  UNL     1     -31.453  30.485 -13.534  1.00  0.00    -0.360 N 
ATOM      8  H5  UNL     1     -31.850  29.614 -13.886  1.00  0.00     0.165 HD
HETATM    9  C9  UNL     1     -32.155  31.607 -13.358  1.00  0.00     0.091 A 
HETATM   10  C10 UNL     1     -31.244  32.525 -12.872  1.00  0.00     0.049 A 
HETATM   11  C11 UNL     1     -29.987  31.934 -12.760  1.00  0.00     0.082 A 
HETATM   12  N6  UNL     1     -28.785  32.329 -12.369  1.00  0.00    -0.189 N 
ATOM     13  H6  UNL     1     -28.666  33.291 -12.053  1.00  0.00     0.184 HD
ENDROOT
BRANCH   1  14
HETATM   14  N3  UNL     1     -26.560  31.988 -12.021  1.00  0.00    -0.224 N 
ATOM     15  H3  UNL     1     -25.910  31.374 -11.531  1.00  0.00     0.177 HD
BRANCH  14  16
HETATM   16  C5  UNL     1     -26.142  33.327 -12.259  1.00  0.00     0.157 C 
BRANCH  16  17
HETATM   17  C4  UNL     1     -25.782  33.507 -13.758  1.00  0.00     0.139 C 
BRANCH  17  18
HETATM   18  N2  UNL     1     -24.687  32.724 -14.138  1.00  0.00    -0.401 N 
ATOM     19  H2  UNL     1     -23.992  32.472 -13.435  1.00  0.00     0.158 HD
BRANCH  18  20
HETATM   20  C3  UNL     1     -24.514  32.275 -15.453  1.00  0.00     0.057 C 
BRANCH  20  21
HETATM   21  C2  UNL     1     -24.355  30.824 -15.690  1.00  0.00     0.071 C 
BRANCH  21  22
HETATM   22  C1  UNL     1     -25.357  29.906 -15.114  1.00  0.00     0.234 C 
BRANCH  22  23
HETATM   23  N1  UNL     1     -24.745  29.223 -13.954  1.00  0.00    -0.079 N 
ATOM     24  H13 UNL     1     -24.225  28.387 -14.219  1.00  0.00     0.274 HD
ATOM     25  H12 UNL     1     -23.967  29.748 -13.553  1.00  0.00     0.274 HD
ATOM     26  H11 UNL     1     -25.480  29.030 -13.273  1.00  0.00     0.274 HD
ENDBRANCH  22  23
ENDBRANCH  21  22
ENDBRANCH  20  21
ENDBRANCH  18  20
ENDBRANCH  17  18
ENDBRANCH  16  17
ENDBRANCH  14  16
ENDBRANCH   1  14
TORSDOF 8
ENDMDL
