MODEL 1
REMARK VINA RESULT: -6.083749668      0.000      0.000
REMARK  8 active torsions:
REMARK  status: ('A' for Active; 'I' for Inactive)
REMARK    1  A    between atoms: N2_6  and  C4_8 
REMARK    2  A    between atoms: C4_8  and  C5_9 
REMARK    3  A    between atoms: C5_9  and  N3_10 
REMARK    4  A    between atoms: N5_17  and  C7_19 
REMARK    5  A    between atoms: C7_19  and  C8_20 
REMARK    6  A    between atoms: C8_20  and  C9_21 
REMARK    7  A    between atoms: C9_21  and  C10_22 
REMARK    8  A    between atoms: C10_22  and  N6_23 
ROOT
HETATM    1  C1  UNL     1     -21.492  37.155 -13.148  1.00  0.00     0.064 C 
HETATM    2  C2  UNL     1     -21.315  35.846 -13.122  1.00  0.00     0.127 A 
HETATM    3  N1  UNL     1     -20.164  35.278 -12.498  1.00  0.00    -0.177 N 
ATOM      4  H1  UNL     1     -19.464  35.881 -12.066  1.00  0.00     0.185 HD
HETATM    5  C3  UNL     1     -19.998  33.861 -12.484  1.00  0.00     0.694 A 
HETATM    6  N2  UNL     1     -18.952  33.355 -11.916  1.00  0.00    -0.224 N 
ATOM      7  H2  UNL     1     -18.845  32.340 -11.914  1.00  0.00     0.177 HD
HETATM    8  N4  UNL     1     -20.998  33.063 -13.100  1.00  0.00    -0.022 N 
ATOM      9  H4  UNL     1     -20.883  32.049 -13.093  1.00  0.00     0.203 HD
HETATM   10  C6  UNL     1     -22.149  33.610 -13.725  1.00  0.00     0.694 A 
HETATM   11  N5  UNL     1     -23.051  32.891 -14.280  1.00  0.00    -0.226 N 
ATOM     12  H5  UNL     1     -22.907  31.881 -14.255  1.00  0.00     0.177 HD
HETATM   13  N7  UNL     1     -22.310  35.021 -13.736  1.00  0.00    -0.177 N 
ATOM     14  H7  UNL     1     -23.127  35.442 -14.178  1.00  0.00     0.185 HD
ENDROOT
BRANCH  11  15
HETATM   15  C7  UNL     1     -24.231  33.349 -14.927  1.00  0.00     0.138 C 
BRANCH  15  16
HETATM   16  C8  UNL     1     -24.953  32.271 -15.695  1.00  0.00     0.022 C 
BRANCH  16  17
HETATM   17  C9  UNL     1     -24.369  30.910 -15.465  1.00  0.00     0.029 C 
BRANCH  17  18
HETATM   18  C10 UNL     1     -25.383  29.896 -14.975  1.00  0.00     0.229 C 
BRANCH  18  19
HETATM   19  N6  UNL     1     -24.747  29.163 -13.891  1.00  0.00    -0.079 N 
ATOM     20  H63 UNL     1     -25.348  28.451 -13.478  1.00  0.00     0.274 HD
ATOM     21  H62 UNL     1     -24.006  28.537 -14.208  1.00  0.00     0.274 HD
ATOM     22  H61 UNL     1     -24.425  29.859 -13.219  1.00  0.00     0.274 HD
ENDBRANCH  18  19
ENDBRANCH  17  18
ENDBRANCH  16  17
ENDBRANCH  15  16
ENDBRANCH  11  15
BRANCH   6  23
HETATM   23  C4  UNL     1     -17.933  34.147 -11.289  1.00  0.00     0.165 C 
BRANCH  23  24
HETATM   24  C5  UNL     1     -17.642  33.603  -9.886  1.00  0.00     0.249 C 
BRANCH  24  25
HETATM   25  N3  UNL     1     -17.138  32.249  -9.988  1.00  0.00    -0.078 N 
ATOM     26  H33 UNL     1     -17.757  31.573  -9.539  1.00  0.00     0.274 HD
ATOM     27  H32 UNL     1     -17.193  31.888 -10.940  1.00  0.00     0.274 HD
ATOM     28  H31 UNL     1     -16.190  32.210  -9.615  1.00  0.00     0.274 HD
ENDBRANCH  24  25
ENDBRANCH  23  24
ENDBRANCH   6  23
TORSDOF 8
ENDMDL
MODEL 2
REMARK VINA RESULT: -5.829894971      1.477      1.847
REMARK  8 active torsions:
REMARK  status: ('A' for Active; 'I' for Inactive)
REMARK    1  A    between atoms: N2_6  and  C4_8 
REMARK    2  A    between atoms: C4_8  and  C5_9 
REMARK    3  A    between atoms: C5_9  and  N3_10 
REMARK    4  A    between atoms: N5_17  and  C7_19 
REMARK    5  A    between atoms: C7_19  and  C8_20 
REMARK    6  A    between atoms: C8_20  and  C9_21 
REMARK    7  A    between atoms: C9_21  and  C10_22 
REMARK    8  A    between atoms: C10_22  and  N6_23 
ROOT
HETATM    1  C1  UNL     1     -19.131  37.076 -12.494  1.00  0.00     0.064 C 
HETATM    2  C2  UNL     1     -19.465  35.820 -12.260  1.00  0.00     0.127 A 
HETATM    3  N1  UNL     1     -18.686  35.009 -11.381  1.00  0.00    -0.177 N 
ATOM      4  H1  UNL     1     -17.859  35.395 -10.925  1.00  0.00     0.185 HD
HETATM    5  C3  UNL     1     -19.070  33.655 -11.144  1.00  0.00     0.694 A 
HETATM    6  N2  UNL     1     -18.357  32.929 -10.346  1.00  0.00    -0.224 N 
ATOM      7  H2  UNL     1     -18.642  31.962 -10.187  1.00  0.00     0.177 HD
HETATM    8  N4  UNL     1     -20.227  33.162 -11.803  1.00  0.00    -0.022 N 
ATOM      9  H4  UNL     1     -20.505  32.194 -11.639  1.00  0.00     0.203 HD
HETATM   10  C6  UNL     1     -21.015  33.953 -12.680  1.00  0.00     0.694 A 
HETATM   11  N5  UNL     1     -22.058  33.509 -13.274  1.00  0.00    -0.226 N 
ATOM     12  H5  UNL     1     -22.310  32.538 -13.088  1.00  0.00     0.177 HD
HETATM   13  N7  UNL     1     -20.628  35.300 -12.912  1.00  0.00    -0.177 N 
ATOM     14  H7  UNL     1     -21.175  35.892 -13.537  1.00  0.00     0.185 HD
ENDROOT
BRANCH  11  15
HETATM   15  C7  UNL     1     -22.903  34.224 -14.166  1.00  0.00     0.138 C 
BRANCH  15  16
HETATM   16  C8  UNL     1     -23.398  33.394 -15.323  1.00  0.00     0.022 C 
BRANCH  16  17
HETATM   17  C9  UNL     1     -22.859  31.995 -15.300  1.00  0.00     0.029 C 
BRANCH  17  18
HETATM   18  C10 UNL     1     -23.852  30.961 -15.791  1.00  0.00     0.229 C 
BRANCH  18  19
HETATM   19  N6  UNL     1     -24.251  30.183 -14.628  1.00  0.00    -0.079 N 
ATOM     20  H63 UNL     1     -24.594  29.253 -14.863  1.00  0.00     0.274 HD
ATOM     21  H62 UNL     1     -23.463  29.887 -14.051  1.00  0.00     0.274 HD
ATOM     22  H61 UNL     1     -24.931  30.748 -14.120  1.00  0.00     0.274 HD
ENDBRANCH  18  19
ENDBRANCH  17  18
ENDBRANCH  16  17
ENDBRANCH  15  16
ENDBRANCH  11  15
BRANCH   6  23
HETATM   23  C4  UNL     1     -17.186  33.411  -9.673  1.00  0.00     0.165 C 
BRANCH  23  24
HETATM   24  C5  UNL     1     -17.274  33.083  -8.178  1.00  0.00     0.249 C 
BRANCH  24  25
HETATM   25  N3  UNL     1     -17.554  31.672  -8.009  1.00  0.00    -0.078 N 
ATOM     26  H33 UNL     1     -16.951  31.241  -7.308  1.00  0.00     0.274 HD
ATOM     27  H32 UNL     1     -18.451  31.510  -7.550  1.00  0.00     0.274 HD
ATOM     28  H31 UNL     1     -17.493  31.203  -8.912  1.00  0.00     0.274 HD
ENDBRANCH  24  25
ENDBRANCH  23  24
ENDBRANCH   6  23
TORSDOF 8
ENDMDL
MODEL 3
REMARK VINA RESULT: -5.815417699      1.343      6.381
REMARK  8 active torsions:
REMARK  status: ('A' for Active; 'I' for Inactive)
REMARK    1  A    between atoms: N2_6  and  C4_8 
REMARK    2  A    between atoms: C4_8  and  C5_9 
REMARK    3  A    between atoms: C5_9  and  N3_10 
REMARK    4  A    between atoms: N5_17  and  C7_19 
REMARK    5  A    between atoms: C7_19  and  C8_20 
REMARK    6  A    between atoms: C8_20  and  C9_21 
REMARK    7  A    between atoms: C9_21  and  C10_22 
REMARK    8  A    between atoms: C10_22  and  N6_23 
ROOT
HETATM    1  C1  UNL     1     -24.621  35.666 -15.704  1.00  0.00     0.064 C 
HETATM    2  C2  UNL     1     -23.847  34.747 -15.154  1.00  0.00     0.127 A 
HETATM    3  N1  UNL     1     -24.066  33.361 -15.414  1.00  0.00    -0.177 N 
ATOM      4  H1  UNL     1     -24.825  33.067 -16.029  1.00  0.00     0.185 HD
HETATM    5  C3  UNL     1     -23.216  32.388 -14.808  1.00  0.00     0.694 A 
HETATM    6  N2  UNL     1     -23.421  31.134 -15.050  1.00  0.00    -0.224 N 
ATOM      7  H2  UNL     1     -22.807  30.449 -14.609  1.00  0.00     0.177 HD
HETATM    8  N4  UNL     1     -22.174  32.844 -13.959  1.00  0.00    -0.022 N 
ATOM      9  H4  UNL     1     -21.564  32.153 -13.522  1.00  0.00     0.203 HD
HETATM   10  C6  UNL     1     -21.941  34.219 -13.689  1.00  0.00     0.694 A 
HETATM   11  N5  UNL     1     -21.002  34.631 -12.924  1.00  0.00    -0.226 N 
ATOM     12  H5  UNL     1     -20.409  33.915 -12.503  1.00  0.00     0.177 HD
HETATM   13  N7  UNL     1     -22.790  35.183 -14.295  1.00  0.00    -0.177 N 
ATOM     14  H7  UNL     1     -22.646  36.177 -14.119  1.00  0.00     0.185 HD
ENDROOT
BRANCH  11  15
HETATM   15  C7  UNL     1     -20.696  35.980 -12.596  1.00  0.00     0.138 C 
BRANCH  15  16
HETATM   16  C8  UNL     1     -19.223  36.294 -12.653  1.00  0.00     0.022 C 
BRANCH  16  17
HETATM   17  C9  UNL     1     -18.380  35.070 -12.843  1.00  0.00     0.029 C 
BRANCH  17  18
HETATM   18  C10 UNL     1     -17.617  34.666 -11.597  1.00  0.00     0.229 C 
BRANCH  18  19
HETATM   19  N6  UNL     1     -18.138  33.368 -11.194  1.00  0.00    -0.079 N 
ATOM     20  H63 UNL     1     -19.075  33.416 -10.795  1.00  0.00     0.274 HD
ATOM     21  H62 UNL     1     -18.366  32.762 -11.983  1.00  0.00     0.274 HD
ATOM     22  H61 UNL     1     -17.449  32.963 -10.561  1.00  0.00     0.274 HD
ENDBRANCH  18  19
ENDBRANCH  17  18
ENDBRANCH  16  17
ENDBRANCH  15  16
ENDBRANCH  11  15
BRANCH   6  23
HETATM   23  C4  UNL     1     -24.469  30.656 -15.905  1.00  0.00     0.165 C 
BRANCH  23  24
HETATM   24  C5  UNL     1     -25.504  29.884 -15.078  1.00  0.00     0.249 C 
BRANCH  24  25
HETATM   25  N3  UNL     1     -24.841  29.215 -13.978  1.00  0.00    -0.078 N 
ATOM     26  H33 UNL     1     -23.825  29.276 -14.046  1.00  0.00     0.274 HD
ATOM     27  H32 UNL     1     -24.960  29.714 -13.096  1.00  0.00     0.274 HD
ATOM     28  H31 UNL     1     -25.167  28.250 -13.922  1.00  0.00     0.274 HD
ENDBRANCH  24  25
ENDBRANCH  23  24
ENDBRANCH   6  23
TORSDOF 8
ENDMDL
MODEL 4
REMARK VINA RESULT: -5.760369392      1.369      1.424
REMARK  8 active torsions:
REMARK  status: ('A' for Active; 'I' for Inactive)
REMARK    1  A    between atoms: N2_6  and  C4_8 
REMARK    2  A    between atoms: C4_8  and  C5_9 
REMARK    3  A    between atoms: C5_9  and  N3_10 
REMARK    4  A    between atoms: N5_17  and  C7_19 
REMARK    5  A    between atoms: C7_19  and  C8_20 
REMARK    6  A    between atoms: C8_20  and  C9_21 
REMARK    7  A    between atoms: C9_21  and  C10_22 
REMARK    8  A    between atoms: C10_22  and  N6_23 
ROOT
HETATM    1  C1  UNL     1     -23.799  35.404 -10.734  1.00  0.00     0.064 C 
HETATM    2  C2  UNL     1     -22.987  34.707 -11.509  1.00  0.00     0.127 A 
HETATM    3  N1  UNL     1     -21.678  34.355 -11.062  1.00  0.00    -0.177 N 
ATOM      4  H1  UNL     1     -21.356  34.640 -10.137  1.00  0.00     0.185 HD
HETATM    5  C3  UNL     1     -20.820  33.602 -11.919  1.00  0.00     0.694 A 
HETATM    6  N2  UNL     1     -19.635  33.288 -11.506  1.00  0.00    -0.224 N 
ATOM      7  H2  UNL     1     -19.032  32.750 -12.129  1.00  0.00     0.177 HD
HETATM    8  N4  UNL     1     -21.310  33.230 -13.198  1.00  0.00    -0.022 N 
ATOM      9  H4  UNL     1     -20.700  32.692 -13.815  1.00  0.00     0.203 HD
HETATM   10  C6  UNL     1     -22.609  33.570 -13.659  1.00  0.00     0.694 A 
HETATM   11  N5  UNL     1     -23.051  33.235 -14.812  1.00  0.00    -0.226 N 
ATOM     12  H5  UNL     1     -22.418  32.697 -15.405  1.00  0.00     0.177 HD
HETATM   13  N7  UNL     1     -23.459  34.320 -12.802  1.00  0.00    -0.177 N 
ATOM     14  H7  UNL     1     -24.397  34.579 -13.107  1.00  0.00     0.185 HD
ENDROOT
BRANCH  11  15
HETATM   15  C7  UNL     1     -24.331  33.531 -15.356  1.00  0.00     0.138 C 
BRANCH  15  16
HETATM   16  C8  UNL     1     -25.117  32.306 -15.748  1.00  0.00     0.022 C 
BRANCH  16  17
HETATM   17  C9  UNL     1     -24.416  31.032 -15.385  1.00  0.00     0.029 C 
BRANCH  17  18
HETATM   18  C10 UNL     1     -25.364  29.914 -14.997  1.00  0.00     0.229 C 
BRANCH  18  19
HETATM   19  N6  UNL     1     -24.734  29.199 -13.897  1.00  0.00    -0.079 N 
ATOM     20  H63 UNL     1     -23.904  29.667 -13.536  1.00  0.00     0.274 HD
ATOM     21  H62 UNL     1     -25.279  29.224 -13.035  1.00  0.00     0.274 HD
ATOM     22  H61 UNL     1     -24.551  28.254 -14.232  1.00  0.00     0.274 HD
ENDBRANCH  18  19
ENDBRANCH  17  18
ENDBRANCH  16  17
ENDBRANCH  15  16
ENDBRANCH  11  15
BRANCH   6  23
HETATM   23  C4  UNL     1     -19.125  33.656 -10.217  1.00  0.00     0.165 C 
BRANCH  23  24
HETATM   24  C5  UNL     1     -17.592  33.654 -10.244  1.00  0.00     0.249 C 
BRANCH  24  25
HETATM   25  N3  UNL     1     -17.107  32.304 -10.048  1.00  0.00    -0.078 N 
ATOM     26  H33 UNL     1     -17.357  31.934  -9.131  1.00  0.00     0.274 HD
ATOM     27  H32 UNL     1     -17.612  31.626 -10.621  1.00  0.00     0.274 HD
ATOM     28  H31 UNL     1     -16.102  32.276 -10.215  1.00  0.00     0.274 HD
ENDBRANCH  24  25
ENDBRANCH  23  24
ENDBRANCH   6  23
TORSDOF 8
ENDMDL
MODEL 5
REMARK VINA RESULT: -5.757347354      2.022      2.436
REMARK  8 active torsions:
REMARK  status: ('A' for Active; 'I' for Inactive)
REMARK    1  A    between atoms: N2_6  and  C4_8 
REMARK    2  A    between atoms: C4_8  and  C5_9 
REMARK    3  A    between atoms: C5_9  and  N3_10 
REMARK    4  A    between atoms: N5_17  and  C7_19 
REMARK    5  A    between atoms: C7_19  and  C8_20 
REMARK    6  A    between atoms: C8_20  and  C9_21 
REMARK    7  A    between atoms: C9_21  and  C10_22 
REMARK    8  A    between atoms: C10_22  and  N6_23 
ROOT
HETATM    1  C1  UNL     1     -22.044  35.764  -9.340  1.00  0.00     0.064 C 
HETATM    2  C2  UNL     1     -21.366  34.908 -10.084  1.00  0.00     0.127 A 
HETATM    3  N1  UNL     1     -20.162  34.315  -9.600  1.00  0.00    -0.177 N 
ATOM      4  H1  UNL     1     -19.812  34.548  -8.671  1.00  0.00     0.185 HD
HETATM    5  C3  UNL     1     -19.450  33.394 -10.425  1.00  0.00     0.694 A 
HETATM    6  N2  UNL     1     -18.359  32.861  -9.978  1.00  0.00    -0.224 N 
ATOM      7  H2  UNL     1     -17.859  32.205 -10.578  1.00  0.00     0.177 HD
HETATM    8  N4  UNL     1     -19.974  33.102 -11.712  1.00  0.00    -0.022 N 
ATOM      9  H4  UNL     1     -19.468  32.445 -12.306  1.00  0.00     0.203 HD
HETATM   10  C6  UNL     1     -21.170  33.682 -12.210  1.00  0.00     0.694 A 
HETATM   11  N5  UNL     1     -21.644  33.419 -13.370  1.00  0.00    -0.226 N 
ATOM     12  H5  UNL     1     -21.115  32.757 -13.939  1.00  0.00     0.177 HD
HETATM   13  N7  UNL     1     -21.876  34.598 -11.385  1.00  0.00    -0.177 N 
ATOM     14  H7  UNL     1     -22.738  35.030 -11.717  1.00  0.00     0.185 HD
ENDROOT
BRANCH  11  15
HETATM   15  C7  UNL     1     -22.828  33.950 -13.950  1.00  0.00     0.138 C 
BRANCH  15  16
HETATM   16  C8  UNL     1     -23.179  33.328 -15.277  1.00  0.00     0.022 C 
BRANCH  16  17
HETATM   17  C9  UNL     1     -22.818  31.874 -15.345  1.00  0.00     0.029 C 
BRANCH  17  18
HETATM   18  C10 UNL     1     -23.977  30.987 -15.756  1.00  0.00     0.229 C 
BRANCH  18  19
HETATM   19  N6  UNL     1     -24.265  30.128 -14.618  1.00  0.00    -0.079 N 
ATOM     20  H63 UNL     1     -24.036  30.557 -13.722  1.00  0.00     0.274 HD
ATOM     21  H62 UNL     1     -25.263  30.003 -14.449  1.00  0.00     0.274 HD
ATOM     22  H61 UNL     1     -23.772  29.251 -14.783  1.00  0.00     0.274 HD
ENDBRANCH  18  19
ENDBRANCH  17  18
ENDBRANCH  16  17
ENDBRANCH  15  16
ENDBRANCH  11  15
BRANCH   6  23
HETATM   23  C4  UNL     1     -17.816  33.145  -8.681  1.00  0.00     0.165 C 
BRANCH  23  24
HETATM   24  C5  UNL     1     -18.126  31.988  -7.723  1.00  0.00     0.249 C 
BRANCH  24  25
HETATM   25  N3  UNL     1     -16.887  31.448  -7.202  1.00  0.00    -0.078 N 
ATOM     26  H33 UNL     1     -16.074  31.775  -7.725  1.00  0.00     0.274 HD
ATOM     27  H32 UNL     1     -16.646  31.845  -6.294  1.00  0.00     0.274 HD
ATOM     28  H31 UNL     1     -16.945  30.430  -7.175  1.00  0.00     0.274 HD
ENDBRANCH  24  25
ENDBRANCH  23  24
ENDBRANCH   6  23
TORSDOF 8
ENDMDL
