MODEL 1
REMARK VINA RESULT: -6.379421942      0.000      0.000
REMARK  6 active torsions:
REMARK  status: ('A' for Active; 'I' for Inactive)
REMARK    1  A    between atoms: C2_2  and  C3_3 
REMARK    2  A    between atoms: C4_4  and  C5_5 
REMARK    3  A    between atoms: C5_5  and  N1_6 
REMARK    4  A    between atoms: N1_6  and  N2_7 
REMARK    5  A    between atoms: N1_6  and  C6_10 
REMARK    6  A    between atoms: C10_17  and  N4_18 
REMARK       I    between atoms: N4_18  and  C11_20 
ROOT
HETATM    1  C6  UNL     1     -26.907  30.109 -13.869  1.00  0.00     0.135 C 
HETATM    2  C7  UNL     1     -27.441  28.719 -13.477  1.00  0.00     0.049 C 
HETATM    3  C8  UNL     1     -28.831  28.820 -12.944  1.00  0.00     0.125 C 
HETATM    4  N3  UNL     1     -29.584  29.965 -13.424  1.00  0.00    -0.359 N 
ATOM      5  H3  UNL     1     -30.530  29.885 -13.797  1.00  0.00     0.162 HD
HETATM    6  C9  UNL     1     -28.900  31.199 -13.333  1.00  0.00     0.242 C 
HETATM    7  O1  UNL     1     -29.405  32.281 -13.595  1.00  0.00    -0.271 OA
HETATM    8  C10 UNL     1     -27.470  31.074 -12.880  1.00  0.00     0.200 C 
ENDROOT
BRANCH   1   9
HETATM    9  N1  UNL     1     -25.549  30.153 -14.200  1.00  0.00    -0.324 N 
BRANCH   9  10
HETATM   10  C5  UNL     1     -25.305  30.597 -15.544  1.00  0.00     0.170 C 
BRANCH  10  11
HETATM   11  C4  UNL     1     -24.222  31.577 -15.715  1.00  0.00    -0.006 C 
HETATM   12  C3  UNL     1     -24.352  32.788 -15.224  1.00  0.00    -0.003 C 
BRANCH  12  13
HETATM   13  C2  UNL     1     -23.317  33.784 -15.361  1.00  0.00    -0.011 C 
HETATM   14  C1  UNL     1     -23.604  35.045 -15.732  1.00  0.00     0.011 C 
ENDBRANCH  12  13
ENDBRANCH  10  11
ENDBRANCH   9  10
BRANCH   9  15
HETATM   15  N2  UNL     1     -24.731  29.142 -13.808  1.00  0.00    -0.347 N 
ATOM     16  H22 UNL     1     -23.772  29.350 -13.531  1.00  0.00     0.176 HD
ATOM     17  H21 UNL     1     -25.189  28.462 -13.201  1.00  0.00     0.176 HD
ENDBRANCH   9  15
ENDBRANCH   1   9
BRANCH   8  18
HETATM   18  N4  UNL     1     -26.788  32.286 -12.674  1.00  0.00    -0.349 N 
HETATM   19  C11 UNL     1     -26.473  32.685 -11.324  1.00  0.00     0.182 C 
HETATM   20  N5  UNL     1     -27.022  32.139 -10.294  1.00  0.00    -0.374 N 
HETATM   21  N6  UNL     1     -25.526  33.701 -11.070  1.00  0.00    -0.064 NA
ATOM     22  H52 UNL     1     -27.706  31.405 -10.477  1.00  0.00     0.158 HD
ATOM     23  H51 UNL     1     -26.799  32.421  -9.340  1.00  0.00     0.158 HD
ATOM     24  H4  UNL     1     -26.519  32.872 -13.465  1.00  0.00     0.163 HD
ENDBRANCH   8  18
TORSDOF 6
ENDMDL
MODEL 2
REMARK VINA RESULT: -5.993230427      1.055      1.182
REMARK  6 active torsions:
REMARK  status: ('A' for Active; 'I' for Inactive)
REMARK    1  A    between atoms: C2_2  and  C3_3 
REMARK    2  A    between atoms: C4_4  and  C5_5 
REMARK    3  A    between atoms: C5_5  and  N1_6 
REMARK    4  A    between atoms: N1_6  and  N2_7 
REMARK    5  A    between atoms: N1_6  and  C6_10 
REMARK    6  A    between atoms: C10_17  and  N4_18 
REMARK       I    between atoms: N4_18  and  C11_20 
ROOT
HETATM    1  C6  UNL     1     -27.080  30.145 -13.904  1.00  0.00     0.135 C 
HETATM    2  C7  UNL     1     -27.709  28.802 -13.492  1.00  0.00     0.049 C 
HETATM    3  C8  UNL     1     -29.083  29.009 -12.944  1.00  0.00     0.125 C 
HETATM    4  N3  UNL     1     -29.755  30.201 -13.428  1.00  0.00    -0.359 N 
ATOM      5  H3  UNL     1     -30.709  30.188 -13.789  1.00  0.00     0.162 HD
HETATM    6  C9  UNL     1     -28.982  31.383 -13.356  1.00  0.00     0.242 C 
HETATM    7  O1  UNL     1     -29.410  32.496 -13.624  1.00  0.00    -0.271 OA
HETATM    8  C10 UNL     1     -27.560  31.158 -12.918  1.00  0.00     0.200 C 
ENDROOT
BRANCH   1   9
HETATM    9  N1  UNL     1     -25.727  30.086 -14.251  1.00  0.00    -0.324 N 
BRANCH   9  10
HETATM   10  C5  UNL     1     -25.485  30.337 -15.644  1.00  0.00     0.170 C 
BRANCH  10  11
HETATM   11  C4  UNL     1     -24.125  30.771 -15.997  1.00  0.00    -0.006 C 
HETATM   12  C3  UNL     1     -23.450  31.542 -15.175  1.00  0.00    -0.003 C 
BRANCH  12  13
HETATM   13  C2  UNL     1     -22.112  31.991 -15.472  1.00  0.00    -0.011 C 
HETATM   14  C1  UNL     1     -21.153  32.003 -14.530  1.00  0.00     0.011 C 
ENDBRANCH  12  13
ENDBRANCH  10  11
ENDBRANCH   9  10
BRANCH   9  15
HETATM   15  N2  UNL     1     -24.946  29.103 -13.735  1.00  0.00    -0.347 N 
ATOM     16  H22 UNL     1     -23.933  29.219 -13.724  1.00  0.00     0.176 HD
ATOM     17  H21 UNL     1     -25.315  28.701 -12.873  1.00  0.00     0.176 HD
ENDBRANCH   9  15
ENDBRANCH   1   9
BRANCH   8  18
HETATM   18  N4  UNL     1     -26.788  32.318 -12.733  1.00  0.00    -0.349 N 
HETATM   19  C11 UNL     1     -26.457  32.725 -11.388  1.00  0.00     0.182 C 
HETATM   20  N5  UNL     1     -27.057  32.247 -10.353  1.00  0.00    -0.374 N 
HETATM   21  N6  UNL     1     -25.438  33.671 -11.147  1.00  0.00    -0.064 NA
ATOM     22  H52 UNL     1     -27.794  31.563 -10.527  1.00  0.00     0.158 HD
ATOM     23  H51 UNL     1     -26.823  32.534  -9.402  1.00  0.00     0.158 HD
ATOM     24  H4  UNL     1     -26.468  32.863 -13.534  1.00  0.00     0.163 HD
ENDBRANCH   8  18
TORSDOF 6
ENDMDL
MODEL 3
REMARK VINA RESULT: -5.984464875      2.473      5.500
REMARK  6 active torsions:
REMARK  status: ('A' for Active; 'I' for Inactive)
REMARK    1  A    between atoms: C2_2  and  C3_3 
REMARK    2  A    between atoms: C4_4  and  C5_5 
REMARK    3  A    between atoms: C5_5  and  N1_6 
REMARK    4  A    between atoms: N1_6  and  N2_7 
REMARK    5  A    between atoms: N1_6  and  C6_10 
REMARK    6  A    between atoms: C10_17  and  N4_18 
REMARK       I    between atoms: N4_18  and  C11_20 
ROOT
HETATM    1  C6  UNL     1     -26.911  31.567 -14.369  1.00  0.00     0.135 C 
HETATM    2  C7  UNL     1     -25.936  32.569 -15.014  1.00  0.00     0.049 C 
HETATM    3  C8  UNL     1     -24.697  31.877 -15.474  1.00  0.00     0.125 C 
HETATM    4  N3  UNL     1     -24.868  30.468 -15.784  1.00  0.00    -0.359 N 
ATOM      5  H3  UNL     1     -24.529  30.049 -16.650  1.00  0.00     0.162 HD
HETATM    6  C9  UNL     1     -25.541  29.725 -14.787  1.00  0.00     0.242 C 
HETATM    7  O1  UNL     1     -25.691  28.512 -14.825  1.00  0.00    -0.271 OA
HETATM    8  C10 UNL     1     -26.073  30.560 -13.654  1.00  0.00     0.200 C 
ENDROOT
BRANCH   1   9
HETATM    9  N1  UNL     1     -28.018  32.139 -13.734  1.00  0.00    -0.324 N 
BRANCH   9  10
HETATM   10  C5  UNL     1     -29.231  31.394 -13.923  1.00  0.00     0.170 C 
BRANCH  10  11
HETATM   11  C4  UNL     1     -30.224  31.487 -12.842  1.00  0.00    -0.006 C 
HETATM   12  C3  UNL     1     -31.442  31.900 -13.108  1.00  0.00    -0.003 C 
BRANCH  12  13
HETATM   13  C2  UNL     1     -32.454  32.005 -12.085  1.00  0.00    -0.011 C 
HETATM   14  C1  UNL     1     -33.738  31.691 -12.336  1.00  0.00     0.011 C 
ENDBRANCH  12  13
ENDBRANCH  10  11
ENDBRANCH   9  10
BRANCH   9  15
HETATM   15  N2  UNL     1     -28.197  33.484 -13.783  1.00  0.00    -0.347 N 
ATOM     16  H22 UNL     1     -29.022  33.865 -14.247  1.00  0.00     0.176 HD
ATOM     17  H21 UNL     1     -27.972  33.957 -12.908  1.00  0.00     0.176 HD
ENDBRANCH   9  15
ENDBRANCH   1   9
BRANCH   8  18
HETATM   18  N4  UNL     1     -26.656  29.848 -12.592  1.00  0.00    -0.349 N 
HETATM   19  C11 UNL     1     -26.859  30.521 -11.333  1.00  0.00     0.182 C 
HETATM   20  N5  UNL     1     -26.287  31.640 -11.046  1.00  0.00    -0.374 N 
HETATM   21  N6  UNL     1     -27.716  29.980 -10.350  1.00  0.00    -0.064 NA
ATOM     22  H52 UNL     1     -25.668  32.032 -11.755  1.00  0.00     0.158 HD
ATOM     23  H51 UNL     1     -26.431  32.117 -10.155  1.00  0.00     0.158 HD
ATOM     24  H4  UNL     1     -26.931  28.872 -12.710  1.00  0.00     0.163 HD
ENDBRANCH   8  18
TORSDOF 6
ENDMDL
MODEL 4
REMARK VINA RESULT: -5.972966322      2.356      5.548
REMARK  6 active torsions:
REMARK  status: ('A' for Active; 'I' for Inactive)
REMARK    1  A    between atoms: C2_2  and  C3_3 
REMARK    2  A    between atoms: C4_4  and  C5_5 
REMARK    3  A    between atoms: C5_5  and  N1_6 
REMARK    4  A    between atoms: N1_6  and  N2_7 
REMARK    5  A    between atoms: N1_6  and  C6_10 
REMARK    6  A    between atoms: C10_17  and  N4_18 
REMARK       I    between atoms: N4_18  and  C11_20 
ROOT
HETATM    1  C6  UNL     1     -28.349  30.973 -12.491  1.00  0.00     0.135 C 
HETATM    2  C7  UNL     1     -28.355  30.732 -10.970  1.00  0.00     0.049 C 
HETATM    3  C8  UNL     1     -27.544  31.771 -10.269  1.00  0.00     0.125 C 
HETATM    4  N3  UNL     1     -27.437  33.036 -10.976  1.00  0.00    -0.359 N 
ATOM      5  H3  UNL     1     -27.610  33.934 -10.526  1.00  0.00     0.162 HD
HETATM    6  C9  UNL     1     -27.071  32.920 -12.337  1.00  0.00     0.242 C 
HETATM    7  O1  UNL     1     -26.837  33.874 -13.064  1.00  0.00    -0.271 OA
HETATM    8  C10 UNL     1     -26.994  31.501 -12.831  1.00  0.00     0.200 C 
ENDROOT
BRANCH   1   9
HETATM    9  N1  UNL     1     -28.917  29.950 -13.257  1.00  0.00    -0.324 N 
BRANCH   9  10
HETATM   10  C5  UNL     1     -30.282  30.206 -13.624  1.00  0.00     0.170 C 
BRANCH  10  11
HETATM   11  C4  UNL     1     -30.884  31.427 -13.066  1.00  0.00    -0.006 C 
HETATM   12  C3  UNL     1     -32.191  31.539 -12.998  1.00  0.00    -0.003 C 
BRANCH  12  13
HETATM   13  C2  UNL     1     -32.831  32.712 -12.455  1.00  0.00    -0.011 C 
HETATM   14  C1  UNL     1     -33.778  32.617 -11.505  1.00  0.00     0.011 C 
ENDBRANCH  12  13
ENDBRANCH  10  11
ENDBRANCH   9  10
BRANCH   9  15
HETATM   15  N2  UNL     1     -28.680  28.655 -12.926  1.00  0.00    -0.347 N 
ATOM     16  H22 UNL     1     -29.311  27.927 -13.261  1.00  0.00     0.176 HD
ATOM     17  H21 UNL     1     -27.696  28.394 -12.985  1.00  0.00     0.176 HD
ENDBRANCH   9  15
ENDBRANCH   1   9
BRANCH   8  18
HETATM   18  N4  UNL     1     -26.532  31.338 -14.149  1.00  0.00    -0.349 N 
HETATM   19  C11 UNL     1     -25.767  30.159 -14.476  1.00  0.00     0.182 C 
HETATM   20  N5  UNL     1     -25.252  29.396 -13.574  1.00  0.00    -0.374 N 
HETATM   21  N6  UNL     1     -25.555  29.781 -15.819  1.00  0.00    -0.064 NA
ATOM     22  H52 UNL     1     -25.404  29.669 -12.603  1.00  0.00     0.158 HD
ATOM     23  H51 UNL     1     -24.711  28.562 -13.805  1.00  0.00     0.158 HD
ATOM     24  H4  UNL     1     -26.734  32.041 -14.861  1.00  0.00     0.163 HD
ENDBRANCH   8  18
TORSDOF 6
ENDMDL
MODEL 5
REMARK VINA RESULT: -5.881258035      2.161      5.339
REMARK  6 active torsions:
REMARK  status: ('A' for Active; 'I' for Inactive)
REMARK    1  A    between atoms: C2_2  and  C3_3 
REMARK    2  A    between atoms: C4_4  and  C5_5 
REMARK    3  A    between atoms: C5_5  and  N1_6 
REMARK    4  A    between atoms: N1_6  and  N2_7 
REMARK    5  A    between atoms: N1_6  and  C6_10 
REMARK    6  A    between atoms: C10_17  and  N4_18 
REMARK       I    between atoms: N4_18  and  C11_20 
ROOT
HETATM    1  C6  UNL     1     -27.634  30.850 -12.569  1.00  0.00     0.135 C 
HETATM    2  C7  UNL     1     -27.215  30.968 -11.092  1.00  0.00     0.049 C 
HETATM    3  C8  UNL     1     -26.592  32.297 -10.825  1.00  0.00     0.125 C 
HETATM    4  N3  UNL     1     -27.015  33.357 -11.723  1.00  0.00    -0.359 N 
ATOM      5  H3  UNL     1     -27.326  34.270 -11.390  1.00  0.00     0.162 HD
HETATM    6  C9  UNL     1     -26.961  33.022 -13.095  1.00  0.00     0.242 C 
HETATM    7  O1  UNL     1     -27.184  33.814 -14.000  1.00  0.00    -0.271 OA
HETATM    8  C10 UNL     1     -26.603  31.585 -13.361  1.00  0.00     0.200 C 
ENDROOT
BRANCH   1   9
HETATM    9  N1  UNL     1     -28.052  29.577 -12.969  1.00  0.00    -0.324 N 
BRANCH   9  10
HETATM   10  C5  UNL     1     -29.421  29.538 -13.400  1.00  0.00     0.170 C 
BRANCH  10  11
HETATM   11  C4  UNL     1     -30.202  30.767 -13.188  1.00  0.00    -0.006 C 
HETATM   12  C3  UNL     1     -31.499  30.761 -13.394  1.00  0.00    -0.003 C 
BRANCH  12  13
HETATM   13  C2  UNL     1     -32.310  31.937 -13.196  1.00  0.00    -0.011 C 
HETATM   14  C1  UNL     1     -33.316  31.951 -12.303  1.00  0.00     0.011 C 
ENDBRANCH  12  13
ENDBRANCH  10  11
ENDBRANCH   9  10
BRANCH   9  15
HETATM   15  N2  UNL     1     -27.683  28.492 -12.241  1.00  0.00    -0.347 N 
ATOM     16  H22 UNL     1     -27.045  27.808 -12.647  1.00  0.00     0.176 HD
ATOM     17  H21 UNL     1     -27.477  28.708 -11.266  1.00  0.00     0.176 HD
ENDBRANCH   9  15
ENDBRANCH   1   9
BRANCH   8  18
HETATM   18  N4  UNL     1     -26.436  31.238 -14.712  1.00  0.00    -0.349 N 
HETATM   19  C11 UNL     1     -25.097  31.119 -15.238  1.00  0.00     0.182 C 
HETATM   20  N5  UNL     1     -24.066  31.581 -14.618  1.00  0.00    -0.374 N 
HETATM   21  N6  UNL     1     -24.856  30.472 -16.469  1.00  0.00    -0.064 NA
ATOM     22  H52 UNL     1     -24.240  32.049 -13.729  1.00  0.00     0.158 HD
ATOM     23  H51 UNL     1     -23.120  31.496 -14.990  1.00  0.00     0.158 HD
ATOM     24  H4  UNL     1     -27.246  31.073 -15.311  1.00  0.00     0.163 HD
ENDBRANCH   8  18
TORSDOF 6
ENDMDL
