MODEL 1
REMARK VINA RESULT: -6.130295031      0.000      0.000
REMARK  8 active torsions:
REMARK  status: ('A' for Active; 'I' for Inactive)
REMARK    1  A    between atoms: N1_1  and  C1_4 
REMARK    2  A    between atoms: N3_7  and  C2_8 
REMARK    3  A    between atoms: C2_8  and  C3_9 
REMARK    4  A    between atoms: C3_9  and  C4_10 
REMARK    5  A    between atoms: C4_10  and  C5_11 
REMARK    6  A    between atoms: C5_11  and  O1_12 
REMARK    7  A    between atoms: C6_15  and  N5_16 
REMARK    8  A    between atoms: C7_22  and  N8_23 
ROOT
HETATM    1  C1  UNL     1      40.001  29.608   9.577  1.00  0.00     0.163 A 
HETATM    2  N2  UNL     1      39.492  29.871  10.790  1.00  0.00    -0.264 N 
ATOM      3  H2  UNL     1      39.804  30.689  11.312  1.00  0.00     0.190 HD
HETATM    4  N3  UNL     1      38.572  29.053  11.309  1.00  0.00    -0.194 N 
HETATM    5  N4  UNL     1      38.148  27.985  10.653  1.00  0.00     0.022 N 
HETATM    6  C6  UNL     1      37.368  26.896  10.579  1.00  0.00     0.732 A 
HETATM    7  N6  UNL     1      37.876  26.636   9.373  1.00  0.00    -0.104 N 
ATOM      8  H6  UNL     1      37.734  25.906   8.674  1.00  0.00     0.208 HD
HETATM    9  N7  UNL     1      38.637  27.710   9.457  1.00  0.00    -0.124 N 
HETATM   10  C7  UNL     1      39.574  28.506   8.883  1.00  0.00     0.187 A 
ENDROOT
BRANCH   4  11
HETATM   11  C2  UNL     1      38.049  29.376  12.621  1.00  0.00     0.172 C 
BRANCH  11  12
HETATM   12  C3  UNL     1      38.650  28.457  13.671  1.00  0.00     0.026 C 
BRANCH  12  13
HETATM   13  C4  UNL     1      37.578  27.766  14.475  1.00  0.00     0.028 C 
BRANCH  13  14
HETATM   14  C5  UNL     1      36.253  28.453  14.337  1.00  0.00     0.164 C 
BRANCH  14  15
HETATM   15  O1  UNL     1      35.253  27.558  13.944  1.00  0.00    -0.401 OA
ATOM     16  H1  UNL     1      35.147  26.857  14.576  1.00  0.00     0.209 HD
ENDBRANCH  14  15
ENDBRANCH  13  14
ENDBRANCH  12  13
ENDBRANCH  11  12
ENDBRANCH   4  11
BRANCH   1  17
HETATM   17  N1  UNL     1      40.879  30.377   9.065  1.00  0.00    -0.381 N 
ATOM     18  H12 UNL     1      41.700  30.641   9.610  1.00  0.00     0.157 HD
ATOM     19  H11 UNL     1      40.767  30.728   8.114  1.00  0.00     0.157 HD
ENDBRANCH   1  17
BRANCH   6  20
HETATM   20  N5  UNL     1      36.499  26.350  11.364  1.00  0.00    -0.230 N 
ATOM     21  H52 UNL     1      35.838  26.673  12.070  1.00  0.00     0.174 HD
ATOM     22  H51 UNL     1      36.188  25.394  11.530  1.00  0.00     0.174 HD
ENDBRANCH   6  20
BRANCH  10  23
HETATM   23  N8  UNL     1      40.040  28.235   7.733  1.00  0.00    -0.380 N 
ATOM     24  H82 UNL     1      39.849  28.842   6.937  1.00  0.00     0.158 HD
ATOM     25  H81 UNL     1      40.615  27.407   7.581  1.00  0.00     0.158 HD
ENDBRANCH  10  23
TORSDOF 8
ENDMDL
MODEL 2
REMARK VINA RESULT: -6.088185112      2.315      4.244
REMARK  8 active torsions:
REMARK  status: ('A' for Active; 'I' for Inactive)
REMARK    1  A    between atoms: N1_1  and  C1_4 
REMARK    2  A    between atoms: N3_7  and  C2_8 
REMARK    3  A    between atoms: C2_8  and  C3_9 
REMARK    4  A    between atoms: C3_9  and  C4_10 
REMARK    5  A    between atoms: C4_10  and  C5_11 
REMARK    6  A    between atoms: C5_11  and  O1_12 
REMARK    7  A    between atoms: C6_15  and  N5_16 
REMARK    8  A    between atoms: C7_22  and  N8_23 
ROOT
HETATM    1  C1  UNL     1      37.435  29.267  13.258  1.00  0.00     0.163 A 
HETATM    2  N2  UNL     1      38.382  29.682  12.403  1.00  0.00    -0.264 N 
ATOM      3  H2  UNL     1      38.940  30.508  12.617  1.00  0.00     0.190 HD
HETATM    4  N3  UNL     1      38.588  29.006  11.270  1.00  0.00    -0.194 N 
HETATM    5  N4  UNL     1      37.878  27.931  10.968  1.00  0.00     0.022 N 
HETATM    6  C6  UNL     1      37.592  26.920  10.133  1.00  0.00     0.732 A 
HETATM    7  N6  UNL     1      36.651  26.509  10.984  1.00  0.00    -0.104 N 
ATOM      8  H6  UNL     1      35.981  25.739  11.000  1.00  0.00     0.208 HD
HETATM    9  N7  UNL     1      36.942  27.506  11.797  1.00  0.00    -0.124 N 
HETATM   10  C7  UNL     1      36.690  28.155  12.961  1.00  0.00     0.187 A 
ENDROOT
BRANCH   4  11
HETATM   11  C2  UNL     1      39.621  29.491  10.377  1.00  0.00     0.172 C 
BRANCH  11  12
HETATM   12  C3  UNL     1      40.673  30.263  11.154  1.00  0.00     0.026 C 
BRANCH  12  13
HETATM   13  C4  UNL     1      41.858  29.392  11.489  1.00  0.00     0.028 C 
BRANCH  13  14
HETATM   14  C5  UNL     1      42.050  29.265  12.970  1.00  0.00     0.164 C 
BRANCH  14  15
HETATM   15  O1  UNL     1      41.062  28.459  13.545  1.00  0.00    -0.401 OA
ATOM     16  H1  UNL     1      41.428  27.880  14.203  1.00  0.00     0.209 HD
ENDBRANCH  14  15
ENDBRANCH  13  14
ENDBRANCH  12  13
ENDBRANCH  11  12
ENDBRANCH   4  11
BRANCH   1  17
HETATM   17  N1  UNL     1      37.224  29.898  14.345  1.00  0.00    -0.381 N 
ATOM     18  H12 UNL     1      38.010  30.288  14.864  1.00  0.00     0.157 HD
ATOM     19  H11 UNL     1      36.275  30.016  14.697  1.00  0.00     0.157 HD
ENDBRANCH   1  17
BRANCH   6  20
HETATM   20  N5  UNL     1      38.051  26.533   8.990  1.00  0.00    -0.230 N 
ATOM     21  H52 UNL     1      38.519  26.970   8.196  1.00  0.00     0.174 HD
ATOM     22  H51 UNL     1      38.093  25.638   8.504  1.00  0.00     0.174 HD
ENDBRANCH   6  20
BRANCH  10  23
HETATM   23  N8  UNL     1      35.788  27.741  13.753  1.00  0.00    -0.380 N 
ATOM     24  H82 UNL     1      35.535  28.279  14.582  1.00  0.00     0.158 HD
ATOM     25  H81 UNL     1      35.298  26.864  13.579  1.00  0.00     0.158 HD
ENDBRANCH  10  23
TORSDOF 8
ENDMDL
MODEL 3
REMARK VINA RESULT: -6.066383563      2.945      3.756
REMARK  8 active torsions:
REMARK  status: ('A' for Active; 'I' for Inactive)
REMARK    1  A    between atoms: N1_1  and  C1_4 
REMARK    2  A    between atoms: N3_7  and  C2_8 
REMARK    3  A    between atoms: C2_8  and  C3_9 
REMARK    4  A    between atoms: C3_9  and  C4_10 
REMARK    5  A    between atoms: C4_10  and  C5_11 
REMARK    6  A    between atoms: C5_11  and  O1_12 
REMARK    7  A    between atoms: C6_15  and  N5_16 
REMARK    8  A    between atoms: C7_22  and  N8_23 
ROOT
HETATM    1  C1  UNL     1      38.653  28.170   9.640  1.00  0.00     0.163 A 
HETATM    2  N2  UNL     1      39.167  28.984  10.574  1.00  0.00    -0.264 N 
ATOM      3  H2  UNL     1      39.942  29.605  10.344  1.00  0.00     0.190 HD
HETATM    4  N3  UNL     1      38.656  28.975  11.808  1.00  0.00    -0.194 N 
HETATM    5  N4  UNL     1      37.650  28.179  12.134  1.00  0.00     0.022 N 
HETATM    6  C6  UNL     1      36.775  27.718  13.040  1.00  0.00     0.732 A 
HETATM    7  N6  UNL     1      36.265  26.909  12.109  1.00  0.00    -0.104 N 
ATOM      8  H6  UNL     1      35.515  26.218  12.089  1.00  0.00     0.208 HD
HETATM    9  N7  UNL     1      37.130  27.371  11.227  1.00  0.00    -0.124 N 
HETATM   10  C7  UNL     1      37.611  27.339   9.959  1.00  0.00     0.187 A 
ENDROOT
BRANCH   4  11
HETATM   11  C2  UNL     1      39.243  29.870  12.785  1.00  0.00     0.172 C 
BRANCH  11  12
HETATM   12  C3  UNL     1      40.690  30.164  12.432  1.00  0.00     0.026 C 
BRANCH  12  13
HETATM   13  C4  UNL     1      41.621  29.144  13.037  1.00  0.00     0.028 C 
BRANCH  13  14
HETATM   14  C5  UNL     1      43.058  29.526  12.850  1.00  0.00     0.164 C 
BRANCH  14  15
HETATM   15  O1  UNL     1      43.611  30.026  14.033  1.00  0.00    -0.401 OA
ATOM     16  H1  UNL     1      44.537  29.825  14.094  1.00  0.00     0.209 HD
ENDBRANCH  14  15
ENDBRANCH  13  14
ENDBRANCH  12  13
ENDBRANCH  11  12
ENDBRANCH   4  11
BRANCH   1  17
HETATM   17  N1  UNL     1      39.127  28.165   8.457  1.00  0.00    -0.381 N 
ATOM     18  H12 UNL     1      39.625  28.983   8.108  1.00  0.00     0.157 HD
ATOM     19  H11 UNL     1      39.012  27.348   7.858  1.00  0.00     0.157 HD
ENDBRANCH   1  17
BRANCH   6  20
HETATM   20  N5  UNL     1      36.546  27.969  14.286  1.00  0.00    -0.230 N 
ATOM     21  H52 UNL     1      37.106  28.193  15.109  1.00  0.00     0.174 HD
ATOM     22  H51 UNL     1      35.705  28.027  14.860  1.00  0.00     0.174 HD
ENDBRANCH   6  20
BRANCH  10  23
HETATM   23  N8  UNL     1      37.106  26.560   9.093  1.00  0.00    -0.380 N 
ATOM     24  H82 UNL     1      37.279  26.704   8.098  1.00  0.00     0.158 HD
ATOM     25  H81 UNL     1      36.519  25.774   9.371  1.00  0.00     0.158 HD
ENDBRANCH  10  23
TORSDOF 8
ENDMDL
MODEL 4
REMARK VINA RESULT: -5.980084729      1.606      3.194
REMARK  8 active torsions:
REMARK  status: ('A' for Active; 'I' for Inactive)
REMARK    1  A    between atoms: N1_1  and  C1_4 
REMARK    2  A    between atoms: N3_7  and  C2_8 
REMARK    3  A    between atoms: C2_8  and  C3_9 
REMARK    4  A    between atoms: C3_9  and  C4_10 
REMARK    5  A    between atoms: C4_10  and  C5_11 
REMARK    6  A    between atoms: C5_11  and  O1_12 
REMARK    7  A    between atoms: C6_15  and  N5_16 
REMARK    8  A    between atoms: C7_22  and  N8_23 
ROOT
HETATM    1  C1  UNL     1      37.655  27.392   9.923  1.00  0.00     0.163 A 
HETATM    2  N2  UNL     1      37.093  27.594  11.124  1.00  0.00    -0.264 N 
ATOM      3  H2  UNL     1      36.269  27.062  11.402  1.00  0.00     0.190 HD
HETATM    4  N3  UNL     1      37.622  28.497  11.954  1.00  0.00    -0.194 N 
HETATM    5  N4  UNL     1      38.691  29.201  11.619  1.00  0.00     0.022 N 
HETATM    6  C6  UNL     1      39.613  30.131  11.911  1.00  0.00     0.732 A 
HETATM    7  N6  UNL     1      40.169  29.929  10.716  1.00  0.00    -0.104 N 
ATOM      8  H6  UNL     1      40.970  30.320  10.220  1.00  0.00     0.208 HD
HETATM    9  N7  UNL     1      39.259  29.016  10.440  1.00  0.00    -0.124 N 
HETATM   10  C7  UNL     1      38.762  28.112   9.559  1.00  0.00     0.187 A 
ENDROOT
BRANCH   4  11
HETATM   11  C2  UNL     1      36.983  28.682  13.242  1.00  0.00     0.172 C 
BRANCH  11  12
HETATM   12  C3  UNL     1      37.441  27.613  14.218  1.00  0.00     0.026 C 
BRANCH  12  13
HETATM   13  C4  UNL     1      38.741  27.995  14.881  1.00  0.00     0.028 C 
BRANCH  13  14
HETATM   14  C5  UNL     1      39.094  27.052  15.990  1.00  0.00     0.164 C 
BRANCH  14  15
HETATM   15  O1  UNL     1      37.968  26.366  16.455  1.00  0.00    -0.401 OA
ATOM     16  H1  UNL     1      38.157  25.893  17.257  1.00  0.00     0.209 HD
ENDBRANCH  14  15
ENDBRANCH  13  14
ENDBRANCH  12  13
ENDBRANCH  11  12
ENDBRANCH   4  11
BRANCH   1  17
HETATM   17  N1  UNL     1      37.165  26.534   9.118  1.00  0.00    -0.381 N 
ATOM     18  H12 UNL     1      36.760  25.672   9.481  1.00  0.00     0.157 HD
ATOM     19  H11 UNL     1      37.176  26.704   8.112  1.00  0.00     0.157 HD
ENDBRANCH   1  17
BRANCH   6  20
HETATM   20  N5  UNL     1      39.840  30.890  12.931  1.00  0.00    -0.230 N 
ATOM     21  H52 UNL     1      39.501  31.790  13.272  1.00  0.00     0.174 HD
ATOM     22  H51 UNL     1      40.451  30.828  13.746  1.00  0.00     0.174 HD
ENDBRANCH   6  20
BRANCH  10  23
HETATM   23  N8  UNL     1      39.313  27.939   8.427  1.00  0.00    -0.380 N 
ATOM     24  H82 UNL     1      39.757  28.717   7.940  1.00  0.00     0.158 HD
ATOM     25  H81 UNL     1      39.325  27.022   7.983  1.00  0.00     0.158 HD
ENDBRANCH  10  23
TORSDOF 8
ENDMDL
MODEL 5
REMARK VINA RESULT: -5.932306095      2.598      4.872
REMARK  8 active torsions:
REMARK  status: ('A' for Active; 'I' for Inactive)
REMARK    1  A    between atoms: N1_1  and  C1_4 
REMARK    2  A    between atoms: N3_7  and  C2_8 
REMARK    3  A    between atoms: C2_8  and  C3_9 
REMARK    4  A    between atoms: C3_9  and  C4_10 
REMARK    5  A    between atoms: C4_10  and  C5_11 
REMARK    6  A    between atoms: C5_11  and  O1_12 
REMARK    7  A    between atoms: C6_15  and  N5_16 
REMARK    8  A    between atoms: C7_22  and  N8_23 
ROOT
HETATM    1  C1  UNL     1      37.495  29.361  13.065  1.00  0.00     0.163 A 
HETATM    2  N2  UNL     1      38.620  29.674  12.405  1.00  0.00    -0.264 N 
ATOM      3  H2  UNL     1      39.218  30.430  12.738  1.00  0.00     0.190 HD
HETATM    4  N3  UNL     1      38.951  28.989  11.307  1.00  0.00    -0.194 N 
HETATM    5  N4  UNL     1      38.194  28.004  10.852  1.00  0.00     0.022 N 
HETATM    6  C6  UNL     1      37.953  27.039   9.952  1.00  0.00     0.732 A 
HETATM    7  N6  UNL     1      36.835  26.729  10.609  1.00  0.00    -0.104 N 
ATOM      8  H6  UNL     1      36.093  26.040  10.483  1.00  0.00     0.208 HD
HETATM    9  N7  UNL     1      37.082  27.680  11.489  1.00  0.00    -0.124 N 
HETATM   10  C7  UNL     1      36.698  28.344  12.608  1.00  0.00     0.187 A 
ENDROOT
BRANCH   4  11
HETATM   11  C2  UNL     1      40.175  29.361  10.626  1.00  0.00     0.172 C 
BRANCH  11  12
HETATM   12  C3  UNL     1      39.860  30.076   9.324  1.00  0.00     0.026 C 
BRANCH  12  13
HETATM   13  C4  UNL     1      41.060  30.108   8.410  1.00  0.00     0.028 C 
BRANCH  13  14
HETATM   14  C5  UNL     1      41.366  28.752   7.851  1.00  0.00     0.164 C 
BRANCH  14  15
HETATM   15  O1  UNL     1      40.278  28.235   7.142  1.00  0.00    -0.401 OA
ATOM     16  H1  UNL     1      39.642  27.838   7.724  1.00  0.00     0.209 HD
ENDBRANCH  14  15
ENDBRANCH  13  14
ENDBRANCH  12  13
ENDBRANCH  11  12
ENDBRANCH   4  11
BRANCH   1  17
HETATM   17  N1  UNL     1      37.162  30.003  14.114  1.00  0.00    -0.381 N 
ATOM     18  H12 UNL     1      37.115  29.519  15.010  1.00  0.00     0.157 HD
ATOM     19  H11 UNL     1      36.942  30.998  14.063  1.00  0.00     0.157 HD
ENDBRANCH   1  17
BRANCH   6  20
HETATM   20  N5  UNL     1      38.566  26.612   8.898  1.00  0.00    -0.230 N 
ATOM     21  H52 UNL     1      39.369  26.905   8.342  1.00  0.00     0.174 HD
ATOM     22  H51 UNL     1      38.437  25.820   8.269  1.00  0.00     0.174 HD
ENDBRANCH   6  20
BRANCH  10  23
HETATM   23  N8  UNL     1      35.628  28.027  13.215  1.00  0.00    -0.380 N 
ATOM     24  H82 UNL     1      35.564  28.098  14.230  1.00  0.00     0.158 HD
ATOM     25  H81 UNL     1      34.811  27.697  12.702  1.00  0.00     0.158 HD
ENDBRANCH  10  23
TORSDOF 8
ENDMDL
