MODEL 1
REMARK VINA RESULT: -5.788639301      0.000      0.000
REMARK  9 active torsions:
REMARK  status: ('A' for Active; 'I' for Inactive)
REMARK    1  A    between atoms: N1_1  and  N2_4 
REMARK    2  A    between atoms: N2_4  and  C1_6 
REMARK    3  A    between atoms: C2_7  and  N3_8 
REMARK    4  A    between atoms: N3_8  and  C3_10 
REMARK    5  A    between atoms: C3_10  and  C4_11 
REMARK    6  A    between atoms: C4_11  and  C5_12 
REMARK    7  A    between atoms: C5_12  and  C6_13 
REMARK    8  A    between atoms: C6_13  and  O1_14 
REMARK    9  A    between atoms: N7_22  and  N8_23 
ROOT
HETATM    1  C1  UNL     1      38.231  29.577  12.547  1.00  0.00     0.188 A 
HETATM    2  C2  UNL     1      38.492  28.722  11.474  1.00  0.00     0.109 A 
HETATM    3  C7  UNL     1      37.743  27.565  11.422  1.00  0.00     0.119 A 
HETATM    4  N4  UNL     1      37.917  26.618  10.379  1.00  0.00    -0.096 NA
HETATM    5  C8  UNL     1      36.799  27.297  12.391  1.00  0.00     0.159 A 
HETATM    6  N5  UNL     1      36.025  26.113  12.349  1.00  0.00    -0.079 NA
HETATM    7  N6  UNL     1      36.572  28.150  13.420  1.00  0.00    -0.263 N 
ATOM      8  H6  UNL     1      35.873  27.947  14.133  1.00  0.00     0.190 HD
HETATM    9  N7  UNL     1      37.293  29.253  13.459  1.00  0.00    -0.181 N 
ENDROOT
BRANCH   2  10
HETATM   10  N3  UNL     1      39.363  29.061  10.658  1.00  0.00    -0.365 N 
ATOM     11  H3  UNL     1      40.273  29.155  11.109  1.00  0.00     0.165 HD
BRANCH  10  12
HETATM   12  C3  UNL     1      39.442  29.348   9.298  1.00  0.00     0.061 C 
BRANCH  12  13
HETATM   13  C4  UNL     1      40.535  30.312   8.891  1.00  0.00     0.046 C 
BRANCH  13  14
HETATM   14  C5  UNL     1      41.829  29.782   9.470  1.00  0.00     0.031 C 
BRANCH  14  15
HETATM   15  C6  UNL     1      42.495  30.768  10.388  1.00  0.00     0.164 C 
BRANCH  15  16
HETATM   16  O1  UNL     1      41.602  31.232  11.343  1.00  0.00    -0.401 OA
ATOM     17  H1  UNL     1      41.651  32.178  11.420  1.00  0.00     0.209 HD
ENDBRANCH  15  16
ENDBRANCH  14  15
ENDBRANCH  13  14
ENDBRANCH  12  13
ENDBRANCH  10  12
ENDBRANCH   2  10
BRANCH   1  18
HETATM   18  N2  UNL     1      38.872  30.696  12.702  1.00  0.00    -0.287 N 
ATOM     19  H2  UNL     1      38.579  31.533  12.199  1.00  0.00     0.188 HD
BRANCH  18  20
HETATM   20  N1  UNL     1      39.965  30.739  13.566  1.00  0.00    -0.343 N 
ATOM     21  H12 UNL     1      40.768  30.136  13.388  1.00  0.00     0.176 HD
ATOM     22  H11 UNL     1      39.945  31.374  14.364  1.00  0.00     0.176 HD
ENDBRANCH  18  20
ENDBRANCH   1  18
BRANCH   9  23
HETATM   23  N8  UNL     1      37.071  30.158  14.527  1.00  0.00    -0.322 N 
ATOM     24  H82 UNL     1      37.655  30.073  15.359  1.00  0.00     0.179 HD
ATOM     25  H81 UNL     1      36.336  30.855  14.413  1.00  0.00     0.179 HD
ENDBRANCH   9  23
TORSDOF 9
ENDMDL
MODEL 2
REMARK VINA RESULT: -5.782496212      2.325      5.453
REMARK  9 active torsions:
REMARK  status: ('A' for Active; 'I' for Inactive)
REMARK    1  A    between atoms: N1_1  and  N2_4 
REMARK    2  A    between atoms: N2_4  and  C1_6 
REMARK    3  A    between atoms: C2_7  and  N3_8 
REMARK    4  A    between atoms: N3_8  and  C3_10 
REMARK    5  A    between atoms: C3_10  and  C4_11 
REMARK    6  A    between atoms: C4_11  and  C5_12 
REMARK    7  A    between atoms: C5_12  and  C6_13 
REMARK    8  A    between atoms: C6_13  and  O1_14 
REMARK    9  A    between atoms: N7_22  and  N8_23 
ROOT
HETATM    1  C1  UNL     1      39.267  28.292   9.683  1.00  0.00     0.188 A 
HETATM    2  C2  UNL     1      39.150  28.862  10.952  1.00  0.00     0.109 A 
HETATM    3  C7  UNL     1      40.021  29.890  11.239  1.00  0.00     0.119 A 
HETATM    4  N4  UNL     1      39.999  30.550  12.497  1.00  0.00    -0.096 NA
HETATM    5  C8  UNL     1      40.946  30.309  10.305  1.00  0.00     0.159 A 
HETATM    6  N5  UNL     1      41.845  31.363  10.589  1.00  0.00    -0.079 NA
HETATM    7  N6  UNL     1      41.031  29.732   9.081  1.00  0.00    -0.263 N 
ATOM      8  H6  UNL     1      41.716  30.045   8.394  1.00  0.00     0.190 HD
HETATM    9  N7  UNL     1      40.193  28.749   8.817  1.00  0.00    -0.181 N 
ENDROOT
BRANCH   2  10
HETATM   10  N3  UNL     1      38.283  28.409  11.716  1.00  0.00    -0.365 N 
ATOM     11  H3  UNL     1      38.451  27.424  11.921  1.00  0.00     0.165 HD
BRANCH  10  12
HETATM   12  C3  UNL     1      37.144  28.873  12.369  1.00  0.00     0.061 C 
BRANCH  12  13
HETATM   13  C4  UNL     1      37.243  28.971  13.875  1.00  0.00     0.046 C 
BRANCH  13  14
HETATM   14  C5  UNL     1      37.756  27.637  14.372  1.00  0.00     0.031 C 
BRANCH  14  15
HETATM   15  C6  UNL     1      39.053  27.761  15.120  1.00  0.00     0.164 C 
BRANCH  15  16
HETATM   16  O1  UNL     1      40.096  28.052  14.252  1.00  0.00    -0.401 OA
ATOM     17  H1  UNL     1      40.230  27.342  13.635  1.00  0.00     0.209 HD
ENDBRANCH  15  16
ENDBRANCH  14  15
ENDBRANCH  13  14
ENDBRANCH  12  13
ENDBRANCH  10  12
ENDBRANCH   2  10
BRANCH   1  18
HETATM   18  N2  UNL     1      38.501  27.316   9.297  1.00  0.00    -0.287 N 
ATOM     19  H2  UNL     1      38.746  26.350   9.517  1.00  0.00     0.188 HD
BRANCH  18  20
HETATM   20  N1  UNL     1      37.342  27.604   8.579  1.00  0.00    -0.343 N 
ATOM     21  H12 UNL     1      36.437  27.546   9.045  1.00  0.00     0.176 HD
ATOM     22  H11 UNL     1      37.418  27.867   7.596  1.00  0.00     0.176 HD
ENDBRANCH  18  20
ENDBRANCH   1  18
BRANCH   9  23
HETATM   23  N8  UNL     1      40.267  28.133   7.543  1.00  0.00    -0.322 N 
ATOM     24  H82 UNL     1      39.605  28.428   6.826  1.00  0.00     0.179 HD
ATOM     25  H81 UNL     1      40.983  27.420   7.402  1.00  0.00     0.179 HD
ENDBRANCH   9  23
TORSDOF 9
ENDMDL
MODEL 3
REMARK VINA RESULT: -5.753432880      1.105      1.203
REMARK  9 active torsions:
REMARK  status: ('A' for Active; 'I' for Inactive)
REMARK    1  A    between atoms: N1_1  and  N2_4 
REMARK    2  A    between atoms: N2_4  and  C1_6 
REMARK    3  A    between atoms: C2_7  and  N3_8 
REMARK    4  A    between atoms: N3_8  and  C3_10 
REMARK    5  A    between atoms: C3_10  and  C4_11 
REMARK    6  A    between atoms: C4_11  and  C5_12 
REMARK    7  A    between atoms: C5_12  and  C6_13 
REMARK    8  A    between atoms: C6_13  and  O1_14 
REMARK    9  A    between atoms: N7_22  and  N8_23 
ROOT
HETATM    1  C1  UNL     1      39.053  29.570  12.500  1.00  0.00     0.188 A 
HETATM    2  C2  UNL     1      38.579  28.888  11.378  1.00  0.00     0.109 A 
HETATM    3  C7  UNL     1      37.480  28.079  11.577  1.00  0.00     0.119 A 
HETATM    4  N4  UNL     1      36.907  27.335  10.513  1.00  0.00    -0.096 NA
HETATM    5  C8  UNL     1      36.905  27.972  12.827  1.00  0.00     0.159 A 
HETATM    6  N5  UNL     1      35.778  27.145  13.043  1.00  0.00    -0.079 NA
HETATM    7  N6  UNL     1      37.392  28.650  13.895  1.00  0.00    -0.263 N 
ATOM      8  H6  UNL     1      36.963  28.568  14.816  1.00  0.00     0.190 HD
HETATM    9  N7  UNL     1      38.443  29.420  13.693  1.00  0.00    -0.181 N 
ENDROOT
BRANCH   2  10
HETATM   10  N3  UNL     1      39.172  29.057  10.301  1.00  0.00    -0.365 N 
ATOM     11  H3  UNL     1      39.098  30.024   9.988  1.00  0.00     0.165 HD
BRANCH  10  12
HETATM   12  C3  UNL     1      39.910  28.290   9.403  1.00  0.00     0.061 C 
BRANCH  12  13
HETATM   13  C4  UNL     1      41.146  28.952   8.833  1.00  0.00     0.046 C 
BRANCH  13  14
HETATM   14  C5  UNL     1      40.887  30.442   8.829  1.00  0.00     0.031 C 
BRANCH  14  15
HETATM   15  C6  UNL     1      42.102  31.239   9.213  1.00  0.00     0.164 C 
BRANCH  15  16
HETATM   16  O1  UNL     1      42.033  31.633  10.542  1.00  0.00    -0.401 OA
ATOM     17  H1  UNL     1      42.887  31.579  10.955  1.00  0.00     0.209 HD
ENDBRANCH  15  16
ENDBRANCH  14  15
ENDBRANCH  13  14
ENDBRANCH  12  13
ENDBRANCH  10  12
ENDBRANCH   2  10
BRANCH   1  18
HETATM   18  N2  UNL     1      40.081  30.361  12.437  1.00  0.00    -0.287 N 
ATOM     19  H2  UNL     1      39.957  31.356  12.248  1.00  0.00     0.188 HD
BRANCH  18  20
HETATM   20  N1  UNL     1      41.357  29.834  12.631  1.00  0.00    -0.343 N 
ATOM     21  H12 UNL     1      41.719  29.144  11.973  1.00  0.00     0.176 HD
ATOM     22  H11 UNL     1      41.910  30.148  13.429  1.00  0.00     0.176 HD
ENDBRANCH  18  20
ENDBRANCH   1  18
BRANCH   9  23
HETATM   23  N8  UNL     1      38.967  30.137  14.797  1.00  0.00    -0.322 N 
ATOM     24  H82 UNL     1      38.421  30.913  15.171  1.00  0.00     0.179 HD
ATOM     25  H81 UNL     1      39.869  29.842  15.169  1.00  0.00     0.179 HD
ENDBRANCH   9  23
TORSDOF 9
ENDMDL
MODEL 4
REMARK VINA RESULT: -5.748149449      1.575      2.098
REMARK  9 active torsions:
REMARK  status: ('A' for Active; 'I' for Inactive)
REMARK    1  A    between atoms: N1_1  and  N2_4 
REMARK    2  A    between atoms: N2_4  and  C1_6 
REMARK    3  A    between atoms: C2_7  and  N3_8 
REMARK    4  A    between atoms: N3_8  and  C3_10 
REMARK    5  A    between atoms: C3_10  and  C4_11 
REMARK    6  A    between atoms: C4_11  and  C5_12 
REMARK    7  A    between atoms: C5_12  and  C6_13 
REMARK    8  A    between atoms: C6_13  and  O1_14 
REMARK    9  A    between atoms: N7_22  and  N8_23 
ROOT
HETATM    1  C1  UNL     1      37.604  29.197  13.039  1.00  0.00     0.188 A 
HETATM    2  C2  UNL     1      38.397  29.297  11.894  1.00  0.00     0.109 A 
HETATM    3  C7  UNL     1      38.182  28.345  10.921  1.00  0.00     0.119 A 
HETATM    4  N4  UNL     1      38.926  28.342   9.712  1.00  0.00    -0.096 NA
HETATM    5  C8  UNL     1      37.231  27.361  11.099  1.00  0.00     0.159 A 
HETATM    6  N5  UNL     1      37.003  26.379  10.107  1.00  0.00    -0.079 NA
HETATM    7  N6  UNL     1      36.479  27.295  12.225  1.00  0.00    -0.263 N 
ATOM      8  H6  UNL     1      35.777  26.566  12.351  1.00  0.00     0.190 HD
HETATM    9  N7  UNL     1      36.692  28.210  13.149  1.00  0.00    -0.181 N 
ENDROOT
BRANCH   2  10
HETATM   10  N3  UNL     1      39.222  30.222  11.838  1.00  0.00    -0.365 N 
ATOM     11  H3  UNL     1      38.805  31.066  11.445  1.00  0.00     0.165 HD
BRANCH  10  12
HETATM   12  C3  UNL     1      40.562  30.426  12.162  1.00  0.00     0.061 C 
BRANCH  12  13
HETATM   13  C4  UNL     1      41.521  30.477  10.994  1.00  0.00     0.046 C 
BRANCH  13  14
HETATM   14  C5  UNL     1      42.821  29.860  11.462  1.00  0.00     0.031 C 
BRANCH  14  15
HETATM   15  C6  UNL     1      42.714  29.268  12.839  1.00  0.00     0.164 C 
BRANCH  15  16
HETATM   16  O1  UNL     1      43.601  29.885  13.710  1.00  0.00    -0.401 OA
ATOM     17  H1  UNL     1      44.489  29.587  13.554  1.00  0.00     0.209 HD
ENDBRANCH  15  16
ENDBRANCH  14  15
ENDBRANCH  13  14
ENDBRANCH  12  13
ENDBRANCH  10  12
ENDBRANCH   2  10
BRANCH   1  18
HETATM   18  N2  UNL     1      37.714  30.036  14.025  1.00  0.00    -0.287 N 
ATOM     19  H2  UNL     1      37.039  30.793  14.136  1.00  0.00     0.188 HD
BRANCH  18  20
HETATM   20  N1  UNL     1      38.766  29.891  14.928  1.00  0.00    -0.343 N 
ATOM     21  H12 UNL     1      38.697  30.321  15.850  1.00  0.00     0.176 HD
ATOM     22  H11 UNL     1      39.590  29.356  14.651  1.00  0.00     0.176 HD
ENDBRANCH  18  20
ENDBRANCH   1  18
BRANCH   9  23
HETATM   23  N8  UNL     1      35.916  28.157  14.333  1.00  0.00    -0.322 N 
ATOM     24  H82 UNL     1      35.990  28.932  14.992  1.00  0.00     0.179 HD
ATOM     25  H81 UNL     1      35.316  27.344  14.472  1.00  0.00     0.179 HD
ENDBRANCH   9  23
TORSDOF 9
ENDMDL
MODEL 5
REMARK VINA RESULT: -5.708935632      1.682      1.975
REMARK  9 active torsions:
REMARK  status: ('A' for Active; 'I' for Inactive)
REMARK    1  A    between atoms: N1_1  and  N2_4 
REMARK    2  A    between atoms: N2_4  and  C1_6 
REMARK    3  A    between atoms: C2_7  and  N3_8 
REMARK    4  A    between atoms: N3_8  and  C3_10 
REMARK    5  A    between atoms: C3_10  and  C4_11 
REMARK    6  A    between atoms: C4_11  and  C5_12 
REMARK    7  A    between atoms: C5_12  and  C6_13 
REMARK    8  A    between atoms: C6_13  and  O1_14 
REMARK    9  A    between atoms: N7_22  and  N8_23 
ROOT
HETATM    1  C1  UNL     1      37.352  29.000  13.168  1.00  0.00     0.188 A 
HETATM    2  C2  UNL     1      37.957  28.608  11.972  1.00  0.00     0.109 A 
HETATM    3  C7  UNL     1      37.536  27.407  11.443  1.00  0.00     0.119 A 
HETATM    4  N4  UNL     1      38.077  26.902  10.231  1.00  0.00    -0.096 NA
HETATM    5  C8  UNL     1      36.571  26.658  12.084  1.00  0.00     0.159 A 
HETATM    6  N5  UNL     1      36.131  25.423  11.551  1.00  0.00    -0.079 NA
HETATM    7  N6  UNL     1      36.005  27.070  13.244  1.00  0.00    -0.263 N 
ATOM      8  H6  UNL     1      35.291  26.513  13.714  1.00  0.00     0.190 HD
HETATM    9  N7  UNL     1      36.414  28.220  13.741  1.00  0.00    -0.181 N 
ENDROOT
BRANCH   2  10
HETATM   10  N3  UNL     1      38.815  29.358  11.481  1.00  0.00    -0.365 N 
ATOM     11  H3  UNL     1      38.383  30.134  10.980  1.00  0.00     0.165 HD
BRANCH  10  12
HETATM   12  C3  UNL     1      40.205  29.433  11.425  1.00  0.00     0.061 C 
BRANCH  12  13
HETATM   13  C4  UNL     1      40.773  30.323  10.342  1.00  0.00     0.046 C 
BRANCH  13  14
HETATM   14  C5  UNL     1      40.022  30.004   9.068  1.00  0.00     0.031 C 
BRANCH  14  15
HETATM   15  C6  UNL     1      40.639  28.865   8.306  1.00  0.00     0.164 C 
BRANCH  15  16
HETATM   16  O1  UNL     1      39.678  27.926   7.960  1.00  0.00    -0.401 OA
ATOM     17  H1  UNL     1      40.011  27.329   7.301  1.00  0.00     0.209 HD
ENDBRANCH  15  16
ENDBRANCH  14  15
ENDBRANCH  13  14
ENDBRANCH  12  13
ENDBRANCH  10  12
ENDBRANCH   2  10
BRANCH   1  18
HETATM   18  N2  UNL     1      37.666  30.112  13.762  1.00  0.00    -0.287 N 
ATOM     19  H2  UNL     1      37.106  30.952  13.615  1.00  0.00     0.188 HD
BRANCH  18  20
HETATM   20  N1  UNL     1      38.777  30.144  14.603  1.00  0.00    -0.343 N 
ATOM     21  H12 UNL     1      39.710  30.225  14.197  1.00  0.00     0.176 HD
ATOM     22  H11 UNL     1      38.640  30.085  15.612  1.00  0.00     0.176 HD
ENDBRANCH  18  20
ENDBRANCH   1  18
BRANCH   9  23
HETATM   23  N8  UNL     1      35.835  28.668  14.954  1.00  0.00    -0.322 N 
ATOM     24  H82 UNL     1      35.015  28.175  15.307  1.00  0.00     0.179 HD
ATOM     25  H81 UNL     1      36.267  29.465  15.420  1.00  0.00     0.179 HD
ENDBRANCH   9  23
TORSDOF 9
ENDMDL
