MODEL 1
REMARK VINA RESULT: -9.713050861      0.000      0.000
REMARK  11 active torsions:
REMARK  status: ('A' for Active; 'I' for Inactive)
REMARK    1  A    between atoms: C2_2  and  C3_3 
REMARK    2  A    between atoms: C2_2  and  C4_8 
REMARK    3  A    between atoms: C3_3  and  N1_4 
REMARK    4  A    between atoms: C4_8  and  N2_9 
REMARK    5  A    between atoms: C4_8  and  C14_31 
REMARK       I    between atoms: N2_9  and  C5_11 
REMARK    6  A    between atoms: C5_11  and  C6_13 
REMARK    7  A    between atoms: C6_13  and  O2_14 
REMARK    8  A    between atoms: C6_13  and  N3_16 
REMARK    9  A    between atoms: C8_18  and  C9_19 
REMARK   10  A    between atoms: C9_19  and  O3_20 
REMARK   11  A    between atoms: C15_36  and  C16_37 
ROOT
HETATM    1  N2  UNL     1     -15.388  66.447 108.537  1.00  0.00    -0.346 N 
ATOM      2  H2  UNL     1     -15.864  67.009 107.831  1.00  0.00     0.163 HD
HETATM    3  C5  UNL     1     -15.030  65.142 108.135  1.00  0.00     0.267 C 
HETATM    4  O1  UNL     1     -14.477  64.329 108.894  1.00  0.00    -0.269 OA
ENDROOT
BRANCH   1   5
HETATM    5  C4  UNL     1     -15.175  67.094 109.797  1.00  0.00     0.148 C 
BRANCH   5   6
HETATM    6  C2  UNL     1     -16.278  67.981 110.259  1.00  0.00     0.036 C 
HETATM    7  C1  UNL     1     -16.583  69.070 109.249  1.00  0.00     0.014 C 
BRANCH   6   8
HETATM    8  C3  UNL     1     -17.584  67.319 110.599  1.00  0.00     0.236 C 
BRANCH   8   9
HETATM    9  N1  UNL     1     -18.542  68.387 110.998  1.00  0.00    -0.079 N 
ATOM     10  H13 UNL     1     -18.093  69.294 111.130  1.00  0.00     0.274 HD
ATOM     11  H12 UNL     1     -19.171  68.659 110.242  1.00  0.00     0.274 HD
ATOM     12  H11 UNL     1     -19.035  68.064 111.830  1.00  0.00     0.274 HD
ENDBRANCH   8   9
ENDBRANCH   6   8
ENDBRANCH   5   6
BRANCH   5  13
HETATM   13  C14 UNL     1     -13.862  67.801 109.825  1.00  0.00     0.091 A 
HETATM   14  N5  UNL     1     -13.167  68.413 110.764  1.00  0.00    -0.295 N 
HETATM   15  N6  UNL     1     -12.087  68.994 110.478  1.00  0.00    -0.289 N 
ATOM     16  H5  UNL     1     -13.507  68.415 111.726  1.00  0.00     0.187 HD
HETATM   17  C15 UNL     1     -11.626  69.003 109.238  1.00  0.00     0.156 A 
ATOM     18  H6  UNL     1     -11.559  69.465 111.214  1.00  0.00     0.188 HD
HETATM   19  S3  UNL     1     -12.862  68.102 108.444  1.00  0.00    -0.049 SA
BRANCH  17  20
HETATM   20  C16 UNL     1     -10.436  69.624 108.688  1.00  0.00     0.289 C 
HETATM   21  N7  UNL     1     -10.301  69.850 107.311  1.00  0.00    -0.055 NA
HETATM   22  O5  UNL     1      -9.503  69.965 109.465  1.00  0.00    -0.269 OA
ENDBRANCH  17  20
ENDBRANCH   5  13
ENDBRANCH   1   5
BRANCH   3  23
HETATM   23  C6  UNL     1     -15.349  64.765 106.751  1.00  0.00     0.319 C 
BRANCH  23  24
HETATM   24  O2  UNL     1     -16.670  64.288 106.716  1.00  0.00    -0.368 OA
ATOM     25  H2  UNL     1     -16.658  63.359 106.916  1.00  0.00     0.212 HD
ENDBRANCH  23  24
BRANCH  23  26
HETATM   26  N3  UNL     1     -14.453  63.679 106.242  1.00  0.00    -0.306 N 
HETATM   27  C7  UNL     1     -15.003  62.475 106.085  1.00  0.00     0.113 A 
HETATM   28  C8  UNL     1     -14.204  61.479 105.634  1.00  0.00     0.037 A 
HETATM   29  S1  UNL     1     -12.708  62.243 105.436  1.00  0.00    -0.060 SA
HETATM   30  C13 UNL     1     -13.196  63.838 105.961  1.00  0.00     0.147 A 
HETATM   31  S2  UNL     1     -12.156  65.127 106.003  1.00  0.00    -0.052 SA
BRANCH  28  32
HETATM   32  C9  UNL     1     -14.503  60.021 105.354  1.00  0.00     0.117 C 
HETATM   33  C10 UNL     1     -15.660  59.533 106.141  1.00  0.00     0.166 C 
HETATM   34  N4  UNL     1     -15.133  59.014 107.388  1.00  0.00    -0.358 N 
HETATM   35  C11 UNL     1     -13.706  59.021 107.365  1.00  0.00     0.221 C 
ATOM     36  H4  UNL     1     -15.700  58.689 108.171  1.00  0.00     0.162 HD
HETATM   37  O4  UNL     1     -12.976  58.895 108.376  1.00  0.00    -0.273 OA
HETATM   38  C12 UNL     1     -13.349  59.202 105.941  1.00  0.00     0.148 C 
BRANCH  32  39
HETATM   39  O3  UNL     1     -14.670  59.789 104.010  1.00  0.00    -0.382 OA
ATOM     40  H3  UNL     1     -15.114  58.964 103.851  1.00  0.00     0.211 HD
ENDBRANCH  32  39
ENDBRANCH  28  32
ENDBRANCH  23  26
ENDBRANCH   3  23
TORSDOF 11
ENDMDL
MODEL 2
REMARK VINA RESULT: -9.151837700      3.522      8.324
REMARK  11 active torsions:
REMARK  status: ('A' for Active; 'I' for Inactive)
REMARK    1  A    between atoms: C2_2  and  C3_3 
REMARK    2  A    between atoms: C2_2  and  C4_8 
REMARK    3  A    between atoms: C3_3  and  N1_4 
REMARK    4  A    between atoms: C4_8  and  N2_9 
REMARK    5  A    between atoms: C4_8  and  C14_31 
REMARK       I    between atoms: N2_9  and  C5_11 
REMARK    6  A    between atoms: C5_11  and  C6_13 
REMARK    7  A    between atoms: C6_13  and  O2_14 
REMARK    8  A    between atoms: C6_13  and  N3_16 
REMARK    9  A    between atoms: C8_18  and  C9_19 
REMARK   10  A    between atoms: C9_19  and  O3_20 
REMARK   11  A    between atoms: C15_36  and  C16_37 
ROOT
HETATM    1  N2  UNL     1     -10.267  65.731 105.726  1.00  0.00    -0.346 N 
ATOM      2  H2  UNL     1     -10.280  66.218 104.830  1.00  0.00     0.163 HD
HETATM    3  C5  UNL     1     -10.919  66.394 106.787  1.00  0.00     0.267 C 
HETATM    4  O1  UNL     1     -10.956  65.943 107.944  1.00  0.00    -0.269 OA
ENDROOT
BRANCH   1   5
HETATM    5  C4  UNL     1      -9.589  64.469 105.729  1.00  0.00     0.148 C 
BRANCH   5   6
HETATM    6  C2  UNL     1      -8.506  64.317 104.718  1.00  0.00     0.036 C 
HETATM    7  C1  UNL     1      -8.384  65.546 103.838  1.00  0.00     0.014 C 
BRANCH   6   8
HETATM    8  C3  UNL     1      -7.130  64.012 105.240  1.00  0.00     0.236 C 
BRANCH   8   9
HETATM    9  N1  UNL     1      -6.359  63.376 104.136  1.00  0.00    -0.079 N 
ATOM     10  H13 UNL     1      -6.506  62.369 104.078  1.00  0.00     0.274 HD
ATOM     11  H12 UNL     1      -6.718  63.617 103.211  1.00  0.00     0.274 HD
ATOM     12  H11 UNL     1      -5.379  63.628 104.259  1.00  0.00     0.274 HD
ENDBRANCH   8   9
ENDBRANCH   6   8
ENDBRANCH   5   6
BRANCH   5  13
HETATM   13  C14 UNL     1     -10.559  63.337 105.660  1.00  0.00     0.091 A 
HETATM   14  N5  UNL     1     -10.450  62.027 105.765  1.00  0.00    -0.295 N 
HETATM   15  N6  UNL     1     -11.458  61.291 105.596  1.00  0.00    -0.289 N 
ATOM     16  H5  UNL     1      -9.546  61.609 105.985  1.00  0.00     0.187 HD
HETATM   17  C15 UNL     1     -12.641  61.811 105.311  1.00  0.00     0.156 A 
ATOM     18  H6  UNL     1     -11.361  60.278 105.678  1.00  0.00     0.188 HD
HETATM   19  S3  UNL     1     -12.243  63.487 105.290  1.00  0.00    -0.049 SA
BRANCH  17  20
HETATM   20  C16 UNL     1     -13.910  61.159 105.053  1.00  0.00     0.289 C 
HETATM   21  N7  UNL     1     -14.350  60.083 105.838  1.00  0.00    -0.055 NA
HETATM   22  O5  UNL     1     -14.632  61.565 104.102  1.00  0.00    -0.269 OA
ENDBRANCH  17  20
ENDBRANCH   5  13
ENDBRANCH   1   5
BRANCH   3  23
HETATM   23  C6  UNL     1     -11.565  67.675 106.471  1.00  0.00     0.319 C 
BRANCH  23  24
HETATM   24  O2  UNL     1     -11.020  68.663 107.307  1.00  0.00    -0.368 OA
ATOM     25  H2  UNL     1     -11.685  68.924 107.934  1.00  0.00     0.212 HD
ENDBRANCH  23  24
BRANCH  23  26
HETATM   26  N3  UNL     1     -13.042  67.635 106.707  1.00  0.00    -0.306 N 
HETATM   27  C7  UNL     1     -13.460  67.936 107.936  1.00  0.00     0.113 A 
HETATM   28  C8  UNL     1     -14.794  67.895 108.169  1.00  0.00     0.037 A 
HETATM   29  S1  UNL     1     -15.434  67.443 106.670  1.00  0.00    -0.060 SA
HETATM   30  C13 UNL     1     -13.920  67.321 105.803  1.00  0.00     0.147 A 
HETATM   31  S2  UNL     1     -13.833  66.904 104.202  1.00  0.00    -0.052 SA
BRANCH  28  32
HETATM   32  C9  UNL     1     -15.586  68.171 109.429  1.00  0.00     0.117 C 
HETATM   33  C10 UNL     1     -14.771  67.970 110.651  1.00  0.00     0.166 C 
HETATM   34  N4  UNL     1     -14.939  66.586 111.046  1.00  0.00    -0.358 N 
HETATM   35  C11 UNL     1     -15.919  65.950 110.226  1.00  0.00     0.221 C 
ATOM     36  H4  UNL     1     -14.429  66.130 111.803  1.00  0.00     0.162 HD
HETATM   37  O4  UNL     1     -16.083  64.710 110.143  1.00  0.00    -0.273 OA
HETATM   38  C12 UNL     1     -16.633  67.059 109.557  1.00  0.00     0.148 C 
BRANCH  32  39
HETATM   39  O3  UNL     1     -16.160  69.419 109.402  1.00  0.00    -0.382 OA
ATOM     40  H3  UNL     1     -15.611  70.065 109.833  1.00  0.00     0.211 HD
ENDBRANCH  32  39
ENDBRANCH  28  32
ENDBRANCH  23  26
ENDBRANCH   3  23
TORSDOF 11
ENDMDL
MODEL 3
REMARK VINA RESULT: -8.918806685      2.807      3.897
REMARK  11 active torsions:
REMARK  status: ('A' for Active; 'I' for Inactive)
REMARK    1  A    between atoms: C2_2  and  C3_3 
REMARK    2  A    between atoms: C2_2  and  C4_8 
REMARK    3  A    between atoms: C3_3  and  N1_4 
REMARK    4  A    between atoms: C4_8  and  N2_9 
REMARK    5  A    between atoms: C4_8  and  C14_31 
REMARK       I    between atoms: N2_9  and  C5_11 
REMARK    6  A    between atoms: C5_11  and  C6_13 
REMARK    7  A    between atoms: C6_13  and  O2_14 
REMARK    8  A    between atoms: C6_13  and  N3_16 
REMARK    9  A    between atoms: C8_18  and  C9_19 
REMARK   10  A    between atoms: C9_19  and  O3_20 
REMARK   11  A    between atoms: C15_36  and  C16_37 
ROOT
HETATM    1  N2  UNL     1     -15.675  66.436 108.496  1.00  0.00    -0.346 N 
ATOM      2  H2  UNL     1     -15.778  67.087 107.717  1.00  0.00     0.163 HD
HETATM    3  C5  UNL     1     -15.822  65.071 108.167  1.00  0.00     0.267 C 
HETATM    4  O1  UNL     1     -15.758  64.162 109.012  1.00  0.00    -0.269 OA
ENDROOT
BRANCH   1   5
HETATM    5  C4  UNL     1     -15.400  67.034 109.767  1.00  0.00     0.148 C 
BRANCH   5   6
HETATM    6  C2  UNL     1     -16.460  67.937 110.296  1.00  0.00     0.036 C 
HETATM    7  C1  UNL     1     -16.740  69.089 109.349  1.00  0.00     0.014 C 
BRANCH   6   8
HETATM    8  C3  UNL     1     -17.784  67.307 110.625  1.00  0.00     0.236 C 
BRANCH   8   9
HETATM    9  N1  UNL     1     -18.718  68.399 111.019  1.00  0.00    -0.079 N 
ATOM     10  H13 UNL     1     -18.813  68.494 112.030  1.00  0.00     0.274 HD
ATOM     11  H12 UNL     1     -18.342  69.329 110.832  1.00  0.00     0.274 HD
ATOM     12  H11 UNL     1     -19.608  68.228 110.551  1.00  0.00     0.274 HD
ENDBRANCH   8   9
ENDBRANCH   6   8
ENDBRANCH   5   6
BRANCH   5  13
HETATM   13  C14 UNL     1     -14.066  67.703 109.771  1.00  0.00     0.091 A 
HETATM   14  N5  UNL     1     -13.342  68.301 110.696  1.00  0.00    -0.295 N 
HETATM   15  N6  UNL     1     -12.248  68.848 110.390  1.00  0.00    -0.289 N 
ATOM     16  H5  UNL     1     -13.667  68.322 111.662  1.00  0.00     0.187 HD
HETATM   17  C15 UNL     1     -11.805  68.834 109.143  1.00  0.00     0.156 A 
ATOM     18  H6  UNL     1     -11.697  69.309 111.115  1.00  0.00     0.188 HD
HETATM   19  S3  UNL     1     -13.077  67.964 108.374  1.00  0.00    -0.049 SA
BRANCH  17  20
HETATM   20  C16 UNL     1     -10.605  69.415 108.573  1.00  0.00     0.289 C 
HETATM   21  N7  UNL     1     -10.429  69.510 107.185  1.00  0.00    -0.055 NA
HETATM   22  O5  UNL     1      -9.700  69.842 109.340  1.00  0.00    -0.269 OA
ENDBRANCH  17  20
ENDBRANCH   5  13
ENDBRANCH   1   5
BRANCH   3  23
HETATM   23  C6  UNL     1     -16.066  64.752 106.754  1.00  0.00     0.319 C 
BRANCH  23  24
HETATM   24  O2  UNL     1     -16.234  63.362 106.637  1.00  0.00    -0.368 OA
ATOM     25  H2  UNL     1     -16.457  63.015 107.493  1.00  0.00     0.212 HD
ENDBRANCH  23  24
BRANCH  23  26
HETATM   26  N3  UNL     1     -14.919  65.152 105.880  1.00  0.00    -0.306 N 
HETATM   27  C7  UNL     1     -13.785  64.467 106.029  1.00  0.00     0.113 A 
HETATM   28  C8  UNL     1     -12.734  64.823 105.252  1.00  0.00     0.037 A 
HETATM   29  S1  UNL     1     -13.350  66.099 104.330  1.00  0.00    -0.060 SA
HETATM   30  C13 UNL     1     -14.962  66.115 105.010  1.00  0.00     0.147 A 
HETATM   31  S2  UNL     1     -16.134  67.175 104.516  1.00  0.00    -0.052 SA
BRANCH  28  32
HETATM   32  C9  UNL     1     -11.329  64.265 105.174  1.00  0.00     0.117 C 
HETATM   33  C10 UNL     1     -10.509  64.664 106.343  1.00  0.00     0.166 C 
HETATM   34  N4  UNL     1      -9.856  65.910 105.993  1.00  0.00    -0.358 N 
HETATM   35  C11 UNL     1     -10.109  66.237 104.627  1.00  0.00     0.221 C 
ATOM     36  H4  UNL     1      -9.295  66.473 106.632  1.00  0.00     0.162 HD
HETATM   37  O4  UNL     1      -9.915  67.366 104.117  1.00  0.00    -0.273 OA
HETATM   38  C12 UNL     1     -10.619  64.987 104.024  1.00  0.00     0.148 C 
BRANCH  32  39
HETATM   39  O3  UNL     1     -11.336  62.902 105.002  1.00  0.00    -0.382 OA
ATOM     40  H3  UNL     1     -10.492  62.519 105.214  1.00  0.00     0.211 HD
ENDBRANCH  32  39
ENDBRANCH  28  32
ENDBRANCH  23  26
ENDBRANCH   3  23
TORSDOF 11
ENDMDL
MODEL 4
REMARK VINA RESULT: -8.877778207      1.047      1.624
REMARK  11 active torsions:
REMARK  status: ('A' for Active; 'I' for Inactive)
REMARK    1  A    between atoms: C2_2  and  C3_3 
REMARK    2  A    between atoms: C2_2  and  C4_8 
REMARK    3  A    between atoms: C3_3  and  N1_4 
REMARK    4  A    between atoms: C4_8  and  N2_9 
REMARK    5  A    between atoms: C4_8  and  C14_31 
REMARK       I    between atoms: N2_9  and  C5_11 
REMARK    6  A    between atoms: C5_11  and  C6_13 
REMARK    7  A    between atoms: C6_13  and  O2_14 
REMARK    8  A    between atoms: C6_13  and  N3_16 
REMARK    9  A    between atoms: C8_18  and  C9_19 
REMARK   10  A    between atoms: C9_19  and  O3_20 
REMARK   11  A    between atoms: C15_36  and  C16_37 
ROOT
HETATM    1  N2  UNL     1     -15.255  66.547 108.598  1.00  0.00    -0.346 N 
ATOM      2  H2  UNL     1     -15.115  67.102 107.754  1.00  0.00     0.163 HD
HETATM    3  C5  UNL     1     -15.574  65.189 108.385  1.00  0.00     0.267 C 
HETATM    4  O1  UNL     1     -15.808  64.396 109.313  1.00  0.00    -0.269 OA
ENDROOT
BRANCH   1   5
HETATM    5  C4  UNL     1     -15.100  67.255 109.833  1.00  0.00     0.148 C 
BRANCH   5   6
HETATM    6  C2  UNL     1     -16.223  68.161 110.202  1.00  0.00     0.036 C 
HETATM    7  C1  UNL     1     -16.610  69.071 109.052  1.00  0.00     0.014 C 
BRANCH   6   8
HETATM    8  C3  UNL     1     -17.486  67.510 110.691  1.00  0.00     0.236 C 
BRANCH   8   9
HETATM    9  N1  UNL     1     -18.413  68.592 111.124  1.00  0.00    -0.079 N 
ATOM     10  H13 UNL     1     -17.943  69.487 111.261  1.00  0.00     0.274 HD
ATOM     11  H12 UNL     1     -19.051  68.888 110.385  1.00  0.00     0.274 HD
ATOM     12  H11 UNL     1     -18.898  68.267 111.960  1.00  0.00     0.274 HD
ENDBRANCH   8   9
ENDBRANCH   6   8
ENDBRANCH   5   6
BRANCH   5  13
HETATM   13  C14 UNL     1     -13.790  67.967 109.885  1.00  0.00     0.091 A 
HETATM   14  N5  UNL     1     -13.143  68.634 110.821  1.00  0.00    -0.295 N 
HETATM   15  N6  UNL     1     -12.049  69.201 110.555  1.00  0.00    -0.289 N 
ATOM     16  H5  UNL     1     -13.529  68.691 111.762  1.00  0.00     0.187 HD
HETATM   17  C15 UNL     1     -11.528  69.139 109.341  1.00  0.00     0.156 A 
ATOM     18  H6  UNL     1     -11.559  69.715 111.288  1.00  0.00     0.188 HD
HETATM   19  S3  UNL     1     -12.722  68.191 108.540  1.00  0.00    -0.049 SA
BRANCH  17  20
HETATM   20  C16 UNL     1     -10.312  69.731 108.816  1.00  0.00     0.289 C 
HETATM   21  N7  UNL     1     -10.187  70.057 107.458  1.00  0.00    -0.055 NA
HETATM   22  O5  UNL     1      -9.347  69.954 109.596  1.00  0.00    -0.269 OA
ENDBRANCH  17  20
ENDBRANCH   5  13
ENDBRANCH   1   5
BRANCH   3  23
HETATM   23  C6  UNL     1     -15.629  64.732 106.989  1.00  0.00     0.319 C 
BRANCH  23  24
HETATM   24  O2  UNL     1     -16.712  63.847 106.856  1.00  0.00    -0.368 OA
ATOM     25  H2  UNL     1     -16.443  62.995 107.180  1.00  0.00     0.212 HD
ENDBRANCH  23  24
BRANCH  23  26
HETATM   26  N3  UNL     1     -14.386  64.004 106.586  1.00  0.00    -0.306 N 
HETATM   27  C7  UNL     1     -14.303  62.721 106.937  1.00  0.00     0.113 A 
HETATM   28  C8  UNL     1     -13.180  62.049 106.588  1.00  0.00     0.037 A 
HETATM   29  S1  UNL     1     -12.268  63.218 105.775  1.00  0.00    -0.060 SA
HETATM   30  C13 UNL     1     -13.400  64.542 105.934  1.00  0.00     0.147 A 
HETATM   31  S2  UNL     1     -13.109  66.051 105.317  1.00  0.00    -0.052 SA
BRANCH  28  32
HETATM   32  C9  UNL     1     -12.772  60.612 106.831  1.00  0.00     0.117 C 
HETATM   33  C10 UNL     1     -12.337  59.941 105.583  1.00  0.00     0.166 C 
HETATM   34  N4  UNL     1     -13.517  59.333 104.999  1.00  0.00    -0.358 N 
HETATM   35  C11 UNL     1     -14.632  59.466 105.880  1.00  0.00     0.221 C 
ATOM     36  H4  UNL     1     -13.546  58.876 104.088  1.00  0.00     0.162 HD
HETATM   37  O4  UNL     1     -15.828  59.290 105.548  1.00  0.00    -0.273 OA
HETATM   38  C12 UNL     1     -14.043  59.834 107.186  1.00  0.00     0.148 C 
BRANCH  32  39
HETATM   39  O3  UNL     1     -11.817  60.517 107.815  1.00  0.00    -0.382 OA
ATOM     40  H3  UNL     1     -12.209  60.501 108.681  1.00  0.00     0.211 HD
ENDBRANCH  32  39
ENDBRANCH  28  32
ENDBRANCH  23  26
ENDBRANCH   3  23
TORSDOF 11
ENDMDL
MODEL 5
REMARK VINA RESULT: -8.860673251      2.560      4.829
REMARK  11 active torsions:
REMARK  status: ('A' for Active; 'I' for Inactive)
REMARK    1  A    between atoms: C2_2  and  C3_3 
REMARK    2  A    between atoms: C2_2  and  C4_8 
REMARK    3  A    between atoms: C3_3  and  N1_4 
REMARK    4  A    between atoms: C4_8  and  N2_9 
REMARK    5  A    between atoms: C4_8  and  C14_31 
REMARK       I    between atoms: N2_9  and  C5_11 
REMARK    6  A    between atoms: C5_11  and  C6_13 
REMARK    7  A    between atoms: C6_13  and  O2_14 
REMARK    8  A    between atoms: C6_13  and  N3_16 
REMARK    9  A    between atoms: C8_18  and  C9_19 
REMARK   10  A    between atoms: C9_19  and  O3_20 
REMARK   11  A    between atoms: C15_36  and  C16_37 
ROOT
HETATM    1  N2  UNL     1     -14.614  67.140 107.391  1.00  0.00    -0.346 N 
ATOM      2  H2  UNL     1     -14.575  66.135 107.559  1.00  0.00     0.163 HD
HETATM    3  C5  UNL     1     -14.785  67.523 106.043  1.00  0.00     0.267 C 
HETATM    4  O1  UNL     1     -14.816  68.710 105.676  1.00  0.00    -0.269 OA
ENDROOT
BRANCH   1   5
HETATM    5  C4  UNL     1     -14.487  67.965 108.554  1.00  0.00     0.148 C 
BRANCH   5   6
HETATM    6  C2  UNL     1     -13.625  67.419 109.640  1.00  0.00     0.036 C 
HETATM    7  C1  UNL     1     -13.130  66.023 109.314  1.00  0.00     0.014 C 
BRANCH   6   8
HETATM    8  C3  UNL     1     -12.423  68.234 110.025  1.00  0.00     0.236 C 
BRANCH   8   9
HETATM    9  N1  UNL     1     -12.761  68.974 111.272  1.00  0.00    -0.079 N 
ATOM     10  H13 UNL     1     -12.615  68.419 112.115  1.00  0.00     0.274 HD
ATOM     11  H12 UNL     1     -12.094  69.718 111.485  1.00  0.00     0.274 HD
ATOM     12  H11 UNL     1     -13.718  69.313 111.180  1.00  0.00     0.274 HD
ENDBRANCH   8   9
ENDBRANCH   6   8
ENDBRANCH   5   6
BRANCH   5  13
HETATM   13  C14 UNL     1     -15.825  68.370 109.076  1.00  0.00     0.091 A 
HETATM   14  N5  UNL     1     -16.597  69.424 108.903  1.00  0.00    -0.295 N 
HETATM   15  N6  UNL     1     -17.680  69.530 109.540  1.00  0.00    -0.289 N 
ATOM     16  H5  UNL     1     -16.318  70.158 108.252  1.00  0.00     0.187 HD
HETATM   17  C15 UNL     1     -18.064  68.590 110.390  1.00  0.00     0.156 A 
ATOM     18  H6  UNL     1     -18.268  70.351 109.399  1.00  0.00     0.188 HD
HETATM   19  S3  UNL     1     -16.750  67.486 110.243  1.00  0.00    -0.049 SA
BRANCH  17  20
HETATM   20  C16 UNL     1     -19.240  68.521 111.235  1.00  0.00     0.289 C 
HETATM   21  N7  UNL     1     -19.153  68.703 112.622  1.00  0.00    -0.055 NA
HETATM   22  O5  UNL     1     -20.364  68.289 110.712  1.00  0.00    -0.269 OA
ENDBRANCH  17  20
ENDBRANCH   5  13
ENDBRANCH   1   5
BRANCH   3  23
HETATM   23  C6  UNL     1     -14.924  66.440 105.059  1.00  0.00     0.319 C 
BRANCH  23  24
HETATM   24  O2  UNL     1     -16.080  65.706 105.371  1.00  0.00    -0.368 OA
ATOM     25  H2  UNL     1     -16.077  65.525 106.304  1.00  0.00     0.212 HD
ENDBRANCH  23  24
BRANCH  23  26
HETATM   26  N3  UNL     1     -13.759  65.500 105.088  1.00  0.00    -0.306 N 
HETATM   27  C7  UNL     1     -13.889  64.410 105.843  1.00  0.00     0.113 A 
HETATM   28  C8  UNL     1     -12.841  63.553 105.888  1.00  0.00     0.037 A 
HETATM   29  S1  UNL     1     -11.702  64.284 104.875  1.00  0.00    -0.060 SA
HETATM   30  C13 UNL     1     -12.650  65.688 104.441  1.00  0.00     0.147 A 
HETATM   31  S2  UNL     1     -12.095  66.864 103.415  1.00  0.00    -0.052 SA
BRANCH  28  32
HETATM   32  C9  UNL     1     -12.661  62.250 106.637  1.00  0.00     0.117 C 
HETATM   33  C10 UNL     1     -11.600  61.408 106.034  1.00  0.00     0.166 C 
HETATM   34  N4  UNL     1     -12.243  60.561 105.048  1.00  0.00    -0.358 N 
HETATM   35  C11 UNL     1     -13.660  60.726 105.101  1.00  0.00     0.221 C 
ATOM     36  H4  UNL     1     -11.753  59.937 104.408  1.00  0.00     0.162 HD
HETATM   37  O4  UNL     1     -14.455  60.348 104.208  1.00  0.00    -0.273 OA
HETATM   38  C12 UNL     1     -13.917  61.408 106.388  1.00  0.00     0.148 C 
BRANCH  32  39
HETATM   39  O3  UNL     1     -12.439  62.463 107.976  1.00  0.00    -0.382 OA
ATOM     40  H3  UNL     1     -13.141  62.105 108.507  1.00  0.00     0.211 HD
ENDBRANCH  32  39
ENDBRANCH  28  32
ENDBRANCH  23  26
ENDBRANCH   3  23
TORSDOF 11
ENDMDL
