MODEL 1
REMARK VINA RESULT: -9.896467332      0.000      0.000
REMARK  11 active torsions:
REMARK  status: ('A' for Active; 'I' for Inactive)
REMARK    1  A    between atoms: C3_5  and  C4_6 
REMARK    2  A    between atoms: C4_6  and  C5_7 
REMARK    3  A    between atoms: C4_6  and  C10_20 
REMARK    4  A    between atoms: N2_9  and  C7_10 
REMARK    5  A    between atoms: C7_10  and  C8_11 
REMARK    6  A    between atoms: C8_11  and  C9_12 
REMARK    7  A    between atoms: C9_12  and  N3_13 
REMARK    8  A    between atoms: C11_23  and  C12_24 
REMARK    9  A    between atoms: C12_24  and  N7_25 
REMARK   10  A    between atoms: C12_24  and  C13_29 
REMARK   11  A    between atoms: C16_39  and  N10_40 
ROOT
HETATM    1  C4  UNL     1     -11.972  63.783 105.015  1.00  0.00     0.151 C 
ENDROOT
BRANCH   1   2
HETATM    2  C3  UNL     1     -12.718  64.852 105.709  1.00  0.00     0.096 A 
HETATM    3  C2  UNL     1     -13.526  65.718 105.053  1.00  0.00     0.271 A 
HETATM    4  N1  UNL     1     -14.246  66.734 105.625  1.00  0.00    -0.311 N 
HETATM    5  O1  UNL     1     -13.631  65.577 103.787  1.00  0.00    -0.266 OA
HETATM    6  C1  UNL     1     -15.075  67.597 104.833  1.00  0.00     0.160 C 
HETATM    7  C18 UNL     1     -14.102  66.838 106.959  1.00  0.00     0.126 A 
HETATM    8  C15 UNL     1     -13.283  65.977 107.696  1.00  0.00     0.152 A 
HETATM    9  C17 UNL     1     -14.774  67.818 107.640  1.00  0.00     0.145 A 
HETATM   10  N8  UNL     1     -12.610  65.007 107.064  1.00  0.00    -0.338 N 
HETATM   11  N9  UNL     1     -13.179  66.130 109.023  1.00  0.00    -0.174 N 
ATOM     12  H8  UNL     1     -12.011  64.378 107.598  1.00  0.00     0.167 HD
HETATM   13  C16 UNL     1     -13.847  67.100 109.683  1.00  0.00     0.679 A 
ATOM     14  H9  UNL     1     -12.578  65.497 109.549  1.00  0.00     0.186 HD
HETATM   15  N11 UNL     1     -14.632  67.925 108.975  1.00  0.00    -0.175 N 
ATOM     16  H11 UNL     1     -15.140  68.660 109.466  1.00  0.00     0.186 HD
HETATM   17  N12 UNL     1     -15.523  68.625 107.049  1.00  0.00    -0.383 N 
ATOM     18 2H12 UNL     1     -16.024  69.354 107.556  1.00  0.00     0.157 HD
ATOM     19 1H12 UNL     1     -15.631  68.544 106.038  1.00  0.00     0.157 HD
BRANCH  13  20
HETATM   20  N10 UNL     1     -13.701  67.188 110.952  1.00  0.00    -0.234 N 
ATOM     21 2H10 UNL     1     -13.271  66.456 111.516  1.00  0.00     0.174 HD
ATOM     22 1H10 UNL     1     -14.031  68.031 111.423  1.00  0.00     0.174 HD
ENDBRANCH  13  20
ENDBRANCH   1   2
BRANCH   1  23
HETATM   23  C5  UNL     1     -10.511  63.944 105.075  1.00  0.00     0.057 A 
HETATM   24  C6  UNL     1      -9.735  64.624 104.149  1.00  0.00     0.135 A 
HETATM   25  N2  UNL     1      -8.443  64.573 104.514  1.00  0.00    -0.285 N 
HETATM   26  N4  UNL     1      -8.401  63.881 105.639  1.00  0.00    -0.021 NA
HETATM   27  N5  UNL     1      -9.621  63.498 105.988  1.00  0.00    -0.286 N 
ATOM     28  H5  UNL     1      -9.852  62.951 106.818  1.00  0.00     0.184 HD
BRANCH  25  29
HETATM   29  C7  UNL     1      -7.327  65.164 103.806  1.00  0.00     0.147 C 
BRANCH  29  30
HETATM   30  C8  UNL     1      -6.072  64.310 104.015  1.00  0.00     0.048 C 
BRANCH  30  31
HETATM   31  C9  UNL     1      -5.132  65.026 104.957  1.00  0.00     0.231 C 
BRANCH  31  32
HETATM   32  N3  UNL     1      -5.090  64.244 106.188  1.00  0.00    -0.079 N 
ATOM     33  H33 UNL     1      -5.340  64.784 107.015  1.00  0.00     0.274 HD
ATOM     34  H32 UNL     1      -5.839  63.555 106.251  1.00  0.00     0.274 HD
ATOM     35  H31 UNL     1      -4.159  63.832 106.244  1.00  0.00     0.274 HD
ENDBRANCH  31  32
ENDBRANCH  30  31
ENDBRANCH  29  30
ENDBRANCH  25  29
ENDBRANCH   1  23
BRANCH   1  36
HETATM   36  C10 UNL     1     -12.389  62.400 105.417  1.00  0.00     0.067 A 
HETATM   37  N6  UNL     1     -13.617  61.936 105.478  1.00  0.00    -0.354 N 
HETATM   38  C11 UNL     1     -13.842  60.710 105.835  1.00  0.00     0.057 A 
ATOM     39  H6  UNL     1     -14.400  62.546 105.244  1.00  0.00     0.166 HD
HETATM   40  C14 UNL     1     -12.765  59.929 106.141  1.00  0.00     0.079 A 
HETATM   41  S1  UNL     1     -11.470  61.047 105.886  1.00  0.00    -0.085 SA
BRANCH  38  42
HETATM   42  C12 UNL     1     -15.262  60.168 105.900  1.00  0.00     0.333 C 
BRANCH  42  43
HETATM   43  N7  UNL     1     -16.084  61.093 106.668  1.00  0.00    -0.060 N 
ATOM     44  H73 UNL     1     -16.998  60.703 106.897  1.00  0.00     0.275 HD
ATOM     45  H72 UNL     1     -15.741  61.220 107.620  1.00  0.00     0.275 HD
ATOM     46  H71 UNL     1     -16.152  61.974 106.159  1.00  0.00     0.275 HD
ENDBRANCH  42  43
BRANCH  42  47
HETATM   47  C13 UNL     1     -15.847  60.010 104.565  1.00  0.00     0.210 C 
HETATM   48  O2  UNL     1     -16.635  59.077 104.277  1.00  0.00    -0.646 OA
HETATM   49  O3  UNL     1     -15.544  60.904 103.549  1.00  0.00    -0.646 OA
ENDBRANCH  42  47
ENDBRANCH  38  42
ENDBRANCH   1  36
TORSDOF 11
ENDMDL
MODEL 2
REMARK VINA RESULT: -9.530027614      1.903      2.220
REMARK  11 active torsions:
REMARK  status: ('A' for Active; 'I' for Inactive)
REMARK    1  A    between atoms: C3_5  and  C4_6 
REMARK    2  A    between atoms: C4_6  and  C5_7 
REMARK    3  A    between atoms: C4_6  and  C10_20 
REMARK    4  A    between atoms: N2_9  and  C7_10 
REMARK    5  A    between atoms: C7_10  and  C8_11 
REMARK    6  A    between atoms: C8_11  and  C9_12 
REMARK    7  A    between atoms: C9_12  and  N3_13 
REMARK    8  A    between atoms: C11_23  and  C12_24 
REMARK    9  A    between atoms: C12_24  and  N7_25 
REMARK   10  A    between atoms: C12_24  and  C13_29 
REMARK   11  A    between atoms: C16_39  and  N10_40 
ROOT
HETATM    1  C4  UNL     1     -12.924  63.444 105.082  1.00  0.00     0.151 C 
ENDROOT
BRANCH   1   2
HETATM    2  C3  UNL     1     -13.559  64.428 105.981  1.00  0.00     0.096 A 
HETATM    3  C2  UNL     1     -14.118  65.574 105.526  1.00  0.00     0.271 A 
HETATM    4  N1  UNL     1     -14.720  66.534 106.297  1.00  0.00    -0.311 N 
HETATM    5  O1  UNL     1     -14.084  65.783 104.265  1.00  0.00    -0.266 OA
HETATM    6  C1  UNL     1     -15.283  67.717 105.709  1.00  0.00     0.160 C 
HETATM    7  C18 UNL     1     -14.731  66.267 107.615  1.00  0.00     0.126 A 
HETATM    8  C15 UNL     1     -14.171  65.102 108.150  1.00  0.00     0.152 A 
HETATM    9  C17 UNL     1     -15.307  67.155 108.484  1.00  0.00     0.145 A 
HETATM   10  N8  UNL     1     -13.598  64.210 107.331  1.00  0.00    -0.338 N 
HETATM   11  N9  UNL     1     -14.211  64.891 109.473  1.00  0.00    -0.174 N 
ATOM     12  H8  UNL     1     -13.188  63.361 107.718  1.00  0.00     0.167 HD
HETATM   13  C16 UNL     1     -14.782  65.774 110.318  1.00  0.00     0.679 A 
ATOM     14  H9  UNL     1     -13.798  64.039 109.851  1.00  0.00     0.186 HD
HETATM   15  N11 UNL     1     -15.319  66.890 109.804  1.00  0.00    -0.175 N 
ATOM     16  H11 UNL     1     -15.752  67.562 110.436  1.00  0.00     0.186 HD
HETATM   17  N12 UNL     1     -15.827  68.217 108.080  1.00  0.00    -0.383 N 
ATOM     18 2H12 UNL     1     -16.256  68.879 108.727  1.00  0.00     0.157 HD
ATOM     19 1H12 UNL     1     -15.817  68.418 107.079  1.00  0.00     0.157 HD
BRANCH  13  20
HETATM   20  N10 UNL     1     -14.785  65.507 111.571  1.00  0.00    -0.234 N 
ATOM     21 2H10 UNL     1     -14.505  64.603 111.949  1.00  0.00     0.174 HD
ATOM     22 1H10 UNL     1     -15.083  66.233 112.223  1.00  0.00     0.174 HD
ENDBRANCH  13  20
ENDBRANCH   1   2
BRANCH   1  23
HETATM   23  C5  UNL     1     -11.455  63.446 105.142  1.00  0.00     0.057 A 
HETATM   24  C6  UNL     1     -10.621  64.336 104.483  1.00  0.00     0.135 A 
HETATM   25  N2  UNL     1      -9.338  64.048 104.761  1.00  0.00    -0.285 N 
HETATM   26  N4  UNL     1      -9.358  63.007 105.574  1.00  0.00    -0.021 NA
HETATM   27  N5  UNL     1     -10.609  62.634 105.811  1.00  0.00    -0.286 N 
ATOM     28  H5  UNL     1     -10.888  61.854 106.408  1.00  0.00     0.184 HD
BRANCH  25  29
HETATM   29  C7  UNL     1      -8.174  64.750 104.264  1.00  0.00     0.147 C 
BRANCH  29  30
HETATM   30  C8  UNL     1      -6.980  63.790 104.203  1.00  0.00     0.048 C 
BRANCH  30  31
HETATM   31  C9  UNL     1      -5.711  64.552 104.506  1.00  0.00     0.231 C 
BRANCH  31  32
HETATM   32  N3  UNL     1      -5.149  63.970 105.720  1.00  0.00    -0.079 N 
ATOM     33  H33 UNL     1      -5.855  63.736 106.418  1.00  0.00     0.274 HD
ATOM     34  H32 UNL     1      -4.785  63.028 105.583  1.00  0.00     0.274 HD
ATOM     35  H31 UNL     1      -4.446  64.625 106.064  1.00  0.00     0.274 HD
ENDBRANCH  31  32
ENDBRANCH  30  31
ENDBRANCH  29  30
ENDBRANCH  25  29
ENDBRANCH   1  23
BRANCH   1  36
HETATM   36  C10 UNL     1     -13.478  62.058 105.220  1.00  0.00     0.067 A 
HETATM   37  N6  UNL     1     -12.948  61.063 105.895  1.00  0.00    -0.354 N 
HETATM   38  C11 UNL     1     -13.537  59.910 105.942  1.00  0.00     0.057 A 
ATOM     39  H6  UNL     1     -12.065  61.199 106.387  1.00  0.00     0.166 HD
HETATM   40  C14 UNL     1     -14.717  59.770 105.270  1.00  0.00     0.079 A 
HETATM   41  S1  UNL     1     -14.898  61.355 104.600  1.00  0.00    -0.085 SA
BRANCH  38  42
HETATM   42  C12 UNL     1     -12.929  58.758 106.729  1.00  0.00     0.333 C 
BRANCH  42  43
HETATM   43  N7  UNL     1     -11.585  59.130 107.145  1.00  0.00    -0.060 N 
ATOM     44  H73 UNL     1     -10.933  58.347 107.103  1.00  0.00     0.275 HD
ATOM     45  H72 UNL     1     -11.121  59.736 106.467  1.00  0.00     0.275 HD
ATOM     46  H71 UNL     1     -11.630  59.549 108.074  1.00  0.00     0.275 HD
ENDBRANCH  42  43
BRANCH  42  47
HETATM   47  C13 UNL     1     -13.721  58.432 107.919  1.00  0.00     0.210 C 
HETATM   48  O2  UNL     1     -13.217  58.336 109.064  1.00  0.00    -0.646 OA
HETATM   49  O3  UNL     1     -15.088  58.214 107.821  1.00  0.00    -0.646 OA
ENDBRANCH  42  47
ENDBRANCH  38  42
ENDBRANCH   1  36
TORSDOF 11
ENDMDL
MODEL 3
REMARK VINA RESULT: -9.471247483      2.278      2.699
REMARK  11 active torsions:
REMARK  status: ('A' for Active; 'I' for Inactive)
REMARK    1  A    between atoms: C3_5  and  C4_6 
REMARK    2  A    between atoms: C4_6  and  C5_7 
REMARK    3  A    between atoms: C4_6  and  C10_20 
REMARK    4  A    between atoms: N2_9  and  C7_10 
REMARK    5  A    between atoms: C7_10  and  C8_11 
REMARK    6  A    between atoms: C8_11  and  C9_12 
REMARK    7  A    between atoms: C9_12  and  N3_13 
REMARK    8  A    between atoms: C11_23  and  C12_24 
REMARK    9  A    between atoms: C12_24  and  N7_25 
REMARK   10  A    between atoms: C12_24  and  C13_29 
REMARK   11  A    between atoms: C16_39  and  N10_40 
ROOT
HETATM    1  C4  UNL     1     -11.473  64.464 105.628  1.00  0.00     0.151 C 
ENDROOT
BRANCH   1   2
HETATM    2  C3  UNL     1     -11.826  65.313 106.784  1.00  0.00     0.096 A 
HETATM    3  C2  UNL     1     -11.374  66.582 106.919  1.00  0.00     0.271 A 
HETATM    4  N1  UNL     1     -11.654  67.427 107.961  1.00  0.00    -0.311 N 
HETATM    5  O1  UNL     1     -10.619  67.037 105.994  1.00  0.00    -0.266 OA
HETATM    6  C1  UNL     1     -11.120  68.759 108.005  1.00  0.00     0.160 C 
HETATM    7  C18 UNL     1     -12.454  66.901 108.908  1.00  0.00     0.126 A 
HETATM    8  C15 UNL     1     -12.954  65.597 108.828  1.00  0.00     0.152 A 
HETATM    9  C17 UNL     1     -12.802  67.654 109.997  1.00  0.00     0.145 A 
HETATM   10  N8  UNL     1     -12.634  64.832 107.777  1.00  0.00    -0.338 N 
HETATM   11  N9  UNL     1     -13.746  65.128 109.803  1.00  0.00    -0.174 N 
ATOM     12  H8  UNL     1     -12.997  63.880 107.717  1.00  0.00     0.167 HD
HETATM   13  C16 UNL     1     -14.083  65.880 110.871  1.00  0.00     0.679 A 
ATOM     14  H9  UNL     1     -14.103  64.176 109.735  1.00  0.00     0.186 HD
HETATM   15  N11 UNL     1     -13.602  67.130 110.945  1.00  0.00    -0.175 N 
ATOM     16  H11 UNL     1     -13.852  67.705 111.749  1.00  0.00     0.186 HD
HETATM   17  N12 UNL     1     -12.393  68.826 110.136  1.00  0.00    -0.383 N 
ATOM     18 2H12 UNL     1     -12.653  69.387 110.948  1.00  0.00     0.157 HD
ATOM     19 1H12 UNL     1     -11.787  69.223 109.417  1.00  0.00     0.157 HD
BRANCH  13  20
HETATM   20  N10 UNL     1     -14.843  65.368 111.764  1.00  0.00    -0.234 N 
ATOM     21 2H10 UNL     1     -14.573  64.567 112.335  1.00  0.00     0.174 HD
ATOM     22 1H10 UNL     1     -15.765  65.778 111.913  1.00  0.00     0.174 HD
ENDBRANCH  13  20
ENDBRANCH   1   2
BRANCH   1  23
HETATM   23  C5  UNL     1     -10.025  64.303 105.430  1.00  0.00     0.057 A 
HETATM   24  C6  UNL     1      -9.323  64.651 104.286  1.00  0.00     0.135 A 
HETATM   25  N2  UNL     1      -8.019  64.368 104.449  1.00  0.00    -0.285 N 
HETATM   26  N4  UNL     1      -7.898  63.857 105.660  1.00  0.00    -0.021 NA
HETATM   27  N5  UNL     1      -9.081  63.810 106.259  1.00  0.00    -0.286 N 
ATOM     28  H5  UNL     1      -9.250  63.456 107.201  1.00  0.00     0.184 HD
BRANCH  25  29
HETATM   29  C7  UNL     1      -6.966  64.586 103.480  1.00  0.00     0.147 C 
BRANCH  29  30
HETATM   30  C8  UNL     1      -5.611  64.230 104.101  1.00  0.00     0.048 C 
BRANCH  30  31
HETATM   31  C9  UNL     1      -5.050  65.443 104.804  1.00  0.00     0.231 C 
BRANCH  31  32
HETATM   32  N3  UNL     1      -4.819  65.058 106.193  1.00  0.00    -0.079 N 
ATOM     33  H33 UNL     1      -4.663  64.057 106.311  1.00  0.00     0.274 HD
ATOM     34  H32 UNL     1      -3.919  65.373 106.553  1.00  0.00     0.274 HD
ATOM     35  H31 UNL     1      -5.612  65.407 106.732  1.00  0.00     0.274 HD
ENDBRANCH  31  32
ENDBRANCH  30  31
ENDBRANCH  29  30
ENDBRANCH  25  29
ENDBRANCH   1  23
BRANCH   1  36
HETATM   36  C10 UNL     1     -12.180  63.142 105.614  1.00  0.00     0.067 A 
HETATM   37  N6  UNL     1     -11.730  62.005 106.095  1.00  0.00    -0.354 N 
HETATM   38  C11 UNL     1     -12.450  60.930 106.027  1.00  0.00     0.057 A 
ATOM     39  H6  UNL     1     -10.806  61.969 106.526  1.00  0.00     0.166 HD
HETATM   40  C14 UNL     1     -13.679  61.023 105.442  1.00  0.00     0.079 A 
HETATM   41  S1  UNL     1     -13.712  62.701 105.021  1.00  0.00    -0.085 SA
BRANCH  38  42
HETATM   42  C12 UNL     1     -11.934  59.613 106.589  1.00  0.00     0.333 C 
BRANCH  42  43
HETATM   43  N7  UNL     1     -10.956  59.897 107.630  1.00  0.00    -0.060 N 
ATOM     44  H73 UNL     1     -10.621  60.859 107.596  1.00  0.00     0.275 HD
ATOM     45  H72 UNL     1     -11.374  59.924 108.560  1.00  0.00     0.275 HD
ATOM     46  H71 UNL     1     -10.198  59.218 107.565  1.00  0.00     0.275 HD
ENDBRANCH  42  43
BRANCH  42  47
HETATM   47  C13 UNL     1     -13.015  58.804 107.161  1.00  0.00     0.210 C 
HETATM   48  O2  UNL     1     -13.867  58.214 106.453  1.00  0.00    -0.646 OA
HETATM   49  O3  UNL     1     -13.138  58.656 108.534  1.00  0.00    -0.646 OA
ENDBRANCH  42  47
ENDBRANCH  38  42
ENDBRANCH   1  36
TORSDOF 11
ENDMDL
MODEL 4
REMARK VINA RESULT: -9.406517967      0.847      1.109
REMARK  11 active torsions:
REMARK  status: ('A' for Active; 'I' for Inactive)
REMARK    1  A    between atoms: C3_5  and  C4_6 
REMARK    2  A    between atoms: C4_6  and  C5_7 
REMARK    3  A    between atoms: C4_6  and  C10_20 
REMARK    4  A    between atoms: N2_9  and  C7_10 
REMARK    5  A    between atoms: C7_10  and  C8_11 
REMARK    6  A    between atoms: C8_11  and  C9_12 
REMARK    7  A    between atoms: C9_12  and  N3_13 
REMARK    8  A    between atoms: C11_23  and  C12_24 
REMARK    9  A    between atoms: C12_24  and  N7_25 
REMARK   10  A    between atoms: C12_24  and  C13_29 
REMARK   11  A    between atoms: C16_39  and  N10_40 
ROOT
HETATM    1  C4  UNL     1     -12.077  63.983 104.982  1.00  0.00     0.151 C 
ENDROOT
BRANCH   1   2
HETATM    2  C3  UNL     1     -12.804  65.052 105.696  1.00  0.00     0.096 A 
HETATM    3  C2  UNL     1     -13.620  65.925 105.062  1.00  0.00     0.271 A 
HETATM    4  N1  UNL     1     -14.323  66.942 105.654  1.00  0.00    -0.311 N 
HETATM    5  O1  UNL     1     -13.751  65.793 103.797  1.00  0.00    -0.266 OA
HETATM    6  C1  UNL     1     -15.164  67.814 104.883  1.00  0.00     0.160 C 
HETATM    7  C18 UNL     1     -14.153  67.038 106.985  1.00  0.00     0.126 A 
HETATM    8  C15 UNL     1     -13.324  66.168 107.701  1.00  0.00     0.152 A 
HETATM    9  C17 UNL     1     -14.806  68.017 107.685  1.00  0.00     0.145 A 
HETATM   10  N8  UNL     1     -12.669  65.198 107.050  1.00  0.00    -0.338 N 
HETATM   11  N9  UNL     1     -13.193  66.314 109.027  1.00  0.00    -0.174 N 
ATOM     12  H8  UNL     1     -12.062  64.563 107.569  1.00  0.00     0.167 HD
HETATM   13  C16 UNL     1     -13.843  67.282 109.705  1.00  0.00     0.679 A 
ATOM     14  H9  UNL     1     -12.585  65.674 109.537  1.00  0.00     0.186 HD
HETATM   15  N11 UNL     1     -14.637  68.115 109.017  1.00  0.00    -0.175 N 
ATOM     16  H11 UNL     1     -15.132  68.850 109.522  1.00  0.00     0.186 HD
HETATM   17  N12 UNL     1     -15.563  68.831 107.114  1.00  0.00    -0.383 N 
ATOM     18 2H12 UNL     1     -16.050  69.560 107.635  1.00  0.00     0.157 HD
ATOM     19 1H12 UNL     1     -15.691  68.756 106.104  1.00  0.00     0.157 HD
BRANCH  13  20
HETATM   20  N10 UNL     1     -13.672  67.363 110.971  1.00  0.00    -0.234 N 
ATOM     21 2H10 UNL     1     -13.066  66.730 111.493  1.00  0.00     0.174 HD
ATOM     22 1H10 UNL     1     -14.164  68.094 111.484  1.00  0.00     0.174 HD
ENDBRANCH  13  20
ENDBRANCH   1   2
BRANCH   1  23
HETATM   23  C5  UNL     1     -10.614  64.105 105.062  1.00  0.00     0.057 A 
HETATM   24  C6  UNL     1      -9.774  64.442 104.012  1.00  0.00     0.135 A 
HETATM   25  N2  UNL     1      -8.499  64.461 104.438  1.00  0.00    -0.285 N 
HETATM   26  N4  UNL     1      -8.531  64.148 105.720  1.00  0.00    -0.021 NA
HETATM   27  N5  UNL     1      -9.780  63.932 106.110  1.00  0.00    -0.286 N 
ATOM     28  H5  UNL     1     -10.066  63.675 107.055  1.00  0.00     0.184 HD
BRANCH  25  29
HETATM   29  C7  UNL     1      -7.332  64.769 103.639  1.00  0.00     0.147 C 
BRANCH  29  30
HETATM   30  C8  UNL     1      -6.622  65.999 104.213  1.00  0.00     0.048 C 
BRANCH  30  31
HETATM   31  C9  UNL     1      -6.444  67.028 103.121  1.00  0.00     0.231 C 
BRANCH  31  32
HETATM   32  N3  UNL     1      -7.162  68.225 103.547  1.00  0.00    -0.079 N 
ATOM     33  H33 UNL     1      -7.729  68.638 102.807  1.00  0.00     0.274 HD
ATOM     34  H32 UNL     1      -7.922  68.028 104.198  1.00  0.00     0.274 HD
ATOM     35  H31 UNL     1      -6.466  68.868 103.926  1.00  0.00     0.274 HD
ENDBRANCH  31  32
ENDBRANCH  30  31
ENDBRANCH  29  30
ENDBRANCH  25  29
ENDBRANCH   1  23
BRANCH   1  36
HETATM   36  C10 UNL     1     -12.534  62.601 105.342  1.00  0.00     0.067 A 
HETATM   37  N6  UNL     1     -13.774  62.167 105.380  1.00  0.00    -0.354 N 
HETATM   38  C11 UNL     1     -14.033  60.939 105.701  1.00  0.00     0.057 A 
ATOM     39  H6  UNL     1     -14.539  62.803 105.155  1.00  0.00     0.166 HD
HETATM   40  C14 UNL     1     -12.980  60.122 105.994  1.00  0.00     0.079 A 
HETATM   41  S1  UNL     1     -11.654  61.213 105.782  1.00  0.00    -0.085 SA
BRANCH  38  42
HETATM   42  C12 UNL     1     -15.468  60.432 105.738  1.00  0.00     0.333 C 
BRANCH  42  43
HETATM   43  N7  UNL     1     -16.326  61.487 106.258  1.00  0.00    -0.060 N 
ATOM     44  H73 UNL     1     -15.818  62.144 106.850  1.00  0.00     0.275 HD
ATOM     45  H72 UNL     1     -16.618  62.144 105.535  1.00  0.00     0.275 HD
ATOM     46  H71 UNL     1     -17.118  61.061 106.740  1.00  0.00     0.275 HD
ENDBRANCH  42  43
BRANCH  42  47
HETATM   47  C13 UNL     1     -15.944  60.045 104.407  1.00  0.00     0.210 C 
HETATM   48  O2  UNL     1     -16.606  58.999 104.201  1.00  0.00    -0.646 OA
HETATM   49  O3  UNL     1     -15.675  60.838 103.301  1.00  0.00    -0.646 OA
ENDBRANCH  42  47
ENDBRANCH  38  42
ENDBRANCH   1  36
TORSDOF 11
ENDMDL
MODEL 5
REMARK VINA RESULT: -9.257093121      3.751      8.800
REMARK  11 active torsions:
REMARK  status: ('A' for Active; 'I' for Inactive)
REMARK    1  A    between atoms: C3_5  and  C4_6 
REMARK    2  A    between atoms: C4_6  and  C5_7 
REMARK    3  A    between atoms: C4_6  and  C10_20 
REMARK    4  A    between atoms: N2_9  and  C7_10 
REMARK    5  A    between atoms: C7_10  and  C8_11 
REMARK    6  A    between atoms: C8_11  and  C9_12 
REMARK    7  A    between atoms: C9_12  and  N3_13 
REMARK    8  A    between atoms: C11_23  and  C12_24 
REMARK    9  A    between atoms: C12_24  and  N7_25 
REMARK   10  A    between atoms: C12_24  and  C13_29 
REMARK   11  A    between atoms: C16_39  and  N10_40 
ROOT
HETATM    1  C4  UNL     1     -15.258  64.582 106.948  1.00  0.00     0.151 C 
ENDROOT
BRANCH   1   2
HETATM    2  C3  UNL     1     -15.036  63.134 106.757  1.00  0.00     0.096 A 
HETATM    3  C2  UNL     1     -13.848  62.540 107.016  1.00  0.00     0.271 A 
HETATM    4  N1  UNL     1     -13.565  61.208 106.861  1.00  0.00    -0.311 N 
HETATM    5  O1  UNL     1     -12.902  63.285 107.447  1.00  0.00    -0.266 OA
HETATM    6  C1  UNL     1     -12.265  60.681 107.168  1.00  0.00     0.160 C 
HETATM    7  C18 UNL     1     -14.593  60.468 106.408  1.00  0.00     0.126 A 
HETATM    8  C15 UNL     1     -15.846  61.020 106.120  1.00  0.00     0.152 A 
HETATM    9  C17 UNL     1     -14.428  59.123 106.214  1.00  0.00     0.145 A 
HETATM   10  N8  UNL     1     -16.044  62.332 106.297  1.00  0.00    -0.338 N 
HETATM   11  N9  UNL     1     -16.832  60.232 105.670  1.00  0.00    -0.174 N 
ATOM     12  H8  UNL     1     -16.956  62.737 106.087  1.00  0.00     0.167 HD
HETATM   13  C16 UNL     1     -16.657  58.907 105.484  1.00  0.00     0.679 A 
ATOM     14  H9  UNL     1     -17.741  60.645 105.462  1.00  0.00     0.186 HD
HETATM   15  N11 UNL     1     -15.456  58.380 105.761  1.00  0.00    -0.175 N 
ATOM     16  H11 UNL     1     -15.315  57.379 105.623  1.00  0.00     0.186 HD
HETATM   17  N12 UNL     1     -13.338  58.560 106.449  1.00  0.00    -0.383 N 
ATOM     18 2H12 UNL     1     -13.215  57.557 106.305  1.00  0.00     0.157 HD
ATOM     19 1H12 UNL     1     -12.559  59.123 106.793  1.00  0.00     0.157 HD
BRANCH  13  20
HETATM   20  N10 UNL     1     -17.644  58.215 105.052  1.00  0.00    -0.234 N 
ATOM     21 2H10 UNL     1     -17.532  57.314 104.587  1.00  0.00     0.174 HD
ATOM     22 1H10 UNL     1     -18.588  58.580 105.176  1.00  0.00     0.174 HD
ENDBRANCH  13  20
ENDBRANCH   1   2
BRANCH   1  23
HETATM   23  C5  UNL     1     -15.681  64.942 108.310  1.00  0.00     0.057 A 
HETATM   24  C6  UNL     1     -15.961  66.225 108.755  1.00  0.00     0.135 A 
HETATM   25  N2  UNL     1     -16.318  66.188 110.051  1.00  0.00    -0.285 N 
HETATM   26  N4  UNL     1     -16.267  64.919 110.415  1.00  0.00    -0.021 NA
HETATM   27  N5  UNL     1     -15.890  64.163 109.393  1.00  0.00    -0.286 N 
ATOM     28  H5  UNL     1     -15.776  63.149 109.421  1.00  0.00     0.184 HD
BRANCH  25  29
HETATM   29  C7  UNL     1     -16.684  67.322 110.872  1.00  0.00     0.147 C 
BRANCH  29  30
HETATM   30  C8  UNL     1     -17.868  68.059 110.236  1.00  0.00     0.048 C 
BRANCH  30  31
HETATM   31  C9  UNL     1     -18.750  68.622 111.327  1.00  0.00     0.231 C 
BRANCH  31  32
HETATM   32  N3  UNL     1     -20.121  68.250 110.996  1.00  0.00    -0.079 N 
ATOM     33  H33 UNL     1     -20.655  67.926 111.802  1.00  0.00     0.274 HD
ATOM     34  H32 UNL     1     -20.709  69.050 110.765  1.00  0.00     0.274 HD
ATOM     35  H31 UNL     1     -20.068  67.561 110.246  1.00  0.00     0.274 HD
ENDBRANCH  31  32
ENDBRANCH  30  31
ENDBRANCH  29  30
ENDBRANCH  25  29
ENDBRANCH   1  23
BRANCH   1  36
HETATM   36  C10 UNL     1     -14.114  65.433 106.485  1.00  0.00     0.067 A 
HETATM   37  N6  UNL     1     -13.268  66.093 107.244  1.00  0.00    -0.354 N 
HETATM   38  C11 UNL     1     -12.312  66.789 106.714  1.00  0.00     0.057 A 
ATOM     39  H6  UNL     1     -13.365  66.059 108.258  1.00  0.00     0.166 HD
HETATM   40  C14 UNL     1     -12.219  66.809 105.352  1.00  0.00     0.079 A 
HETATM   41  S1  UNL     1     -13.553  65.795 104.921  1.00  0.00    -0.085 SA
BRANCH  38  42
HETATM   42  C12 UNL     1     -11.327  67.550 107.590  1.00  0.00     0.333 C 
BRANCH  42  43
HETATM   43  N7  UNL     1     -10.577  68.479 106.757  1.00  0.00    -0.060 N 
ATOM     44  H73 UNL     1      -9.923  68.003 106.136  1.00  0.00     0.275 HD
ATOM     45  H72 UNL     1     -11.158  68.919 106.043  1.00  0.00     0.275 HD
ATOM     46  H71 UNL     1     -10.116  69.162 107.358  1.00  0.00     0.275 HD
ENDBRANCH  42  43
BRANCH  42  47
HETATM   47  C13 UNL     1     -12.007  68.303 108.648  1.00  0.00     0.210 C 
HETATM   48  O2  UNL     1     -13.216  68.631 108.577  1.00  0.00    -0.646 OA
HETATM   49  O3  UNL     1     -11.324  68.689 109.792  1.00  0.00    -0.646 OA
ENDBRANCH  42  47
ENDBRANCH  38  42
ENDBRANCH   1  36
TORSDOF 11
ENDMDL
