MODEL 1
REMARK VINA RESULT: -10.115361756      0.000      0.000
REMARK  10 active torsions:
REMARK  status: ('A' for Active; 'I' for Inactive)
REMARK    1  A    between atoms: C4_7  and  S1_8 
REMARK    2  A    between atoms: S1_8  and  C5_9 
REMARK    3  A    between atoms: C5_9  and  C6_10 
REMARK    4  A    between atoms: N3_11  and  C7_13 
REMARK    5  A    between atoms: C8_16  and  N5_17 
REMARK       I    between atoms: N8_28  and  C13_29 
REMARK    6  A    between atoms: C14_32  and  C15_33 
REMARK    7  A    between atoms: C15_33  and  C16_38 
REMARK    8  A    between atoms: N10_34  and  O3_36 
REMARK    9  A    between atoms: C16_38  and  N11_39 
REMARK   10  A    between atoms: C16_38  and  C17_43 
ROOT
HETATM    1  C5  UNL     1     -14.638  64.144 105.986  1.00  0.00     0.125 C 
ENDROOT
BRANCH   1   2
HETATM    2  S1  UNL     1     -13.533  63.325 104.837  1.00  0.00    -0.105 SA
BRANCH   2   3
HETATM    3  C4  UNL     1     -12.807  61.835 105.419  1.00  0.00     0.101 A 
HETATM    4  N2  UNL     1     -11.564  61.586 105.851  1.00  0.00    -0.289 N 
HETATM    5  N1  UNL     1     -11.481  60.325 106.185  1.00  0.00    -0.302 N 
HETATM    6  C3  UNL     1     -10.515  62.600 105.918  1.00  0.00     0.178 C 
HETATM    7  C2  UNL     1     -12.687  59.682 105.980  1.00  0.00     0.037 A 
ATOM      8  H1  UNL     1     -10.640  59.876 106.547  1.00  0.00     0.187 HD
HETATM    9  C1  UNL     1     -12.853  58.214 106.222  1.00  0.00     0.070 C 
HETATM   10  C14 UNL     1     -13.531  60.625 105.500  1.00  0.00     0.050 A 
BRANCH  10  11
HETATM   11  C15 UNL     1     -14.949  60.478 105.182  1.00  0.00     0.087 C 
HETATM   12  N10 UNL     1     -15.222  60.460 103.891  1.00  0.00    -0.270 N 
ATOM     13  H10 UNL     1     -14.454  60.546 103.226  1.00  0.00     0.194 HD
BRANCH  12  14
HETATM   14  O3  UNL     1     -16.467  60.334 103.425  1.00  0.00    -0.290 OA
ATOM     15  H3  UNL     1     -17.093  61.048 103.444  1.00  0.00     0.244 HD
ENDBRANCH  12  14
BRANCH  11  16
HETATM   16  C16 UNL     1     -16.098  60.482 106.058  1.00  0.00     0.335 C 
BRANCH  16  17
HETATM   17  N11 UNL     1     -15.905  61.371 107.195  1.00  0.00    -0.060 N 
ATOM     18 3H11 UNL     1     -16.452  62.226 107.095  1.00  0.00     0.275 HD
ATOM     19 2H11 UNL     1     -16.346  60.999 108.037  1.00  0.00     0.275 HD
ATOM     20 1H11 UNL     1     -14.919  61.576 107.352  1.00  0.00     0.275 HD
ENDBRANCH  16  17
BRANCH  16  21
HETATM   21  C17 UNL     1     -16.624  59.162 106.461  1.00  0.00     0.210 C 
HETATM   22  O4  UNL     1     -16.765  58.276 105.583  1.00  0.00    -0.646 OA
HETATM   23  O5  UNL     1     -16.960  58.890 107.756  1.00  0.00    -0.646 OA
ENDBRANCH  16  21
ENDBRANCH  11  16
ENDBRANCH  10  11
ENDBRANCH   2   3
ENDBRANCH   1   2
BRANCH   1  24
HETATM   24  C6  UNL     1     -14.925  65.528 105.384  1.00  0.00     0.073 C 
HETATM   25  N3  UNL     1     -15.087  66.577 106.242  1.00  0.00    -0.353 N 
ATOM     26  H3  UNL     1     -15.273  67.396 105.665  1.00  0.00     0.166 HD
BRANCH  25  27
HETATM   27  C7  UNL     1     -15.105  66.961 107.408  1.00  0.00     0.151 A 
HETATM   28  N4  UNL     1     -16.122  66.902 108.288  1.00  0.00    -0.174 N 
HETATM   29  C8  UNL     1     -15.993  67.367 109.544  1.00  0.00     0.679 A 
ATOM     30  H4  UNL     1     -17.011  66.495 107.996  1.00  0.00     0.186 HD
HETATM   31  N6  UNL     1     -14.876  67.915 110.021  1.00  0.00    -0.174 N 
HETATM   32  C9  UNL     1     -13.815  68.006 109.188  1.00  0.00     0.166 A 
ATOM     33  H6  UNL     1     -14.824  68.254 110.981  1.00  0.00     0.186 HD
HETATM   34  C10 UNL     1     -13.914  67.542 107.907  1.00  0.00     0.129 A 
HETATM   35  N8  UNL     1     -12.583  68.507 109.405  1.00  0.00    -0.199 N 
HETATM   36  N7  UNL     1     -12.721  67.762 107.324  1.00  0.00    -0.297 N 
HETATM   37  C11 UNL     1     -12.395  67.414 105.944  1.00  0.00     0.161 C 
HETATM   38  C12 UNL     1     -11.924  68.343 108.232  1.00  0.00     0.338 A 
HETATM   39  O1  UNL     1     -10.722  68.672 107.964  1.00  0.00    -0.246 OA
HETATM   40  C13 UNL     1     -11.998  69.090 110.540  1.00  0.00     0.344 C 
HETATM   41  N9  UNL     1     -12.599  69.300 111.791  1.00  0.00    -0.039 NA
HETATM   42  O2  UNL     1     -10.780  69.495 110.485  1.00  0.00    -0.250 OA
BRANCH  29  43
HETATM   43  N5  UNL     1     -17.002  67.284 110.345  1.00  0.00    -0.234 N 
ATOM     44  H52 UNL     1     -17.054  67.964 111.103  1.00  0.00     0.174 HD
ATOM     45  H51 UNL     1     -17.694  66.550 110.190  1.00  0.00     0.174 HD
ENDBRANCH  29  43
ENDBRANCH  25  27
ENDBRANCH   1  24
TORSDOF 10
ENDMDL
MODEL 2
REMARK VINA RESULT: -9.953028135      1.065      1.786
REMARK  10 active torsions:
REMARK  status: ('A' for Active; 'I' for Inactive)
REMARK    1  A    between atoms: C4_7  and  S1_8 
REMARK    2  A    between atoms: S1_8  and  C5_9 
REMARK    3  A    between atoms: C5_9  and  C6_10 
REMARK    4  A    between atoms: N3_11  and  C7_13 
REMARK    5  A    between atoms: C8_16  and  N5_17 
REMARK       I    between atoms: N8_28  and  C13_29 
REMARK    6  A    between atoms: C14_32  and  C15_33 
REMARK    7  A    between atoms: C15_33  and  C16_38 
REMARK    8  A    between atoms: N10_34  and  O3_36 
REMARK    9  A    between atoms: C16_38  and  N11_39 
REMARK   10  A    between atoms: C16_38  and  C17_43 
ROOT
HETATM    1  C5  UNL     1     -15.305  63.985 106.738  1.00  0.00     0.125 C 
ENDROOT
BRANCH   1   2
HETATM    2  S1  UNL     1     -14.516  62.954 105.501  1.00  0.00    -0.105 SA
BRANCH   2   3
HETATM    3  C4  UNL     1     -13.508  61.660 106.129  1.00  0.00     0.101 A 
HETATM    4  N2  UNL     1     -12.190  61.623 106.368  1.00  0.00    -0.289 N 
HETATM    5  N1  UNL     1     -11.882  60.443 106.835  1.00  0.00    -0.302 N 
HETATM    6  C3  UNL     1     -11.296  62.752 106.126  1.00  0.00     0.178 C 
HETATM    7  C2  UNL     1     -13.003  59.640 106.923  1.00  0.00     0.037 A 
ATOM      8  H1  UNL     1     -10.940  60.152 107.100  1.00  0.00     0.187 HD
HETATM    9  C1  UNL     1     -12.923  58.214 107.370  1.00  0.00     0.070 C 
HETATM   10  C14 UNL     1     -14.034  60.399 106.483  1.00  0.00     0.050 A 
BRANCH  10  11
HETATM   11  C15 UNL     1     -15.450  60.042 106.436  1.00  0.00     0.087 C 
HETATM   12  N10 UNL     1     -16.043  59.994 107.613  1.00  0.00    -0.270 N 
ATOM     13  H10 UNL     1     -15.495  60.203 108.447  1.00  0.00     0.194 HD
BRANCH  12  14
HETATM   14  O3  UNL     1     -17.334  59.683 107.753  1.00  0.00    -0.290 OA
ATOM     15  H3  UNL     1     -17.622  58.833 108.066  1.00  0.00     0.244 HD
ENDBRANCH  12  14
BRANCH  11  16
HETATM   16  C16 UNL     1     -16.257  59.608 105.318  1.00  0.00     0.335 C 
BRANCH  16  17
HETATM   17  N11 UNL     1     -16.655  58.214 105.448  1.00  0.00    -0.060 N 
ATOM     18 3H11 UNL     1     -17.458  58.000 104.857  1.00  0.00     0.275 HD
ATOM     19 2H11 UNL     1     -15.972  57.590 105.020  1.00  0.00     0.275 HD
ATOM     20 1H11 UNL     1     -16.832  57.961 106.421  1.00  0.00     0.275 HD
ENDBRANCH  16  17
BRANCH  16  21
HETATM   21  C17 UNL     1     -15.739  59.920 103.971  1.00  0.00     0.210 C 
HETATM   22  O4  UNL     1     -14.672  59.375 103.595  1.00  0.00    -0.646 OA
HETATM   23  O5  UNL     1     -16.388  60.783 103.135  1.00  0.00    -0.646 OA
ENDBRANCH  16  21
ENDBRANCH  11  16
ENDBRANCH  10  11
ENDBRANCH   2   3
ENDBRANCH   1   2
BRANCH   1  24
HETATM   24  C6  UNL     1     -15.530  65.350 106.070  1.00  0.00     0.073 C 
HETATM   25  N3  UNL     1     -15.547  66.457 106.869  1.00  0.00    -0.353 N 
ATOM     26  H3  UNL     1     -15.713  67.254 106.255  1.00  0.00     0.166 HD
BRANCH  25  27
HETATM   27  C7  UNL     1     -15.449  66.908 108.006  1.00  0.00     0.151 A 
HETATM   28  N4  UNL     1     -16.382  66.927 108.977  1.00  0.00    -0.174 N 
HETATM   29  C8  UNL     1     -16.127  67.461 110.185  1.00  0.00     0.679 A 
ATOM     30  H4  UNL     1     -17.302  66.528 108.792  1.00  0.00     0.186 HD
HETATM   31  N6  UNL     1     -14.960  68.006 110.525  1.00  0.00    -0.174 N 
HETATM   32  C9  UNL     1     -13.979  68.020 109.595  1.00  0.00     0.166 A 
ATOM     33  H6  UNL     1     -14.812  68.399 111.454  1.00  0.00     0.186 HD
HETATM   34  C10 UNL     1     -14.206  67.485 108.359  1.00  0.00     0.129 A 
HETATM   35  N8  UNL     1     -12.721  68.500 109.668  1.00  0.00    -0.199 N 
HETATM   36  N7  UNL     1     -13.068  67.640 107.657  1.00  0.00    -0.297 N 
HETATM   37  C11 UNL     1     -12.877  67.204 106.277  1.00  0.00     0.161 C 
HETATM   38  C12 UNL     1     -12.178  68.251 108.452  1.00  0.00     0.338 A 
HETATM   39  O1  UNL     1     -10.999  68.532 108.056  1.00  0.00    -0.246 OA
HETATM   40  C13 UNL     1     -12.022  69.133 110.708  1.00  0.00     0.344 C 
HETATM   41  N9  UNL     1     -12.500  69.430 111.994  1.00  0.00    -0.039 NA
HETATM   42  O2  UNL     1     -10.806  69.501 110.518  1.00  0.00    -0.250 OA
BRANCH  29  43
HETATM   43  N5  UNL     1     -17.059  67.451 111.079  1.00  0.00    -0.234 N 
ATOM     44  H52 UNL     1     -17.817  66.779 110.957  1.00  0.00     0.174 HD
ATOM     45  H51 UNL     1     -17.001  68.107 111.858  1.00  0.00     0.174 HD
ENDBRANCH  29  43
ENDBRANCH  25  27
ENDBRANCH   1  24
TORSDOF 10
ENDMDL
MODEL 3
REMARK VINA RESULT: -9.911043671      2.162      3.473
REMARK  10 active torsions:
REMARK  status: ('A' for Active; 'I' for Inactive)
REMARK    1  A    between atoms: C4_7  and  S1_8 
REMARK    2  A    between atoms: S1_8  and  C5_9 
REMARK    3  A    between atoms: C5_9  and  C6_10 
REMARK    4  A    between atoms: N3_11  and  C7_13 
REMARK    5  A    between atoms: C8_16  and  N5_17 
REMARK       I    between atoms: N8_28  and  C13_29 
REMARK    6  A    between atoms: C14_32  and  C15_33 
REMARK    7  A    between atoms: C15_33  and  C16_38 
REMARK    8  A    between atoms: N10_34  and  O3_36 
REMARK    9  A    between atoms: C16_38  and  N11_39 
REMARK   10  A    between atoms: C16_38  and  C17_43 
ROOT
HETATM    1  C5  UNL     1     -15.872  63.689 106.958  1.00  0.00     0.125 C 
ENDROOT
BRANCH   1   2
HETATM    2  S1  UNL     1     -15.699  62.379 105.746  1.00  0.00    -0.105 SA
BRANCH   2   3
HETATM    3  C4  UNL     1     -14.930  60.911 106.326  1.00  0.00     0.101 A 
HETATM    4  N2  UNL     1     -15.443  59.696 106.563  1.00  0.00    -0.289 N 
HETATM    5  N1  UNL     1     -14.488  58.913 106.989  1.00  0.00    -0.302 N 
HETATM    6  C3  UNL     1     -16.851  59.363 106.358  1.00  0.00     0.178 C 
HETATM    7  C2  UNL     1     -13.287  59.592 107.052  1.00  0.00     0.037 A 
ATOM      8  H1  UNL     1     -14.613  57.932 107.240  1.00  0.00     0.187 HD
HETATM    9  C1  UNL     1     -12.038  58.947 107.567  1.00  0.00     0.070 C 
HETATM   10  C14 UNL     1     -13.553  60.852 106.634  1.00  0.00     0.050 A 
BRANCH  10  11
HETATM   11  C15 UNL     1     -12.609  61.952 106.453  1.00  0.00     0.087 C 
HETATM   12  N10 UNL     1     -12.614  62.845 107.424  1.00  0.00    -0.270 N 
ATOM     13  H10 UNL     1     -13.252  62.713 108.208  1.00  0.00     0.194 HD
BRANCH  12  14
HETATM   14  O3  UNL     1     -11.815  63.915 107.417  1.00  0.00    -0.290 OA
ATOM     15  H3  UNL     1     -12.147  64.799 107.520  1.00  0.00     0.244 HD
ENDBRANCH  12  14
BRANCH  11  16
HETATM   16  C16 UNL     1     -11.774  62.275 105.318  1.00  0.00     0.335 C 
BRANCH  16  17
HETATM   17  N11 UNL     1     -10.365  62.324 105.681  1.00  0.00    -0.060 N 
ATOM     18 3H11 UNL     1     -10.204  62.962 106.460  1.00  0.00     0.275 HD
ATOM     19 2H11 UNL     1     -10.065  61.455 106.123  1.00  0.00     0.275 HD
ATOM     20 1H11 UNL     1      -9.777  62.557 104.881  1.00  0.00     0.275 HD
ENDBRANCH  16  17
BRANCH  16  21
HETATM   21  C17 UNL     1     -12.185  63.440 104.508  1.00  0.00     0.210 C 
HETATM   22  O4  UNL     1     -11.575  64.526 104.661  1.00  0.00    -0.646 OA
HETATM   23  O5  UNL     1     -13.208  63.360 103.607  1.00  0.00    -0.646 OA
ENDBRANCH  16  21
ENDBRANCH  11  16
ENDBRANCH  10  11
ENDBRANCH   2   3
ENDBRANCH   1   2
BRANCH   1  24
HETATM   24  C6  UNL     1     -15.658  65.004 106.194  1.00  0.00     0.073 C 
HETATM   25  N3  UNL     1     -15.486  66.145 106.922  1.00  0.00    -0.353 N 
ATOM     26  H3  UNL     1     -15.368  66.902 106.249  1.00  0.00     0.166 HD
BRANCH  25  27
HETATM   27  C7  UNL     1     -15.412  66.655 108.036  1.00  0.00     0.151 A 
HETATM   28  N4  UNL     1     -16.351  66.684 109.002  1.00  0.00    -0.174 N 
HETATM   29  C8  UNL     1     -16.124  67.286 110.183  1.00  0.00     0.679 A 
ATOM     30  H4  UNL     1     -17.253  66.240 108.834  1.00  0.00     0.186 HD
HETATM   31  N6  UNL     1     -14.981  67.893 110.500  1.00  0.00    -0.174 N 
HETATM   32  C9  UNL     1     -13.996  67.901 109.574  1.00  0.00     0.166 A 
ATOM     33  H6  UNL     1     -14.854  68.336 111.410  1.00  0.00     0.186 HD
HETATM   34  C10 UNL     1     -14.195  67.298 108.364  1.00  0.00     0.129 A 
HETATM   35  N8  UNL     1     -12.759  68.434 109.628  1.00  0.00    -0.199 N 
HETATM   36  N7  UNL     1     -13.060  67.464 107.660  1.00  0.00    -0.297 N 
HETATM   37  C11 UNL     1     -12.845  66.969 106.303  1.00  0.00     0.161 C 
HETATM   38  C12 UNL     1     -12.199  68.148 108.427  1.00  0.00     0.338 A 
HETATM   39  O1  UNL     1     -11.031  68.457 108.022  1.00  0.00    -0.246 OA
HETATM   40  C13 UNL     1     -12.091  69.144 110.638  1.00  0.00     0.344 C 
HETATM   41  N9  UNL     1     -12.587  69.484 111.906  1.00  0.00    -0.039 NA
HETATM   42  O2  UNL     1     -10.890  69.551 110.434  1.00  0.00    -0.250 OA
BRANCH  29  43
HETATM   43  N5  UNL     1     -17.059  67.282 111.074  1.00  0.00    -0.234 N 
ATOM     44  H52 UNL     1     -17.743  66.527 111.030  1.00  0.00     0.174 HD
ATOM     45  H51 UNL     1     -17.076  68.025 111.772  1.00  0.00     0.174 HD
ENDBRANCH  29  43
ENDBRANCH  25  27
ENDBRANCH   1  24
TORSDOF 10
ENDMDL
MODEL 4
REMARK VINA RESULT: -9.879401404      3.383      7.450
REMARK  10 active torsions:
REMARK  status: ('A' for Active; 'I' for Inactive)
REMARK    1  A    between atoms: C4_7  and  S1_8 
REMARK    2  A    between atoms: S1_8  and  C5_9 
REMARK    3  A    between atoms: C5_9  and  C6_10 
REMARK    4  A    between atoms: N3_11  and  C7_13 
REMARK    5  A    between atoms: C8_16  and  N5_17 
REMARK       I    between atoms: N8_28  and  C13_29 
REMARK    6  A    between atoms: C14_32  and  C15_33 
REMARK    7  A    between atoms: C15_33  and  C16_38 
REMARK    8  A    between atoms: N10_34  and  O3_36 
REMARK    9  A    between atoms: C16_38  and  N11_39 
REMARK   10  A    between atoms: C16_38  and  C17_43 
ROOT
HETATM    1  C5  UNL     1     -15.415  63.620 107.756  1.00  0.00     0.125 C 
ENDROOT
BRANCH   1   2
HETATM    2  S1  UNL     1     -15.817  65.333 108.101  1.00  0.00    -0.105 SA
BRANCH   2   3
HETATM    3  C4  UNL     1     -14.663  66.514 107.502  1.00  0.00     0.101 A 
HETATM    4  N2  UNL     1     -14.725  67.329 106.440  1.00  0.00    -0.289 N 
HETATM    5  N1  UNL     1     -13.627  68.035 106.389  1.00  0.00    -0.302 N 
HETATM    6  C3  UNL     1     -15.864  67.376 105.527  1.00  0.00     0.178 C 
HETATM    7  C2  UNL     1     -12.781  67.706 107.430  1.00  0.00     0.037 A 
ATOM      8  H1  UNL     1     -13.421  68.734 105.675  1.00  0.00     0.187 HD
HETATM    9  C1  UNL     1     -11.425  68.322 107.574  1.00  0.00     0.070 C 
HETATM   10  C14 UNL     1     -13.425  66.750 108.140  1.00  0.00     0.050 A 
BRANCH  10  11
HETATM   11  C15 UNL     1     -12.989  66.110 109.379  1.00  0.00     0.087 C 
HETATM   12  N10 UNL     1     -12.476  64.905 109.222  1.00  0.00    -0.270 N 
ATOM     13  H10 UNL     1     -12.419  64.514 108.281  1.00  0.00     0.194 HD
BRANCH  12  14
HETATM   14  O3  UNL     1     -12.030  64.177 110.249  1.00  0.00    -0.290 OA
ATOM     15  H3  UNL     1     -11.214  63.692 110.213  1.00  0.00     0.244 HD
ENDBRANCH  12  14
BRANCH  11  16
HETATM   16  C16 UNL     1     -13.156  66.539 110.749  1.00  0.00     0.335 C 
BRANCH  16  17
HETATM   17  N11 UNL     1     -14.356  65.974 111.349  1.00  0.00    -0.060 N 
ATOM     18 3H11 UNL     1     -14.281  64.962 111.449  1.00  0.00     0.275 HD
ATOM     19 2H11 UNL     1     -14.432  66.225 112.335  1.00  0.00     0.275 HD
ATOM     20 1H11 UNL     1     -15.195  66.236 110.833  1.00  0.00     0.275 HD
ENDBRANCH  16  17
BRANCH  16  21
HETATM   21  C17 UNL     1     -13.028  67.988 111.005  1.00  0.00     0.210 C 
HETATM   22  O4  UNL     1     -14.068  68.691 111.021  1.00  0.00    -0.646 OA
HETATM   23  O5  UNL     1     -11.813  68.573 111.221  1.00  0.00    -0.646 OA
ENDBRANCH  16  21
ENDBRANCH  11  16
ENDBRANCH  10  11
ENDBRANCH   2   3
ENDBRANCH   1   2
BRANCH   1  24
HETATM   24  C6  UNL     1     -15.432  63.480 106.227  1.00  0.00     0.073 C 
HETATM   25  N3  UNL     1     -14.293  63.050 105.611  1.00  0.00    -0.353 N 
ATOM     26  H3  UNL     1     -14.495  63.028 104.612  1.00  0.00     0.166 HD
BRANCH  25  27
HETATM   27  C7  UNL     1     -13.130  62.679 105.740  1.00  0.00     0.151 A 
HETATM   28  N4  UNL     1     -12.675  61.565 106.344  1.00  0.00    -0.174 N 
HETATM   29  C8  UNL     1     -11.360  61.287 106.407  1.00  0.00     0.679 A 
ATOM     30  H4  UNL     1     -13.341  60.917 106.763  1.00  0.00     0.186 HD
HETATM   31  N6  UNL     1     -10.411  62.068 105.892  1.00  0.00    -0.174 N 
HETATM   32  C9  UNL     1     -10.800  63.204 105.271  1.00  0.00     0.166 A 
ATOM     33  H6  UNL     1      -9.425  61.817 105.963  1.00  0.00     0.186 HD
HETATM   34  C10 UNL     1     -12.129  63.514 105.189  1.00  0.00     0.129 A 
HETATM   35  N8  UNL     1     -10.064  64.160 104.670  1.00  0.00    -0.199 N 
HETATM   36  N7  UNL     1     -12.212  64.683 104.528  1.00  0.00    -0.297 N 
HETATM   37  C11 UNL     1     -13.459  65.376 104.221  1.00  0.00     0.161 C 
HETATM   38  C12 UNL     1     -10.965  65.066 104.217  1.00  0.00     0.338 A 
HETATM   39  O1  UNL     1     -10.728  66.146 103.584  1.00  0.00    -0.246 OA
HETATM   40  C13 UNL     1      -8.679  64.298 104.491  1.00  0.00     0.344 C 
HETATM   41  N9  UNL     1      -7.676  63.416 104.922  1.00  0.00    -0.039 NA
HETATM   42  O2  UNL     1      -8.222  65.326 103.870  1.00  0.00    -0.250 OA
BRANCH  29  43
HETATM   43  N5  UNL     1     -10.980  60.204 106.998  1.00  0.00    -0.234 N 
ATOM     44  H52 UNL     1     -11.579  59.841 107.740  1.00  0.00     0.174 HD
ATOM     45  H51 UNL     1     -10.108  59.763 106.704  1.00  0.00     0.174 HD
ENDBRANCH  29  43
ENDBRANCH  25  27
ENDBRANCH   1  24
TORSDOF 10
ENDMDL
MODEL 5
REMARK VINA RESULT: -9.845774845      1.687      3.094
REMARK  10 active torsions:
REMARK  status: ('A' for Active; 'I' for Inactive)
REMARK    1  A    between atoms: C4_7  and  S1_8 
REMARK    2  A    between atoms: S1_8  and  C5_9 
REMARK    3  A    between atoms: C5_9  and  C6_10 
REMARK    4  A    between atoms: N3_11  and  C7_13 
REMARK    5  A    between atoms: C8_16  and  N5_17 
REMARK       I    between atoms: N8_28  and  C13_29 
REMARK    6  A    between atoms: C14_32  and  C15_33 
REMARK    7  A    between atoms: C15_33  and  C16_38 
REMARK    8  A    between atoms: N10_34  and  O3_36 
REMARK    9  A    between atoms: C16_38  and  N11_39 
REMARK   10  A    between atoms: C16_38  and  C17_43 
ROOT
HETATM    1  C5  UNL     1     -15.033  64.463 105.192  1.00  0.00     0.125 C 
ENDROOT
BRANCH   1   2
HETATM    2  S1  UNL     1     -15.357  63.313 106.528  1.00  0.00    -0.105 SA
BRANCH   2   3
HETATM    3  C4  UNL     1     -14.119  62.096 106.793  1.00  0.00     0.101 A 
HETATM    4  N2  UNL     1     -12.818  62.229 107.088  1.00  0.00    -0.289 N 
HETATM    5  N1  UNL     1     -12.289  61.040 107.193  1.00  0.00    -0.302 N 
HETATM    6  C3  UNL     1     -12.159  63.522 107.254  1.00  0.00     0.178 C 
HETATM    7  C2  UNL     1     -13.233  60.058 106.966  1.00  0.00     0.037 A 
ATOM      8  H1  UNL     1     -11.309  60.860 107.413  1.00  0.00     0.187 HD
HETATM    9  C1  UNL     1     -12.881  58.604 106.963  1.00  0.00     0.070 C 
HETATM   10  C14 UNL     1     -14.392  60.713 106.715  1.00  0.00     0.050 A 
BRANCH  10  11
HETATM   11  C15 UNL     1     -15.712  60.135 106.477  1.00  0.00     0.087 C 
HETATM   12  N10 UNL     1     -16.424  59.926 107.568  1.00  0.00    -0.270 N 
ATOM     13  H10 UNL     1     -16.021  60.174 108.472  1.00  0.00     0.194 HD
BRANCH  12  14
HETATM   14  O3  UNL     1     -17.652  59.402 107.533  1.00  0.00    -0.290 OA
ATOM     15  H3  UNL     1     -18.363  59.736 108.067  1.00  0.00     0.244 HD
ENDBRANCH  12  14
BRANCH  11  16
HETATM   16  C16 UNL     1     -16.297  59.640 105.252  1.00  0.00     0.335 C 
BRANCH  16  17
HETATM   17  N11 UNL     1     -16.587  58.216 105.329  1.00  0.00    -0.060 N 
ATOM     18 3H11 UNL     1     -16.478  57.865 106.281  1.00  0.00     0.275 HD
ATOM     19 2H11 UNL     1     -17.583  58.032 105.206  1.00  0.00     0.275 HD
ATOM     20 1H11 UNL     1     -16.026  57.679 104.668  1.00  0.00     0.275 HD
ENDBRANCH  16  17
BRANCH  16  21
HETATM   21  C17 UNL     1     -15.607  60.005 103.998  1.00  0.00     0.210 C 
HETATM   22  O4  UNL     1     -14.419  59.635 103.834  1.00  0.00    -0.646 OA
HETATM   23  O5  UNL     1     -16.229  60.733 103.024  1.00  0.00    -0.646 OA
ENDBRANCH  16  21
ENDBRANCH  11  16
ENDBRANCH  10  11
ENDBRANCH   2   3
ENDBRANCH   1   2
BRANCH   1  24
HETATM   24  C6  UNL     1     -15.767  65.761 105.563  1.00  0.00     0.073 C 
HETATM   25  N3  UNL     1     -15.046  66.755 106.157  1.00  0.00    -0.353 N 
ATOM     26  H3  UNL     1     -15.698  67.520 106.330  1.00  0.00     0.166 HD
BRANCH  25  27
HETATM   27  C7  UNL     1     -13.953  67.128 106.573  1.00  0.00     0.151 A 
HETATM   28  N4  UNL     1     -12.770  67.116 105.930  1.00  0.00    -0.174 N 
HETATM   29  C8  UNL     1     -11.646  67.561 106.520  1.00  0.00     0.679 A 
ATOM     30  H4  UNL     1     -12.725  66.762 104.975  1.00  0.00     0.186 HD
HETATM   31  N6  UNL     1     -11.599  68.042 107.762  1.00  0.00    -0.174 N 
HETATM   32  C9  UNL     1     -12.753  68.081 108.464  1.00  0.00     0.166 A 
ATOM     33  H6  UNL     1     -10.722  68.368 108.168  1.00  0.00     0.186 HD
HETATM   34  C10 UNL     1     -13.913  67.637 107.893  1.00  0.00     0.129 A 
HETATM   35  N8  UNL     1     -12.991  68.511 109.720  1.00  0.00    -0.199 N 
HETATM   36  N7  UNL     1     -14.881  67.795 108.814  1.00  0.00    -0.297 N 
HETATM   37  C11 UNL     1     -16.284  67.443 108.613  1.00  0.00     0.161 C 
HETATM   38  C12 UNL     1     -14.319  68.322 109.912  1.00  0.00     0.338 A 
HETATM   39  O1  UNL     1     -14.997  68.585 110.958  1.00  0.00    -0.246 OA
HETATM   40  C13 UNL     1     -12.142  69.049 110.699  1.00  0.00     0.344 C 
HETATM   41  N9  UNL     1     -10.761  69.280 110.591  1.00  0.00    -0.039 NA
HETATM   42  O2  UNL     1     -12.627  69.386 111.839  1.00  0.00    -0.250 OA
BRANCH  29  43
HETATM   43  N5  UNL     1     -10.539  67.527 105.856  1.00  0.00    -0.234 N 
ATOM     44  H52 UNL     1     -10.514  68.019 104.962  1.00  0.00     0.174 HD
ATOM     45  H51 UNL     1      -9.747  67.016 106.245  1.00  0.00     0.174 HD
ENDBRANCH  29  43
ENDBRANCH  25  27
ENDBRANCH   1  24
TORSDOF 10
ENDMDL
