MODEL 1
REMARK VINA RESULT: -10.339556515      0.000      0.000
REMARK  9 active torsions:
REMARK  status: ('A' for Active; 'I' for Inactive)
REMARK       I    between atoms: C1_4  and  N3_6 
REMARK    1  A    between atoms: C3_11  and  S1_12 
REMARK    2  A    between atoms: S1_12  and  C4_13 
REMARK    3  A    between atoms: C4_13  and  C5_14 
REMARK    4  A    between atoms: C7_18  and  C8_19 
REMARK       I    between atoms: C8_19  and  N6_21 
REMARK    5  A    between atoms: N6_21  and  N7_23 
REMARK    6  A    between atoms: C9_28  and  N9_29 
REMARK    7  A    between atoms: C11_33  and  C12_34 
REMARK    8  A    between atoms: C12_34  and  N10_35 
REMARK    9  A    between atoms: C14_39  and  N12_40 
ROOT
HETATM    1  N1  UNL     1     -16.290  67.367 104.450  1.00  0.00    -0.373 N 
ATOM      2  H11 UNL     1     -17.022  66.656 104.435  1.00  0.00     0.158 HD
ATOM      3  H12 UNL     1     -16.109  67.936 103.624  1.00  0.00     0.158 HD
HETATM    4  C1  UNL     1     -15.593  67.552 105.503  1.00  0.00     0.187 C 
HETATM    5  N2  UNL     1     -14.584  68.533 105.524  1.00  0.00    -0.064 NA
HETATM    6  N3  UNL     1     -15.844  66.766 106.644  1.00  0.00    -0.316 N 
ATOM      7  H3  UNL     1     -16.425  67.112 107.408  1.00  0.00     0.170 HD
HETATM    8  C2  UNL     1     -15.311  65.591 106.689  1.00  0.00     0.116 A 
HETATM    9  N4  UNL     1     -14.537  65.092 105.705  1.00  0.00    -0.334 N 
ATOM     10  H4  UNL     1     -14.349  65.652 104.873  1.00  0.00     0.168 HD
HETATM   11  C3  UNL     1     -14.013  63.859 105.815  1.00  0.00     0.105 A 
HETATM   12  C9  UNL     1     -14.234  63.046 106.927  1.00  0.00     0.137 A 
HETATM   13  C10 UNL     1     -15.026  63.541 107.949  1.00  0.00     0.051 A 
HETATM   14  C11 UNL     1     -15.545  64.806 107.799  1.00  0.00     0.008 A 
ENDROOT
BRANCH  11  15
HETATM   15  S1  UNL     1     -12.989  63.203 104.512  1.00  0.00    -0.104 SA
BRANCH  15  16
HETATM   16  C4  UNL     1     -11.862  64.504 103.902  1.00  0.00     0.139 C 
BRANCH  16  17
HETATM   17  C5  UNL     1     -10.593  64.347 104.678  1.00  0.00     0.036 A 
HETATM   18  C6  UNL     1     -10.424  64.218 106.025  1.00  0.00     0.115 A 
HETATM   19  N5  UNL     1      -9.098  64.104 106.267  1.00  0.00    -0.346 N 
HETATM   20  C7  UNL     1      -8.429  64.158 105.113  1.00  0.00     0.176 A 
ATOM     21  H5  UNL     1      -8.675  63.993 107.189  1.00  0.00     0.167 HD
HETATM   22  N8  UNL     1      -9.365  64.309 104.137  1.00  0.00    -0.339 N 
ATOM     23  H8  UNL     1      -9.163  64.382 103.140  1.00  0.00     0.167 HD
BRANCH  20  24
HETATM   24  C8  UNL     1      -6.989  64.077 104.882  1.00  0.00     0.303 C 
HETATM   25  O1  UNL     1      -6.562  63.085 104.242  1.00  0.00    -0.263 OA
HETATM   26  N6  UNL     1      -6.121  65.087 105.370  1.00  0.00    -0.270 N 
ATOM     27  H6  UNL     1      -6.513  65.874 105.887  1.00  0.00     0.189 HD
BRANCH  26  28
HETATM   28  N7  UNL     1      -4.753  65.025 105.161  1.00  0.00    -0.342 N 
ATOM     29  H72 UNL     1      -4.279  64.135 105.319  1.00  0.00     0.176 HD
ATOM     30  H71 UNL     1      -4.226  65.843 104.856  1.00  0.00     0.176 HD
ENDBRANCH  26  28
ENDBRANCH  20  24
ENDBRANCH  16  17
ENDBRANCH  15  16
ENDBRANCH  11  15
BRANCH  12  31
HETATM   31  N9  UNL     1     -13.648  61.752 106.980  1.00  0.00    -0.113 N 
HETATM   32  O2  UNL     1     -12.518  61.514 107.438  1.00  0.00    -0.532 OA
HETATM   33  O3  UNL     1     -14.368  60.686 106.495  1.00  0.00    -0.532 OA
ENDBRANCH  12  31
BRANCH  14  34
HETATM   34  C12 UNL     1     -16.398  65.354 108.887  1.00  0.00     0.192 C 
BRANCH  34  35
HETATM   35  N10 UNL     1     -15.752  66.482 109.532  1.00  0.00    -0.281 N 
HETATM   36  C13 UNL     1     -16.366  67.568 110.081  1.00  0.00     0.203 A 
HETATM   37  N11 UNL     1     -15.437  68.400 110.583  1.00  0.00    -0.317 N 
HETATM   38  C14 UNL     1     -14.237  67.847 110.354  1.00  0.00     0.265 A 
ATOM     39  H11 UNL     1     -15.612  69.289 111.051  1.00  0.00     0.169 HD
HETATM   40  N13 UNL     1     -14.473  66.688 109.718  1.00  0.00    -0.263 N 
ATOM     41  H13 UNL     1     -13.741  66.045 109.415  1.00  0.00     0.190 HD
BRANCH  38  42
HETATM   42  N12 UNL     1     -12.949  68.350 110.701  1.00  0.00    -0.078 N 
HETATM   43  O4  UNL     1     -11.921  67.949 110.127  1.00  0.00    -0.529 OA
HETATM   44  O5  UNL     1     -12.815  69.297 111.687  1.00  0.00    -0.529 OA
ENDBRANCH  38  42
ENDBRANCH  34  35
ENDBRANCH  14  34
TORSDOF 9
ENDMDL
MODEL 2
REMARK VINA RESULT: -10.284343419      3.183      7.256
REMARK  9 active torsions:
REMARK  status: ('A' for Active; 'I' for Inactive)
REMARK       I    between atoms: C1_4  and  N3_6 
REMARK    1  A    between atoms: C3_11  and  S1_12 
REMARK    2  A    between atoms: S1_12  and  C4_13 
REMARK    3  A    between atoms: C4_13  and  C5_14 
REMARK    4  A    between atoms: C7_18  and  C8_19 
REMARK       I    between atoms: C8_19  and  N6_21 
REMARK    5  A    between atoms: N6_21  and  N7_23 
REMARK    6  A    between atoms: C9_28  and  N9_29 
REMARK    7  A    between atoms: C11_33  and  C12_34 
REMARK    8  A    between atoms: C12_34  and  N10_35 
REMARK    9  A    between atoms: C14_39  and  N12_40 
ROOT
HETATM    1  N1  UNL     1     -12.113  62.223 105.316  1.00  0.00    -0.373 N 
ATOM      2  H11 UNL     1     -12.995  62.657 105.044  1.00  0.00     0.158 HD
ATOM      3  H12 UNL     1     -12.066  61.220 105.492  1.00  0.00     0.158 HD
HETATM    4  C1  UNL     1     -11.058  62.930 105.440  1.00  0.00     0.187 C 
HETATM    5  N2  UNL     1      -9.841  62.332 105.815  1.00  0.00    -0.064 NA
HETATM    6  N3  UNL     1     -11.123  64.316 105.197  1.00  0.00    -0.316 N 
ATOM      7  H3  UNL     1     -10.842  64.709 104.298  1.00  0.00     0.170 HD
HETATM    8  C2  UNL     1     -11.550  65.070 106.153  1.00  0.00     0.116 A 
HETATM    9  N4  UNL     1     -11.932  64.596 107.355  1.00  0.00    -0.334 N 
ATOM     10  H4  UNL     1     -11.890  63.594 107.543  1.00  0.00     0.168 HD
HETATM   11  C3  UNL     1     -12.368  65.439 108.308  1.00  0.00     0.105 A 
HETATM   12  C9  UNL     1     -12.448  66.817 108.111  1.00  0.00     0.137 A 
HETATM   13  C10 UNL     1     -12.061  67.324 106.883  1.00  0.00     0.051 A 
HETATM   14  C11 UNL     1     -11.621  66.430 105.934  1.00  0.00     0.008 A 
ENDROOT
BRANCH  11  15
HETATM   15  S1  UNL     1     -12.871  64.808 109.897  1.00  0.00    -0.104 SA
BRANCH  15  16
HETATM   16  C4  UNL     1     -14.694  64.726 109.976  1.00  0.00     0.139 C 
BRANCH  16  17
HETATM   17  C5  UNL     1     -15.153  64.402 108.590  1.00  0.00     0.036 A 
HETATM   18  C6  UNL     1     -15.726  65.223 107.665  1.00  0.00     0.115 A 
HETATM   19  N5  UNL     1     -15.972  64.490 106.554  1.00  0.00    -0.346 N 
HETATM   20  C7  UNL     1     -15.570  63.232 106.755  1.00  0.00     0.176 A 
ATOM     21  H5  UNL     1     -16.398  64.843 105.697  1.00  0.00     0.167 HD
HETATM   22  N8  UNL     1     -15.065  63.191 108.018  1.00  0.00    -0.339 N 
ATOM     23  H8  UNL     1     -14.676  62.360 108.465  1.00  0.00     0.167 HD
BRANCH  20  24
HETATM   24  C8  UNL     1     -15.632  62.093 105.844  1.00  0.00     0.303 C 
HETATM   25  O1  UNL     1     -14.919  62.139 104.812  1.00  0.00    -0.263 OA
HETATM   26  N6  UNL     1     -16.472  60.986 106.128  1.00  0.00    -0.270 N 
ATOM     27  H6  UNL     1     -17.035  60.992 106.978  1.00  0.00     0.189 HD
BRANCH  26  28
HETATM   28  N7  UNL     1     -16.543  59.897 105.275  1.00  0.00    -0.342 N 
ATOM     29  H72 UNL     1     -16.502  58.962 105.680  1.00  0.00     0.176 HD
ATOM     30  H71 UNL     1     -16.635  60.018 104.266  1.00  0.00     0.176 HD
ENDBRANCH  26  28
ENDBRANCH  20  24
ENDBRANCH  16  17
ENDBRANCH  15  16
ENDBRANCH  11  15
BRANCH  12  31
HETATM   31  N9  UNL     1     -12.918  67.652 109.162  1.00  0.00    -0.113 N 
HETATM   32  O2  UNL     1     -14.089  68.053 109.265  1.00  0.00    -0.532 OA
HETATM   33  O3  UNL     1     -12.029  68.047 110.133  1.00  0.00    -0.532 OA
ENDBRANCH  12  31
BRANCH  14  34
HETATM   34  C12 UNL     1     -11.201  66.958 104.607  1.00  0.00     0.192 C 
BRANCH  34  35
HETATM   35  N10 UNL     1     -12.355  67.262 103.783  1.00  0.00    -0.281 N 
HETATM   36  C13 UNL     1     -12.349  67.886 102.571  1.00  0.00     0.203 A 
HETATM   37  N11 UNL     1     -13.610  67.990 102.116  1.00  0.00    -0.317 N 
HETATM   38  C14 UNL     1     -14.416  67.436 103.035  1.00  0.00     0.265 A 
ATOM     39  H11 UNL     1     -13.901  68.413 101.235  1.00  0.00     0.169 HD
HETATM   40  N13 UNL     1     -13.617  67.008 104.026  1.00  0.00    -0.263 N 
ATOM     41  H13 UNL     1     -13.953  66.541 104.868  1.00  0.00     0.190 HD
BRANCH  38  42
HETATM   42  N12 UNL     1     -15.834  67.305 103.005  1.00  0.00    -0.078 N 
HETATM   43  O4  UNL     1     -16.506  67.750 102.057  1.00  0.00    -0.529 OA
HETATM   44  O5  UNL     1     -16.497  66.681 104.032  1.00  0.00    -0.529 OA
ENDBRANCH  38  42
ENDBRANCH  34  35
ENDBRANCH  14  34
TORSDOF 9
ENDMDL
MODEL 3
REMARK VINA RESULT: -10.160633072      3.197      8.199
REMARK  9 active torsions:
REMARK  status: ('A' for Active; 'I' for Inactive)
REMARK       I    between atoms: C1_4  and  N3_6 
REMARK    1  A    between atoms: C3_11  and  S1_12 
REMARK    2  A    between atoms: S1_12  and  C4_13 
REMARK    3  A    between atoms: C4_13  and  C5_14 
REMARK    4  A    between atoms: C7_18  and  C8_19 
REMARK       I    between atoms: C8_19  and  N6_21 
REMARK    5  A    between atoms: N6_21  and  N7_23 
REMARK    6  A    between atoms: C9_28  and  N9_29 
REMARK    7  A    between atoms: C11_33  and  C12_34 
REMARK    8  A    between atoms: C12_34  and  N10_35 
REMARK    9  A    between atoms: C14_39  and  N12_40 
ROOT
HETATM    1  N1  UNL     1      -9.032  64.111 106.437  1.00  0.00    -0.373 N 
ATOM      2  H11 UNL     1      -9.423  63.720 107.294  1.00  0.00     0.158 HD
ATOM      3  H12 UNL     1      -8.226  64.734 106.478  1.00  0.00     0.158 HD
HETATM    4  C1  UNL     1      -9.546  63.827 105.304  1.00  0.00     0.187 C 
HETATM    5  N2  UNL     1      -9.006  64.366 104.122  1.00  0.00    -0.064 NA
HETATM    6  N3  UNL     1     -10.659  62.965 105.249  1.00  0.00    -0.316 N 
ATOM      7  H3  UNL     1     -10.550  61.973 105.040  1.00  0.00     0.170 HD
HETATM    8  C2  UNL     1     -11.822  63.478 105.470  1.00  0.00     0.116 A 
HETATM    9  N4  UNL     1     -12.014  64.783 105.750  1.00  0.00    -0.334 N 
ATOM     10  H4  UNL     1     -11.216  65.416 105.794  1.00  0.00     0.168 HD
HETATM   11  C3  UNL     1     -13.255  65.252 105.971  1.00  0.00     0.105 A 
HETATM   12  C9  UNL     1     -14.385  64.436 105.925  1.00  0.00     0.137 A 
HETATM   13  C10 UNL     1     -14.209  63.094 105.640  1.00  0.00     0.051 A 
HETATM   14  C11 UNL     1     -12.925  62.651 105.420  1.00  0.00     0.008 A 
ENDROOT
BRANCH  11  15
HETATM   15  S1  UNL     1     -13.505  66.978 106.339  1.00  0.00    -0.104 SA
BRANCH  15  16
HETATM   16  C4  UNL     1     -12.485  67.453 107.779  1.00  0.00     0.139 C 
BRANCH  16  17
HETATM   17  C5  UNL     1     -13.430  67.572 108.932  1.00  0.00     0.036 A 
HETATM   18  C6  UNL     1     -13.166  67.936 110.220  1.00  0.00     0.115 A 
HETATM   19  N5  UNL     1     -14.330  67.902 110.907  1.00  0.00    -0.346 N 
HETATM   20  C7  UNL     1     -15.318  67.528 110.090  1.00  0.00     0.176 A 
ATOM     21  H5  UNL     1     -14.437  68.128 111.897  1.00  0.00     0.167 HD
HETATM   22  N8  UNL     1     -14.748  67.327 108.871  1.00  0.00    -0.339 N 
ATOM     23  H8  UNL     1     -15.249  67.032 108.033  1.00  0.00     0.167 HD
BRANCH  20  24
HETATM   24  C8  UNL     1     -16.737  67.353 110.386  1.00  0.00     0.303 C 
HETATM   25  O1  UNL     1     -17.150  66.180 110.562  1.00  0.00    -0.263 OA
HETATM   26  N6  UNL     1     -17.601  68.474 110.467  1.00  0.00    -0.270 N 
ATOM     27  H6  UNL     1     -17.222  69.408 110.316  1.00  0.00     0.189 HD
BRANCH  26  28
HETATM   28  N7  UNL     1     -18.950  68.326 110.747  1.00  0.00    -0.342 N 
ATOM     29  H72 UNL     1     -19.626  68.699 110.080  1.00  0.00     0.176 HD
ATOM     30  H71 UNL     1     -19.268  67.857 111.595  1.00  0.00     0.176 HD
ENDBRANCH  26  28
ENDBRANCH  20  24
ENDBRANCH  16  17
ENDBRANCH  15  16
ENDBRANCH  11  15
BRANCH  12  31
HETATM   31  N9  UNL     1     -15.669  64.998 106.169  1.00  0.00    -0.113 N 
HETATM   32  O2  UNL     1     -16.395  65.489 105.289  1.00  0.00    -0.532 OA
HETATM   33  O3  UNL     1     -16.147  65.005 107.457  1.00  0.00    -0.532 OA
ENDBRANCH  12  31
BRANCH  14  34
HETATM   34  C12 UNL     1     -12.717  61.210 105.112  1.00  0.00     0.192 C 
BRANCH  34  35
HETATM   35  N10 UNL     1     -13.542  60.375 105.964  1.00  0.00    -0.281 N 
HETATM   36  C13 UNL     1     -13.186  59.831 107.162  1.00  0.00     0.203 A 
HETATM   37  N11 UNL     1     -14.215  59.119 107.653  1.00  0.00    -0.317 N 
HETATM   38  C14 UNL     1     -15.223  59.209 106.772  1.00  0.00     0.265 A 
ATOM     39  H11 UNL     1     -14.229  58.605 108.534  1.00  0.00     0.169 HD
HETATM   40  N13 UNL     1     -14.774  59.978 105.766  1.00  0.00    -0.263 N 
ATOM     41  H13 UNL     1     -15.327  60.223 104.945  1.00  0.00     0.190 HD
BRANCH  38  42
HETATM   42  N12 UNL     1     -16.521  58.627 106.848  1.00  0.00    -0.078 N 
HETATM   43  O4  UNL     1     -17.101  58.476 107.938  1.00  0.00    -0.529 OA
HETATM   44  O5  UNL     1     -17.166  58.214 105.708  1.00  0.00    -0.529 OA
ENDBRANCH  38  42
ENDBRANCH  34  35
ENDBRANCH  14  34
TORSDOF 9
ENDMDL
MODEL 4
REMARK VINA RESULT: -10.114770073      2.490      7.196
REMARK  9 active torsions:
REMARK  status: ('A' for Active; 'I' for Inactive)
REMARK       I    between atoms: C1_4  and  N3_6 
REMARK    1  A    between atoms: C3_11  and  S1_12 
REMARK    2  A    between atoms: S1_12  and  C4_13 
REMARK    3  A    between atoms: C4_13  and  C5_14 
REMARK    4  A    between atoms: C7_18  and  C8_19 
REMARK       I    between atoms: C8_19  and  N6_21 
REMARK    5  A    between atoms: N6_21  and  N7_23 
REMARK    6  A    between atoms: C9_28  and  N9_29 
REMARK    7  A    between atoms: C11_33  and  C12_34 
REMARK    8  A    between atoms: C12_34  and  N10_35 
REMARK    9  A    between atoms: C14_39  and  N12_40 
ROOT
HETATM    1  N1  UNL     1     -13.825  60.680 105.293  1.00  0.00    -0.373 N 
ATOM      2  H11 UNL     1     -14.434  61.015 104.548  1.00  0.00     0.158 HD
ATOM      3  H12 UNL     1     -14.066  59.839 105.816  1.00  0.00     0.158 HD
HETATM    4  C1  UNL     1     -12.753  61.310 105.582  1.00  0.00     0.187 C 
HETATM    5  N2  UNL     1     -11.912  60.848 106.611  1.00  0.00    -0.064 NA
HETATM    6  N3  UNL     1     -12.419  62.472 104.859  1.00  0.00    -0.316 N 
ATOM      7  H3  UNL     1     -11.760  62.440 104.082  1.00  0.00     0.170 HD
HETATM    8  C2  UNL     1     -12.978  63.578 105.218  1.00  0.00     0.116 A 
HETATM    9  N4  UNL     1     -13.855  63.668 106.237  1.00  0.00    -0.334 N 
ATOM     10  H4  UNL     1     -14.105  62.834 106.768  1.00  0.00     0.168 HD
HETATM   11  C3  UNL     1     -14.401  64.854 106.558  1.00  0.00     0.105 A 
HETATM   12  C9  UNL     1     -14.099  66.030 105.871  1.00  0.00     0.137 A 
HETATM   13  C10 UNL     1     -13.202  65.958 104.820  1.00  0.00     0.051 A 
HETATM   14  C11 UNL     1     -12.664  64.728 104.522  1.00  0.00     0.008 A 
ENDROOT
BRANCH  11  15
HETATM   15  S1  UNL     1     -15.559  64.969 107.908  1.00  0.00    -0.104 SA
BRANCH  15  16
HETATM   16  C4  UNL     1     -14.669  64.815 109.495  1.00  0.00     0.139 C 
BRANCH  16  17
HETATM   17  C5  UNL     1     -14.184  66.189 109.831  1.00  0.00     0.036 A 
HETATM   18  C6  UNL     1     -14.826  67.182 110.510  1.00  0.00     0.115 A 
HETATM   19  N5  UNL     1     -13.996  68.248 110.571  1.00  0.00    -0.346 N 
HETATM   20  C7  UNL     1     -12.850  67.955 109.950  1.00  0.00     0.176 A 
ATOM     21  H5  UNL     1     -14.211  69.138 111.022  1.00  0.00     0.167 HD
HETATM   22  N8  UNL     1     -12.979  66.679 109.497  1.00  0.00    -0.339 N 
ATOM     23  H8  UNL     1     -12.264  66.168 108.978  1.00  0.00     0.167 HD
BRANCH  20  24
HETATM   24  C8  UNL     1     -11.668  68.791 109.765  1.00  0.00     0.303 C 
HETATM   25  O1  UNL     1     -11.067  69.177 110.797  1.00  0.00    -0.263 OA
HETATM   26  N6  UNL     1     -11.230  69.145 108.463  1.00  0.00    -0.270 N 
ATOM     27  H6  UNL     1     -11.751  68.809 107.654  1.00  0.00     0.189 HD
BRANCH  26  28
HETATM   28  N7  UNL     1     -10.110  69.937 108.270  1.00  0.00    -0.342 N 
ATOM     29  H72 UNL     1      -9.360  69.578 107.678  1.00  0.00     0.176 HD
ATOM     30  H71 UNL     1     -10.029  70.856 108.703  1.00  0.00     0.176 HD
ENDBRANCH  26  28
ENDBRANCH  20  24
ENDBRANCH  16  17
ENDBRANCH  15  16
ENDBRANCH  11  15
BRANCH  12  31
HETATM   31  N9  UNL     1     -14.713  67.251 106.263  1.00  0.00    -0.113 N 
HETATM   32  O2  UNL     1     -15.903  67.536 106.047  1.00  0.00    -0.532 OA
HETATM   33  O3  UNL     1     -13.952  68.186 106.923  1.00  0.00    -0.532 OA
ENDBRANCH  12  31
BRANCH  14  34
HETATM   34  C12 UNL     1     -11.697  64.632 103.395  1.00  0.00     0.192 C 
BRANCH  34  35
HETATM   35  N10 UNL     1     -10.351  64.933 103.844  1.00  0.00    -0.281 N 
HETATM   36  C13 UNL     1      -9.848  66.164 104.147  1.00  0.00     0.203 A 
HETATM   37  N11 UNL     1      -8.564  66.042 104.525  1.00  0.00    -0.317 N 
HETATM   38  C14 UNL     1      -8.249  64.739 104.463  1.00  0.00     0.265 A 
ATOM     39  H11 UNL     1      -7.943  66.800 104.807  1.00  0.00     0.169 HD
HETATM   40  N13 UNL     1      -9.357  64.105 104.048  1.00  0.00    -0.263 N 
ATOM     41  H13 UNL     1      -9.418  63.096 103.908  1.00  0.00     0.190 HD
BRANCH  38  42
HETATM   42  N12 UNL     1      -7.006  64.114 104.769  1.00  0.00    -0.078 N 
HETATM   43  O4  UNL     1      -6.693  63.017 104.273  1.00  0.00    -0.529 OA
HETATM   44  O5  UNL     1      -6.118  64.714 105.627  1.00  0.00    -0.529 OA
ENDBRANCH  38  42
ENDBRANCH  34  35
ENDBRANCH  14  34
TORSDOF 9
ENDMDL
MODEL 5
REMARK VINA RESULT: -9.941722803      2.743      7.012
REMARK  9 active torsions:
REMARK  status: ('A' for Active; 'I' for Inactive)
REMARK       I    between atoms: C1_4  and  N3_6 
REMARK    1  A    between atoms: C3_11  and  S1_12 
REMARK    2  A    between atoms: S1_12  and  C4_13 
REMARK    3  A    between atoms: C4_13  and  C5_14 
REMARK    4  A    between atoms: C7_18  and  C8_19 
REMARK       I    between atoms: C8_19  and  N6_21 
REMARK    5  A    between atoms: N6_21  and  N7_23 
REMARK    6  A    between atoms: C9_28  and  N9_29 
REMARK    7  A    between atoms: C11_33  and  C12_34 
REMARK    8  A    between atoms: C12_34  and  N10_35 
REMARK    9  A    between atoms: C14_39  and  N12_40 
ROOT
HETATM    1  N1  UNL     1     -15.123  68.588 103.991  1.00  0.00    -0.373 N 
ATOM      2  H11 UNL     1     -14.389  69.285 104.117  1.00  0.00     0.158 HD
ATOM      3  H12 UNL     1     -16.045  68.867 103.658  1.00  0.00     0.158 HD
HETATM    4  C1  UNL     1     -14.898  67.359 104.250  1.00  0.00     0.187 C 
HETATM    5  N2  UNL     1     -15.910  66.398 104.077  1.00  0.00    -0.064 NA
HETATM    6  N3  UNL     1     -13.624  66.974 104.711  1.00  0.00    -0.316 N 
ATOM      7  H3  UNL     1     -12.924  66.592 104.074  1.00  0.00     0.170 HD
HETATM    8  C2  UNL     1     -13.374  67.121 105.968  1.00  0.00     0.116 A 
HETATM    9  N4  UNL     1     -14.266  67.622 106.846  1.00  0.00    -0.334 N 
ATOM     10  H4  UNL     1     -15.191  67.905 106.525  1.00  0.00     0.168 HD
HETATM   11  C3  UNL     1     -13.939  67.749 108.144  1.00  0.00     0.105 A 
HETATM   12  C9  UNL     1     -12.691  67.379 108.644  1.00  0.00     0.137 A 
HETATM   13  C10 UNL     1     -11.761  66.864 107.759  1.00  0.00     0.051 A 
HETATM   14  C11 UNL     1     -12.131  66.749 106.439  1.00  0.00     0.008 A 
ENDROOT
BRANCH  11  15
HETATM   15  S1  UNL     1     -15.122  68.410 109.302  1.00  0.00    -0.104 SA
BRANCH  15  16
HETATM   16  C4  UNL     1     -16.556  67.285 109.426  1.00  0.00     0.139 C 
BRANCH  16  17
HETATM   17  C5  UNL     1     -16.035  65.918 109.114  1.00  0.00     0.036 A 
HETATM   18  C6  UNL     1     -15.387  65.041 109.934  1.00  0.00     0.115 A 
HETATM   19  N5  UNL     1     -15.108  63.930 109.215  1.00  0.00    -0.346 N 
HETATM   20  C7  UNL     1     -15.560  64.082 107.968  1.00  0.00     0.176 A 
ATOM     21  H5  UNL     1     -14.626  63.104 109.571  1.00  0.00     0.167 HD
HETATM   22  N8  UNL     1     -16.132  65.316 107.918  1.00  0.00    -0.339 N 
ATOM     23  H8  UNL     1     -16.570  65.724 107.092  1.00  0.00     0.167 HD
BRANCH  20  24
HETATM   24  C8  UNL     1     -15.486  63.151 106.845  1.00  0.00     0.303 C 
HETATM   25  O1  UNL     1     -15.103  63.609 105.741  1.00  0.00    -0.263 OA
HETATM   26  N6  UNL     1     -15.838  61.788 107.013  1.00  0.00    -0.270 N 
ATOM     27  H6  UNL     1     -16.145  61.461 107.929  1.00  0.00     0.189 HD
BRANCH  26  28
HETATM   28  N7  UNL     1     -15.774  60.892 105.958  1.00  0.00    -0.342 N 
ATOM     29  H72 UNL     1     -16.649  60.561 105.550  1.00  0.00     0.176 HD
ATOM     30  H71 UNL     1     -14.880  60.566 105.593  1.00  0.00     0.176 HD
ENDBRANCH  26  28
ENDBRANCH  20  24
ENDBRANCH  16  17
ENDBRANCH  15  16
ENDBRANCH  11  15
BRANCH  12  31
HETATM   31  N9  UNL     1     -12.412  67.540 110.030  1.00  0.00    -0.113 N 
HETATM   32  O2  UNL     1     -12.788  66.753 110.914  1.00  0.00    -0.532 OA
HETATM   33  O3  UNL     1     -11.680  68.633 110.428  1.00  0.00    -0.532 OA
ENDBRANCH  12  31
BRANCH  14  34
HETATM   34  C12 UNL     1     -11.144  66.196 105.472  1.00  0.00     0.192 C 
BRANCH  34  35
HETATM   35  N10 UNL     1     -11.068  64.752 105.582  1.00  0.00    -0.281 N 
HETATM   36  C13 UNL     1      -9.935  63.993 105.580  1.00  0.00     0.203 A 
HETATM   37  N11 UNL     1     -10.266  62.696 105.700  1.00  0.00    -0.317 N 
HETATM   38  C14 UNL     1     -11.604  62.628 105.777  1.00  0.00     0.265 A 
ATOM     39  H11 UNL     1      -9.619  61.907 105.727  1.00  0.00     0.169 HD
HETATM   40  N13 UNL     1     -12.048  63.892 105.703  1.00  0.00    -0.263 N 
ATOM     41  H13 UNL     1     -13.034  64.153 105.736  1.00  0.00     0.190 HD
BRANCH  38  42
HETATM   42  N12 UNL     1     -12.425  61.471 105.913  1.00  0.00    -0.078 N 
HETATM   43  O4  UNL     1     -12.810  60.829 104.919  1.00  0.00    -0.529 OA
HETATM   44  O5  UNL     1     -12.814  61.037 107.156  1.00  0.00    -0.529 OA
ENDBRANCH  38  42
ENDBRANCH  34  35
ENDBRANCH  14  34
TORSDOF 9
ENDMDL
