MODEL 1
REMARK VINA RESULT: -9.839595518      0.000      0.000
REMARK  11 active torsions:
REMARK  status: ('A' for Active; 'I' for Inactive)
REMARK    1  A    between atoms: C2_2  and  C3_3 
REMARK    2  A    between atoms: C3_3  and  C4_4 
REMARK    3  A    between atoms: C4_4  and  N1_5 
REMARK       I    between atoms: N1_5  and  C5_7 
REMARK    4  A    between atoms: C5_7  and  C6_9 
REMARK    5  A    between atoms: C6_9  and  N2_10 
REMARK    6  A    between atoms: N3_13  and  C8_14 
REMARK    7  A    between atoms: C8_14  and  C9_15 
REMARK    8  A    between atoms: C10_16  and  C11_17 
REMARK    9  A    between atoms: C11_17  and  N5_19 
REMARK   10  A    between atoms: N8_26  and  C13_27 
REMARK   11  A    between atoms: C17_43  and  N14_44 
ROOT
HETATM    1  N2  UNL     1     -12.553  66.285 109.335  1.00  0.00    -0.284 N 
HETATM    2  C7  UNL     1     -12.835  64.990 108.988  1.00  0.00     0.331 A 
HETATM    3  O2  UNL     1     -13.430  64.199 109.784  1.00  0.00    -0.246 OA
HETATM    4  N3  UNL     1     -12.412  64.711 107.764  1.00  0.00    -0.277 N 
HETATM    5  C15 UNL     1     -11.844  65.884 107.333  1.00  0.00     0.144 A 
HETATM    6  N12 UNL     1     -11.273  66.222 106.176  1.00  0.00    -0.336 N 
ATOM      7  H12 UNL     1     -11.196  65.522 105.437  1.00  0.00     0.168 HD
HETATM    8  C16 UNL     1     -10.802  67.446 105.959  1.00  0.00     0.183 A 
HETATM    9  N13 UNL     1     -10.878  68.420 106.913  1.00  0.00    -0.337 N 
ATOM     10  H13 UNL     1     -10.508  69.353 106.726  1.00  0.00     0.168 HD
HETATM   11  C17 UNL     1     -11.439  68.145 108.092  1.00  0.00     0.131 A 
HETATM   12  C18 UNL     1     -11.927  66.863 108.301  1.00  0.00     0.128 A 
ENDROOT
BRANCH   4  13
HETATM   13  C8  UNL     1     -12.524  63.562 106.890  1.00  0.00     0.197 C 
BRANCH  13  14
HETATM   14  C9  UNL     1     -13.853  62.993 106.694  1.00  0.00     0.087 A 
HETATM   15  C10 UNL     1     -14.994  63.738 106.505  1.00  0.00     0.116 A 
HETATM   16  N6  UNL     1     -16.016  62.818 106.482  1.00  0.00    -0.281 N 
HETATM   17  N7  UNL     1     -15.516  61.633 106.637  1.00  0.00    -0.234 N 
ATOM     18  H6  UNL     1     -17.006  63.033 106.363  1.00  0.00     0.188 HD
HETATM   19  N8  UNL     1     -14.182  61.695 106.770  1.00  0.00    -0.221 N 
ATOM     20  H7  UNL     1     -16.060  60.771 106.656  1.00  0.00     0.209 HD
BRANCH  15  21
HETATM   21  C11 UNL     1     -15.267  65.136 106.205  1.00  0.00     0.142 C 
HETATM   22  N4  UNL     1     -15.211  65.622 104.864  1.00  0.00    -0.081 NA
BRANCH  21  23
HETATM   23  N5  UNL     1     -15.574  66.034 107.074  1.00  0.00    -0.381 N 
HETATM   24  C12 UNL     1     -15.337  67.439 106.951  1.00  0.00     0.147 C 
ATOM     25  H5  UNL     1     -16.029  65.714 107.929  1.00  0.00     0.160 HD
ENDBRANCH  21  23
ENDBRANCH  15  21
BRANCH  19  26
HETATM   26  C13 UNL     1     -13.407  60.503 106.921  1.00  0.00     0.196 A 
HETATM   27  N9  UNL     1     -13.626  59.465 107.745  1.00  0.00    -0.220 N 
HETATM   28  O3  UNL     1     -12.678  58.603 107.566  1.00  0.00    -0.153 OA
ATOM     29  H9  UNL     1     -14.405  59.371 108.397  1.00  0.00     0.198 HD
HETATM   30  N10 UNL     1     -11.837  59.012 106.666  1.00  0.00    -0.222 N 
HETATM   31  C14 UNL     1     -12.257  60.209 106.229  1.00  0.00     0.169 A 
ATOM     32  H10 UNL     1     -11.007  58.512 106.348  1.00  0.00     0.198 HD
HETATM   33  N11 UNL     1     -11.652  60.909 105.326  1.00  0.00    -0.381 N 
ATOM     34 2H11 UNL     1     -11.971  61.820 104.993  1.00  0.00     0.157 HD
ATOM     35 1H11 UNL     1     -10.798  60.691 104.813  1.00  0.00     0.157 HD
ENDBRANCH  19  26
ENDBRANCH  13  14
ENDBRANCH   4  13
BRANCH   1  36
HETATM   36  C6  UNL     1     -12.885  66.879 110.609  1.00  0.00     0.237 C 
BRANCH  36  37
HETATM   37  C5  UNL     1     -14.295  67.432 110.595  1.00  0.00     0.239 C 
HETATM   38  N1  UNL     1     -15.414  66.648 110.606  1.00  0.00    -0.336 N 
ATOM     39  H1  UNL     1     -15.219  65.647 110.635  1.00  0.00     0.168 HD
HETATM   40  O1  UNL     1     -14.304  68.675 110.571  1.00  0.00    -0.271 OA
BRANCH  38  41
HETATM   41  C4  UNL     1     -16.777  66.962 110.584  1.00  0.00     0.087 C 
BRANCH  41  42
HETATM   42  C3  UNL     1     -17.325  68.145 109.922  1.00  0.00    -0.010 C 
BRANCH  42  43
HETATM   43  C2  UNL     1     -18.303  69.038 110.586  1.00  0.00     0.024 C 
HETATM   44  C1  UNL     1     -19.603  68.332 110.933  1.00  0.00     0.009 C 
ENDBRANCH  42  43
ENDBRANCH  41  42
ENDBRANCH  38  41
ENDBRANCH  36  37
ENDBRANCH   1  36
BRANCH  11  45
HETATM   45  N14 UNL     1     -11.519  69.039 108.997  1.00  0.00    -0.383 N 
ATOM     46 2H14 UNL     1     -12.015  69.916 108.833  1.00  0.00     0.157 HD
ATOM     47 1H14 UNL     1     -11.088  68.894 109.910  1.00  0.00     0.157 HD
ENDBRANCH  11  45
TORSDOF 11
ENDMDL
MODEL 2
REMARK VINA RESULT: -9.638428188      2.900      6.217
REMARK  11 active torsions:
REMARK  status: ('A' for Active; 'I' for Inactive)
REMARK    1  A    between atoms: C2_2  and  C3_3 
REMARK    2  A    between atoms: C3_3  and  C4_4 
REMARK    3  A    between atoms: C4_4  and  N1_5 
REMARK       I    between atoms: N1_5  and  C5_7 
REMARK    4  A    between atoms: C5_7  and  C6_9 
REMARK    5  A    between atoms: C6_9  and  N2_10 
REMARK    6  A    between atoms: N3_13  and  C8_14 
REMARK    7  A    between atoms: C8_14  and  C9_15 
REMARK    8  A    between atoms: C10_16  and  C11_17 
REMARK    9  A    between atoms: C11_17  and  N5_19 
REMARK   10  A    between atoms: N8_26  and  C13_27 
REMARK   11  A    between atoms: C17_43  and  N14_44 
ROOT
HETATM    1  N2  UNL     1     -12.759  66.921 105.026  1.00  0.00    -0.284 N 
HETATM    2  C7  UNL     1     -14.074  66.599 105.237  1.00  0.00     0.331 A 
HETATM    3  O2  UNL     1     -14.764  65.998 104.357  1.00  0.00    -0.246 OA
HETATM    4  N3  UNL     1     -14.486  66.993 106.434  1.00  0.00    -0.277 N 
HETATM    5  C15 UNL     1     -13.378  67.584 106.989  1.00  0.00     0.144 A 
HETATM    6  N12 UNL     1     -13.174  68.142 108.183  1.00  0.00    -0.336 N 
ATOM      7  H12 UNL     1     -13.946  68.187 108.848  1.00  0.00     0.168 HD
HETATM    8  C16 UNL     1     -11.991  68.642 108.529  1.00  0.00     0.183 A 
HETATM    9  N13 UNL     1     -10.925  68.608 107.676  1.00  0.00    -0.337 N 
ATOM     10  H13 UNL     1     -10.026  68.999 107.962  1.00  0.00     0.168 HD
HETATM   11  C17 UNL     1     -11.065  68.061 106.467  1.00  0.00     0.131 A 
HETATM   12  C18 UNL     1     -12.305  67.544 106.123  1.00  0.00     0.128 A 
ENDROOT
BRANCH   4  13
HETATM   13  C8  UNL     1     -15.713  66.835 107.186  1.00  0.00     0.197 C 
BRANCH  13  14
HETATM   14  C9  UNL     1     -15.709  65.877 108.286  1.00  0.00     0.087 A 
HETATM   15  C10 UNL     1     -15.844  66.219 109.611  1.00  0.00     0.116 A 
HETATM   16  N6  UNL     1     -15.668  65.041 110.300  1.00  0.00    -0.281 N 
HETATM   17  N7  UNL     1     -15.454  64.088 109.449  1.00  0.00    -0.234 N 
ATOM     18  H6  UNL     1     -15.700  64.936 111.314  1.00  0.00     0.188 HD
HETATM   19  N8  UNL     1     -15.473  64.559 108.193  1.00  0.00    -0.221 N 
ATOM     20  H7  UNL     1     -15.294  63.112 109.699  1.00  0.00     0.209 HD
BRANCH  15  21
HETATM   21  C11 UNL     1     -16.246  67.424 110.323  1.00  0.00     0.142 C 
HETATM   22  N4  UNL     1     -15.459  68.614 110.252  1.00  0.00    -0.081 NA
BRANCH  21  23
HETATM   23  N5  UNL     1     -17.300  67.538 111.051  1.00  0.00    -0.381 N 
HETATM   24  C12 UNL     1     -18.479  68.274 110.715  1.00  0.00     0.147 C 
ATOM     25  H5  UNL     1     -17.295  67.059 111.951  1.00  0.00     0.160 HD
ENDBRANCH  21  23
ENDBRANCH  15  21
BRANCH  19  26
HETATM   26  C13 UNL     1     -15.293  63.681 107.081  1.00  0.00     0.196 A 
HETATM   27  N9  UNL     1     -16.232  63.073 106.337  1.00  0.00    -0.220 N 
HETATM   28  O3  UNL     1     -15.634  62.360 105.438  1.00  0.00    -0.153 OA
ATOM     29  H9  UNL     1     -17.242  63.158 106.459  1.00  0.00     0.198 HD
HETATM   30  N10 UNL     1     -14.345  62.460 105.542  1.00  0.00    -0.222 N 
HETATM   31  C14 UNL     1     -14.080  63.285 106.567  1.00  0.00     0.169 A 
ATOM     32  H10 UNL     1     -13.656  61.996 104.950  1.00  0.00     0.198 HD
HETATM   33  N11 UNL     1     -12.891  63.610 106.955  1.00  0.00    -0.381 N 
ATOM     34 2H11 UNL     1     -12.690  64.237 107.735  1.00  0.00     0.157 HD
ATOM     35 1H11 UNL     1     -11.992  63.316 106.574  1.00  0.00     0.157 HD
ENDBRANCH  19  26
ENDBRANCH  13  14
ENDBRANCH   4  13
BRANCH   1  36
HETATM   36  C6  UNL     1     -12.031  66.628 103.814  1.00  0.00     0.237 C 
BRANCH  36  37
HETATM   37  C5  UNL     1     -11.357  65.275 103.904  1.00  0.00     0.239 C 
HETATM   38  N1  UNL     1     -10.323  65.001 104.754  1.00  0.00    -0.336 N 
ATOM     39  H1  UNL     1     -10.045  65.790 105.337  1.00  0.00     0.168 HD
HETATM   40  O1  UNL     1     -11.859  64.455 103.116  1.00  0.00    -0.271 OA
BRANCH  38  41
HETATM   41  C4  UNL     1      -9.574  63.840 104.973  1.00  0.00     0.087 C 
BRANCH  41  42
HETATM   42  C3  UNL     1      -8.142  63.844 105.272  1.00  0.00    -0.010 C 
BRANCH  42  43
HETATM   43  C2  UNL     1      -7.114  63.826 104.204  1.00  0.00     0.024 C 
HETATM   44  C1  UNL     1      -5.697  63.816 104.753  1.00  0.00     0.009 C 
ENDBRANCH  42  43
ENDBRANCH  41  42
ENDBRANCH  38  41
ENDBRANCH  36  37
ENDBRANCH   1  36
BRANCH  11  45
HETATM   45  N14 UNL     1     -10.083  68.021 105.655  1.00  0.00    -0.383 N 
ATOM     46 2H14 UNL     1      -9.950  67.231 105.024  1.00  0.00     0.157 HD
ATOM     47 1H14 UNL     1      -9.407  68.784 105.619  1.00  0.00     0.157 HD
ENDBRANCH  11  45
TORSDOF 11
ENDMDL
MODEL 3
REMARK VINA RESULT: -9.567763599      2.438      5.830
REMARK  11 active torsions:
REMARK  status: ('A' for Active; 'I' for Inactive)
REMARK    1  A    between atoms: C2_2  and  C3_3 
REMARK    2  A    between atoms: C3_3  and  C4_4 
REMARK    3  A    between atoms: C4_4  and  N1_5 
REMARK       I    between atoms: N1_5  and  C5_7 
REMARK    4  A    between atoms: C5_7  and  C6_9 
REMARK    5  A    between atoms: C6_9  and  N2_10 
REMARK    6  A    between atoms: N3_13  and  C8_14 
REMARK    7  A    between atoms: C8_14  and  C9_15 
REMARK    8  A    between atoms: C10_16  and  C11_17 
REMARK    9  A    between atoms: C11_17  and  N5_19 
REMARK   10  A    between atoms: N8_26  and  C13_27 
REMARK   11  A    between atoms: C17_43  and  N14_44 
ROOT
HETATM    1  N2  UNL     1     -12.931  66.270 105.104  1.00  0.00    -0.284 N 
HETATM    2  C7  UNL     1     -14.258  66.183 105.430  1.00  0.00     0.331 A 
HETATM    3  O2  UNL     1     -15.082  65.537 104.712  1.00  0.00    -0.246 OA
HETATM    4  N3  UNL     1     -14.530  66.843 106.547  1.00  0.00    -0.277 N 
HETATM    5  C15 UNL     1     -13.317  67.360 106.931  1.00  0.00     0.144 A 
HETATM    6  N12 UNL     1     -12.958  68.092 107.987  1.00  0.00    -0.336 N 
ATOM      7  H12 UNL     1     -13.668  68.367 108.665  1.00  0.00     0.168 HD
HETATM    8  C16 UNL     1     -11.698  68.471 108.179  1.00  0.00     0.183 A 
HETATM    9  N13 UNL     1     -10.708  68.131 107.302  1.00  0.00    -0.337 N 
ATOM     10  H13 UNL     1      -9.748  68.434 107.469  1.00  0.00     0.168 HD
HETATM   11  C17 UNL     1     -11.004  67.399 106.227  1.00  0.00     0.131 A 
HETATM   12  C18 UNL     1     -12.322  67.010 106.042  1.00  0.00     0.128 A 
ENDROOT
BRANCH   4  13
HETATM   13  C8  UNL     1     -15.711  67.002 107.369  1.00  0.00     0.197 C 
BRANCH  13  14
HETATM   14  C9  UNL     1     -15.878  66.085 108.492  1.00  0.00     0.087 A 
HETATM   15  C10 UNL     1     -16.139  66.480 109.782  1.00  0.00     0.116 A 
HETATM   16  N6  UNL     1     -16.102  65.321 110.521  1.00  0.00    -0.281 N 
HETATM   17  N7  UNL     1     -15.848  64.328 109.728  1.00  0.00    -0.234 N 
ATOM     18  H6  UNL     1     -16.250  65.253 111.528  1.00  0.00     0.188 HD
HETATM   19  N8  UNL     1     -15.704  64.755 108.465  1.00  0.00    -0.221 N 
ATOM     20  H7  UNL     1     -15.768  63.356 110.024  1.00  0.00     0.209 HD
BRANCH  15  21
HETATM   21  C11 UNL     1     -16.552  67.728 110.408  1.00  0.00     0.142 C 
HETATM   22  N4  UNL     1     -15.828  68.938 110.178  1.00  0.00    -0.081 NA
BRANCH  21  23
HETATM   23  N5  UNL     1     -17.562  67.866 111.192  1.00  0.00    -0.381 N 
HETATM   24  C12 UNL     1     -18.852  68.361 110.824  1.00  0.00     0.147 C 
ATOM     25  H5  UNL     1     -17.432  67.596 112.167  1.00  0.00     0.160 HD
ENDBRANCH  21  23
ENDBRANCH  15  21
BRANCH  19  26
HETATM   26  C13 UNL     1     -15.450  63.829 107.406  1.00  0.00     0.196 A 
HETATM   27  N9  UNL     1     -16.307  63.364 106.482  1.00  0.00    -0.220 N 
HETATM   28  O3  UNL     1     -15.666  62.539 105.718  1.00  0.00    -0.153 OA
ATOM     29  H9  UNL     1     -17.292  63.616 106.396  1.00  0.00     0.198 HD
HETATM   30  N10 UNL     1     -14.426  62.430 106.084  1.00  0.00    -0.222 N 
HETATM   31  C14 UNL     1     -14.241  63.227 107.148  1.00  0.00     0.169 A 
ATOM     32  H10 UNL     1     -13.718  61.843 105.642  1.00  0.00     0.198 HD
HETATM   33  N11 UNL     1     -13.118  63.363 107.772  1.00  0.00    -0.381 N 
ATOM     34 2H11 UNL     1     -12.978  63.970 108.581  1.00  0.00     0.157 HD
ATOM     35 1H11 UNL     1     -12.221  62.916 107.581  1.00  0.00     0.157 HD
ENDBRANCH  19  26
ENDBRANCH  13  14
ENDBRANCH   4  13
BRANCH   1  36
HETATM   36  C6  UNL     1     -12.334  65.660 103.939  1.00  0.00     0.237 C 
BRANCH  36  37
HETATM   37  C5  UNL     1     -11.986  64.211 104.209  1.00  0.00     0.239 C 
HETATM   38  N1  UNL     1     -10.990  63.819 105.058  1.00  0.00    -0.336 N 
ATOM     39  H1  UNL     1     -10.501  64.592 105.509  1.00  0.00     0.168 HD
HETATM   40  O1  UNL     1     -12.712  63.433 103.566  1.00  0.00    -0.271 OA
BRANCH  38  41
HETATM   41  C4  UNL     1     -10.516  62.555 105.424  1.00  0.00     0.087 C 
BRANCH  41  42
HETATM   42  C3  UNL     1     -11.374  61.379 105.572  1.00  0.00    -0.010 C 
BRANCH  42  43
HETATM   43  C2  UNL     1     -11.182  60.395 106.663  1.00  0.00     0.024 C 
HETATM   44  C1  UNL     1     -12.238  59.303 106.663  1.00  0.00     0.009 C 
ENDBRANCH  42  43
ENDBRANCH  41  42
ENDBRANCH  38  41
ENDBRANCH  36  37
ENDBRANCH   1  36
BRANCH  11  45
HETATM   45  N14 UNL     1     -10.095  67.071 105.395  1.00  0.00    -0.383 N 
ATOM     46 2H14 UNL     1      -9.148  67.444 105.471  1.00  0.00     0.157 HD
ATOM     47 1H14 UNL     1     -10.297  66.424 104.633  1.00  0.00     0.157 HD
ENDBRANCH  11  45
TORSDOF 11
ENDMDL
MODEL 4
REMARK VINA RESULT: -9.516939956      2.161      4.100
REMARK  11 active torsions:
REMARK  status: ('A' for Active; 'I' for Inactive)
REMARK    1  A    between atoms: C2_2  and  C3_3 
REMARK    2  A    between atoms: C3_3  and  C4_4 
REMARK    3  A    between atoms: C4_4  and  N1_5 
REMARK       I    between atoms: N1_5  and  C5_7 
REMARK    4  A    between atoms: C5_7  and  C6_9 
REMARK    5  A    between atoms: C6_9  and  N2_10 
REMARK    6  A    between atoms: N3_13  and  C8_14 
REMARK    7  A    between atoms: C8_14  and  C9_15 
REMARK    8  A    between atoms: C10_16  and  C11_17 
REMARK    9  A    between atoms: C11_17  and  N5_19 
REMARK   10  A    between atoms: N8_26  and  C13_27 
REMARK   11  A    between atoms: C17_43  and  N14_44 
ROOT
HETATM    1  N2  UNL     1     -15.702  66.068 108.399  1.00  0.00    -0.284 N 
HETATM    2  C7  UNL     1     -15.712  64.717 108.176  1.00  0.00     0.331 A 
HETATM    3  O2  UNL     1     -15.903  63.885 109.116  1.00  0.00    -0.246 OA
HETATM    4  N3  UNL     1     -15.501  64.433 106.898  1.00  0.00    -0.277 N 
HETATM    5  C15 UNL     1     -15.356  65.662 106.304  1.00  0.00     0.144 A 
HETATM    6  N12 UNL     1     -15.148  66.016 105.035  1.00  0.00    -0.336 N 
ATOM      7  H12 UNL     1     -15.054  65.288 104.326  1.00  0.00     0.168 HD
HETATM    8  C16 UNL     1     -15.062  67.291 104.669  1.00  0.00     0.183 A 
HETATM    9  N13 UNL     1     -15.180  68.304 105.577  1.00  0.00    -0.337 N 
ATOM     10  H13 UNL     1     -15.108  69.276 105.275  1.00  0.00     0.168 HD
HETATM   11  C17 UNL     1     -15.389  68.015 106.863  1.00  0.00     0.131 A 
HETATM   12  C18 UNL     1     -15.479  66.680 107.227  1.00  0.00     0.128 A 
ENDROOT
BRANCH   4  13
HETATM   13  C8  UNL     1     -15.499  63.213 106.118  1.00  0.00     0.197 C 
BRANCH  13  14
HETATM   14  C9  UNL     1     -14.483  62.215 106.433  1.00  0.00     0.087 A 
HETATM   15  C10 UNL     1     -13.135  62.477 106.500  1.00  0.00     0.116 A 
HETATM   16  N6  UNL     1     -12.546  61.251 106.704  1.00  0.00    -0.281 N 
HETATM   17  N7  UNL     1     -13.473  60.347 106.760  1.00  0.00    -0.234 N 
ATOM     18  H6  UNL     1     -11.545  61.080 106.796  1.00  0.00     0.188 HD
HETATM   19  N8  UNL     1     -14.685  60.899 106.599  1.00  0.00    -0.221 N 
ATOM     20  H7  UNL     1     -13.304  59.352 106.906  1.00  0.00     0.209 HD
BRANCH  15  21
HETATM   21  C11 UNL     1     -12.327  63.687 106.544  1.00  0.00     0.142 C 
HETATM   22  N4  UNL     1     -12.086  64.452 105.362  1.00  0.00    -0.081 NA
BRANCH  21  23
HETATM   23  N5  UNL     1     -11.776  64.172 107.601  1.00  0.00    -0.381 N 
HETATM   24  C12 UNL     1     -12.011  65.470 108.152  1.00  0.00     0.147 C 
ATOM     25  H5  UNL     1     -11.109  63.575 108.090  1.00  0.00     0.160 HD
ENDBRANCH  21  23
ENDBRANCH  15  21
BRANCH  19  26
HETATM   26  C13 UNL     1     -15.866  60.097 106.656  1.00  0.00     0.196 A 
HETATM   27  N9  UNL     1     -16.525  59.659 107.742  1.00  0.00    -0.220 N 
HETATM   28  O3  UNL     1     -17.536  58.957 107.343  1.00  0.00    -0.153 OA
ATOM     29  H9  UNL     1     -16.273  59.847 108.713  1.00  0.00     0.198 HD
HETATM   30  N10 UNL     1     -17.587  58.903 106.048  1.00  0.00    -0.222 N 
HETATM   31  C14 UNL     1     -16.551  59.609 105.569  1.00  0.00     0.169 A 
ATOM     32  H10 UNL     1     -18.288  58.412 105.493  1.00  0.00     0.198 HD
HETATM   33  N11 UNL     1     -16.293  59.767 104.311  1.00  0.00    -0.381 N 
ATOM     34 2H11 UNL     1     -15.505  60.303 103.948  1.00  0.00     0.157 HD
ATOM     35 1H11 UNL     1     -16.801  59.405 103.505  1.00  0.00     0.157 HD
ENDBRANCH  19  26
ENDBRANCH  13  14
ENDBRANCH   4  13
BRANCH   1  36
HETATM   36  C6  UNL     1     -15.897  66.684 109.691  1.00  0.00     0.237 C 
BRANCH  36  37
HETATM   37  C5  UNL     1     -14.574  66.878 110.401  1.00  0.00     0.239 C 
HETATM   38  N1  UNL     1     -13.871  68.050 110.383  1.00  0.00    -0.336 N 
ATOM     39  H1  UNL     1     -14.322  68.795 109.854  1.00  0.00     0.168 HD
HETATM   40  O1  UNL     1     -14.213  65.847 110.995  1.00  0.00    -0.271 OA
BRANCH  38  41
HETATM   41  C4  UNL     1     -12.649  68.417 110.956  1.00  0.00     0.087 C 
BRANCH  41  42
HETATM   42  C3  UNL     1     -11.609  69.154 110.240  1.00  0.00    -0.010 C 
BRANCH  42  43
HETATM   43  C2  UNL     1     -11.371  68.974 108.788  1.00  0.00     0.024 C 
HETATM   44  C1  UNL     1     -10.258  69.863 108.260  1.00  0.00     0.009 C 
ENDBRANCH  42  43
ENDBRANCH  41  42
ENDBRANCH  38  41
ENDBRANCH  36  37
ENDBRANCH   1  36
BRANCH  11  45
HETATM   45  N14 UNL     1     -15.501  68.945 107.727  1.00  0.00    -0.383 N 
ATOM     46 2H14 UNL     1     -15.849  69.869 107.469  1.00  0.00     0.157 HD
ATOM     47 1H14 UNL     1     -15.245  68.783 108.701  1.00  0.00     0.157 HD
ENDBRANCH  11  45
TORSDOF 11
ENDMDL
MODEL 5
REMARK VINA RESULT: -9.516672883      2.716      5.190
REMARK  11 active torsions:
REMARK  status: ('A' for Active; 'I' for Inactive)
REMARK    1  A    between atoms: C2_2  and  C3_3 
REMARK    2  A    between atoms: C3_3  and  C4_4 
REMARK    3  A    between atoms: C4_4  and  N1_5 
REMARK       I    between atoms: N1_5  and  C5_7 
REMARK    4  A    between atoms: C5_7  and  C6_9 
REMARK    5  A    between atoms: C6_9  and  N2_10 
REMARK    6  A    between atoms: N3_13  and  C8_14 
REMARK    7  A    between atoms: C8_14  and  C9_15 
REMARK    8  A    between atoms: C10_16  and  C11_17 
REMARK    9  A    between atoms: C11_17  and  N5_19 
REMARK   10  A    between atoms: N8_26  and  C13_27 
REMARK   11  A    between atoms: C17_43  and  N14_44 
ROOT
HETATM    1  N2  UNL     1     -13.728  64.306 108.345  1.00  0.00    -0.284 N 
HETATM    2  C7  UNL     1     -12.542  64.989 108.406  1.00  0.00     0.331 A 
HETATM    3  O2  UNL     1     -12.299  65.823 109.332  1.00  0.00    -0.246 OA
HETATM    4  N3  UNL     1     -11.738  64.659 107.406  1.00  0.00    -0.277 N 
HETATM    5  C15 UNL     1     -12.457  63.731 106.694  1.00  0.00     0.144 A 
HETATM    6  N12 UNL     1     -12.160  63.026 105.601  1.00  0.00    -0.336 N 
ATOM      7  H12 UNL     1     -11.255  63.165 105.151  1.00  0.00     0.168 HD
HETATM    8  C16 UNL     1     -13.012  62.147 105.083  1.00  0.00     0.183 A 
HETATM    9  N13 UNL     1     -14.236  61.922 105.645  1.00  0.00    -0.337 N 
ATOM     10  H13 UNL     1     -14.875  61.243 105.229  1.00  0.00     0.168 HD
HETATM   11  C17 UNL     1     -14.592  62.595 106.740  1.00  0.00     0.131 A 
HETATM   12  C18 UNL     1     -13.691  63.508 107.268  1.00  0.00     0.128 A 
ENDROOT
BRANCH   4  13
HETATM   13  C8  UNL     1     -10.376  64.995 107.047  1.00  0.00     0.197 C 
BRANCH  13  14
HETATM   14  C9  UNL     1     -10.183  65.999 106.007  1.00  0.00     0.087 A 
HETATM   15  C10 UNL     1     -10.905  67.165 105.913  1.00  0.00     0.116 A 
HETATM   16  N6  UNL     1     -10.484  67.748 104.740  1.00  0.00    -0.281 N 
HETATM   17  N7  UNL     1      -9.584  66.990 104.196  1.00  0.00    -0.234 N 
ATOM     18  H6  UNL     1     -10.823  68.631 104.360  1.00  0.00     0.188 HD
HETATM   19  N8  UNL     1      -9.366  65.900 104.947  1.00  0.00    -0.221 N 
ATOM     20  H7  UNL     1      -9.108  67.194 103.318  1.00  0.00     0.209 HD
BRANCH  15  21
HETATM   21  C11 UNL     1     -11.810  67.885 106.798  1.00  0.00     0.142 C 
HETATM   22  N4  UNL     1     -13.195  68.021 106.477  1.00  0.00    -0.081 NA
BRANCH  21  23
HETATM   23  N5  UNL     1     -11.474  68.444 107.907  1.00  0.00    -0.381 N 
HETATM   24  C12 UNL     1     -10.501  69.480 108.066  1.00  0.00     0.147 C 
ATOM     25  H5  UNL     1     -11.944  68.117 108.750  1.00  0.00     0.160 HD
ENDBRANCH  21  23
ENDBRANCH  15  21
BRANCH  19  26
HETATM   26  C13 UNL     1      -8.388  64.931 104.561  1.00  0.00     0.196 A 
HETATM   27  N9  UNL     1      -8.452  63.593 104.668  1.00  0.00    -0.220 N 
HETATM   28  O3  UNL     1      -7.348  63.100 104.207  1.00  0.00    -0.153 OA
ATOM     29  H9  UNL     1      -9.235  63.059 105.045  1.00  0.00     0.198 HD
HETATM   30  N10 UNL     1      -6.551  64.039 103.799  1.00  0.00    -0.222 N 
HETATM   31  C14 UNL     1      -7.165  65.214 104.003  1.00  0.00     0.169 A 
ATOM     32  H10 UNL     1      -5.623  63.906 103.396  1.00  0.00     0.198 HD
HETATM   33  N11 UNL     1      -6.654  66.366 103.710  1.00  0.00    -0.381 N 
ATOM     34 2H11 UNL     1      -7.121  67.259 103.865  1.00  0.00     0.157 HD
ATOM     35 1H11 UNL     1      -5.746  66.575 103.296  1.00  0.00     0.157 HD
ENDBRANCH  19  26
ENDBRANCH  13  14
ENDBRANCH   4  13
BRANCH   1  36
HETATM   36  C6  UNL     1     -14.808  64.457 109.292  1.00  0.00     0.237 C 
BRANCH  36  37
HETATM   37  C5  UNL     1     -15.680  65.642 108.933  1.00  0.00     0.239 C 
HETATM   38  N1  UNL     1     -15.374  66.932 109.262  1.00  0.00    -0.336 N 
ATOM     39  H1  UNL     1     -14.495  67.034 109.767  1.00  0.00     0.168 HD
HETATM   40  O1  UNL     1     -16.697  65.294 108.308  1.00  0.00    -0.271 OA
BRANCH  38  41
HETATM   41  C4  UNL     1     -16.044  68.139 109.034  1.00  0.00     0.087 C 
BRANCH  41  42
HETATM   42  C3  UNL     1     -16.956  68.754 109.999  1.00  0.00    -0.010 C 
BRANCH  42  43
HETATM   43  C2  UNL     1     -17.824  67.946 110.888  1.00  0.00     0.024 C 
HETATM   44  C1  UNL     1     -19.283  68.365 110.824  1.00  0.00     0.009 C 
ENDBRANCH  42  43
ENDBRANCH  41  42
ENDBRANCH  38  41
ENDBRANCH  36  37
ENDBRANCH   1  36
BRANCH  11  45
HETATM   45  N14 UNL     1     -15.730  62.402 107.280  1.00  0.00    -0.383 N 
ATOM     46 2H14 UNL     1     -16.424  61.789 106.849  1.00  0.00     0.157 HD
ATOM     47 1H14 UNL     1     -15.973  62.857 108.160  1.00  0.00     0.157 HD
ENDBRANCH  11  45
TORSDOF 11
ENDMDL
