MODEL 1
REMARK VINA RESULT: -9.838740933      0.000      0.000
REMARK  11 active torsions:
REMARK  status: ('A' for Active; 'I' for Inactive)
REMARK    1  A    between atoms: C2_2  and  N1_3 
REMARK    2  A    between atoms: C3_4  and  S1_5 
REMARK    3  A    between atoms: S1_5  and  C4_6 
REMARK    4  A    between atoms: C4_6  and  C5_7 
REMARK    5  A    between atoms: C5_7  and  C6_9 
REMARK       I    between atoms: C6_9  and  N2_11 
REMARK    6  A    between atoms: N2_11  and  C7_13 
REMARK    7  A    between atoms: C8_16  and  S2_17 
REMARK    8  A    between atoms: S2_17  and  N4_18 
REMARK    9  A    between atoms: C9_23  and  O5_24 
REMARK   10  A    between atoms: C10_28  and  N6_29 
REMARK   11  A    between atoms: C11_36  and  C12_37 
ROOT
HETATM    1  C5  UNL     1     -12.720  65.655 104.138  1.00  0.00     0.226 C 
HETATM    2  O1  UNL     1     -13.390  66.352 103.349  1.00  0.00    -0.286 OA
ENDROOT
BRANCH   1   3
HETATM    3  C4  UNL     1     -11.381  66.134 104.639  1.00  0.00     0.171 C 
BRANCH   3   4
HETATM    4  S1  UNL     1     -11.571  67.321 105.965  1.00  0.00    -0.084 SA
BRANCH   4   5
HETATM    5  C3  UNL     1     -13.175  67.371 106.686  1.00  0.00     0.163 A 
HETATM    6  N1  UNL     1     -13.575  67.032 107.977  1.00  0.00    -0.310 N 
HETATM    7  C11 UNL     1     -14.861  67.256 108.052  1.00  0.00     0.157 A 
HETATM    8  N8  UNL     1     -15.282  67.738 106.820  1.00  0.00    -0.281 N 
HETATM    9  N7  UNL     1     -14.264  67.789 106.047  1.00  0.00    -0.278 N 
ATOM     10  H8  UNL     1     -16.236  68.004 106.575  1.00  0.00     0.188 HD
ATOM     11  H7  UNL     1     -14.285  68.105 105.078  1.00  0.00     0.189 HD
BRANCH   6  12
HETATM   12  C2  UNL     1     -12.559  66.574 108.868  1.00  0.00     0.128 C 
HETATM   13  C1  UNL     1     -12.498  65.100 109.093  1.00  0.00     0.027 C 
ENDBRANCH   6  12
BRANCH   7  14
HETATM   14  C12 UNL     1     -15.819  67.103 109.144  1.00  0.00     0.147 A 
HETATM   15  N9  UNL     1     -16.063  65.829 109.667  1.00  0.00    -0.234 N 
HETATM   16  O6  UNL     1     -16.875  65.945 110.631  1.00  0.00    -0.155 OA
ATOM     17  H9  UNL     1     -15.656  64.958 109.329  1.00  0.00     0.197 HD
HETATM   18  N10 UNL     1     -17.219  67.153 110.833  1.00  0.00    -0.224 N 
HETATM   19  C13 UNL     1     -16.555  67.950 109.887  1.00  0.00     0.154 A 
ATOM     20  H10 UNL     1     -17.862  67.483 111.553  1.00  0.00     0.198 HD
HETATM   21  N11 UNL     1     -16.747  69.163 109.927  1.00  0.00    -0.382 N 
ATOM     22 2H11 UNL     1     -16.265  69.741 109.241  1.00  0.00     0.157 HD
ATOM     23 1H11 UNL     1     -17.305  69.805 110.490  1.00  0.00     0.157 HD
ENDBRANCH   7  14
ENDBRANCH   4   5
ENDBRANCH   3   4
ENDBRANCH   1   3
BRANCH   1  24
HETATM   24  C6  UNL     1     -13.191  64.356 104.603  1.00  0.00     0.293 C 
HETATM   25  O2  UNL     1     -13.239  63.421 103.723  1.00  0.00    -0.264 OA
HETATM   26  N2  UNL     1     -13.583  64.089 105.939  1.00  0.00    -0.303 N 
ATOM     27  H2  UNL     1     -13.538  64.829 106.639  1.00  0.00     0.171 HD
BRANCH  26  28
HETATM   28  C7  UNL     1     -14.037  62.803 106.303  1.00  0.00     0.154 A 
HETATM   29  N3  UNL     1     -13.202  61.781 106.558  1.00  0.00    -0.325 N 
HETATM   30  C8  UNL     1     -13.650  60.562 106.898  1.00  0.00     0.201 A 
ATOM     31  H3  UNL     1     -12.196  61.937 106.490  1.00  0.00     0.168 HD
HETATM   32  C9  UNL     1     -14.986  60.282 107.006  1.00  0.00     0.183 A 
HETATM   33  N5  UNL     1     -15.854  61.279 106.759  1.00  0.00    -0.318 N 
HETATM   34  C10 UNL     1     -15.410  62.527 106.411  1.00  0.00     0.146 A 
ATOM     35  H5  UNL     1     -16.857  61.103 106.833  1.00  0.00     0.169 HD
BRANCH  30  36
HETATM   36  S2  UNL     1     -12.519  59.254 107.231  1.00  0.00     0.276 S 
HETATM   37  O3  UNL     1     -12.854  58.633 108.535  1.00  0.00    -0.199 OA
HETATM   38  O4  UNL     1     -12.663  58.215 106.127  1.00  0.00    -0.199 OA
BRANCH  36  39
HETATM   39  N4  UNL     1     -10.897  59.889 107.248  1.00  0.00    -0.323 N 
ATOM     40  H42 UNL     1     -10.076  59.372 107.563  1.00  0.00     0.169 HD
ATOM     41  H41 UNL     1     -10.908  60.846 106.897  1.00  0.00     0.169 HD
ENDBRANCH  36  39
ENDBRANCH  30  36
BRANCH  32  42
HETATM   42  O5  UNL     1     -15.472  59.009 107.361  1.00  0.00    -0.344 OA
ATOM     43  H5  UNL     1     -15.623  58.748 108.262  1.00  0.00     0.219 HD
ENDBRANCH  32  42
BRANCH  34  44
HETATM   44  N6  UNL     1     -16.210  63.451 106.170  1.00  0.00    -0.382 N 
ATOM     45  H62 UNL     1     -16.559  63.613 105.225  1.00  0.00     0.157 HD
ATOM     46  H61 UNL     1     -16.499  64.047 106.946  1.00  0.00     0.157 HD
ENDBRANCH  34  44
ENDBRANCH  26  28
ENDBRANCH   1  24
TORSDOF 11
ENDMDL
MODEL 2
REMARK VINA RESULT: -9.588415252      1.157      2.263
REMARK  11 active torsions:
REMARK  status: ('A' for Active; 'I' for Inactive)
REMARK    1  A    between atoms: C2_2  and  N1_3 
REMARK    2  A    between atoms: C3_4  and  S1_5 
REMARK    3  A    between atoms: S1_5  and  C4_6 
REMARK    4  A    between atoms: C4_6  and  C5_7 
REMARK    5  A    between atoms: C5_7  and  C6_9 
REMARK       I    between atoms: C6_9  and  N2_11 
REMARK    6  A    between atoms: N2_11  and  C7_13 
REMARK    7  A    between atoms: C8_16  and  S2_17 
REMARK    8  A    between atoms: S2_17  and  N4_18 
REMARK    9  A    between atoms: C9_23  and  O5_24 
REMARK   10  A    between atoms: C10_28  and  N6_29 
REMARK   11  A    between atoms: C11_36  and  C12_37 
ROOT
HETATM    1  C5  UNL     1     -13.015  65.514 103.992  1.00  0.00     0.226 C 
HETATM    2  O1  UNL     1     -14.073  65.981 103.524  1.00  0.00    -0.286 OA
ENDROOT
BRANCH   1   3
HETATM    3  C4  UNL     1     -11.800  66.389 104.166  1.00  0.00     0.171 C 
BRANCH   3   4
HETATM    4  S1  UNL     1     -11.768  67.140 105.790  1.00  0.00    -0.084 SA
BRANCH   4   5
HETATM    5  C3  UNL     1     -13.336  67.265 106.577  1.00  0.00     0.163 A 
HETATM    6  N1  UNL     1     -13.700  66.937 107.881  1.00  0.00    -0.310 N 
HETATM    7  C11 UNL     1     -14.968  67.224 108.011  1.00  0.00     0.157 A 
HETATM    8  N8  UNL     1     -15.416  67.734 106.799  1.00  0.00    -0.281 N 
HETATM    9  N7  UNL     1     -14.429  67.740 105.986  1.00  0.00    -0.278 N 
ATOM     10  H8  UNL     1     -16.364  68.049 106.595  1.00  0.00     0.188 HD
ATOM     11  H7  UNL     1     -14.473  68.064 105.020  1.00  0.00     0.189 HD
BRANCH   6  12
HETATM   12  C2  UNL     1     -12.672  66.424 108.728  1.00  0.00     0.128 C 
HETATM   13  C1  UNL     1     -12.726  64.960 109.013  1.00  0.00     0.027 C 
ENDBRANCH   6  12
BRANCH   7  14
HETATM   14  C12 UNL     1     -15.888  67.111 109.141  1.00  0.00     0.147 A 
HETATM   15  N9  UNL     1     -16.143  65.852 109.692  1.00  0.00    -0.234 N 
HETATM   16  O6  UNL     1     -16.914  66.002 110.684  1.00  0.00    -0.155 OA
ATOM     17  H9  UNL     1     -15.771  64.965 109.353  1.00  0.00     0.197 HD
HETATM   18  N10 UNL     1     -17.220  67.221 110.880  1.00  0.00    -0.224 N 
HETATM   19  C13 UNL     1     -16.573  67.987 109.897  1.00  0.00     0.154 A 
ATOM     20  H10 UNL     1     -17.827  67.578 111.619  1.00  0.00     0.198 HD
HETATM   21  N11 UNL     1     -16.734  69.205 109.926  1.00  0.00    -0.382 N 
ATOM     22 2H11 UNL     1     -16.264  69.761 109.213  1.00  0.00     0.157 HD
ATOM     23 1H11 UNL     1     -17.254  69.869 110.500  1.00  0.00     0.157 HD
ENDBRANCH   7  14
ENDBRANCH   4   5
ENDBRANCH   3   4
ENDBRANCH   1   3
BRANCH   1  24
HETATM   24  C6  UNL     1     -12.904  64.115 104.384  1.00  0.00     0.293 C 
HETATM   25  O2  UNL     1     -13.232  63.248 103.495  1.00  0.00    -0.264 OA
HETATM   26  N2  UNL     1     -12.460  63.684 105.660  1.00  0.00    -0.303 N 
ATOM     27  H2  UNL     1     -12.192  64.371 106.364  1.00  0.00     0.171 HD
BRANCH  26  28
HETATM   28  C7  UNL     1     -12.390  62.306 105.960  1.00  0.00     0.154 A 
HETATM   29  N3  UNL     1     -13.477  61.561 106.221  1.00  0.00    -0.325 N 
HETATM   30  C8  UNL     1     -13.392  60.252 106.509  1.00  0.00     0.201 A 
ATOM     31  H3  UNL     1     -14.396  62.003 106.199  1.00  0.00     0.168 HD
HETATM   32  C9  UNL     1     -12.192  59.594 106.557  1.00  0.00     0.183 A 
HETATM   33  N5  UNL     1     -11.080  60.306 106.301  1.00  0.00    -0.318 N 
HETATM   34  C10 UNL     1     -11.153  61.641 106.005  1.00  0.00     0.146 A 
ATOM     35  H5  UNL     1     -10.170  59.845 106.326  1.00  0.00     0.169 HD
BRANCH  30  36
HETATM   36  S2  UNL     1     -14.844  59.311 106.837  1.00  0.00     0.276 S 
HETATM   37  O3  UNL     1     -15.140  58.443 105.673  1.00  0.00    -0.199 OA
HETATM   38  O4  UNL     1     -14.577  58.443 108.059  1.00  0.00    -0.199 OA
BRANCH  36  39
HETATM   39  N4  UNL     1     -16.170  60.396 107.152  1.00  0.00    -0.323 N 
ATOM     40  H42 UNL     1     -16.220  61.035 107.946  1.00  0.00     0.169 HD
ATOM     41  H41 UNL     1     -16.874  60.286 106.422  1.00  0.00     0.169 HD
ENDBRANCH  36  39
ENDBRANCH  30  36
BRANCH  32  42
HETATM   42  O5  UNL     1     -12.085  58.222 106.858  1.00  0.00    -0.344 OA
ATOM     43  H5  UNL     1     -12.079  57.547 106.190  1.00  0.00     0.219 HD
ENDBRANCH  32  42
BRANCH  34  44
HETATM   44  N6  UNL     1     -10.125  62.308 105.779  1.00  0.00    -0.382 N 
ATOM     45  H62 UNL     1      -9.963  63.201 106.245  1.00  0.00     0.157 HD
ATOM     46  H61 UNL     1      -9.454  61.937 105.106  1.00  0.00     0.157 HD
ENDBRANCH  34  44
ENDBRANCH  26  28
ENDBRANCH   1  24
TORSDOF 11
ENDMDL
MODEL 3
REMARK VINA RESULT: -9.482108584      1.121      1.473
REMARK  11 active torsions:
REMARK  status: ('A' for Active; 'I' for Inactive)
REMARK    1  A    between atoms: C2_2  and  N1_3 
REMARK    2  A    between atoms: C3_4  and  S1_5 
REMARK    3  A    between atoms: S1_5  and  C4_6 
REMARK    4  A    between atoms: C4_6  and  C5_7 
REMARK    5  A    between atoms: C5_7  and  C6_9 
REMARK       I    between atoms: C6_9  and  N2_11 
REMARK    6  A    between atoms: N2_11  and  C7_13 
REMARK    7  A    between atoms: C8_16  and  S2_17 
REMARK    8  A    between atoms: S2_17  and  N4_18 
REMARK    9  A    between atoms: C9_23  and  O5_24 
REMARK   10  A    between atoms: C10_28  and  N6_29 
REMARK   11  A    between atoms: C11_36  and  C12_37 
ROOT
HETATM    1  C5  UNL     1     -12.168  65.860 105.282  1.00  0.00     0.226 C 
HETATM    2  O1  UNL     1     -12.643  66.617 104.411  1.00  0.00    -0.286 OA
ENDROOT
BRANCH   1   3
HETATM    3  C4  UNL     1     -11.025  66.313 106.154  1.00  0.00     0.171 C 
BRANCH   3   4
HETATM    4  S1  UNL     1     -11.443  67.805 107.050  1.00  0.00    -0.084 SA
BRANCH   4   5
HETATM    5  C3  UNL     1     -13.140  67.950 107.489  1.00  0.00     0.163 A 
HETATM    6  N1  UNL     1     -13.738  67.869 108.745  1.00  0.00    -0.310 N 
HETATM    7  C11 UNL     1     -15.019  68.063 108.575  1.00  0.00     0.157 A 
HETATM    8  N8  UNL     1     -15.242  68.270 107.220  1.00  0.00    -0.281 N 
HETATM    9  N7  UNL     1     -14.115  68.195 106.619  1.00  0.00    -0.278 N 
ATOM     10  H8  UNL     1     -16.145  68.450 106.781  1.00  0.00     0.188 HD
ATOM     11  H7  UNL     1     -13.983  68.306 105.614  1.00  0.00     0.189 HD
BRANCH   6  12
HETATM   12  C2  UNL     1     -12.874  67.635 109.857  1.00  0.00     0.128 C 
HETATM   13  C1  UNL     1     -12.798  68.728 110.871  1.00  0.00     0.027 C 
ENDBRANCH   6  12
BRANCH   7  14
HETATM   14  C12 UNL     1     -16.137  68.105 109.514  1.00  0.00     0.147 A 
HETATM   15  N9  UNL     1     -17.040  69.171 109.454  1.00  0.00    -0.234 N 
HETATM   16  O6  UNL     1     -17.947  68.971 110.313  1.00  0.00    -0.155 OA
ATOM     17  H9  UNL     1     -16.979  69.971 108.825  1.00  0.00     0.197 HD
HETATM   18  N10 UNL     1     -17.773  67.890 110.960  1.00  0.00    -0.224 N 
HETATM   19  C13 UNL     1     -16.602  67.286 110.474  1.00  0.00     0.154 A 
ATOM     20  H10 UNL     1     -18.375  67.526 111.699  1.00  0.00     0.198 HD
HETATM   21  N11 UNL     1     -16.268  66.212 110.968  1.00  0.00    -0.382 N 
ATOM     22 2H11 UNL     1     -15.418  65.773 110.614  1.00  0.00     0.157 HD
ATOM     23 1H11 UNL     1     -16.620  65.590 111.695  1.00  0.00     0.157 HD
ENDBRANCH   7  14
ENDBRANCH   4   5
ENDBRANCH   3   4
ENDBRANCH   1   3
BRANCH   1  24
HETATM   24  C6  UNL     1     -12.687  64.514 105.493  1.00  0.00     0.293 C 
HETATM   25  O2  UNL     1     -12.258  63.608 104.689  1.00  0.00    -0.264 OA
HETATM   26  N2  UNL     1     -13.610  64.173 106.513  1.00  0.00    -0.303 N 
ATOM     27  H2  UNL     1     -13.945  64.890 107.156  1.00  0.00     0.171 HD
BRANCH  26  28
HETATM   28  C7  UNL     1     -14.069  62.844 106.641  1.00  0.00     0.154 A 
HETATM   29  N3  UNL     1     -13.244  61.807 106.864  1.00  0.00    -0.325 N 
HETATM   30  C8  UNL     1     -13.697  60.548 106.979  1.00  0.00     0.201 A 
ATOM     31  H3  UNL     1     -12.242  61.982 106.949  1.00  0.00     0.168 HD
HETATM   32  C9  UNL     1     -15.026  60.240 106.875  1.00  0.00     0.183 A 
HETATM   33  N5  UNL     1     -15.885  61.252 106.653  1.00  0.00    -0.318 N 
HETATM   34  C10 UNL     1     -15.436  62.540 106.534  1.00  0.00     0.146 A 
ATOM     35  H5  UNL     1     -16.883  61.057 106.572  1.00  0.00     0.169 HD
BRANCH  30  36
HETATM   36  S2  UNL     1     -12.579  59.220 107.279  1.00  0.00     0.276 S 
HETATM   37  O3  UNL     1     -12.926  58.566 108.562  1.00  0.00    -0.199 OA
HETATM   38  O4  UNL     1     -12.728  58.214 106.145  1.00  0.00    -0.199 OA
BRANCH  36  39
HETATM   39  N4  UNL     1     -10.951  59.838 107.320  1.00  0.00    -0.323 N 
ATOM     40  H42 UNL     1     -10.640  60.611 107.910  1.00  0.00     0.169 HD
ATOM     41  H41 UNL     1     -10.374  59.308 106.668  1.00  0.00     0.169 HD
ENDBRANCH  36  39
ENDBRANCH  30  36
BRANCH  32  42
HETATM   42  O5  UNL     1     -15.517  58.925 106.992  1.00  0.00    -0.344 OA
ATOM     43  H5  UNL     1     -15.490  58.300 106.278  1.00  0.00     0.219 HD
ENDBRANCH  32  42
BRANCH  34  44
HETATM   44  N6  UNL     1     -16.226  63.480 106.316  1.00  0.00    -0.382 N 
ATOM     45  H62 UNL     1     -16.082  64.398 106.737  1.00  0.00     0.157 HD
ATOM     46  H61 UNL     1     -17.026  63.299 105.710  1.00  0.00     0.157 HD
ENDBRANCH  34  44
ENDBRANCH  26  28
ENDBRANCH   1  24
TORSDOF 11
ENDMDL
MODEL 4
REMARK VINA RESULT: -9.453622143      2.435      5.005
REMARK  11 active torsions:
REMARK  status: ('A' for Active; 'I' for Inactive)
REMARK    1  A    between atoms: C2_2  and  N1_3 
REMARK    2  A    between atoms: C3_4  and  S1_5 
REMARK    3  A    between atoms: S1_5  and  C4_6 
REMARK    4  A    between atoms: C4_6  and  C5_7 
REMARK    5  A    between atoms: C5_7  and  C6_9 
REMARK       I    between atoms: C6_9  and  N2_11 
REMARK    6  A    between atoms: N2_11  and  C7_13 
REMARK    7  A    between atoms: C8_16  and  S2_17 
REMARK    8  A    between atoms: S2_17  and  N4_18 
REMARK    9  A    between atoms: C9_23  and  O5_24 
REMARK   10  A    between atoms: C10_28  and  N6_29 
REMARK   11  A    between atoms: C11_36  and  C12_37 
ROOT
HETATM    1  C5  UNL     1     -16.137  65.563 110.213  1.00  0.00     0.226 C 
HETATM    2  O1  UNL     1     -15.830  65.272 111.387  1.00  0.00    -0.286 OA
ENDROOT
BRANCH   1   3
HETATM    3  C4  UNL     1     -17.105  66.682 109.927  1.00  0.00     0.171 C 
BRANCH   3   4
HETATM    4  S1  UNL     1     -16.245  68.187 109.481  1.00  0.00    -0.084 SA
BRANCH   4   5
HETATM    5  C3  UNL     1     -15.175  68.041 108.092  1.00  0.00     0.163 A 
HETATM    6  N1  UNL     1     -13.812  67.754 108.052  1.00  0.00    -0.310 N 
HETATM    7  C11 UNL     1     -13.461  67.729 106.794  1.00  0.00     0.157 A 
HETATM    8  N8  UNL     1     -14.591  67.995 106.031  1.00  0.00    -0.281 N 
HETATM    9  N7  UNL     1     -15.573  68.174 106.830  1.00  0.00    -0.278 N 
ATOM     10  H8  UNL     1     -14.629  68.041 105.013  1.00  0.00     0.188 HD
ATOM     11  H7  UNL     1     -16.527  68.388 106.540  1.00  0.00     0.189 HD
BRANCH   6  12
HETATM   12  C2  UNL     1     -13.161  67.541 109.304  1.00  0.00     0.128 C 
HETATM   13  C1  UNL     1     -12.372  68.690 109.838  1.00  0.00     0.027 C 
ENDBRANCH   6  12
BRANCH   7  14
HETATM   14  C12 UNL     1     -12.181  67.469 106.139  1.00  0.00     0.147 A 
HETATM   15  N9  UNL     1     -12.122  66.537 105.098  1.00  0.00    -0.234 N 
HETATM   16  O6  UNL     1     -10.939  66.519 104.649  1.00  0.00    -0.155 OA
ATOM     17  H9  UNL     1     -12.899  65.970 104.759  1.00  0.00     0.197 HD
HETATM   18  N10 UNL     1     -10.175  67.331 105.261  1.00  0.00    -0.224 N 
HETATM   19  C13 UNL     1     -10.940  67.978 106.244  1.00  0.00     0.154 A 
ATOM     20  H10 UNL     1      -9.185  67.485 105.070  1.00  0.00     0.198 HD
HETATM   21  N11 UNL     1     -10.379  68.821 106.940  1.00  0.00    -0.382 N 
ATOM     22 2H11 UNL     1     -10.935  69.290 107.654  1.00  0.00     0.157 HD
ATOM     23 1H11 UNL     1      -9.439  69.206 107.020  1.00  0.00     0.157 HD
ENDBRANCH   7  14
ENDBRANCH   4   5
ENDBRANCH   3   4
ENDBRANCH   1   3
BRANCH   1  24
HETATM   24  C6  UNL     1     -15.584  64.839 109.075  1.00  0.00     0.293 C 
HETATM   25  O2  UNL     1     -16.332  64.764 108.033  1.00  0.00    -0.264 OA
HETATM   26  N2  UNL     1     -14.300  64.238 109.068  1.00  0.00    -0.303 N 
ATOM     27  H2  UNL     1     -13.703  64.304 109.892  1.00  0.00     0.171 HD
BRANCH  26  28
HETATM   28  C7  UNL     1     -13.846  63.547 107.924  1.00  0.00     0.154 A 
HETATM   29  N3  UNL     1     -14.602  62.655 107.263  1.00  0.00    -0.325 N 
HETATM   30  C8  UNL     1     -14.152  62.003 106.178  1.00  0.00     0.201 A 
ATOM     31  H3  UNL     1     -15.548  62.467 107.595  1.00  0.00     0.168 HD
HETATM   32  C9  UNL     1     -12.894  62.204 105.678  1.00  0.00     0.183 A 
HETATM   33  N5  UNL     1     -12.105  63.091 106.312  1.00  0.00    -0.318 N 
HETATM   34  C10 UNL     1     -12.552  63.763 107.419  1.00  0.00     0.146 A 
ATOM     35  H5  UNL     1     -11.163  63.266 105.963  1.00  0.00     0.169 HD
BRANCH  30  36
HETATM   36  S2  UNL     1     -15.181  60.847 105.338  1.00  0.00     0.276 S 
HETATM   37  O3  UNL     1     -15.365  61.282 103.933  1.00  0.00    -0.199 OA
HETATM   38  O4  UNL     1     -14.484  59.493 105.359  1.00  0.00    -0.199 OA
BRANCH  36  39
HETATM   39  N4  UNL     1     -16.715  60.743 106.158  1.00  0.00    -0.323 N 
ATOM     40  H42 UNL     1     -17.582  61.158 105.818  1.00  0.00     0.169 HD
ATOM     41  H41 UNL     1     -16.600  60.207 107.018  1.00  0.00     0.169 HD
ENDBRANCH  36  39
ENDBRANCH  30  36
BRANCH  32  42
HETATM   42  O5  UNL     1     -12.406  61.529 104.543  1.00  0.00    -0.344 OA
ATOM     43  H5  UNL     1     -11.617  61.793 104.085  1.00  0.00     0.219 HD
ENDBRANCH  32  42
BRANCH  34  44
HETATM   44  N6  UNL     1     -11.822  64.576 108.017  1.00  0.00    -0.382 N 
ATOM     45  H62 UNL     1     -11.471  64.379 108.955  1.00  0.00     0.157 HD
ATOM     46  H61 UNL     1     -11.594  65.450 107.543  1.00  0.00     0.157 HD
ENDBRANCH  34  44
ENDBRANCH  26  28
ENDBRANCH   1  24
TORSDOF 11
ENDMDL
MODEL 5
REMARK VINA RESULT: -9.353829973      2.672      5.157
REMARK  11 active torsions:
REMARK  status: ('A' for Active; 'I' for Inactive)
REMARK    1  A    between atoms: C2_2  and  N1_3 
REMARK    2  A    between atoms: C3_4  and  S1_5 
REMARK    3  A    between atoms: S1_5  and  C4_6 
REMARK    4  A    between atoms: C4_6  and  C5_7 
REMARK    5  A    between atoms: C5_7  and  C6_9 
REMARK       I    between atoms: C6_9  and  N2_11 
REMARK    6  A    between atoms: N2_11  and  C7_13 
REMARK    7  A    between atoms: C8_16  and  S2_17 
REMARK    8  A    between atoms: S2_17  and  N4_18 
REMARK    9  A    between atoms: C9_23  and  O5_24 
REMARK   10  A    between atoms: C10_28  and  N6_29 
REMARK   11  A    between atoms: C11_36  and  C12_37 
ROOT
HETATM    1  C5  UNL     1     -16.199  65.441 110.268  1.00  0.00     0.226 C 
HETATM    2  O1  UNL     1     -15.862  65.148 111.433  1.00  0.00    -0.286 OA
ENDROOT
BRANCH   1   3
HETATM    3  C4  UNL     1     -17.219  66.521 110.012  1.00  0.00     0.171 C 
BRANCH   3   4
HETATM    4  S1  UNL     1     -16.469  68.146 110.052  1.00  0.00    -0.084 SA
BRANCH   4   5
HETATM    5  C3  UNL     1     -14.768  68.184 109.605  1.00  0.00     0.163 A 
HETATM    6  N1  UNL     1     -14.188  68.324 108.346  1.00  0.00    -0.310 N 
HETATM    7  C11 UNL     1     -12.892  68.318 108.516  1.00  0.00     0.157 A 
HETATM    8  N8  UNL     1     -12.642  68.178 109.875  1.00  0.00    -0.281 N 
HETATM    9  N7  UNL     1     -13.768  68.101 110.477  1.00  0.00    -0.278 N 
ATOM     10  H8  UNL     1     -11.723  68.142 110.315  1.00  0.00     0.188 HD
ATOM     11  H7  UNL     1     -13.883  67.992 111.485  1.00  0.00     0.189 HD
BRANCH   6  12
HETATM   12  C2  UNL     1     -15.076  68.460 107.237  1.00  0.00     0.128 C 
HETATM   13  C1  UNL     1     -15.282  67.236 106.407  1.00  0.00     0.027 C 
ENDBRANCH   6  12
BRANCH   7  14
HETATM   14  C12 UNL     1     -11.780  68.443 107.578  1.00  0.00     0.147 A 
HETATM   15  N9  UNL     1     -11.807  67.714 106.385  1.00  0.00    -0.234 N 
HETATM   16  O6  UNL     1     -10.781  68.019 105.710  1.00  0.00    -0.155 OA
ATOM     17  H9  UNL     1     -12.530  67.051 106.107  1.00  0.00     0.197 HD
HETATM   18  N10 UNL     1     -10.049  68.875 106.301  1.00  0.00    -0.224 N 
HETATM   19  C13 UNL     1     -10.660  69.185 107.527  1.00  0.00     0.154 A 
ATOM     20  H10 UNL     1      -9.175  69.266 105.948  1.00  0.00     0.198 HD
HETATM   21  N11 UNL     1     -10.106  70.015 108.245  1.00  0.00    -0.382 N 
ATOM     22 2H11 UNL     1     -10.550  70.240 109.135  1.00  0.00     0.157 HD
ATOM     23 1H11 UNL     1      -9.257  70.577 108.207  1.00  0.00     0.157 HD
ENDBRANCH   7  14
ENDBRANCH   4   5
ENDBRANCH   3   4
ENDBRANCH   1   3
BRANCH   1  24
HETATM   24  C6  UNL     1     -15.632  64.758 109.112  1.00  0.00     0.293 C 
HETATM   25  O2  UNL     1     -16.402  64.635 108.091  1.00  0.00    -0.264 OA
HETATM   26  N2  UNL     1     -14.311  64.245 109.066  1.00  0.00    -0.303 N 
ATOM     27  H2  UNL     1     -13.696  64.349 109.872  1.00  0.00     0.171 HD
BRANCH  26  28
HETATM   28  C7  UNL     1     -13.844  63.589 107.906  1.00  0.00     0.154 A 
HETATM   29  N3  UNL     1     -14.574  62.678 107.241  1.00  0.00    -0.325 N 
HETATM   30  C8  UNL     1     -14.112  62.059 106.141  1.00  0.00     0.201 A 
ATOM     31  H3  UNL     1     -15.508  62.448 107.581  1.00  0.00     0.168 HD
HETATM   32  C9  UNL     1     -12.869  62.316 105.630  1.00  0.00     0.183 A 
HETATM   33  N5  UNL     1     -12.107  63.224 106.268  1.00  0.00    -0.318 N 
HETATM   34  C10 UNL     1     -12.566  63.861 107.389  1.00  0.00     0.146 A 
ATOM     35  H5  UNL     1     -11.176  63.440 105.911  1.00  0.00     0.169 HD
BRANCH  30  36
HETATM   36  S2  UNL     1     -15.106  60.876 105.296  1.00  0.00     0.276 S 
HETATM   37  O3  UNL     1     -15.280  61.298 103.886  1.00  0.00    -0.199 OA
HETATM   38  O4  UNL     1     -14.381  59.537 105.336  1.00  0.00    -0.199 OA
BRANCH  36  39
HETATM   39  N4  UNL     1     -16.648  60.747 106.097  1.00  0.00    -0.323 N 
ATOM     40  H42 UNL     1     -17.522  61.127 105.735  1.00  0.00     0.169 HD
ATOM     41  H41 UNL     1     -16.530  60.236 106.972  1.00  0.00     0.169 HD
ENDBRANCH  36  39
ENDBRANCH  30  36
BRANCH  32  42
HETATM   42  O5  UNL     1     -12.369  61.676 104.479  1.00  0.00    -0.344 OA
ATOM     43  H5  UNL     1     -11.458  61.424 104.384  1.00  0.00     0.219 HD
ENDBRANCH  32  42
BRANCH  34  44
HETATM   44  N6  UNL     1     -11.861  64.694 107.991  1.00  0.00    -0.382 N 
ATOM     45  H62 UNL     1     -12.212  65.628 108.203  1.00  0.00     0.157 HD
ATOM     46  H61 UNL     1     -10.916  64.415 108.257  1.00  0.00     0.157 HD
ENDBRANCH  34  44
ENDBRANCH  26  28
ENDBRANCH   1  24
TORSDOF 11
ENDMDL
