MODEL 1
REMARK VINA RESULT: -10.026466999      0.000      0.000
REMARK  14 active torsions:
REMARK  status: ('A' for Active; 'I' for Inactive)
REMARK    1  A    between atoms: N1_1  and  C1_4 
REMARK    2  A    between atoms: C2_7  and  N3_8 
REMARK    3  A    between atoms: N3_8  and  C3_10 
REMARK    4  A    between atoms: C3_10  and  C4_11 
REMARK    5  A    between atoms: C4_11  and  N4_12 
REMARK    6  A    between atoms: N4_12  and  O1_13 
REMARK    7  A    between atoms: N4_12  and  N5_15 
REMARK    8  A    between atoms: C6_19  and  N6_20 
REMARK    9  A    between atoms: N6_20  and  C7_22 
REMARK   10  A    between atoms: C7_22  and  N7_23 
REMARK   11  A    between atoms: N7_23  and  C8_25 
REMARK   12  A    between atoms: C11_28  and  N8_29 
REMARK   13  A    between atoms: C13_33  and  N9_34 
REMARK   14  A    between atoms: C14_39  and  N11_40 
ROOT
HETATM    1  C1  UNL     1     -11.832  64.076 104.453  1.00  0.00     0.679 A 
HETATM    2  N2  UNL     1     -12.309  65.166 105.075  1.00  0.00    -0.176 N 
ATOM      3  H2  UNL     1     -11.749  66.017 105.028  1.00  0.00     0.186 HD
HETATM    4  C2  UNL     1     -13.462  65.222 105.752  1.00  0.00     0.134 A 
HETATM    5  C5  UNL     1     -14.182  64.018 105.778  1.00  0.00     0.098 A 
HETATM    6  C6  UNL     1     -15.380  63.950 106.441  1.00  0.00     0.136 A 
HETATM    7  N10 UNL     1     -16.044  62.785 106.447  1.00  0.00    -0.176 N 
ATOM      8  H10 UNL     1     -16.934  62.740 106.941  1.00  0.00     0.186 HD
HETATM    9  C14 UNL     1     -15.597  61.669 105.834  1.00  0.00     0.679 A 
HETATM   10  N12 UNL     1     -14.426  61.733 105.185  1.00  0.00    -0.175 N 
ATOM     11  H12 UNL     1     -14.066  60.904 104.713  1.00  0.00     0.186 HD
HETATM   12  C15 UNL     1     -13.713  62.889 105.148  1.00  0.00     0.154 A 
HETATM   13  N13 UNL     1     -12.546  62.929 104.494  1.00  0.00    -0.175 N 
ATOM     14  H13 UNL     1     -12.196  62.094 104.025  1.00  0.00     0.186 HD
ENDROOT
BRANCH   6  15
HETATM   15  N6  UNL     1     -15.786  65.021 107.016  1.00  0.00    -0.359 N 
ATOM     16  H6  UNL     1     -15.591  65.936 106.609  1.00  0.00     0.162 HD
BRANCH  15  17
HETATM   17  C7  UNL     1     -16.525  64.910 108.251  1.00  0.00     0.245 C 
BRANCH  17  18
HETATM   18  N7  UNL     1     -15.639  64.696 109.385  1.00  0.00    -0.372 N 
ATOM     19  H7  UNL     1     -15.610  63.796 109.864  1.00  0.00     0.161 HD
BRANCH  18  20
HETATM   20  C8  UNL     1     -14.824  65.761 109.805  1.00  0.00     0.062 A 
HETATM   21  C9  UNL     1     -15.394  67.017 110.023  1.00  0.00     0.034 A 
HETATM   22  C10 UNL     1     -14.648  68.101 110.411  1.00  0.00     0.038 A 
HETATM   23  C11 UNL     1     -13.282  67.950 110.597  1.00  0.00     0.105 A 
HETATM   24  C12 UNL     1     -12.754  66.710 110.377  1.00  0.00     0.074 A 
HETATM   25  C13 UNL     1     -13.488  65.596 109.983  1.00  0.00     0.131 A 
BRANCH  23  26
HETATM   26  N8  UNL     1     -12.511  69.073 110.999  1.00  0.00    -0.116 N 
HETATM   27  O4  UNL     1     -12.803  69.717 112.022  1.00  0.00    -0.532 OA
HETATM   28  O5  UNL     1     -11.432  69.449 110.249  1.00  0.00    -0.532 OA
ENDBRANCH  23  26
BRANCH  25  29
HETATM   29  N9  UNL     1     -12.796  64.382 109.793  1.00  0.00    -0.113 N 
HETATM   30  O6  UNL     1     -12.801  63.683 108.782  1.00  0.00    -0.532 OA
HETATM   31  O7  UNL     1     -12.052  63.925 110.889  1.00  0.00    -0.532 OA
ENDBRANCH  25  29
ENDBRANCH  18  20
ENDBRANCH  17  18
ENDBRANCH  15  17
ENDBRANCH   6  15
BRANCH   4  32
HETATM   32  N3  UNL     1     -13.936  66.244 106.351  1.00  0.00    -0.373 N 
ATOM     33  H3  UNL     1     -14.444  66.058 107.215  1.00  0.00     0.161 HD
BRANCH  32  34
HETATM   34  C3  UNL     1     -13.846  67.600 105.968  1.00  0.00     0.145 C 
BRANCH  34  35
HETATM   35  C4  UNL     1     -15.158  68.194 105.503  1.00  0.00     0.202 C 
BRANCH  35  36
HETATM   36  N4  UNL     1     -15.728  67.552 104.376  1.00  0.00    -0.139 N 
BRANCH  36  37
HETATM   37  O1  UNL     1     -16.478  66.451 104.527  1.00  0.00    -0.268 OA
ATOM     38  H1  UNL     1     -16.111  65.592 104.358  1.00  0.00     0.246 HD
ENDBRANCH  36  37
BRANCH  36  39
HETATM   39  N5  UNL     1     -15.518  68.055 103.101  1.00  0.00    -0.016 N 
HETATM   40  O2  UNL     1     -14.677  68.971 102.969  1.00  0.00    -0.515 OA
HETATM   41  O3  UNL     1     -16.191  67.586 102.020  1.00  0.00    -0.515 OA
ENDBRANCH  36  39
ENDBRANCH  35  36
ENDBRANCH  34  35
ENDBRANCH  32  34
ENDBRANCH   4  32
BRANCH   9  42
HETATM   42  N11 UNL     1     -16.292  60.559 105.874  1.00  0.00    -0.234 N 
ATOM     43 2H11 UNL     1     -17.161  60.460 105.350  1.00  0.00     0.174 HD
ATOM     44 1H11 UNL     1     -15.977  59.766 106.434  1.00  0.00     0.174 HD
ENDBRANCH   9  42
BRANCH   1  45
HETATM   45  N1  UNL     1     -10.704  64.135 103.828  1.00  0.00    -0.234 N 
ATOM     46  H12 UNL     1     -10.248  65.029 103.651  1.00  0.00     0.174 HD
ATOM     47  H11 UNL     1     -10.258  63.277 103.504  1.00  0.00     0.174 HD
ENDBRANCH   1  45
TORSDOF 14
ENDMDL
MODEL 2
REMARK VINA RESULT: -9.838467302      2.005      2.346
REMARK  14 active torsions:
REMARK  status: ('A' for Active; 'I' for Inactive)
REMARK    1  A    between atoms: N1_1  and  C1_4 
REMARK    2  A    between atoms: C2_7  and  N3_8 
REMARK    3  A    between atoms: N3_8  and  C3_10 
REMARK    4  A    between atoms: C3_10  and  C4_11 
REMARK    5  A    between atoms: C4_11  and  N4_12 
REMARK    6  A    between atoms: N4_12  and  O1_13 
REMARK    7  A    between atoms: N4_12  and  N5_15 
REMARK    8  A    between atoms: C6_19  and  N6_20 
REMARK    9  A    between atoms: N6_20  and  C7_22 
REMARK   10  A    between atoms: C7_22  and  N7_23 
REMARK   11  A    between atoms: N7_23  and  C8_25 
REMARK   12  A    between atoms: C11_28  and  N8_29 
REMARK   13  A    between atoms: C13_33  and  N9_34 
REMARK   14  A    between atoms: C14_39  and  N11_40 
ROOT
HETATM    1  C1  UNL     1      -9.959  63.363 105.366  1.00  0.00     0.679 A 
HETATM    2  N2  UNL     1     -10.728  64.463 105.353  1.00  0.00    -0.176 N 
ATOM      3  H2  UNL     1     -10.297  65.335 105.048  1.00  0.00     0.186 HD
HETATM    4  C2  UNL     1     -12.018  64.504 105.710  1.00  0.00     0.134 A 
HETATM    5  C5  UNL     1     -12.548  63.272 106.118  1.00  0.00     0.098 A 
HETATM    6  C6  UNL     1     -13.860  63.186 106.508  1.00  0.00     0.136 A 
HETATM    7  N10 UNL     1     -14.337  61.993 106.893  1.00  0.00    -0.176 N 
ATOM      8  H10 UNL     1     -15.314  61.935 107.181  1.00  0.00     0.186 HD
HETATM    9  C14 UNL     1     -13.596  60.866 106.919  1.00  0.00     0.679 A 
HETATM   10  N12 UNL     1     -12.313  60.947 106.539  1.00  0.00    -0.175 N 
ATOM     11  H12 UNL     1     -11.731  60.110 106.549  1.00  0.00     0.186 HD
HETATM   12  C15 UNL     1     -11.779  62.132 106.140  1.00  0.00     0.154 A 
HETATM   13  N13 UNL     1     -10.496  62.189 105.764  1.00  0.00    -0.175 N 
ATOM     14  H13 UNL     1      -9.923  61.345 105.778  1.00  0.00     0.186 HD
ENDROOT
BRANCH   6  15
HETATM   15  N6  UNL     1     -14.547  64.268 106.476  1.00  0.00    -0.359 N 
ATOM     16  H6  UNL     1     -14.456  64.917 105.694  1.00  0.00     0.162 HD
BRANCH  15  17
HETATM   17  C7  UNL     1     -15.450  64.550 107.564  1.00  0.00     0.245 C 
BRANCH  17  18
HETATM   18  N7  UNL     1     -15.748  65.972 107.656  1.00  0.00    -0.372 N 
ATOM     19  H7  UNL     1     -16.511  66.383 107.117  1.00  0.00     0.161 HD
BRANCH  18  20
HETATM   20  C8  UNL     1     -14.958  66.765 108.506  1.00  0.00     0.062 A 
HETATM   21  C9  UNL     1     -13.726  67.240 108.053  1.00  0.00     0.034 A 
HETATM   22  C10 UNL     1     -12.900  68.000 108.841  1.00  0.00     0.038 A 
HETATM   23  C11 UNL     1     -13.298  68.311 110.134  1.00  0.00     0.105 A 
HETATM   24  C12 UNL     1     -14.507  67.833 110.547  1.00  0.00     0.074 A 
HETATM   25  C13 UNL     1     -15.362  67.061 109.767  1.00  0.00     0.131 A 
BRANCH  23  26
HETATM   26  N8  UNL     1     -12.441  69.097 110.949  1.00  0.00    -0.116 N 
HETATM   27  O4  UNL     1     -12.841  69.572 112.027  1.00  0.00    -0.532 OA
HETATM   28  O5  UNL     1     -11.158  69.333 110.542  1.00  0.00    -0.532 OA
ENDBRANCH  23  26
BRANCH  25  29
HETATM   29  N9  UNL     1     -16.581  66.640 110.340  1.00  0.00    -0.113 N 
HETATM   30  O6  UNL     1     -17.559  67.343 110.586  1.00  0.00    -0.532 OA
HETATM   31  O7  UNL     1     -16.660  65.283 110.682  1.00  0.00    -0.532 OA
ENDBRANCH  25  29
ENDBRANCH  18  20
ENDBRANCH  17  18
ENDBRANCH  15  17
ENDBRANCH   6  15
BRANCH   4  32
HETATM   32  N3  UNL     1     -12.769  65.535 105.707  1.00  0.00    -0.373 N 
ATOM     33  H3  UNL     1     -13.578  65.499 106.327  1.00  0.00     0.161 HD
BRANCH  32  34
HETATM   34  C3  UNL     1     -12.621  66.720 104.953  1.00  0.00     0.145 C 
BRANCH  34  35
HETATM   35  C4  UNL     1     -13.319  66.683 103.611  1.00  0.00     0.202 C 
BRANCH  35  36
HETATM   36  N4  UNL     1     -14.710  66.946 103.662  1.00  0.00    -0.139 N 
BRANCH  36  37
HETATM   37  O1  UNL     1     -15.502  66.257 104.496  1.00  0.00    -0.268 OA
ATOM     38  H1  UNL     1     -15.905  65.444 104.215  1.00  0.00     0.246 HD
ENDBRANCH  36  37
BRANCH  36  39
HETATM   39  N5  UNL     1     -15.270  67.921 102.851  1.00  0.00    -0.016 N 
HETATM   40  O2  UNL     1     -14.710  69.038 102.813  1.00  0.00    -0.515 OA
HETATM   41  O3  UNL     1     -16.387  67.693 102.115  1.00  0.00    -0.515 OA
ENDBRANCH  36  39
ENDBRANCH  35  36
ENDBRANCH  34  35
ENDBRANCH  32  34
ENDBRANCH   4  32
BRANCH   9  42
HETATM   42  N11 UNL     1     -14.119  59.729 107.305  1.00  0.00    -0.234 N 
ATOM     43 2H11 UNL     1     -13.729  59.206 108.089  1.00  0.00     0.174 HD
ATOM     44 1H11 UNL     1     -14.932  59.340 106.827  1.00  0.00     0.174 HD
ENDBRANCH   9  42
BRANCH   1  45
HETATM   45  N1  UNL     1      -8.724  63.439 105.001  1.00  0.00    -0.234 N 
ATOM     46  H12 UNL     1      -8.017  63.841 105.617  1.00  0.00     0.174 HD
ATOM     47  H11 UNL     1      -8.444  63.095 104.082  1.00  0.00     0.174 HD
ENDBRANCH   1  45
TORSDOF 14
ENDMDL
MODEL 3
REMARK VINA RESULT: -9.810688221      2.024      2.559
REMARK  14 active torsions:
REMARK  status: ('A' for Active; 'I' for Inactive)
REMARK    1  A    between atoms: N1_1  and  C1_4 
REMARK    2  A    between atoms: C2_7  and  N3_8 
REMARK    3  A    between atoms: N3_8  and  C3_10 
REMARK    4  A    between atoms: C3_10  and  C4_11 
REMARK    5  A    between atoms: C4_11  and  N4_12 
REMARK    6  A    between atoms: N4_12  and  O1_13 
REMARK    7  A    between atoms: N4_12  and  N5_15 
REMARK    8  A    between atoms: C6_19  and  N6_20 
REMARK    9  A    between atoms: N6_20  and  C7_22 
REMARK   10  A    between atoms: C7_22  and  N7_23 
REMARK   11  A    between atoms: N7_23  and  C8_25 
REMARK   12  A    between atoms: C11_28  and  N8_29 
REMARK   13  A    between atoms: C13_33  and  N9_34 
REMARK   14  A    between atoms: C14_39  and  N11_40 
ROOT
HETATM    1  C1  UNL     1     -10.075  63.347 105.440  1.00  0.00     0.679 A 
HETATM    2  N2  UNL     1     -10.823  64.446 105.624  1.00  0.00    -0.176 N 
ATOM      3  H2  UNL     1     -10.397  65.347 105.407  1.00  0.00     0.186 HD
HETATM    4  C2  UNL     1     -12.085  64.452 106.070  1.00  0.00     0.134 A 
HETATM    5  C5  UNL     1     -12.610  63.182 106.349  1.00  0.00     0.098 A 
HETATM    6  C6  UNL     1     -13.894  63.058 106.814  1.00  0.00     0.136 A 
HETATM    7  N10 UNL     1     -14.366  61.829 107.071  1.00  0.00    -0.176 N 
ATOM      8  H10 UNL     1     -15.322  61.743 107.415  1.00  0.00     0.186 HD
HETATM    9  C14 UNL     1     -13.646  60.702 106.899  1.00  0.00     0.679 A 
HETATM   10  N12 UNL     1     -12.390  60.820 106.445  1.00  0.00    -0.175 N 
ATOM     11  H12 UNL     1     -11.824  59.983 106.306  1.00  0.00     0.186 HD
HETATM   12  C15 UNL     1     -11.862  62.042 106.169  1.00  0.00     0.154 A 
HETATM   13  N13 UNL     1     -10.606  62.135 105.717  1.00  0.00    -0.175 N 
ATOM     14  H13 UNL     1     -10.049  61.291 105.581  1.00  0.00     0.186 HD
ENDROOT
BRANCH   6  15
HETATM   15  N6  UNL     1     -14.561  64.141 106.970  1.00  0.00    -0.359 N 
ATOM     16  H6  UNL     1     -14.416  64.935 106.346  1.00  0.00     0.162 HD
BRANCH  15  17
HETATM   17  C7  UNL     1     -15.521  64.217 108.044  1.00  0.00     0.245 C 
BRANCH  17  18
HETATM   18  N7  UNL     1     -15.950  65.588 108.281  1.00  0.00    -0.372 N 
ATOM     19  H7  UNL     1     -16.873  65.906 107.984  1.00  0.00     0.161 HD
BRANCH  18  20
HETATM   20  C8  UNL     1     -15.061  66.462 108.929  1.00  0.00     0.062 A 
HETATM   21  C9  UNL     1     -14.256  65.980 109.963  1.00  0.00     0.034 A 
HETATM   22  C10 UNL     1     -13.385  66.787 110.648  1.00  0.00     0.038 A 
HETATM   23  C11 UNL     1     -13.294  68.129 110.306  1.00  0.00     0.105 A 
HETATM   24  C12 UNL     1     -14.093  68.570 109.291  1.00  0.00     0.074 A 
HETATM   25  C13 UNL     1     -14.984  67.771 108.581  1.00  0.00     0.131 A 
BRANCH  23  26
HETATM   26  N8  UNL     1     -12.391  68.963 111.017  1.00  0.00    -0.116 N 
HETATM   27  O4  UNL     1     -12.750  69.567 112.043  1.00  0.00    -0.532 OA
HETATM   28  O5  UNL     1     -11.109  69.103 110.564  1.00  0.00    -0.532 OA
ENDBRANCH  23  26
BRANCH  25  29
HETATM   29  N9  UNL     1     -15.743  68.377 107.557  1.00  0.00    -0.113 N 
HETATM   30  O6  UNL     1     -15.814  68.017 106.384  1.00  0.00    -0.532 OA
HETATM   31  O7  UNL     1     -16.464  69.521 107.926  1.00  0.00    -0.532 OA
ENDBRANCH  25  29
ENDBRANCH  18  20
ENDBRANCH  17  18
ENDBRANCH  15  17
ENDBRANCH   6  15
BRANCH   4  32
HETATM   32  N3  UNL     1     -12.815  65.482 106.254  1.00  0.00    -0.373 N 
ATOM     33  H3  UNL     1     -13.618  65.355 106.870  1.00  0.00     0.161 HD
BRANCH  32  34
HETATM   34  C3  UNL     1     -12.652  66.775 105.710  1.00  0.00     0.145 C 
BRANCH  34  35
HETATM   35  C4  UNL     1     -12.897  66.848 104.219  1.00  0.00     0.202 C 
BRANCH  35  36
HETATM   36  N4  UNL     1     -14.261  66.785 103.842  1.00  0.00    -0.139 N 
BRANCH  36  37
HETATM   37  O1  UNL     1     -15.128  66.044 104.546  1.00  0.00    -0.268 OA
ATOM     38  H1  UNL     1     -16.064  66.154 104.427  1.00  0.00     0.246 HD
ENDBRANCH  36  37
BRANCH  36  39
HETATM   39  N5  UNL     1     -14.717  67.490 102.738  1.00  0.00    -0.016 N 
HETATM   40  O2  UNL     1     -14.736  68.738 102.814  1.00  0.00    -0.515 OA
HETATM   41  O3  UNL     1     -15.134  66.869 101.607  1.00  0.00    -0.515 OA
ENDBRANCH  36  39
ENDBRANCH  35  36
ENDBRANCH  34  35
ENDBRANCH  32  34
ENDBRANCH   4  32
BRANCH   9  42
HETATM   42  N11 UNL     1     -14.163  59.529 107.167  1.00  0.00    -0.234 N 
ATOM     43 2H11 UNL     1     -15.035  59.223 106.734  1.00  0.00     0.174 HD
ATOM     44 1H11 UNL     1     -13.704  58.893 107.820  1.00  0.00     0.174 HD
ENDBRANCH   9  42
BRANCH   1  45
HETATM   45  N1  UNL     1      -8.865  63.458 105.004  1.00  0.00    -0.234 N 
ATOM     46  H12 UNL     1      -8.603  64.213 104.370  1.00  0.00     0.174 HD
ATOM     47  H11 UNL     1      -8.157  62.784 105.295  1.00  0.00     0.174 HD
ENDBRANCH   1  45
TORSDOF 14
ENDMDL
MODEL 4
REMARK VINA RESULT: -9.635098714      2.240      2.941
REMARK  14 active torsions:
REMARK  status: ('A' for Active; 'I' for Inactive)
REMARK    1  A    between atoms: N1_1  and  C1_4 
REMARK    2  A    between atoms: C2_7  and  N3_8 
REMARK    3  A    between atoms: N3_8  and  C3_10 
REMARK    4  A    between atoms: C3_10  and  C4_11 
REMARK    5  A    between atoms: C4_11  and  N4_12 
REMARK    6  A    between atoms: N4_12  and  O1_13 
REMARK    7  A    between atoms: N4_12  and  N5_15 
REMARK    8  A    between atoms: C6_19  and  N6_20 
REMARK    9  A    between atoms: N6_20  and  C7_22 
REMARK   10  A    between atoms: C7_22  and  N7_23 
REMARK   11  A    between atoms: N7_23  and  C8_25 
REMARK   12  A    between atoms: C11_28  and  N8_29 
REMARK   13  A    between atoms: C13_33  and  N9_34 
REMARK   14  A    between atoms: C14_39  and  N11_40 
ROOT
HETATM    1  C1  UNL     1     -11.606  60.410 106.991  1.00  0.00     0.679 A 
HETATM    2  N2  UNL     1     -11.548  61.733 106.766  1.00  0.00    -0.176 N 
ATOM      3  H2  UNL     1     -10.628  62.171 106.770  1.00  0.00     0.186 HD
HETATM    4  C2  UNL     1     -12.606  62.520 106.535  1.00  0.00     0.134 A 
HETATM    5  C5  UNL     1     -13.840  61.855 106.543  1.00  0.00     0.098 A 
HETATM    6  C6  UNL     1     -14.998  62.555 106.319  1.00  0.00     0.136 A 
HETATM    7  N10 UNL     1     -16.162  61.889 106.333  1.00  0.00    -0.176 N 
ATOM      8  H10 UNL     1     -17.020  62.415 106.165  1.00  0.00     0.186 HD
HETATM    9  C14 UNL     1     -16.260  60.562 106.556  1.00  0.00     0.679 A 
HETATM   10  N12 UNL     1     -15.130  59.875 106.774  1.00  0.00    -0.175 N 
ATOM     11  H12 UNL     1     -15.177  58.871 106.944  1.00  0.00     0.186 HD
HETATM   12  C15 UNL     1     -13.924  60.501 106.772  1.00  0.00     0.154 A 
HETATM   13  N13 UNL     1     -12.809  59.795 106.992  1.00  0.00    -0.175 N 
ATOM     14  H13 UNL     1     -12.867  58.790 107.161  1.00  0.00     0.186 HD
ENDROOT
BRANCH   6  15
HETATM   15  N6  UNL     1     -14.883  63.814 106.110  1.00  0.00    -0.359 N 
ATOM     16  H6  UNL     1     -14.330  64.162 105.326  1.00  0.00     0.162 HD
BRANCH  15  17
HETATM   17  C7  UNL     1     -15.549  64.731 107.003  1.00  0.00     0.245 C 
BRANCH  17  18
HETATM   18  N7  UNL     1     -15.070  64.588 108.370  1.00  0.00    -0.372 N 
ATOM     19  H7  UNL     1     -15.175  63.706 108.872  1.00  0.00     0.161 HD
BRANCH  18  20
HETATM   20  C8  UNL     1     -14.459  65.696 108.981  1.00  0.00     0.062 A 
HETATM   21  C9  UNL     1     -13.162  66.057 108.608  1.00  0.00     0.034 A 
HETATM   22  C10 UNL     1     -12.505  67.114 109.183  1.00  0.00     0.038 A 
HETATM   23  C11 UNL     1     -13.144  67.855 110.167  1.00  0.00     0.105 A 
HETATM   24  C12 UNL     1     -14.410  67.478 110.509  1.00  0.00     0.074 A 
HETATM   25  C13 UNL     1     -15.099  66.410 109.941  1.00  0.00     0.131 A 
BRANCH  23  26
HETATM   26  N8  UNL     1     -12.461  68.949 110.761  1.00  0.00    -0.116 N 
HETATM   27  O4  UNL     1     -12.869  69.461 111.818  1.00  0.00    -0.532 OA
HETATM   28  O5  UNL     1     -11.337  69.444 110.161  1.00  0.00    -0.532 OA
ENDBRANCH  23  26
BRANCH  25  29
HETATM   29  N9  UNL     1     -16.405  66.145 110.404  1.00  0.00    -0.113 N 
HETATM   30  O6  UNL     1     -16.906  65.039 110.595  1.00  0.00    -0.532 OA
HETATM   31  O7  UNL     1     -17.209  67.268 110.641  1.00  0.00    -0.532 OA
ENDBRANCH  25  29
ENDBRANCH  18  20
ENDBRANCH  17  18
ENDBRANCH  15  17
ENDBRANCH   6  15
BRANCH   4  32
HETATM   32  N3  UNL     1     -12.578  63.777 106.319  1.00  0.00    -0.373 N 
ATOM     33  H3  UNL     1     -13.404  64.298 106.611  1.00  0.00     0.161 HD
BRANCH  32  34
HETATM   34  C3  UNL     1     -11.545  64.538 105.727  1.00  0.00     0.145 C 
BRANCH  34  35
HETATM   35  C4  UNL     1     -12.033  65.771 104.999  1.00  0.00     0.202 C 
BRANCH  35  36
HETATM   36  N4  UNL     1     -13.099  65.539 104.095  1.00  0.00    -0.139 N 
BRANCH  36  37
HETATM   37  O1  UNL     1     -13.278  64.326 103.552  1.00  0.00    -0.268 OA
ATOM     38  H1  UNL     1     -13.145  63.542 104.071  1.00  0.00     0.246 HD
ENDBRANCH  36  37
BRANCH  36  39
HETATM   39  N5  UNL     1     -13.971  66.563 103.760  1.00  0.00    -0.016 N 
HETATM   40  O2  UNL     1     -13.940  67.603 104.454  1.00  0.00    -0.515 OA
HETATM   41  O3  UNL     1     -14.837  66.463 102.721  1.00  0.00    -0.515 OA
ENDBRANCH  36  39
ENDBRANCH  35  36
ENDBRANCH  34  35
ENDBRANCH  32  34
ENDBRANCH   4  32
BRANCH   9  42
HETATM   42  N11 UNL     1     -17.428  59.967 106.556  1.00  0.00    -0.234 N 
ATOM     43 2H11 UNL     1     -18.210  60.338 107.095  1.00  0.00     0.174 HD
ATOM     44 1H11 UNL     1     -17.580  59.117 106.014  1.00  0.00     0.174 HD
ENDBRANCH   9  42
BRANCH   1  45
HETATM   45  N1  UNL     1     -10.519  59.748 107.202  1.00  0.00    -0.234 N 
ATOM     46  H12 UNL     1     -10.538  58.845 107.677  1.00  0.00     0.174 HD
ATOM     47  H11 UNL     1      -9.624  60.127 106.893  1.00  0.00     0.174 HD
ENDBRANCH   1  45
TORSDOF 14
ENDMDL
MODEL 5
REMARK VINA RESULT: -9.603924502      1.731      2.333
REMARK  14 active torsions:
REMARK  status: ('A' for Active; 'I' for Inactive)
REMARK    1  A    between atoms: N1_1  and  C1_4 
REMARK    2  A    between atoms: C2_7  and  N3_8 
REMARK    3  A    between atoms: N3_8  and  C3_10 
REMARK    4  A    between atoms: C3_10  and  C4_11 
REMARK    5  A    between atoms: C4_11  and  N4_12 
REMARK    6  A    between atoms: N4_12  and  O1_13 
REMARK    7  A    between atoms: N4_12  and  N5_15 
REMARK    8  A    between atoms: C6_19  and  N6_20 
REMARK    9  A    between atoms: N6_20  and  C7_22 
REMARK   10  A    between atoms: C7_22  and  N7_23 
REMARK   11  A    between atoms: N7_23  and  C8_25 
REMARK   12  A    between atoms: C11_28  and  N8_29 
REMARK   13  A    between atoms: C13_33  and  N9_34 
REMARK   14  A    between atoms: C14_39  and  N11_40 
ROOT
HETATM    1  C1  UNL     1     -12.277  64.037 104.107  1.00  0.00     0.679 A 
HETATM    2  N2  UNL     1     -13.029  64.969 104.716  1.00  0.00    -0.176 N 
ATOM      3  H2  UNL     1     -12.846  65.945 104.484  1.00  0.00     0.186 HD
HETATM    4  C2  UNL     1     -13.999  64.715 105.602  1.00  0.00     0.134 A 
HETATM    5  C5  UNL     1     -14.198  63.354 105.875  1.00  0.00     0.098 A 
HETATM    6  C6  UNL     1     -15.165  62.968 106.767  1.00  0.00     0.136 A 
HETATM    7  N10 UNL     1     -15.330  61.659 107.006  1.00  0.00    -0.176 N 
ATOM      8  H10 UNL     1     -16.051  61.377 107.670  1.00  0.00     0.186 HD
HETATM    9  C14 UNL     1     -14.595  60.694 106.415  1.00  0.00     0.679 A 
HETATM   10  N12 UNL     1     -13.649  61.068 105.542  1.00  0.00    -0.175 N 
ATOM     11  H12 UNL     1     -13.080  60.359 105.081  1.00  0.00     0.186 HD
HETATM   12  C15 UNL     1     -13.440  62.382 105.264  1.00  0.00     0.154 A 
HETATM   13  N13 UNL     1     -12.491  62.733 104.389  1.00  0.00    -0.175 N 
ATOM     14  H13 UNL     1     -11.927  62.014 103.933  1.00  0.00     0.186 HD
ENDROOT
BRANCH   6  15
HETATM   15  N6  UNL     1     -15.852  63.900 107.317  1.00  0.00    -0.359 N 
ATOM     16  H6  UNL     1     -16.380  64.561 106.748  1.00  0.00     0.162 HD
BRANCH  15  17
HETATM   17  C7  UNL     1     -15.864  63.997 108.757  1.00  0.00     0.245 C 
BRANCH  17  18
HETATM   18  N7  UNL     1     -16.367  65.289 109.201  1.00  0.00    -0.372 N 
ATOM     19  H7  UNL     1     -17.363  65.503 109.166  1.00  0.00     0.161 HD
BRANCH  18  20
HETATM   20  C8  UNL     1     -15.443  66.234 109.678  1.00  0.00     0.062 A 
HETATM   21  C9  UNL     1     -14.091  65.895 109.756  1.00  0.00     0.034 A 
HETATM   22  C10 UNL     1     -13.145  66.765 110.233  1.00  0.00     0.038 A 
HETATM   23  C11 UNL     1     -13.538  68.027 110.654  1.00  0.00     0.105 A 
HETATM   24  C12 UNL     1     -14.866  68.330 110.566  1.00  0.00     0.074 A 
HETATM   25  C13 UNL     1     -15.845  67.465 110.085  1.00  0.00     0.131 A 
BRANCH  23  26
HETATM   26  N8  UNL     1     -12.557  68.928 111.148  1.00  0.00    -0.116 N 
HETATM   27  O4  UNL     1     -12.817  69.710 112.079  1.00  0.00    -0.532 OA
HETATM   28  O5  UNL     1     -11.309  68.931 110.592  1.00  0.00    -0.532 OA
ENDBRANCH  23  26
BRANCH  25  29
HETATM   29  N9  UNL     1     -17.178  67.925 110.059  1.00  0.00    -0.113 N 
HETATM   30  O6  UNL     1     -18.167  67.336 110.489  1.00  0.00    -0.532 OA
HETATM   31  O7  UNL     1     -17.382  69.173 109.453  1.00  0.00    -0.532 OA
ENDBRANCH  25  29
ENDBRANCH  18  20
ENDBRANCH  17  18
ENDBRANCH  15  17
ENDBRANCH   6  15
BRANCH   4  32
HETATM   32  N3  UNL     1     -14.726  65.581 106.193  1.00  0.00    -0.373 N 
ATOM     33  H3  UNL     1     -15.566  65.223 106.647  1.00  0.00     0.161 HD
BRANCH  32  34
HETATM   34  C3  UNL     1     -14.513  66.974 106.298  1.00  0.00     0.145 C 
BRANCH  34  35
HETATM   35  C4  UNL     1     -15.512  67.806 105.524  1.00  0.00     0.202 C 
BRANCH  35  36
HETATM   36  N4  UNL     1     -15.891  67.259 104.273  1.00  0.00    -0.139 N 
BRANCH  36  37
HETATM   37  O1  UNL     1     -16.985  66.491 104.171  1.00  0.00    -0.268 OA
ATOM     38  H1  UNL     1     -17.107  65.925 103.418  1.00  0.00     0.246 HD
ENDBRANCH  36  37
BRANCH  36  39
HETATM   39  N5  UNL     1     -15.135  67.511 103.139  1.00  0.00    -0.016 N 
HETATM   40  O2  UNL     1     -14.763  66.529 102.459  1.00  0.00    -0.515 OA
HETATM   41  O3  UNL     1     -14.797  68.769 102.761  1.00  0.00    -0.515 OA
ENDBRANCH  36  39
ENDBRANCH  35  36
ENDBRANCH  34  35
ENDBRANCH  32  34
ENDBRANCH   4  32
BRANCH   9  42
HETATM   42  N11 UNL     1     -14.804  59.430 106.689  1.00  0.00    -0.234 N 
ATOM     43 2H11 UNL     1     -14.070  58.848 107.094  1.00  0.00     0.174 HD
ATOM     44 1H11 UNL     1     -15.709  58.998 106.502  1.00  0.00     0.174 HD
ENDBRANCH   9  42
BRANCH   1  45
HETATM   45  N1  UNL     1     -11.366  64.396 103.267  1.00  0.00    -0.234 N 
ATOM     46  H12 UNL     1     -10.783  63.704 102.797  1.00  0.00     0.174 HD
ATOM     47  H11 UNL     1     -11.221  65.386 103.067  1.00  0.00     0.174 HD
ENDBRANCH   1  45
TORSDOF 14
ENDMDL
