MODEL 1
REMARK VINA RESULT: -8.196100098      0.000      0.000
REMARK  8 active torsions:
REMARK  status: ('A' for Active; 'I' for Inactive)
REMARK    1  A    between atoms: C2_2  and  N3_8 
REMARK    2  A    between atoms: N1_3  and  N2_5 
REMARK    3  A    between atoms: N3_8  and  C3_10 
REMARK    4  A    between atoms: C6_14  and  C7_15 
REMARK    5  A    between atoms: C7_15  and  N4_16 
REMARK    6  A    between atoms: C7_15  and  C8_20 
REMARK       I    between atoms: C8_20  and  N5_22 
REMARK    7  A    between atoms: N5_22  and  C9_24 
REMARK    8  A    between atoms: C9_24  and  C10_25 
ROOT
HETATM    1  C3  UNL     1     -44.002   1.248  -1.834  1.00  0.00     0.116 C 
HETATM    2  C4  UNL     1     -45.184   2.193  -1.467  1.00  0.00     0.054 C 
HETATM    3  C5  UNL     1     -46.133   1.784  -2.594  1.00  0.00     0.170 C 
HETATM    4  O1  UNL     1     -45.716   0.541  -3.060  1.00  0.00    -0.381 OA
HETATM    5  C6  UNL     1     -44.867   0.041  -2.099  1.00  0.00     0.183 C 
ENDROOT
BRANCH   5   6
HETATM    6  C7  UNL     1     -44.178  -1.226  -2.395  1.00  0.00     0.305 C 
BRANCH   6   7
HETATM    7  N4  UNL     1     -42.834  -1.289  -1.902  1.00  0.00    -0.064 N 
ATOM      8  H43 UNL     1     -42.785  -1.876  -1.070  1.00  0.00     0.275 HD
ATOM      9  H42 UNL     1     -42.247  -1.835  -2.533  1.00  0.00     0.275 HD
ATOM     10  H41 UNL     1     -42.415  -0.377  -1.723  1.00  0.00     0.275 HD
ENDBRANCH   6   7
BRANCH   6  11
HETATM   11  C8  UNL     1     -44.121  -1.347  -3.893  1.00  0.00     0.251 C 
HETATM   12  O2  UNL     1     -43.170  -0.811  -4.494  1.00  0.00    -0.271 OA
HETATM   13  N5  UNL     1     -45.101  -2.042  -4.628  1.00  0.00    -0.351 N 
ATOM     14  H5  UNL     1     -45.878  -2.480  -4.133  1.00  0.00     0.163 HD
BRANCH  13  15
HETATM   15  C9  UNL     1     -45.031  -2.149  -6.067  1.00  0.00     0.222 C 
BRANCH  15  16
HETATM   16  C10 UNL     1     -46.261  -2.707  -6.654  1.00  0.00     0.248 C 
HETATM   17  N6  UNL     1     -47.524  -2.211  -6.272  1.00  0.00    -0.061 NA
HETATM   18  O3  UNL     1     -46.186  -3.625  -7.494  1.00  0.00    -0.275 OA
ENDBRANCH  15  16
ENDBRANCH  13  15
ENDBRANCH   6  11
ENDBRANCH   5   6
BRANCH   1  19
HETATM   19  N3  UNL     1     -43.400   1.825  -3.005  1.00  0.00    -0.372 N 
ATOM     20  H3  UNL     1     -43.617   1.489  -3.942  1.00  0.00     0.161 HD
BRANCH  19  21
HETATM   21  C2  UNL     1     -42.477   2.899  -2.784  1.00  0.00     0.087 C 
HETATM   22  C1  UNL     1     -41.190   2.916  -3.512  1.00  0.00     0.090 C 
HETATM   23  N1  UNL     1     -42.736   3.849  -1.970  1.00  0.00    -0.296 N 
ATOM     24  H1  UNL     1     -43.616   3.862  -1.454  1.00  0.00     0.187 HD
BRANCH  23  25
HETATM   25  N2  UNL     1     -41.803   4.867  -1.795  1.00  0.00    -0.344 N 
ATOM     26  H22 UNL     1     -41.390   5.016  -0.874  1.00  0.00     0.176 HD
ATOM     27  H21 UNL     1     -41.547   5.450  -2.592  1.00  0.00     0.176 HD
ENDBRANCH  23  25
ENDBRANCH  19  21
ENDBRANCH   1  19
TORSDOF 8
ENDMDL
MODEL 2
REMARK VINA RESULT: -8.065037144      1.287      1.375
REMARK  8 active torsions:
REMARK  status: ('A' for Active; 'I' for Inactive)
REMARK    1  A    between atoms: C2_2  and  N3_8 
REMARK    2  A    between atoms: N1_3  and  N2_5 
REMARK    3  A    between atoms: N3_8  and  C3_10 
REMARK    4  A    between atoms: C6_14  and  C7_15 
REMARK    5  A    between atoms: C7_15  and  N4_16 
REMARK    6  A    between atoms: C7_15  and  C8_20 
REMARK       I    between atoms: C8_20  and  N5_22 
REMARK    7  A    between atoms: N5_22  and  C9_24 
REMARK    8  A    between atoms: C9_24  and  C10_25 
ROOT
HETATM    1  C3  UNL     1     -44.065   1.530  -1.942  1.00  0.00     0.116 C 
HETATM    2  C4  UNL     1     -45.241   2.419  -1.437  1.00  0.00     0.054 C 
HETATM    3  C5  UNL     1     -46.312   1.912  -2.404  1.00  0.00     0.170 C 
HETATM    4  O1  UNL     1     -45.887   0.678  -2.887  1.00  0.00    -0.381 OA
HETATM    5  C6  UNL     1     -44.880   0.266  -2.044  1.00  0.00     0.183 C 
ENDROOT
BRANCH   5   6
HETATM    6  C7  UNL     1     -44.162  -0.970  -2.398  1.00  0.00     0.305 C 
BRANCH   6   7
HETATM    7  N4  UNL     1     -42.788  -0.982  -1.993  1.00  0.00    -0.064 N 
ATOM      8  H43 UNL     1     -42.467  -0.036  -1.788  1.00  0.00     0.275 HD
ATOM      9  H42 UNL     1     -42.691  -1.400  -1.067  1.00  0.00     0.275 HD
ATOM     10  H41 UNL     1     -42.163  -1.436  -2.658  1.00  0.00     0.275 HD
ENDBRANCH   6   7
BRANCH   6  11
HETATM   11  C8  UNL     1     -44.196  -1.074  -3.898  1.00  0.00     0.251 C 
HETATM   12  O2  UNL     1     -43.243  -0.602  -4.546  1.00  0.00    -0.271 OA
HETATM   13  N5  UNL     1     -45.264  -1.686  -4.583  1.00  0.00    -0.351 N 
ATOM     14  H5  UNL     1     -46.042  -2.073  -4.049  1.00  0.00     0.163 HD
BRANCH  13  15
HETATM   15  C9  UNL     1     -45.281  -1.779  -6.025  1.00  0.00     0.222 C 
BRANCH  15  16
HETATM   16  C10 UNL     1     -46.438  -2.539  -6.530  1.00  0.00     0.248 C 
HETATM   17  N6  UNL     1     -46.251  -3.622  -7.412  1.00  0.00    -0.061 NA
HETATM   18  O3  UNL     1     -47.590  -2.223  -6.175  1.00  0.00    -0.275 OA
ENDBRANCH  15  16
ENDBRANCH  13  15
ENDBRANCH   6  11
ENDBRANCH   5   6
BRANCH   1  19
HETATM   19  N3  UNL     1     -43.672   2.096  -3.204  1.00  0.00    -0.372 N 
ATOM     20  H3  UNL     1     -44.300   2.105  -4.007  1.00  0.00     0.161 HD
BRANCH  19  21
HETATM   21  C2  UNL     1     -42.351   2.647  -3.272  1.00  0.00     0.087 C 
HETATM   22  C1  UNL     1     -42.040   3.890  -2.532  1.00  0.00     0.090 C 
HETATM   23  N1  UNL     1     -41.428   2.092  -3.958  1.00  0.00    -0.296 N 
ATOM     24  H1  UNL     1     -41.615   1.235  -4.479  1.00  0.00     0.187 HD
BRANCH  23  25
HETATM   25  N2  UNL     1     -40.162   2.671  -3.988  1.00  0.00    -0.344 N 
ATOM     26  H22 UNL     1     -40.071   3.683  -3.900  1.00  0.00     0.176 HD
ATOM     27  H21 UNL     1     -39.343   2.072  -4.098  1.00  0.00     0.176 HD
ENDBRANCH  23  25
ENDBRANCH  19  21
ENDBRANCH   1  19
TORSDOF 8
ENDMDL
MODEL 3
REMARK VINA RESULT: -7.415960414      1.442      1.575
REMARK  8 active torsions:
REMARK  status: ('A' for Active; 'I' for Inactive)
REMARK    1  A    between atoms: C2_2  and  N3_8 
REMARK    2  A    between atoms: N1_3  and  N2_5 
REMARK    3  A    between atoms: N3_8  and  C3_10 
REMARK    4  A    between atoms: C6_14  and  C7_15 
REMARK    5  A    between atoms: C7_15  and  N4_16 
REMARK    6  A    between atoms: C7_15  and  C8_20 
REMARK       I    between atoms: C8_20  and  N5_22 
REMARK    7  A    between atoms: N5_22  and  C9_24 
REMARK    8  A    between atoms: C9_24  and  C10_25 
ROOT
HETATM    1  C3  UNL     1     -43.953   0.843  -1.740  1.00  0.00     0.116 C 
HETATM    2  C4  UNL     1     -45.256   1.686  -1.871  1.00  0.00     0.054 C 
HETATM    3  C5  UNL     1     -45.909   0.883  -2.997  1.00  0.00     0.170 C 
HETATM    4  O1  UNL     1     -45.306  -0.372  -3.017  1.00  0.00    -0.381 OA
HETATM    5  C6  UNL     1     -44.645  -0.495  -1.817  1.00  0.00     0.183 C 
ENDROOT
BRANCH   5   6
HETATM    6  C7  UNL     1     -43.813  -1.694  -1.621  1.00  0.00     0.305 C 
BRANCH   6   7
HETATM    7  N4  UNL     1     -42.459  -1.409  -1.248  1.00  0.00    -0.064 N 
ATOM      8  H43 UNL     1     -41.983  -0.896  -1.991  1.00  0.00     0.275 HD
ATOM      9  H42 UNL     1     -42.431  -0.706  -0.509  1.00  0.00     0.275 HD
ATOM     10  H41 UNL     1     -41.920  -2.232  -0.980  1.00  0.00     0.275 HD
ENDBRANCH   6   7
BRANCH   6  11
HETATM   11  C8  UNL     1     -43.781  -2.418  -2.939  1.00  0.00     0.251 C 
HETATM   12  O2  UNL     1     -44.303  -3.546  -3.007  1.00  0.00    -0.271 OA
HETATM   13  N5  UNL     1     -43.184  -1.860  -4.087  1.00  0.00    -0.351 N 
ATOM     14  H5  UNL     1     -42.758  -0.935  -4.028  1.00  0.00     0.163 HD
BRANCH  13  15
HETATM   15  C9  UNL     1     -43.162  -2.569  -5.345  1.00  0.00     0.222 C 
BRANCH  15  16
HETATM   16  C10 UNL     1     -44.277  -2.187  -6.229  1.00  0.00     0.248 C 
HETATM   17  N6  UNL     1     -44.235  -0.976  -6.949  1.00  0.00    -0.061 NA
HETATM   18  O3  UNL     1     -45.265  -2.939  -6.342  1.00  0.00    -0.275 OA
ENDBRANCH  15  16
ENDBRANCH  13  15
ENDBRANCH   6  11
ENDBRANCH   5   6
BRANCH   1  19
HETATM   19  N3  UNL     1     -43.162   1.179  -2.892  1.00  0.00    -0.372 N 
ATOM     20  H3  UNL     1     -43.139   0.583  -3.720  1.00  0.00     0.161 HD
BRANCH  19  21
HETATM   21  C2  UNL     1     -42.408   2.395  -2.816  1.00  0.00     0.087 C 
HETATM   22  C1  UNL     1     -41.139   2.514  -3.568  1.00  0.00     0.090 C 
HETATM   23  N1  UNL     1     -42.802   3.385  -2.112  1.00  0.00    -0.296 N 
ATOM     24  H1  UNL     1     -43.672   3.329  -1.582  1.00  0.00     0.187 HD
BRANCH  23  25
HETATM   25  N2  UNL     1     -42.028   4.542  -2.075  1.00  0.00    -0.344 N 
ATOM     26  H22 UNL     1     -42.481   5.443  -1.923  1.00  0.00     0.176 HD
ATOM     27  H21 UNL     1     -41.019   4.470  -2.201  1.00  0.00     0.176 HD
ENDBRANCH  23  25
ENDBRANCH  19  21
ENDBRANCH   1  19
TORSDOF 8
ENDMDL
MODEL 4
REMARK VINA RESULT: -7.156435067      2.264      6.579
REMARK  8 active torsions:
REMARK  status: ('A' for Active; 'I' for Inactive)
REMARK    1  A    between atoms: C2_2  and  N3_8 
REMARK    2  A    between atoms: N1_3  and  N2_5 
REMARK    3  A    between atoms: N3_8  and  C3_10 
REMARK    4  A    between atoms: C6_14  and  C7_15 
REMARK    5  A    between atoms: C7_15  and  N4_16 
REMARK    6  A    between atoms: C7_15  and  C8_20 
REMARK       I    between atoms: C8_20  and  N5_22 
REMARK    7  A    between atoms: N5_22  and  C9_24 
REMARK    8  A    between atoms: C9_24  and  C10_25 
ROOT
HETATM    1  C3  UNL     1     -44.756  -1.718  -3.125  1.00  0.00     0.116 C 
HETATM    2  C4  UNL     1     -43.984  -2.437  -1.979  1.00  0.00     0.054 C 
HETATM    3  C5  UNL     1     -42.764  -1.516  -1.943  1.00  0.00     0.170 C 
HETATM    4  O1  UNL     1     -43.127  -0.319  -2.553  1.00  0.00    -0.381 OA
HETATM    5  C6  UNL     1     -44.502  -0.324  -2.610  1.00  0.00     0.183 C 
ENDROOT
BRANCH   5   6
HETATM    6  C7  UNL     1     -45.155   0.785  -3.325  1.00  0.00     0.305 C 
BRANCH   6   7
HETATM    7  N4  UNL     1     -44.508   1.151  -4.550  1.00  0.00    -0.064 N 
ATOM      8  H43 UNL     1     -45.100   0.923  -5.349  1.00  0.00     0.275 HD
ATOM      9  H42 UNL     1     -44.472   2.166  -4.647  1.00  0.00     0.275 HD
ATOM     10  H41 UNL     1     -43.579   0.747  -4.665  1.00  0.00     0.275 HD
ENDBRANCH   6   7
BRANCH   6  11
HETATM   11  C8  UNL     1     -45.105   1.978  -2.410  1.00  0.00     0.251 C 
HETATM   12  O2  UNL     1     -46.177   2.422  -1.957  1.00  0.00    -0.271 OA
HETATM   13  N5  UNL     1     -43.892   2.599  -2.052  1.00  0.00    -0.351 N 
ATOM     14  H5  UNL     1     -43.016   2.232  -2.423  1.00  0.00     0.163 HD
BRANCH  13  15
HETATM   15  C9  UNL     1     -43.862   3.744  -1.171  1.00  0.00     0.222 C 
BRANCH  15  16
HETATM   16  C10 UNL     1     -42.657   4.571  -1.360  1.00  0.00     0.248 C 
HETATM   17  N6  UNL     1     -42.141   5.335  -0.294  1.00  0.00    -0.061 NA
HETATM   18  O3  UNL     1     -42.091   4.597  -2.470  1.00  0.00    -0.275 OA
ENDBRANCH  15  16
ENDBRANCH  13  15
ENDBRANCH   6  11
ENDBRANCH   5   6
BRANCH   1  19
HETATM   19  N3  UNL     1     -44.049  -2.052  -4.331  1.00  0.00    -0.372 N 
ATOM     20  H3  UNL     1     -43.034  -2.143  -4.351  1.00  0.00     0.161 HD
BRANCH  19  21
HETATM   21  C2  UNL     1     -44.848  -2.252  -5.504  1.00  0.00     0.087 C 
HETATM   22  C1  UNL     1     -44.577  -1.447  -6.716  1.00  0.00     0.090 C 
HETATM   23  N1  UNL     1     -45.793  -3.110  -5.534  1.00  0.00    -0.296 N 
ATOM     24  H1  UNL     1     -46.002  -3.678  -4.712  1.00  0.00     0.187 HD
BRANCH  23  25
HETATM   25  N2  UNL     1     -46.537  -3.261  -6.701  1.00  0.00    -0.344 N 
ATOM     26  H22 UNL     1     -46.531  -4.158  -7.187  1.00  0.00     0.176 HD
ATOM     27  H21 UNL     1     -47.077  -2.471  -7.053  1.00  0.00     0.176 HD
ENDBRANCH  23  25
ENDBRANCH  19  21
ENDBRANCH   1  19
TORSDOF 8
ENDMDL
MODEL 5
REMARK VINA RESULT: -7.074782623      2.011      2.825
REMARK  8 active torsions:
REMARK  status: ('A' for Active; 'I' for Inactive)
REMARK    1  A    between atoms: C2_2  and  N3_8 
REMARK    2  A    between atoms: N1_3  and  N2_5 
REMARK    3  A    between atoms: N3_8  and  C3_10 
REMARK    4  A    between atoms: C6_14  and  C7_15 
REMARK    5  A    between atoms: C7_15  and  N4_16 
REMARK    6  A    between atoms: C7_15  and  C8_20 
REMARK       I    between atoms: C8_20  and  N5_22 
REMARK    7  A    between atoms: N5_22  and  C9_24 
REMARK    8  A    between atoms: C9_24  and  C10_25 
ROOT
HETATM    1  C3  UNL     1     -43.240  -0.265  -2.095  1.00  0.00     0.116 C 
HETATM    2  C4  UNL     1     -42.992  -1.484  -1.158  1.00  0.00     0.054 C 
HETATM    3  C5  UNL     1     -43.940  -2.467  -1.845  1.00  0.00     0.170 C 
HETATM    4  O1  UNL     1     -44.168  -1.995  -3.135  1.00  0.00    -0.381 OA
HETATM    5  C6  UNL     1     -43.188  -1.060  -3.375  1.00  0.00     0.183 C 
ENDROOT
BRANCH   5   6
HETATM    6  C7  UNL     1     -43.264  -0.306  -4.637  1.00  0.00     0.305 C 
BRANCH   6   7
HETATM    7  N4  UNL     1     -44.090   0.863  -4.569  1.00  0.00    -0.064 N 
ATOM      8  H43 UNL     1     -44.740   0.889  -5.355  1.00  0.00     0.275 HD
ATOM      9  H42 UNL     1     -44.755   0.787  -3.799  1.00  0.00     0.275 HD
ATOM     10  H41 UNL     1     -43.568   1.737  -4.506  1.00  0.00     0.275 HD
ENDBRANCH   6   7
BRANCH   6  11
HETATM   11  C8  UNL     1     -43.867  -1.232  -5.657  1.00  0.00     0.251 C 
HETATM   12  O2  UNL     1     -43.205  -2.221  -6.024  1.00  0.00    -0.271 OA
HETATM   13  N5  UNL     1     -45.148  -1.016  -6.202  1.00  0.00    -0.351 N 
ATOM     14  H5  UNL     1     -45.689  -0.206  -5.898  1.00  0.00     0.163 HD
BRANCH  13  15
HETATM   15  C9  UNL     1     -45.714  -1.916  -7.181  1.00  0.00     0.222 C 
BRANCH  15  16
HETATM   16  C10 UNL     1     -46.818  -2.724  -6.636  1.00  0.00     0.248 C 
HETATM   17  N6  UNL     1     -46.776  -4.131  -6.704  1.00  0.00    -0.061 NA
HETATM   18  O3  UNL     1     -47.798  -2.160  -6.110  1.00  0.00    -0.275 OA
ENDBRANCH  15  16
ENDBRANCH  13  15
ENDBRANCH   6  11
ENDBRANCH   5   6
BRANCH   1  19
HETATM   19  N3  UNL     1     -44.544   0.228  -1.745  1.00  0.00    -0.372 N 
ATOM     20  H3  UNL     1     -45.312  -0.401  -1.513  1.00  0.00     0.161 HD
BRANCH  19  21
HETATM   21  C2  UNL     1     -44.708   1.652  -1.740  1.00  0.00     0.087 C 
HETATM   22  C1  UNL     1     -46.017   2.236  -2.104  1.00  0.00     0.090 C 
HETATM   23  N1  UNL     1     -43.749   2.436  -1.428  1.00  0.00    -0.296 N 
ATOM     24  H1  UNL     1     -42.836   2.060  -1.173  1.00  0.00     0.187 HD
BRANCH  23  25
HETATM   25  N2  UNL     1     -43.965   3.811  -1.439  1.00  0.00    -0.344 N 
ATOM     26  H22 UNL     1     -43.166   4.445  -1.476  1.00  0.00     0.176 HD
ATOM     27  H21 UNL     1     -44.922   4.165  -1.410  1.00  0.00     0.176 HD
ENDBRANCH  23  25
ENDBRANCH  19  21
ENDBRANCH   1  19
TORSDOF 8
ENDMDL
