MODEL 1
REMARK VINA RESULT: -7.205927005      0.000      0.000
REMARK  7 active torsions:
REMARK  status: ('A' for Active; 'I' for Inactive)
REMARK       I    between atoms: N1_2  and  C2_4 
REMARK    1  A    between atoms: C2_4  and  C3_6 
REMARK    2  A    between atoms: C3_6  and  N2_7 
REMARK       I    between atoms: N2_7  and  C4_9 
REMARK    3  A    between atoms: C4_9  and  C5_11 
REMARK    4  A    between atoms: C5_11  and  N3_12 
REMARK       I    between atoms: N3_12  and  C6_14 
REMARK    5  A    between atoms: C6_14  and  C7_16 
REMARK    6  A    between atoms: C7_16  and  N4_17 
REMARK    7  A    between atoms: N5_24  and  N6_25 
ROOT
HETATM    1  N2  UNL     1     -44.798  -0.064  -3.572  1.00  0.00    -0.328 N 
ATOM      2  H2  UNL     1     -45.748   0.077  -3.231  1.00  0.00     0.165 HD
HETATM    3  C4  UNL     1     -43.930   1.047  -3.665  1.00  0.00     0.237 C 
HETATM    4  O2  UNL     1     -42.753   0.852  -4.087  1.00  0.00    -0.272 OA
ENDROOT
BRANCH   1   5
HETATM    5  C3  UNL     1     -44.381  -1.386  -3.941  1.00  0.00     0.189 C 
HETATM    6  C8  UNL     1     -42.928  -1.662  -3.591  1.00  0.00     0.081 C 
HETATM    7  C9  UNL     1     -43.494  -2.359  -2.403  1.00  0.00     0.082 C 
HETATM    8  C10 UNL     1     -43.384  -1.663  -1.084  1.00  0.00     0.028 C 
HETATM    9  N5  UNL     1     -44.768  -2.436  -3.015  1.00  0.00    -0.196 NA
BRANCH   5  10
HETATM   10  C2  UNL     1     -44.756  -1.823  -5.312  1.00  0.00     0.262 C 
HETATM   11  N1  UNL     1     -46.034  -2.357  -5.607  1.00  0.00    -0.362 N 
HETATM   12  C1  UNL     1     -46.447  -2.792  -6.905  1.00  0.00     0.149 C 
ATOM     13  H1  UNL     1     -46.705  -2.436  -4.842  1.00  0.00     0.162 HD
HETATM   14  O1  UNL     1     -43.945  -1.731  -6.263  1.00  0.00    -0.269 OA
ENDBRANCH   5  10
BRANCH   9  15
HETATM   15  N6  UNL     1     -45.884  -2.174  -2.245  1.00  0.00    -0.360 NA
ATOM     16  H62 UNL     1     -46.805  -2.350  -2.648  1.00  0.00     0.171 HD
ATOM     17  H61 UNL     1     -46.082  -2.851  -1.508  1.00  0.00     0.171 HD
ENDBRANCH   9  15
ENDBRANCH   1   5
BRANCH   3  18
HETATM   18  C5  UNL     1     -44.368   2.413  -3.284  1.00  0.00     0.225 C 
BRANCH  18  19
HETATM   19  N3  UNL     1     -43.234   3.260  -3.024  1.00  0.00    -0.351 N 
HETATM   20  C6  UNL     1     -43.011   3.938  -1.807  1.00  0.00     0.243 C 
HETATM   21  O3  UNL     1     -43.794   3.859  -0.822  1.00  0.00    -0.272 OA
ATOM     22  H3  UNL     1     -42.548   3.377  -3.768  1.00  0.00     0.163 HD
BRANCH  20  23
HETATM   23  C7  UNL     1     -41.801   4.794  -1.654  1.00  0.00     0.332 C 
BRANCH  23  24
HETATM   24  N4  UNL     1     -41.708   5.392  -0.343  1.00  0.00    -0.071 N 
ATOM     25  H43 UNL     1     -42.622   5.711  -0.019  1.00  0.00     0.274 HD
ATOM     26  H42 UNL     1     -41.518   4.688   0.369  1.00  0.00     0.274 HD
ATOM     27  H41 UNL     1     -41.022   6.146  -0.305  1.00  0.00     0.274 HD
ENDBRANCH  23  24
ENDBRANCH  20  23
ENDBRANCH  18  19
ENDBRANCH   3  18
TORSDOF 7
ENDMDL
MODEL 2
REMARK VINA RESULT: -7.080142698      1.324      1.361
REMARK  7 active torsions:
REMARK  status: ('A' for Active; 'I' for Inactive)
REMARK       I    between atoms: N1_2  and  C2_4 
REMARK    1  A    between atoms: C2_4  and  C3_6 
REMARK    2  A    between atoms: C3_6  and  N2_7 
REMARK       I    between atoms: N2_7  and  C4_9 
REMARK    3  A    between atoms: C4_9  and  C5_11 
REMARK    4  A    between atoms: C5_11  and  N3_12 
REMARK       I    between atoms: N3_12  and  C6_14 
REMARK    5  A    between atoms: C6_14  and  C7_16 
REMARK    6  A    between atoms: C7_16  and  N4_17 
REMARK    7  A    between atoms: N5_24  and  N6_25 
ROOT
HETATM    1  N2  UNL     1     -44.031  -0.013  -3.439  1.00  0.00    -0.328 N 
ATOM      2  H2  UNL     1     -43.111   0.377  -3.238  1.00  0.00     0.165 HD
HETATM    3  C4  UNL     1     -45.171   0.808  -3.290  1.00  0.00     0.237 C 
HETATM    4  O2  UNL     1     -46.305   0.307  -3.547  1.00  0.00    -0.272 OA
ENDROOT
BRANCH   1   5
HETATM    5  C3  UNL     1     -44.129  -1.379  -3.864  1.00  0.00     0.189 C 
HETATM    6  C8  UNL     1     -42.844  -2.159  -3.635  1.00  0.00     0.081 C 
HETATM    7  C9  UNL     1     -43.535  -2.667  -2.418  1.00  0.00     0.082 C 
HETATM    8  C10 UNL     1     -43.099  -2.112  -1.100  1.00  0.00     0.028 C 
HETATM    9  N5  UNL     1     -44.795  -2.269  -2.929  1.00  0.00    -0.196 NA
BRANCH   5  10
HETATM   10  C2  UNL     1     -44.726  -1.598  -5.208  1.00  0.00     0.262 C 
HETATM   11  N1  UNL     1     -46.053  -2.063  -5.373  1.00  0.00    -0.362 N 
HETATM   12  C1  UNL     1     -46.676  -2.290  -6.640  1.00  0.00     0.149 C 
ATOM     13  H1  UNL     1     -46.601  -2.249  -4.533  1.00  0.00     0.162 HD
HETATM   14  O1  UNL     1     -44.068  -1.373  -6.250  1.00  0.00    -0.269 OA
ENDBRANCH   5  10
BRANCH   9  15
HETATM   15  N6  UNL     1     -45.693  -1.670  -2.067  1.00  0.00    -0.360 NA
ATOM     16  H62 UNL     1     -46.543  -1.262  -2.459  1.00  0.00     0.171 HD
ATOM     17  H61 UNL     1     -46.262  -2.306  -1.507  1.00  0.00     0.171 HD
ENDBRANCH   9  15
ENDBRANCH   1   5
BRANCH   3  18
HETATM   18  C5  UNL     1     -45.065   2.220  -2.847  1.00  0.00     0.225 C 
BRANCH  18  19
HETATM   19  N3  UNL     1     -43.728   2.716  -3.036  1.00  0.00    -0.351 N 
HETATM   20  C6  UNL     1     -43.078   3.606  -2.154  1.00  0.00     0.243 C 
HETATM   21  O3  UNL     1     -43.616   4.050  -1.104  1.00  0.00    -0.272 OA
ATOM     22  H3  UNL     1     -43.217   2.405  -3.861  1.00  0.00     0.163 HD
BRANCH  20  23
HETATM   23  C7  UNL     1     -41.691   4.057  -2.456  1.00  0.00     0.332 C 
BRANCH  23  24
HETATM   24  N4  UNL     1     -41.126   3.380  -3.601  1.00  0.00    -0.071 N 
ATOM     25  H43 UNL     1     -40.249   2.919  -3.358  1.00  0.00     0.274 HD
ATOM     26  H42 UNL     1     -41.678   2.561  -3.852  1.00  0.00     0.274 HD
ATOM     27  H41 UNL     1     -41.004   4.000  -4.401  1.00  0.00     0.274 HD
ENDBRANCH  23  24
ENDBRANCH  20  23
ENDBRANCH  18  19
ENDBRANCH   3  18
TORSDOF 7
ENDMDL
MODEL 3
REMARK VINA RESULT: -6.576710191      1.682      1.785
REMARK  7 active torsions:
REMARK  status: ('A' for Active; 'I' for Inactive)
REMARK       I    between atoms: N1_2  and  C2_4 
REMARK    1  A    between atoms: C2_4  and  C3_6 
REMARK    2  A    between atoms: C3_6  and  N2_7 
REMARK       I    between atoms: N2_7  and  C4_9 
REMARK    3  A    between atoms: C4_9  and  C5_11 
REMARK    4  A    between atoms: C5_11  and  N3_12 
REMARK       I    between atoms: N3_12  and  C6_14 
REMARK    5  A    between atoms: C6_14  and  C7_16 
REMARK    6  A    between atoms: C7_16  and  N4_17 
REMARK    7  A    between atoms: N5_24  and  N6_25 
ROOT
HETATM    1  N2  UNL     1     -44.551  -0.209  -3.751  1.00  0.00    -0.328 N 
ATOM      2  H2  UNL     1     -45.436   0.160  -3.404  1.00  0.00     0.165 HD
HETATM    3  C4  UNL     1     -43.475   0.681  -3.966  1.00  0.00     0.237 C 
HETATM    4  O2  UNL     1     -42.383   0.206  -4.394  1.00  0.00    -0.272 OA
ENDROOT
BRANCH   1   5
HETATM    5  C3  UNL     1     -44.435  -1.615  -4.006  1.00  0.00     0.189 C 
HETATM    6  C8  UNL     1     -43.051  -2.157  -3.691  1.00  0.00     0.081 C 
HETATM    7  C9  UNL     1     -43.673  -2.614  -2.418  1.00  0.00     0.082 C 
HETATM    8  C10 UNL     1     -43.344  -1.843  -1.179  1.00  0.00     0.028 C 
HETATM    9  N5  UNL     1     -44.971  -2.476  -2.966  1.00  0.00    -0.196 NA
BRANCH   5  10
HETATM   10  C2  UNL     1     -44.974  -2.083  -5.310  1.00  0.00     0.262 C 
HETATM   11  N1  UNL     1     -46.347  -1.966  -5.641  1.00  0.00    -0.362 N 
HETATM   12  C1  UNL     1     -46.917  -2.398  -6.879  1.00  0.00     0.149 C 
ATOM     13  H1  UNL     1     -46.969  -1.546  -4.951  1.00  0.00     0.162 HD
HETATM   14  O1  UNL     1     -44.224  -2.600  -6.171  1.00  0.00    -0.269 OA
ENDBRANCH   5  10
BRANCH   9  15
HETATM   15  N6  UNL     1     -45.962  -1.921  -2.180  1.00  0.00    -0.360 NA
ATOM     16  H62 UNL     1     -45.721  -1.129  -1.583  1.00  0.00     0.171 HD
ATOM     17  H61 UNL     1     -46.643  -1.340  -2.669  1.00  0.00     0.171 HD
ENDBRANCH   9  15
ENDBRANCH   1   5
BRANCH   3  18
HETATM   18  C5  UNL     1     -43.601   2.137  -3.703  1.00  0.00     0.225 C 
BRANCH  18  19
HETATM   19  N3  UNL     1     -44.000   2.379  -2.343  1.00  0.00    -0.351 N 
HETATM   20  C6  UNL     1     -45.340   2.387  -1.897  1.00  0.00     0.243 C 
HETATM   21  O3  UNL     1     -46.320   2.177  -2.661  1.00  0.00    -0.272 OA
ATOM     22  H3  UNL     1     -43.268   2.555  -1.656  1.00  0.00     0.163 HD
BRANCH  20  23
HETATM   23  C7  UNL     1     -45.634   2.655  -0.462  1.00  0.00     0.332 C 
BRANCH  23  24
HETATM   24  N4  UNL     1     -44.460   3.056   0.279  1.00  0.00    -0.071 N 
ATOM     25  H43 UNL     1     -44.696   3.737   1.001  1.00  0.00     0.274 HD
ATOM     26  H42 UNL     1     -44.124   2.298   0.872  1.00  0.00     0.274 HD
ATOM     27  H41 UNL     1     -43.716   3.406  -0.326  1.00  0.00     0.274 HD
ENDBRANCH  23  24
ENDBRANCH  20  23
ENDBRANCH  18  19
ENDBRANCH   3  18
TORSDOF 7
ENDMDL
MODEL 4
REMARK VINA RESULT: -6.553110038      1.306      1.353
REMARK  7 active torsions:
REMARK  status: ('A' for Active; 'I' for Inactive)
REMARK       I    between atoms: N1_2  and  C2_4 
REMARK    1  A    between atoms: C2_4  and  C3_6 
REMARK    2  A    between atoms: C3_6  and  N2_7 
REMARK       I    between atoms: N2_7  and  C4_9 
REMARK    3  A    between atoms: C4_9  and  C5_11 
REMARK    4  A    between atoms: C5_11  and  N3_12 
REMARK       I    between atoms: N3_12  and  C6_14 
REMARK    5  A    between atoms: C6_14  and  C7_16 
REMARK    6  A    between atoms: C7_16  and  N4_17 
REMARK    7  A    between atoms: N5_24  and  N6_25 
ROOT
HETATM    1  N2  UNL     1     -42.764  -0.193  -3.428  1.00  0.00    -0.328 N 
ATOM      2  H2  UNL     1     -41.825  -0.312  -3.048  1.00  0.00     0.165 HD
HETATM    3  C4  UNL     1     -43.204   1.104  -3.774  1.00  0.00     0.237 C 
HETATM    4  O2  UNL     1     -44.371   1.232  -4.247  1.00  0.00    -0.272 OA
ENDROOT
BRANCH   1   5
HETATM    5  C3  UNL     1     -43.599  -1.347  -3.593  1.00  0.00     0.189 C 
HETATM    6  C8  UNL     1     -42.968  -2.612  -3.035  1.00  0.00     0.081 C 
HETATM    7  C9  UNL     1     -43.844  -2.361  -1.858  1.00  0.00     0.082 C 
HETATM    8  C10 UNL     1     -43.193  -1.830  -0.620  1.00  0.00     0.028 C 
HETATM    9  N5  UNL     1     -44.661  -1.486  -2.613  1.00  0.00    -0.196 NA
BRANCH   5  10
HETATM   10  C2  UNL     1     -44.196  -1.526  -4.943  1.00  0.00     0.262 C 
HETATM   11  N1  UNL     1     -45.597  -1.564  -5.146  1.00  0.00    -0.362 N 
HETATM   12  C1  UNL     1     -46.224  -1.733  -6.419  1.00  0.00     0.149 C 
ATOM     13  H1  UNL     1     -46.200  -1.465  -4.328  1.00  0.00     0.162 HD
HETATM   14  O1  UNL     1     -43.471  -1.648  -5.958  1.00  0.00    -0.269 OA
ENDBRANCH   5  10
BRANCH   9  15
HETATM   15  N6  UNL     1     -45.088  -0.312  -2.022  1.00  0.00    -0.360 NA
ATOM     16  H62 UNL     1     -44.682   0.568  -2.341  1.00  0.00     0.171 HD
ATOM     17  H61 UNL     1     -46.012   0.016  -2.305  1.00  0.00     0.171 HD
ENDBRANCH   9  15
ENDBRANCH   1   5
BRANCH   3  18
HETATM   18  C5  UNL     1     -42.337   2.296  -3.598  1.00  0.00     0.225 C 
BRANCH  18  19
HETATM   19  N3  UNL     1     -42.528   2.880  -2.297  1.00  0.00    -0.351 N 
HETATM   20  C6  UNL     1     -42.478   4.265  -2.032  1.00  0.00     0.243 C 
HETATM   21  O3  UNL     1     -42.262   5.129  -2.924  1.00  0.00    -0.272 OA
ATOM     22  H3  UNL     1     -42.711   2.251  -1.516  1.00  0.00     0.163 HD
BRANCH  20  23
HETATM   23  C7  UNL     1     -42.685   4.754  -0.641  1.00  0.00     0.332 C 
BRANCH  23  24
HETATM   24  N4  UNL     1     -41.522   5.427  -0.111  1.00  0.00    -0.071 N 
ATOM     25  H43 UNL     1     -40.973   5.854  -0.858  1.00  0.00     0.274 HD
ATOM     26  H42 UNL     1     -41.787   6.270   0.399  1.00  0.00     0.274 HD
ATOM     27  H41 UNL     1     -40.945   4.816   0.466  1.00  0.00     0.274 HD
ENDBRANCH  23  24
ENDBRANCH  20  23
ENDBRANCH  18  19
ENDBRANCH   3  18
TORSDOF 7
ENDMDL
MODEL 5
REMARK VINA RESULT: -6.462941025      1.283      1.306
REMARK  7 active torsions:
REMARK  status: ('A' for Active; 'I' for Inactive)
REMARK       I    between atoms: N1_2  and  C2_4 
REMARK    1  A    between atoms: C2_4  and  C3_6 
REMARK    2  A    between atoms: C3_6  and  N2_7 
REMARK       I    between atoms: N2_7  and  C4_9 
REMARK    3  A    between atoms: C4_9  and  C5_11 
REMARK    4  A    between atoms: C5_11  and  N3_12 
REMARK       I    between atoms: N3_12  and  C6_14 
REMARK    5  A    between atoms: C6_14  and  C7_16 
REMARK    6  A    between atoms: C7_16  and  N4_17 
REMARK    7  A    between atoms: N5_24  and  N6_25 
ROOT
HETATM    1  N2  UNL     1     -45.077  -0.762  -3.692  1.00  0.00    -0.328 N 
ATOM      2  H2  UNL     1     -45.881  -0.701  -3.068  1.00  0.00     0.165 HD
HETATM    3  C4  UNL     1     -44.393   0.423  -4.046  1.00  0.00     0.237 C 
HETATM    4  O2  UNL     1     -43.396   0.328  -4.819  1.00  0.00    -0.272 OA
ENDROOT
BRANCH   1   5
HETATM    5  C3  UNL     1     -44.676  -2.047  -4.186  1.00  0.00     0.189 C 
HETATM    6  C8  UNL     1     -43.174  -2.153  -4.391  1.00  0.00     0.081 C 
HETATM    7  C9  UNL     1     -43.185  -2.853  -3.077  1.00  0.00     0.082 C 
HETATM    8  C10 UNL     1     -42.684  -2.092  -1.891  1.00  0.00     0.028 C 
HETATM    9  N5  UNL     1     -44.577  -3.090  -3.180  1.00  0.00    -0.196 NA
BRANCH   5  10
HETATM   10  C2  UNL     1     -45.471  -2.580  -5.323  1.00  0.00     0.262 C 
HETATM   11  N1  UNL     1     -46.093  -1.730  -6.269  1.00  0.00    -0.362 N 
HETATM   12  C1  UNL     1     -46.868  -2.189  -7.380  1.00  0.00     0.149 C 
ATOM     13  H1  UNL     1     -45.982  -0.722  -6.150  1.00  0.00     0.162 HD
HETATM   14  O1  UNL     1     -45.617  -3.814  -5.485  1.00  0.00    -0.269 OA
ENDBRANCH   5  10
BRANCH   9  15
HETATM   15  N6  UNL     1     -45.359  -2.914  -2.055  1.00  0.00    -0.360 NA
ATOM     16  H62 UNL     1     -46.093  -2.205  -2.080  1.00  0.00     0.171 HD
ATOM     17  H61 UNL     1     -46.064  -3.633  -1.888  1.00  0.00     0.171 HD
ENDBRANCH   9  15
ENDBRANCH   1   5
BRANCH   3  18
HETATM   18  C5  UNL     1     -44.815   1.751  -3.534  1.00  0.00     0.225 C 
BRANCH  18  19
HETATM   19  N3  UNL     1     -43.689   2.639  -3.427  1.00  0.00    -0.351 N 
HETATM   20  C6  UNL     1     -43.383   3.401  -2.278  1.00  0.00     0.243 C 
HETATM   21  O3  UNL     1     -44.078   3.369  -1.227  1.00  0.00    -0.272 OA
ATOM     22  H3  UNL     1     -43.070   2.724  -4.233  1.00  0.00     0.163 HD
BRANCH  20  23
HETATM   23  C7  UNL     1     -42.191   4.293  -2.285  1.00  0.00     0.332 C 
BRANCH  23  24
HETATM   24  N4  UNL     1     -41.210   3.899  -3.270  1.00  0.00    -0.071 N 
ATOM     25  H43 UNL     1     -41.657   3.638  -4.149  1.00  0.00     0.274 HD
ATOM     26  H42 UNL     1     -40.671   4.702  -3.593  1.00  0.00     0.274 HD
ATOM     27  H41 UNL     1     -40.596   3.156  -2.936  1.00  0.00     0.274 HD
ENDBRANCH  23  24
ENDBRANCH  20  23
ENDBRANCH  18  19
ENDBRANCH   3  18
TORSDOF 7
ENDMDL
