MODEL 1
REMARK VINA RESULT: -7.523510192      0.000      0.000
REMARK  5 active torsions:
REMARK  status: ('A' for Active; 'I' for Inactive)
REMARK    1  A    between atoms: C2_2  and  N1_3 
REMARK    2  A    between atoms: C2_2  and  C3_7 
REMARK    3  A    between atoms: C2_2  and  C6_21 
REMARK    4  A    between atoms: C3_7  and  N2_8 
REMARK       I    between atoms: N2_8  and  C4_10 
REMARK       I    between atoms: C4_10  and  N4_14 
REMARK    5  A    between atoms: N4_14  and  N5_16 
REMARK       I    between atoms: C6_21  and  N8_23 
ROOT
HETATM    1  C3  UNL     1      13.510  12.880  58.076  1.00  0.00     0.186 C 
ENDROOT
BRANCH   1   2
HETATM    2  C2  UNL     1      14.117  11.481  58.090  1.00  0.00     0.215 C 
HETATM    3  C1  UNL     1      13.952  10.891  56.689  1.00  0.00     0.058 C 
BRANCH   2   4
HETATM    4  N1  UNL     1      13.401  10.661  58.989  1.00  0.00    -0.060 N 
ATOM      5  H13 UNL     1      13.578   9.667  58.845  1.00  0.00     0.275 HD
ATOM      6  H12 UNL     1      13.751  10.723  59.945  1.00  0.00     0.275 HD
ATOM      7  H11 UNL     1      12.413  10.903  58.912  1.00  0.00     0.275 HD
ENDBRANCH   2   4
BRANCH   2   8
HETATM    8  C6  UNL     1      15.555  11.612  58.337  1.00  0.00     0.257 C 
HETATM    9  O1  UNL     1      16.297  11.705  57.302  1.00  0.00    -0.270 OA
HETATM   10  N8  UNL     1      16.144  11.641  59.629  1.00  0.00    -0.350 N 
HETATM   11  C7  UNL     1      15.695  11.569  61.002  1.00  0.00     0.127 C 
HETATM   12  C9  UNL     1      17.497  11.755  60.133  1.00  0.00     0.127 C 
HETATM   13  C8  UNL     1      16.934  12.391  61.386  1.00  0.00     0.040 C 
ENDBRANCH   2   8
ENDBRANCH   1   2
BRANCH   1  14
HETATM   14  N2  UNL     1      12.544  13.039  59.133  1.00  0.00    -0.222 N 
HETATM   15  C4  UNL     1      12.766  14.086  60.069  1.00  0.00     0.686 C 
HETATM   16  N3  UNL     1      13.975  14.437  60.359  1.00  0.00    -0.234 N 
HETATM   17  N4  UNL     1      11.664  14.761  60.696  1.00  0.00    -0.131 N 
ATOM     18  H32 UNL     1      14.757  13.957  59.914  1.00  0.00     0.174 HD
ATOM     19  H31 UNL     1      14.134  15.188  61.031  1.00  0.00     0.174 HD
ATOM     20  H4  UNL     1      10.772  14.832  60.206  1.00  0.00     0.205 HD
ATOM     21  H2  UNL     1      11.733  12.425  59.208  1.00  0.00     0.177 HD
BRANCH  17  22
HETATM   22  N5  UNL     1      11.798  15.321  61.969  1.00  0.00    -0.262 N 
HETATM   23  C5  UNL     1      12.358  16.472  62.124  1.00  0.00     0.216 C 
HETATM   24  N6  UNL     1      12.495  17.045  63.417  1.00  0.00    -0.065 NA
HETATM   25  N7  UNL     1      12.841  17.171  60.987  1.00  0.00    -0.065 NA
ATOM     26  H5  UNL     1      11.450  14.815  62.782  1.00  0.00     0.190 HD
ENDBRANCH  17  22
ENDBRANCH   1  14
TORSDOF 5
ENDMDL
MODEL 2
REMARK VINA RESULT: -7.486775676      2.687      5.890
REMARK  5 active torsions:
REMARK  status: ('A' for Active; 'I' for Inactive)
REMARK    1  A    between atoms: C2_2  and  N1_3 
REMARK    2  A    between atoms: C2_2  and  C3_7 
REMARK    3  A    between atoms: C2_2  and  C6_21 
REMARK    4  A    between atoms: C3_7  and  N2_8 
REMARK       I    between atoms: N2_8  and  C4_10 
REMARK       I    between atoms: C4_10  and  N4_14 
REMARK    5  A    between atoms: N4_14  and  N5_16 
REMARK       I    between atoms: C6_21  and  N8_23 
ROOT
HETATM    1  C3  UNL     1      12.608  12.469  60.025  1.00  0.00     0.186 C 
ENDROOT
BRANCH   1   2
HETATM    2  C2  UNL     1      12.717  13.710  60.905  1.00  0.00     0.215 C 
HETATM    3  C1  UNL     1      11.420  13.823  61.707  1.00  0.00     0.058 C 
BRANCH   2   4
HETATM    4  N1  UNL     1      12.825  14.860  60.094  1.00  0.00    -0.060 N 
ATOM      5  H13 UNL     1      11.943  15.115  59.650  1.00  0.00     0.275 HD
ATOM      6  H12 UNL     1      12.955  15.715  60.636  1.00  0.00     0.275 HD
ATOM      7  H11 UNL     1      13.575  14.698  59.423  1.00  0.00     0.275 HD
ENDBRANCH   2   4
BRANCH   2   8
HETATM    8  C6  UNL     1      13.802  13.491  61.865  1.00  0.00     0.257 C 
HETATM    9  O1  UNL     1      13.447  13.262  63.071  1.00  0.00    -0.270 OA
HETATM   10  N8  UNL     1      15.182  13.520  61.533  1.00  0.00    -0.350 N 
HETATM   11  C7  UNL     1      15.984  13.732  60.348  1.00  0.00     0.127 C 
HETATM   12  C9  UNL     1      16.415  13.343  62.272  1.00  0.00     0.127 C 
HETATM   13  C8  UNL     1      17.063  12.852  60.995  1.00  0.00     0.040 C 
ENDBRANCH   2   8
ENDBRANCH   1   2
BRANCH   1  14
HETATM   14  N2  UNL     1      13.054  12.743  58.682  1.00  0.00    -0.222 N 
HETATM   15  C4  UNL     1      13.686  11.684  57.975  1.00  0.00     0.686 C 
HETATM   16  N3  UNL     1      14.376  10.806  58.625  1.00  0.00    -0.234 N 
HETATM   17  N4  UNL     1      13.570  11.575  56.548  1.00  0.00    -0.131 N 
ATOM     18  H32 UNL     1      14.460  10.883  59.639  1.00  0.00     0.174 HD
ATOM     19  H31 UNL     1      14.831  10.046  58.118  1.00  0.00     0.174 HD
ATOM     20  H4  UNL     1      12.739  11.939  56.082  1.00  0.00     0.205 HD
ATOM     21  H2  UNL     1      12.921  13.659  58.255  1.00  0.00     0.177 HD
BRANCH  17  22
HETATM   22  N5  UNL     1      14.579  10.978  55.790  1.00  0.00    -0.262 N 
HETATM   23  C5  UNL     1      14.488   9.744  55.430  1.00  0.00     0.216 C 
HETATM   24  N6  UNL     1      15.513   9.134  54.658  1.00  0.00    -0.065 NA
HETATM   25  N7  UNL     1      13.347   8.990  55.812  1.00  0.00    -0.065 NA
ATOM     26  H5  UNL     1      15.397  11.525  55.518  1.00  0.00     0.190 HD
ENDBRANCH  17  22
ENDBRANCH   1  14
TORSDOF 5
ENDMDL
MODEL 3
REMARK VINA RESULT: -7.367317164      1.212      1.377
REMARK  5 active torsions:
REMARK  status: ('A' for Active; 'I' for Inactive)
REMARK    1  A    between atoms: C2_2  and  N1_3 
REMARK    2  A    between atoms: C2_2  and  C3_7 
REMARK    3  A    between atoms: C2_2  and  C6_21 
REMARK    4  A    between atoms: C3_7  and  N2_8 
REMARK       I    between atoms: N2_8  and  C4_10 
REMARK       I    between atoms: C4_10  and  N4_14 
REMARK    5  A    between atoms: N4_14  and  N5_16 
REMARK       I    between atoms: C6_21  and  N8_23 
ROOT
HETATM    1  C3  UNL     1      14.164  13.220  57.870  1.00  0.00     0.186 C 
ENDROOT
BRANCH   1   2
HETATM    2  C2  UNL     1      14.511  11.783  57.496  1.00  0.00     0.215 C 
HETATM    3  C1  UNL     1      15.808  11.816  56.686  1.00  0.00     0.058 C 
BRANCH   2   4
HETATM    4  N1  UNL     1      13.500  11.249  56.667  1.00  0.00    -0.060 N 
ATOM      5  H13 UNL     1      13.511  10.230  56.636  1.00  0.00     0.275 HD
ATOM      6  H12 UNL     1      12.566  11.362  57.060  1.00  0.00     0.275 HD
ATOM      7  H11 UNL     1      13.597  11.675  55.745  1.00  0.00     0.275 HD
ENDBRANCH   2   4
BRANCH   2   8
HETATM    8  C6  UNL     1      14.791  11.047  58.731  1.00  0.00     0.257 C 
HETATM    9  O1  UNL     1      13.996  10.085  59.005  1.00  0.00    -0.270 OA
HETATM   10  N8  UNL     1      15.867  11.341  59.610  1.00  0.00    -0.350 N 
HETATM   11  C7  UNL     1      16.952  12.295  59.677  1.00  0.00     0.127 C 
HETATM   12  C9  UNL     1      16.348  10.786  60.858  1.00  0.00     0.127 C 
HETATM   13  C8  UNL     1      17.738  11.252  60.484  1.00  0.00     0.040 C 
ENDBRANCH   2   8
ENDBRANCH   1   2
BRANCH   1  14
HETATM   14  N2  UNL     1      13.135  13.261  58.878  1.00  0.00    -0.222 N 
HETATM   15  C4  UNL     1      13.266  14.236  59.905  1.00  0.00     0.686 C 
HETATM   16  N3  UNL     1      14.443  14.601  60.292  1.00  0.00    -0.234 N 
HETATM   17  N4  UNL     1      12.107  14.822  60.518  1.00  0.00    -0.131 N 
ATOM     18  H32 UNL     1      15.266  14.184  59.856  1.00  0.00     0.174 HD
ATOM     19  H31 UNL     1      14.537  15.300  61.029  1.00  0.00     0.174 HD
ATOM     20  H4  UNL     1      11.242  14.903  59.984  1.00  0.00     0.205 HD
ATOM     21  H2  UNL     1      12.344  12.617  58.856  1.00  0.00     0.177 HD
BRANCH  17  22
HETATM   22  N5  UNL     1      12.150  15.281  61.836  1.00  0.00    -0.262 N 
HETATM   23  C5  UNL     1      12.527  16.485  62.101  1.00  0.00     0.216 C 
HETATM   24  N6  UNL     1      12.570  16.956  63.440  1.00  0.00    -0.065 NA
HETATM   25  N7  UNL     1      12.901  17.348  61.036  1.00  0.00    -0.065 NA
ATOM     26  H5  UNL     1      11.880  14.658  62.597  1.00  0.00     0.190 HD
ENDBRANCH  17  22
ENDBRANCH   1  14
TORSDOF 5
ENDMDL
MODEL 4
REMARK VINA RESULT: -7.259915563      1.440      2.982
REMARK  5 active torsions:
REMARK  status: ('A' for Active; 'I' for Inactive)
REMARK    1  A    between atoms: C2_2  and  N1_3 
REMARK    2  A    between atoms: C2_2  and  C3_7 
REMARK    3  A    between atoms: C2_2  and  C6_21 
REMARK    4  A    between atoms: C3_7  and  N2_8 
REMARK       I    between atoms: N2_8  and  C4_10 
REMARK       I    between atoms: C4_10  and  N4_14 
REMARK    5  A    between atoms: N4_14  and  N5_16 
REMARK       I    between atoms: C6_21  and  N8_23 
ROOT
HETATM    1  C3  UNL     1      14.818  13.149  58.347  1.00  0.00     0.186 C 
ENDROOT
BRANCH   1   2
HETATM    2  C2  UNL     1      15.481  11.783  58.487  1.00  0.00     0.215 C 
HETATM    3  C1  UNL     1      14.713  11.003  59.555  1.00  0.00     0.058 C 
BRANCH   2   4
HETATM    4  N1  UNL     1      16.808  11.941  58.940  1.00  0.00    -0.060 N 
ATOM      5  H13 UNL     1      16.917  12.729  59.577  1.00  0.00     0.275 HD
ATOM      6  H12 UNL     1      17.096  11.205  59.585  1.00  0.00     0.275 HD
ATOM      7  H11 UNL     1      17.411  12.007  58.120  1.00  0.00     0.275 HD
ENDBRANCH   2   4
BRANCH   2   8
HETATM    8  C6  UNL     1      15.310  11.064  57.221  1.00  0.00     0.257 C 
HETATM    9  O1  UNL     1      16.302  11.100  56.416  1.00  0.00    -0.270 OA
HETATM   10  N8  UNL     1      14.136  10.354  56.857  1.00  0.00    -0.350 N 
HETATM   11  C7  UNL     1      12.843  10.071  57.441  1.00  0.00     0.127 C 
HETATM   12  C9  UNL     1      13.723   9.586  55.701  1.00  0.00     0.127 C 
HETATM   13  C8  UNL     1      12.817   8.782  56.608  1.00  0.00     0.040 C 
ENDBRANCH   2   8
ENDBRANCH   1   2
BRANCH   1  14
HETATM   14  N2  UNL     1      13.630  13.236  59.159  1.00  0.00    -0.222 N 
HETATM   15  C4  UNL     1      13.586  14.262  60.143  1.00  0.00     0.686 C 
HETATM   16  N3  UNL     1      14.680  14.650  60.710  1.00  0.00    -0.234 N 
HETATM   17  N4  UNL     1      12.342  14.872  60.517  1.00  0.00    -0.131 N 
ATOM     18  H32 UNL     1      15.564  14.216  60.444  1.00  0.00     0.174 HD
ATOM     19  H31 UNL     1      14.649  15.386  61.416  1.00  0.00     0.174 HD
ATOM     20  H4  UNL     1      11.582  14.924  59.838  1.00  0.00     0.205 HD
ATOM     21  H2  UNL     1      12.852  12.589  59.033  1.00  0.00     0.177 HD
BRANCH  17  22
HETATM   22  N5  UNL     1      12.157  15.397  61.798  1.00  0.00    -0.262 N 
HETATM   23  C5  UNL     1      12.486  16.615  62.062  1.00  0.00     0.216 C 
HETATM   24  N6  UNL     1      12.299  17.152  63.364  1.00  0.00    -0.065 NA
HETATM   25  N7  UNL     1      13.040  17.426  61.037  1.00  0.00    -0.065 NA
ATOM     26  H5  UNL     1      11.759  14.811  62.531  1.00  0.00     0.190 HD
ENDBRANCH  17  22
ENDBRANCH   1  14
TORSDOF 5
ENDMDL
MODEL 5
REMARK VINA RESULT: -7.186735749      2.684      6.383
REMARK  5 active torsions:
REMARK  status: ('A' for Active; 'I' for Inactive)
REMARK    1  A    between atoms: C2_2  and  N1_3 
REMARK    2  A    between atoms: C2_2  and  C3_7 
REMARK    3  A    between atoms: C2_2  and  C6_21 
REMARK    4  A    between atoms: C3_7  and  N2_8 
REMARK       I    between atoms: N2_8  and  C4_10 
REMARK       I    between atoms: C4_10  and  N4_14 
REMARK    5  A    between atoms: N4_14  and  N5_16 
REMARK       I    between atoms: C6_21  and  N8_23 
ROOT
HETATM    1  C3  UNL     1      14.687  13.465  60.108  1.00  0.00     0.186 C 
ENDROOT
BRANCH   1   2
HETATM    2  C2  UNL     1      13.669  12.853  61.064  1.00  0.00     0.215 C 
HETATM    3  C1  UNL     1      14.334  11.656  61.745  1.00  0.00     0.058 C 
BRANCH   2   4
HETATM    4  N1  UNL     1      12.561  12.371  60.335  1.00  0.00    -0.060 N 
ATOM      5  H13 UNL     1      11.847  11.951  60.930  1.00  0.00     0.275 HD
ATOM      6  H12 UNL     1      11.988  13.120  59.945  1.00  0.00     0.275 HD
ATOM      7  H11 UNL     1      12.911  11.730  59.623  1.00  0.00     0.275 HD
ENDBRANCH   2   4
BRANCH   2   8
HETATM    8  C6  UNL     1      13.378  13.838  62.109  1.00  0.00     0.257 C 
HETATM    9  O1  UNL     1      13.790  13.550  63.283  1.00  0.00    -0.270 OA
HETATM   10  N8  UNL     1      12.684  15.057  61.887  1.00  0.00    -0.350 N 
HETATM   11  C7  UNL     1      12.075  15.743  60.769  1.00  0.00     0.127 C 
HETATM   12  C9  UNL     1      12.278  16.168  62.722  1.00  0.00     0.127 C 
HETATM   13  C8  UNL     1      12.357  17.062  61.503  1.00  0.00     0.040 C 
ENDBRANCH   2   8
ENDBRANCH   1   2
BRANCH   1  14
HETATM   14  N2  UNL     1      14.284  13.289  58.735  1.00  0.00    -0.222 N 
HETATM   15  C4  UNL     1      14.879  12.218  58.013  1.00  0.00     0.686 C 
HETATM   16  N3  UNL     1      16.086  11.853  58.292  1.00  0.00    -0.234 N 
HETATM   17  N4  UNL     1      14.157  11.537  56.976  1.00  0.00    -0.131 N 
ATOM     18  H32 UNL     1      16.599  12.337  59.029  1.00  0.00     0.174 HD
ATOM     19  H31 UNL     1      16.513  11.085  57.774  1.00  0.00     0.174 HD
ATOM     20  H4  UNL     1      13.139  11.484  57.022  1.00  0.00     0.205 HD
ATOM     21  H2  UNL     1      13.600  13.906  58.300  1.00  0.00     0.177 HD
BRANCH  17  22
HETATM   22  N5  UNL     1      14.829  10.947  55.903  1.00  0.00    -0.262 N 
HETATM   23  C5  UNL     1      14.485   9.781  55.474  1.00  0.00     0.216 C 
HETATM   24  N6  UNL     1      15.167   9.178  54.383  1.00  0.00    -0.065 NA
HETATM   25  N7  UNL     1      13.411   9.097  56.101  1.00  0.00    -0.065 NA
ATOM     26  H5  UNL     1      15.600  11.443  55.456  1.00  0.00     0.190 HD
ENDBRANCH  17  22
ENDBRANCH   1  14
TORSDOF 5
ENDMDL
