MODEL 1
REMARK VINA RESULT: -7.513684578      0.000      0.000
REMARK  5 active torsions:
REMARK  status: ('A' for Active; 'I' for Inactive)
REMARK    1  A    between atoms: C4_5  and  C5_6 
REMARK    2  A    between atoms: C5_6  and  N1_7 
REMARK    3  A    between atoms: N1_7  and  N2_9 
REMARK    4  A    between atoms: C6_14  and  C7_15 
REMARK    5  A    between atoms: C7_15  and  N4_16 
REMARK       I    between atoms: N4_16  and  C8_18 
ROOT
HETATM    1  C1  UNL     1      17.124  11.726  59.916  1.00  0.00     0.078 C 
HETATM    2  C2  UNL     1      16.040  12.612  60.525  1.00  0.00     0.158 C 
HETATM    3  C3  UNL     1      16.552  13.094  61.844  1.00  0.00     0.078 C 
HETATM    4  O1  UNL     1      14.887  11.851  60.610  1.00  0.00    -0.346 OA
HETATM    5  C4  UNL     1      14.028  12.287  59.618  1.00  0.00     0.175 C 
HETATM    6  C6  UNL     1      14.404  13.771  59.545  1.00  0.00     0.173 C 
HETATM    7  O2  UNL     1      15.763  13.713  59.725  1.00  0.00    -0.346 OA
ENDROOT
BRANCH   5   8
HETATM    8  C5  UNL     1      14.351  11.690  58.261  1.00  0.00     0.175 C 
BRANCH   8   9
HETATM    9  N1  UNL     1      14.488  12.794  57.329  1.00  0.00    -0.320 N 
ATOM     10  H1  UNL     1      13.800  13.545  57.286  1.00  0.00     0.181 HD
BRANCH   9  11
HETATM   11  N2  UNL     1      15.608  12.779  56.492  1.00  0.00    -0.254 N 
HETATM   12  N3  UNL     1      16.055  11.644  56.150  1.00  0.00    -0.331 N 
ATOM     13  H32 UNL     1      15.607  10.789  56.478  1.00  0.00     0.178 HD
ATOM     14  H31 UNL     1      16.872  11.632  55.539  1.00  0.00     0.178 HD
ATOM     15  H2  UNL     1      16.046  13.642  56.172  1.00  0.00     0.207 HD
ENDBRANCH   9  11
ENDBRANCH   8   9
ENDBRANCH   5   8
BRANCH   6  16
HETATM   16  C7  UNL     1      13.690  14.474  60.683  1.00  0.00     0.157 C 
BRANCH  16  17
HETATM   17  N4  UNL     1      12.470  15.069  60.169  1.00  0.00    -0.362 N 
HETATM   18  C8  UNL     1      11.238  14.367  60.248  1.00  0.00     0.181 C 
HETATM   19  N5  UNL     1      10.378  14.540  59.323  1.00  0.00    -0.374 N 
HETATM   20  N6  UNL     1      11.017  13.509  61.344  1.00  0.00    -0.064 NA
ATOM     21  H52 UNL     1      10.538  15.161  58.530  1.00  0.00     0.158 HD
ATOM     22  H51 UNL     1       9.492  14.035  59.380  1.00  0.00     0.158 HD
ATOM     23  H4  UNL     1      12.498  15.998  59.748  1.00  0.00     0.162 HD
ENDBRANCH  16  17
ENDBRANCH   6  16
TORSDOF 5
ENDMDL
MODEL 2
REMARK VINA RESULT: -7.258565887      1.384      1.713
REMARK  5 active torsions:
REMARK  status: ('A' for Active; 'I' for Inactive)
REMARK    1  A    between atoms: C4_5  and  C5_6 
REMARK    2  A    between atoms: C5_6  and  N1_7 
REMARK    3  A    between atoms: N1_7  and  N2_9 
REMARK    4  A    between atoms: C6_14  and  C7_15 
REMARK    5  A    between atoms: C7_15  and  N4_16 
REMARK       I    between atoms: N4_16  and  C8_18 
ROOT
HETATM    1  C1  UNL     1      15.630  10.579  60.276  1.00  0.00     0.078 C 
HETATM    2  C2  UNL     1      15.204  12.013  60.580  1.00  0.00     0.158 C 
HETATM    3  C3  UNL     1      15.957  12.451  61.795  1.00  0.00     0.078 C 
HETATM    4  O1  UNL     1      13.830  12.008  60.740  1.00  0.00    -0.346 OA
HETATM    5  C4  UNL     1      13.278  12.582  59.608  1.00  0.00     0.175 C 
HETATM    6  C6  UNL     1      14.372  13.588  59.235  1.00  0.00     0.173 C 
HETATM    7  O2  UNL     1      15.507  12.874  59.534  1.00  0.00    -0.346 OA
ENDROOT
BRANCH   5   8
HETATM    8  C5  UNL     1      13.173  11.606  58.451  1.00  0.00     0.175 C 
BRANCH   8   9
HETATM    9  N1  UNL     1      13.655  12.293  57.266  1.00  0.00    -0.320 N 
ATOM     10  H1  UNL     1      13.226  13.159  56.940  1.00  0.00     0.181 HD
BRANCH   9  11
HETATM   11  N2  UNL     1      14.734  11.710  56.594  1.00  0.00    -0.254 N 
HETATM   12  N3  UNL     1      15.675  12.481  56.239  1.00  0.00    -0.331 N 
ATOM     13  H32 UNL     1      15.631  13.480  56.441  1.00  0.00     0.178 HD
ATOM     14  H31 UNL     1      16.462  12.057  55.749  1.00  0.00     0.178 HD
ATOM     15  H2  UNL     1      14.763  10.710  56.399  1.00  0.00     0.207 HD
ENDBRANCH   9  11
ENDBRANCH   8   9
ENDBRANCH   5   8
BRANCH   6  16
HETATM   16  C7  UNL     1      14.191  14.803  60.123  1.00  0.00     0.157 C 
BRANCH  16  17
HETATM   17  N4  UNL     1      12.775  14.983  60.380  1.00  0.00    -0.362 N 
HETATM   18  C8  UNL     1      12.316  16.091  61.143  1.00  0.00     0.181 C 
HETATM   19  N5  UNL     1      11.281  15.942  61.871  1.00  0.00    -0.374 N 
HETATM   20  N6  UNL     1      13.024  17.306  61.062  1.00  0.00    -0.064 NA
ATOM     21  H52 UNL     1      10.769  15.062  61.929  1.00  0.00     0.158 HD
ATOM     22  H51 UNL     1      10.951  16.738  62.418  1.00  0.00     0.158 HD
ATOM     23  H4  UNL     1      12.103  14.310  60.011  1.00  0.00     0.162 HD
ENDBRANCH  16  17
ENDBRANCH   6  16
TORSDOF 5
ENDMDL
MODEL 3
REMARK VINA RESULT: -7.215203178      1.487      1.740
REMARK  5 active torsions:
REMARK  status: ('A' for Active; 'I' for Inactive)
REMARK    1  A    between atoms: C4_5  and  C5_6 
REMARK    2  A    between atoms: C5_6  and  N1_7 
REMARK    3  A    between atoms: N1_7  and  N2_9 
REMARK    4  A    between atoms: C6_14  and  C7_15 
REMARK    5  A    between atoms: C7_15  and  N4_16 
REMARK       I    between atoms: N4_16  and  C8_18 
ROOT
HETATM    1  C1  UNL     1      15.172  10.388  60.321  1.00  0.00     0.078 C 
HETATM    2  C2  UNL     1      14.543  11.727  60.700  1.00  0.00     0.158 C 
HETATM    3  C3  UNL     1      13.834  11.530  62.001  1.00  0.00     0.078 C 
HETATM    4  O1  UNL     1      13.715  12.102  59.657  1.00  0.00    -0.346 OA
HETATM    5  C4  UNL     1      14.346  13.126  58.974  1.00  0.00     0.175 C 
HETATM    6  C6  UNL     1      15.109  13.805  60.116  1.00  0.00     0.173 C 
HETATM    7  O2  UNL     1      15.500  12.721  60.860  1.00  0.00    -0.346 OA
ENDROOT
BRANCH   5   8
HETATM    8  C5  UNL     1      15.390  12.619  57.996  1.00  0.00     0.175 C 
BRANCH   8   9
HETATM    9  N1  UNL     1      14.697  12.283  56.765  1.00  0.00    -0.320 N 
ATOM     10  H1  UNL     1      15.130  12.422  55.853  1.00  0.00     0.181 HD
BRANCH   9  11
HETATM   11  N2  UNL     1      13.405  11.760  56.891  1.00  0.00    -0.254 N 
HETATM   12  N3  UNL     1      13.295  10.498  56.903  1.00  0.00    -0.331 N 
ATOM     13  H32 UNL     1      14.120   9.904  56.823  1.00  0.00     0.178 HD
ATOM     14  H31 UNL     1      12.353  10.116  56.994  1.00  0.00     0.178 HD
ATOM     15  H2  UNL     1      12.590  12.367  56.969  1.00  0.00     0.207 HD
ENDBRANCH   9  11
ENDBRANCH   8   9
ENDBRANCH   5   8
BRANCH   6  16
HETATM   16  C7  UNL     1      14.125  14.697  60.848  1.00  0.00     0.157 C 
BRANCH  16  17
HETATM   17  N4  UNL     1      12.977  14.924  59.992  1.00  0.00    -0.362 N 
HETATM   18  C8  UNL     1      11.660  14.851  60.519  1.00  0.00     0.181 C 
HETATM   19  N5  UNL     1      10.723  14.430  59.763  1.00  0.00    -0.374 N 
HETATM   20  N6  UNL     1      11.443  15.248  61.853  1.00  0.00    -0.064 NA
ATOM     21  H52 UNL     1      10.881  14.143  58.797  1.00  0.00     0.158 HD
ATOM     22  H51 UNL     1       9.777  14.378  60.142  1.00  0.00     0.158 HD
ATOM     23  H4  UNL     1      13.116  15.137  59.004  1.00  0.00     0.162 HD
ENDBRANCH  16  17
ENDBRANCH   6  16
TORSDOF 5
ENDMDL
MODEL 4
REMARK VINA RESULT: -7.204595492      1.052      4.396
REMARK  5 active torsions:
REMARK  status: ('A' for Active; 'I' for Inactive)
REMARK    1  A    between atoms: C4_5  and  C5_6 
REMARK    2  A    between atoms: C5_6  and  N1_7 
REMARK    3  A    between atoms: N1_7  and  N2_9 
REMARK    4  A    between atoms: C6_14  and  C7_15 
REMARK    5  A    between atoms: C7_15  and  N4_16 
REMARK       I    between atoms: N4_16  and  C8_18 
ROOT
HETATM    1  C1  UNL     1      15.642  12.819  62.324  1.00  0.00     0.078 C 
HETATM    2  C2  UNL     1      15.231  12.311  60.944  1.00  0.00     0.158 C 
HETATM    3  C3  UNL     1      16.146  11.181  60.597  1.00  0.00     0.078 C 
HETATM    4  O1  UNL     1      15.304  13.383  60.073  1.00  0.00    -0.346 OA
HETATM    5  C4  UNL     1      14.009  13.781  59.795  1.00  0.00     0.175 C 
HETATM    6  C6  UNL     1      13.272  12.440  59.882  1.00  0.00     0.173 C 
HETATM    7  O2  UNL     1      13.923  11.844  60.934  1.00  0.00    -0.346 OA
ENDROOT
BRANCH   5   8
HETATM    8  C5  UNL     1      13.425  14.669  60.878  1.00  0.00     0.175 C 
BRANCH   8   9
HETATM    9  N1  UNL     1      12.003  14.385  60.944  1.00  0.00    -0.320 N 
ATOM     10  H1  UNL     1      11.630  13.666  61.563  1.00  0.00     0.181 HD
BRANCH   9  11
HETATM   11  N2  UNL     1      11.168  15.146  60.118  1.00  0.00    -0.254 N 
HETATM   12  N3  UNL     1      10.387  14.511  59.348  1.00  0.00    -0.331 N 
ATOM     13  H32 UNL     1      10.380  13.492  59.343  1.00  0.00     0.178 HD
ATOM     14  H31 UNL     1       9.778  15.066  58.746  1.00  0.00     0.178 HD
ATOM     15  H2  UNL     1      11.188  16.165  60.135  1.00  0.00     0.207 HD
ENDBRANCH   9  11
ENDBRANCH   8   9
ENDBRANCH   5   8
BRANCH   6  16
HETATM   16  C7  UNL     1      13.493  11.717  58.568  1.00  0.00     0.157 C 
BRANCH  16  17
HETATM   17  N4  UNL     1      14.070  12.648  57.617  1.00  0.00    -0.362 N 
HETATM   18  C8  UNL     1      14.898  12.179  56.562  1.00  0.00     0.181 C 
HETATM   19  N5  UNL     1      15.851  12.924  56.159  1.00  0.00    -0.374 N 
HETATM   20  N6  UNL     1      14.633  10.912  56.006  1.00  0.00    -0.064 NA
ATOM     21  H52 UNL     1      16.043  13.841  56.561  1.00  0.00     0.158 HD
ATOM     22  H51 UNL     1      16.446  12.587  55.401  1.00  0.00     0.158 HD
ATOM     23  H4  UNL     1      13.880  13.647  57.707  1.00  0.00     0.162 HD
ENDBRANCH  16  17
ENDBRANCH   6  16
TORSDOF 5
ENDMDL
MODEL 5
REMARK VINA RESULT: -7.165775525      1.796      4.598
REMARK  5 active torsions:
REMARK  status: ('A' for Active; 'I' for Inactive)
REMARK    1  A    between atoms: C4_5  and  C5_6 
REMARK    2  A    between atoms: C5_6  and  N1_7 
REMARK    3  A    between atoms: N1_7  and  N2_9 
REMARK    4  A    between atoms: C6_14  and  C7_15 
REMARK    5  A    between atoms: C7_15  and  N4_16 
REMARK       I    between atoms: N4_16  and  C8_18 
ROOT
HETATM    1  C1  UNL     1      15.429  12.674  62.052  1.00  0.00     0.078 C 
HETATM    2  C2  UNL     1      15.444  12.138  60.623  1.00  0.00     0.158 C 
HETATM    3  C3  UNL     1      16.482  11.065  60.562  1.00  0.00     0.078 C 
HETATM    4  O1  UNL     1      15.691  13.211  59.784  1.00  0.00    -0.346 OA
HETATM    5  C4  UNL     1      14.502  13.529  59.154  1.00  0.00     0.175 C 
HETATM    6  C6  UNL     1      13.848  12.146  59.062  1.00  0.00     0.173 C 
HETATM    7  O2  UNL     1      14.218  11.593  60.263  1.00  0.00    -0.346 OA
ENDROOT
BRANCH   5   8
HETATM    8  C5  UNL     1      13.592  14.382  60.018  1.00  0.00     0.175 C 
BRANCH   8   9
HETATM    9  N1  UNL     1      12.269  13.789  59.963  1.00  0.00    -0.320 N 
ATOM     10  H1  UNL     1      12.138  12.786  59.831  1.00  0.00     0.181 HD
BRANCH   9  11
HETATM   11  N2  UNL     1      11.181  14.658  60.100  1.00  0.00    -0.254 N 
HETATM   12  N3  UNL     1      10.273  14.586  59.219  1.00  0.00    -0.331 N 
ATOM     13  H32 UNL     1      10.347  13.920  58.450  1.00  0.00     0.178 HD
ATOM     14  H31 UNL     1       9.480  15.220  59.318  1.00  0.00     0.178 HD
ATOM     15  H2  UNL     1      11.122  15.320  60.873  1.00  0.00     0.207 HD
ENDBRANCH   9  11
ENDBRANCH   8   9
ENDBRANCH   5   8
BRANCH   6  16
HETATM   16  C7  UNL     1      14.463  11.434  57.873  1.00  0.00     0.157 C 
BRANCH  16  17
HETATM   17  N4  UNL     1      13.860  10.120  57.755  1.00  0.00    -0.362 N 
HETATM   18  C8  UNL     1      13.504   9.602  56.481  1.00  0.00     0.181 C 
HETATM   19  N5  UNL     1      12.487   8.838  56.397  1.00  0.00    -0.374 N 
HETATM   20  N6  UNL     1      14.289   9.953  55.365  1.00  0.00    -0.064 NA
ATOM     21  H52 UNL     1      11.919   8.584  57.205  1.00  0.00     0.158 HD
ATOM     22  H51 UNL     1      12.231   8.466  55.482  1.00  0.00     0.158 HD
ATOM     23  H4  UNL     1      13.691   9.564  58.594  1.00  0.00     0.162 HD
ENDBRANCH  16  17
ENDBRANCH   6  16
TORSDOF 5
ENDMDL
