MODEL 1
REMARK VINA RESULT: -6.660411958      0.000      0.000
REMARK  7 active torsions:
REMARK  status: ('A' for Active; 'I' for Inactive)
REMARK    1  A    between atoms: C2_2  and  N1_3 
REMARK    2  A    between atoms: C2_2  and  C6_19 
REMARK       I    between atoms: N1_3  and  C3_5 
REMARK    3  A    between atoms: C3_5  and  C4_7 
REMARK    4  A    between atoms: C4_7  and  N2_8 
REMARK    5  A    between atoms: C4_7  and  C5_12 
REMARK    6  A    between atoms: N4_14  and  N5_16 
REMARK       I    between atoms: C6_19  and  N6_21 
REMARK    7  A    between atoms: N6_21  and  C7_23 
ROOT
HETATM    1  N1  UNL     1      14.599  12.759  60.337  1.00  0.00    -0.346 N 
ATOM      2  H1  UNL     1      15.169  13.527  60.694  1.00  0.00     0.163 HD
HETATM    3  C3  UNL     1      13.192  12.853  60.450  1.00  0.00     0.256 C 
HETATM    4  O1  UNL     1      12.492  11.895  60.006  1.00  0.00    -0.271 OA
ENDROOT
BRANCH   3   5
HETATM    5  C4  UNL     1      12.507  14.014  61.062  1.00  0.00     0.339 C 
BRANCH   5   6
HETATM    6  N2  UNL     1      11.176  13.593  61.507  1.00  0.00    -0.060 N 
ATOM      7  H23 UNL     1      10.600  13.244  60.741  1.00  0.00     0.275 HD
ATOM      8  H22 UNL     1      11.204  12.738  62.064  1.00  0.00     0.275 HD
ATOM      9  H21 UNL     1      10.737  14.369  62.003  1.00  0.00     0.275 HD
ENDBRANCH   5   6
BRANCH   5  10
HETATM   10  C5  UNL     1      13.231  14.563  62.213  1.00  0.00     0.147 C 
HETATM   11  N3  UNL     1      13.796  13.751  63.218  1.00  0.00    -0.083 NA
HETATM   12  N4  UNL     1      13.366  15.836  62.324  1.00  0.00    -0.296 N 
ATOM     13  H4  UNL     1      13.869  16.221  63.123  1.00  0.00     0.187 HD
BRANCH  12  14
HETATM   14  N5  UNL     1      12.834  16.695  61.371  1.00  0.00    -0.344 N 
ATOM     15  H52 UNL     1      13.099  16.564  60.395  1.00  0.00     0.176 HD
ATOM     16  H51 UNL     1      12.193  17.442  61.638  1.00  0.00     0.176 HD
ENDBRANCH  12  14
ENDBRANCH   5  10
ENDBRANCH   3   5
BRANCH   1  17
HETATM   17  C2  UNL     1      15.262  11.628  59.742  1.00  0.00     0.172 C 
HETATM   18  C1  UNL     1      16.740  11.601  60.113  1.00  0.00     0.042 C 
BRANCH  17  19
HETATM   19  C6  UNL     1      15.107  11.684  58.274  1.00  0.00     0.240 C 
HETATM   20  O2  UNL     1      15.650  12.628  57.656  1.00  0.00    -0.271 OA
HETATM   21  N6  UNL     1      14.381  10.730  57.552  1.00  0.00    -0.355 N 
ATOM     22  H6  UNL     1      13.950   9.974  58.084  1.00  0.00     0.162 HD
BRANCH  21  23
HETATM   23  C7  UNL     1      14.190  10.720  56.135  1.00  0.00     0.084 A 
HETATM   24  C8  UNL     1      13.832   9.530  55.370  1.00  0.00     0.027 A 
HETATM   25  C9  UNL     1      15.276   9.945  55.384  1.00  0.00     0.027 A 
ENDBRANCH  21  23
ENDBRANCH  17  19
ENDBRANCH   1  17
TORSDOF 7
ENDMDL
MODEL 2
REMARK VINA RESULT: -6.553971688      2.206      3.095
REMARK  7 active torsions:
REMARK  status: ('A' for Active; 'I' for Inactive)
REMARK    1  A    between atoms: C2_2  and  N1_3 
REMARK    2  A    between atoms: C2_2  and  C6_19 
REMARK       I    between atoms: N1_3  and  C3_5 
REMARK    3  A    between atoms: C3_5  and  C4_7 
REMARK    4  A    between atoms: C4_7  and  N2_8 
REMARK    5  A    between atoms: C4_7  and  C5_12 
REMARK    6  A    between atoms: N4_14  and  N5_16 
REMARK       I    between atoms: C6_19  and  N6_21 
REMARK    7  A    between atoms: N6_21  and  C7_23 
ROOT
HETATM    1  N1  UNL     1      14.924  14.469  61.570  1.00  0.00    -0.346 N 
ATOM      2  H1  UNL     1      14.820  15.082  60.761  1.00  0.00     0.163 HD
HETATM    3  C3  UNL     1      13.943  14.520  62.587  1.00  0.00     0.256 C 
HETATM    4  O1  UNL     1      14.080  13.757  63.588  1.00  0.00    -0.271 OA
ENDROOT
BRANCH   3   5
HETATM    5  C4  UNL     1      12.772  15.425  62.534  1.00  0.00     0.339 C 
BRANCH   5   6
HETATM    6  N2  UNL     1      12.974  16.512  63.494  1.00  0.00    -0.060 N 
ATOM      7  H23 UNL     1      12.148  17.103  63.593  1.00  0.00     0.275 HD
ATOM      8  H22 UNL     1      13.025  16.178  64.456  1.00  0.00     0.275 HD
ATOM      9  H21 UNL     1      13.801  17.042  63.219  1.00  0.00     0.275 HD
ENDBRANCH   5   6
BRANCH   5  10
HETATM   10  C5  UNL     1      12.562  16.010  61.205  1.00  0.00     0.147 C 
HETATM   11  N3  UNL     1      13.204  17.191  60.781  1.00  0.00    -0.083 NA
HETATM   12  N4  UNL     1      11.762  15.432  60.381  1.00  0.00    -0.296 N 
ATOM     13  H4  UNL     1      11.615  15.836  59.456  1.00  0.00     0.187 HD
BRANCH  12  14
HETATM   14  N5  UNL     1      11.096  14.265  60.733  1.00  0.00    -0.344 N 
ATOM     15  H52 UNL     1      10.093  14.207  60.563  1.00  0.00     0.176 HD
ATOM     16  H51 UNL     1      11.597  13.482  61.153  1.00  0.00     0.176 HD
ENDBRANCH  12  14
ENDBRANCH   5  10
ENDBRANCH   3   5
BRANCH   1  17
HETATM   17  C2  UNL     1      16.062  13.588  61.625  1.00  0.00     0.172 C 
HETATM   18  C1  UNL     1      17.358  14.351  61.370  1.00  0.00     0.042 C 
BRANCH  17  19
HETATM   19  C6  UNL     1      15.901  12.512  60.627  1.00  0.00     0.240 C 
HETATM   20  O2  UNL     1      16.124  11.333  60.985  1.00  0.00    -0.271 OA
HETATM   21  N6  UNL     1      15.513  12.756  59.305  1.00  0.00    -0.355 N 
ATOM     22  H6  UNL     1      15.339  13.727  59.044  1.00  0.00     0.162 HD
BRANCH  21  23
HETATM   23  C7  UNL     1      15.336  11.767  58.288  1.00  0.00     0.084 A 
HETATM   24  C8  UNL     1      15.879  11.882  56.938  1.00  0.00     0.027 A 
HETATM   25  C9  UNL     1      14.432  12.233  57.142  1.00  0.00     0.027 A 
ENDBRANCH  21  23
ENDBRANCH  17  19
ENDBRANCH   1  17
TORSDOF 7
ENDMDL
MODEL 3
REMARK VINA RESULT: -6.514774604      1.356      2.228
REMARK  7 active torsions:
REMARK  status: ('A' for Active; 'I' for Inactive)
REMARK    1  A    between atoms: C2_2  and  N1_3 
REMARK    2  A    between atoms: C2_2  and  C6_19 
REMARK       I    between atoms: N1_3  and  C3_5 
REMARK    3  A    between atoms: C3_5  and  C4_7 
REMARK    4  A    between atoms: C4_7  and  N2_8 
REMARK    5  A    between atoms: C4_7  and  C5_12 
REMARK    6  A    between atoms: N4_14  and  N5_16 
REMARK       I    between atoms: C6_19  and  N6_21 
REMARK    7  A    between atoms: N6_21  and  C7_23 
ROOT
HETATM    1  N1  UNL     1      13.773  12.195  61.422  1.00  0.00    -0.346 N 
ATOM      2  H1  UNL     1      13.328  11.935  62.302  1.00  0.00     0.163 HD
HETATM    3  C3  UNL     1      13.714  13.545  61.006  1.00  0.00     0.256 C 
HETATM    4  O1  UNL     1      14.268  13.858  59.912  1.00  0.00    -0.271 OA
ENDROOT
BRANCH   3   5
HETATM    5  C4  UNL     1      13.035  14.602  61.791  1.00  0.00     0.339 C 
BRANCH   5   6
HETATM    6  N2  UNL     1      13.984  15.146  62.766  1.00  0.00    -0.060 N 
ATOM      7  H23 UNL     1      14.597  14.430  63.155  1.00  0.00     0.275 HD
ATOM      8  H22 UNL     1      14.702  15.725  62.330  1.00  0.00     0.275 HD
ATOM      9  H21 UNL     1      13.462  15.646  63.486  1.00  0.00     0.275 HD
ENDBRANCH   5   6
BRANCH   5  10
HETATM   10  C5  UNL     1      12.540  15.703  60.958  1.00  0.00     0.147 C 
HETATM   11  N3  UNL     1      13.078  17.005  61.016  1.00  0.00    -0.083 NA
HETATM   12  N4  UNL     1      11.578  15.488  60.135  1.00  0.00    -0.296 N 
ATOM     13  H4  UNL     1      11.232  16.251  59.554  1.00  0.00     0.187 HD
BRANCH  12  14
HETATM   14  N5  UNL     1      11.001  14.229  60.026  1.00  0.00    -0.344 N 
ATOM     15  H52 UNL     1      11.594  13.409  60.148  1.00  0.00     0.176 HD
ATOM     16  H51 UNL     1      10.006  14.123  59.827  1.00  0.00     0.176 HD
ENDBRANCH  12  14
ENDBRANCH   5  10
ENDBRANCH   3   5
BRANCH   1  17
HETATM   17  C2  UNL     1      14.434  11.169  60.656  1.00  0.00     0.172 C 
HETATM   18  C1  UNL     1      15.939  11.410  60.602  1.00  0.00     0.042 C 
BRANCH  17  19
HETATM   19  C6  UNL     1      13.874  11.138  59.289  1.00  0.00     0.240 C 
HETATM   20  O2  UNL     1      12.637  10.995  59.159  1.00  0.00    -0.271 OA
HETATM   21  N6  UNL     1      14.667  11.260  58.143  1.00  0.00    -0.355 N 
ATOM     22  H6  UNL     1      15.671  11.374  58.282  1.00  0.00     0.162 HD
BRANCH  21  23
HETATM   23  C7  UNL     1      14.196  11.239  56.793  1.00  0.00     0.084 A 
HETATM   24  C8  UNL     1      13.978  10.017  56.026  1.00  0.00     0.027 A 
HETATM   25  C9  UNL     1      15.255  10.773  55.790  1.00  0.00     0.027 A 
ENDBRANCH  21  23
ENDBRANCH  17  19
ENDBRANCH   1  17
TORSDOF 7
ENDMDL
MODEL 4
REMARK VINA RESULT: -6.382506400      1.787      2.591
REMARK  7 active torsions:
REMARK  status: ('A' for Active; 'I' for Inactive)
REMARK    1  A    between atoms: C2_2  and  N1_3 
REMARK    2  A    between atoms: C2_2  and  C6_19 
REMARK       I    between atoms: N1_3  and  C3_5 
REMARK    3  A    between atoms: C3_5  and  C4_7 
REMARK    4  A    between atoms: C4_7  and  N2_8 
REMARK    5  A    between atoms: C4_7  and  C5_12 
REMARK    6  A    between atoms: N4_14  and  N5_16 
REMARK       I    between atoms: C6_19  and  N6_21 
REMARK    7  A    between atoms: N6_21  and  C7_23 
ROOT
HETATM    1  N1  UNL     1      14.005  13.158  59.829  1.00  0.00    -0.346 N 
ATOM      2  H1  UNL     1      13.033  12.892  59.669  1.00  0.00     0.163 HD
HETATM    3  C3  UNL     1      14.286  14.128  60.820  1.00  0.00     0.256 C 
HETATM    4  O1  UNL     1      15.494  14.454  61.011  1.00  0.00    -0.271 OA
ENDROOT
BRANCH   3   5
HETATM    5  C4  UNL     1      13.234  14.776  61.636  1.00  0.00     0.339 C 
BRANCH   5   6
HETATM    6  N2  UNL     1      13.844  15.296  62.862  1.00  0.00    -0.060 N 
ATOM      7  H23 UNL     1      14.452  16.096  62.686  1.00  0.00     0.275 HD
ATOM      8  H22 UNL     1      13.168  15.764  63.466  1.00  0.00     0.275 HD
ATOM      9  H21 UNL     1      14.330  14.534  63.334  1.00  0.00     0.275 HD
ENDBRANCH   5   6
BRANCH   5  10
HETATM   10  C5  UNL     1      12.571  15.884  60.939  1.00  0.00     0.147 C 
HETATM   11  N3  UNL     1      13.059  17.206  60.970  1.00  0.00    -0.083 NA
HETATM   12  N4  UNL     1      11.500  15.654  60.267  1.00  0.00    -0.296 N 
ATOM     13  H4  UNL     1      11.037  16.422  59.781  1.00  0.00     0.187 HD
BRANCH  12  14
HETATM   14  N5  UNL     1      10.964  14.375  60.194  1.00  0.00    -0.344 N 
ATOM     15  H52 UNL     1      11.039  13.768  61.010  1.00  0.00     0.176 HD
ATOM     16  H51 UNL     1      10.504  14.047  59.345  1.00  0.00     0.176 HD
ENDBRANCH  12  14
ENDBRANCH   5  10
ENDBRANCH   3   5
BRANCH   1  17
HETATM   17  C2  UNL     1      15.031  12.531  59.037  1.00  0.00     0.172 C 
HETATM   18  C1  UNL     1      15.231  13.267  57.717  1.00  0.00     0.042 C 
BRANCH  17  19
HETATM   19  C6  UNL     1      14.664  11.122  58.783  1.00  0.00     0.240 C 
HETATM   20  O2  UNL     1      14.914  10.276  59.671  1.00  0.00    -0.271 OA
HETATM   21  N6  UNL     1      14.053  10.700  57.598  1.00  0.00    -0.355 N 
ATOM     22  H6  UNL     1      13.862  11.414  56.893  1.00  0.00     0.162 HD
BRANCH  21  23
HETATM   23  C7  UNL     1      13.670   9.359  57.284  1.00  0.00     0.084 A 
HETATM   24  C8  UNL     1      13.125   8.948  55.995  1.00  0.00     0.027 A 
HETATM   25  C9  UNL     1      12.157   9.184  57.121  1.00  0.00     0.027 A 
ENDBRANCH  21  23
ENDBRANCH  17  19
ENDBRANCH   1  17
TORSDOF 7
ENDMDL
MODEL 5
REMARK VINA RESULT: -6.377925075      1.538      1.987
REMARK  7 active torsions:
REMARK  status: ('A' for Active; 'I' for Inactive)
REMARK    1  A    between atoms: C2_2  and  N1_3 
REMARK    2  A    between atoms: C2_2  and  C6_19 
REMARK       I    between atoms: N1_3  and  C3_5 
REMARK    3  A    between atoms: C3_5  and  C4_7 
REMARK    4  A    between atoms: C4_7  and  N2_8 
REMARK    5  A    between atoms: C4_7  and  C5_12 
REMARK    6  A    between atoms: N4_14  and  N5_16 
REMARK       I    between atoms: C6_19  and  N6_21 
REMARK    7  A    between atoms: N6_21  and  C7_23 
ROOT
HETATM    1  N1  UNL     1      14.317  12.629  60.937  1.00  0.00    -0.346 N 
ATOM      2  H1  UNL     1      14.994  13.295  60.565  1.00  0.00     0.163 HD
HETATM    3  C3  UNL     1      13.342  13.093  61.850  1.00  0.00     0.256 C 
HETATM    4  O1  UNL     1      12.506  12.260  62.307  1.00  0.00    -0.271 OA
ENDROOT
BRANCH   3   5
HETATM    5  C4  UNL     1      13.259  14.504  62.294  1.00  0.00     0.339 C 
BRANCH   5   6
HETATM    6  N2  UNL     1      14.452  14.818  63.085  1.00  0.00    -0.060 N 
ATOM      7  H23 UNL     1      15.304  14.436  62.675  1.00  0.00     0.275 HD
ATOM      8  H22 UNL     1      14.702  15.805  63.037  1.00  0.00     0.275 HD
ATOM      9  H21 UNL     1      14.302  14.498  64.042  1.00  0.00     0.275 HD
ENDBRANCH   5   6
BRANCH   5  10
HETATM   10  C5  UNL     1      13.179  15.451  61.176  1.00  0.00     0.147 C 
HETATM   11  N3  UNL     1      14.137  15.494  60.142  1.00  0.00    -0.083 NA
HETATM   12  N4  UNL     1      12.201  16.281  61.123  1.00  0.00    -0.296 N 
ATOM     13  H4  UNL     1      12.142  16.940  60.346  1.00  0.00     0.187 HD
BRANCH  12  14
HETATM   14  N5  UNL     1      11.221  16.294  62.107  1.00  0.00    -0.344 N 
ATOM     15  H52 UNL     1      11.412  16.790  62.978  1.00  0.00     0.176 HD
ATOM     16  H51 UNL     1      10.330  15.818  61.967  1.00  0.00     0.176 HD
ENDBRANCH  12  14
ENDBRANCH   5  10
ENDBRANCH   3   5
BRANCH   1  17
HETATM   17  C2  UNL     1      14.394  11.256  60.508  1.00  0.00     0.172 C 
HETATM   18  C1  UNL     1      15.839  10.769  60.487  1.00  0.00     0.042 C 
BRANCH  17  19
HETATM   19  C6  UNL     1      13.795  11.126  59.164  1.00  0.00     0.240 C 
HETATM   20  O2  UNL     1      12.546  11.094  59.073  1.00  0.00    -0.271 OA
HETATM   21  N6  UNL     1      14.562  11.036  57.997  1.00  0.00    -0.355 N 
ATOM     22  H6  UNL     1      15.576  11.064  58.105  1.00  0.00     0.162 HD
BRANCH  21  23
HETATM   23  C7  UNL     1      14.052  10.909  56.668  1.00  0.00     0.084 A 
HETATM   24  C8  UNL     1      13.906   9.636  55.970  1.00  0.00     0.027 A 
HETATM   25  C9  UNL     1      15.113  10.473  55.652  1.00  0.00     0.027 A 
ENDBRANCH  21  23
ENDBRANCH  17  19
ENDBRANCH   1  17
TORSDOF 7
ENDMDL
