MODEL 1
REMARK VINA RESULT: -7.769551648      0.000      0.000
REMARK  6 active torsions:
REMARK  status: ('A' for Active; 'I' for Inactive)
REMARK    1  A    between atoms: C2_2  and  C4_4 
REMARK       I    between atoms: C4_4  and  N1_6 
REMARK    2  A    between atoms: N1_6  and  C5_8 
REMARK    3  A    between atoms: C7_10  and  C8_11 
REMARK    4  A    between atoms: C8_11  and  N2_12 
REMARK    5  A    between atoms: C8_11  and  C9_16 
REMARK       I    between atoms: C9_16  and  N3_18 
REMARK    6  A    between atoms: N3_18  and  N4_20 
REMARK       I    between atoms: N4_20  and  C10_22 
ROOT
HETATM    1  C8  UNL     1      15.862  13.838  60.408  1.00  0.00     0.282 C 
ENDROOT
BRANCH   1   2
HETATM    2  C7  UNL     1      15.966  12.373  60.124  1.00  0.00     0.050 A 
HETATM    3  C5  UNL     1      16.202  12.016  58.667  1.00  0.00     0.091 A 
HETATM    4  C6  UNL     1      17.214  11.731  59.705  1.00  0.00     0.034 A 
BRANCH   3   5
HETATM    5  N1  UNL     1      15.327  10.998  58.160  1.00  0.00    -0.352 N 
HETATM    6  C4  UNL     1      14.768  11.015  56.848  1.00  0.00     0.246 C 
HETATM    7  O1  UNL     1      15.075  11.985  56.110  1.00  0.00    -0.268 OA
ATOM      8  H1  UNL     1      15.091  10.218  58.774  1.00  0.00     0.163 HD
BRANCH   6   9
HETATM    9  C2  UNL     1      13.889   9.991  56.343  1.00  0.00    -0.004 C 
HETATM   10  C1  UNL     1      14.060   9.507  55.136  1.00  0.00     0.024 C 
HETATM   11  C3  UNL     1      12.791   9.491  57.189  1.00  0.00     0.053 C 
ENDBRANCH   6   9
ENDBRANCH   3   5
ENDBRANCH   1   2
BRANCH   1  12
HETATM   12  N2  UNL     1      16.832  14.199  61.405  1.00  0.00    -0.066 N 
ATOM     13  H23 UNL     1      16.443  14.180  62.347  1.00  0.00     0.275 HD
ATOM     14  H22 UNL     1      17.546  13.480  61.528  1.00  0.00     0.275 HD
ATOM     15  H21 UNL     1      17.235  15.107  61.171  1.00  0.00     0.275 HD
ENDBRANCH   1  12
BRANCH   1  16
HETATM   16  C9  UNL     1      14.504  14.283  60.715  1.00  0.00     0.267 C 
HETATM   17  O2  UNL     1      13.579  14.047  59.902  1.00  0.00    -0.269 OA
HETATM   18  N3  UNL     1      14.205  14.973  61.909  1.00  0.00    -0.265 N 
ATOM     19  H3  UNL     1      14.940  15.179  62.586  1.00  0.00     0.190 HD
BRANCH  18  20
HETATM   20  N4  UNL     1      12.887  15.371  62.150  1.00  0.00    -0.251 N 
HETATM   21  C10 UNL     1      12.383  16.597  61.662  1.00  0.00     0.347 C 
HETATM   22  N5  UNL     1      11.017  16.925  61.957  1.00  0.00    -0.038 NA
HETATM   23  O3  UNL     1      13.056  17.408  60.991  1.00  0.00    -0.249 OA
ATOM     24  H4  UNL     1      12.274  14.761  62.692  1.00  0.00     0.191 HD
ENDBRANCH  18  20
ENDBRANCH   1  16
TORSDOF 6
ENDMDL
MODEL 2
REMARK VINA RESULT: -7.494176659      1.265      1.301
REMARK  6 active torsions:
REMARK  status: ('A' for Active; 'I' for Inactive)
REMARK    1  A    between atoms: C2_2  and  C4_4 
REMARK       I    between atoms: C4_4  and  N1_6 
REMARK    2  A    between atoms: N1_6  and  C5_8 
REMARK    3  A    between atoms: C7_10  and  C8_11 
REMARK    4  A    between atoms: C8_11  and  N2_12 
REMARK    5  A    between atoms: C8_11  and  C9_16 
REMARK       I    between atoms: C9_16  and  N3_18 
REMARK    6  A    between atoms: N3_18  and  N4_20 
REMARK       I    between atoms: N4_20  and  C10_22 
ROOT
HETATM    1  C8  UNL     1      16.038  13.566  61.915  1.00  0.00     0.282 C 
ENDROOT
BRANCH   1   2
HETATM    2  C7  UNL     1      16.087  12.207  61.291  1.00  0.00     0.050 A 
HETATM    3  C5  UNL     1      16.267  12.200  59.784  1.00  0.00     0.091 A 
HETATM    4  C6  UNL     1      17.300  11.653  60.688  1.00  0.00     0.034 A 
BRANCH   3   5
HETATM    5  N1  UNL     1      15.346  11.352  59.083  1.00  0.00    -0.352 N 
HETATM    6  C4  UNL     1      15.096  11.440  57.681  1.00  0.00     0.246 C 
HETATM    7  O1  UNL     1      15.733  12.316  57.043  1.00  0.00    -0.268 OA
ATOM      8  H1  UNL     1      14.841  10.645  59.618  1.00  0.00     0.163 HD
BRANCH   6   9
HETATM    9  C2  UNL     1      14.170  10.587  56.982  1.00  0.00    -0.004 C 
HETATM   10  C1  UNL     1      14.406  10.228  55.743  1.00  0.00     0.024 C 
HETATM   11  C3  UNL     1      12.948  10.123  57.664  1.00  0.00     0.053 C 
ENDBRANCH   6   9
ENDBRANCH   3   5
ENDBRANCH   1   2
BRANCH   1  12
HETATM   12  N2  UNL     1      16.927  13.602  63.044  1.00  0.00    -0.066 N 
ATOM     13  H23 UNL     1      17.867  13.288  62.805  1.00  0.00     0.275 HD
ATOM     14  H22 UNL     1      17.158  14.556  63.322  1.00  0.00     0.275 HD
ATOM     15  H21 UNL     1      16.522  13.064  63.810  1.00  0.00     0.275 HD
ENDBRANCH   1  12
BRANCH   1  16
HETATM   16  C9  UNL     1      14.683  14.028  62.213  1.00  0.00     0.267 C 
HETATM   17  O2  UNL     1      14.173  13.765  63.329  1.00  0.00    -0.269 OA
HETATM   18  N3  UNL     1      13.931  14.766  61.275  1.00  0.00    -0.265 N 
ATOM     19  H3  UNL     1      14.322  14.991  60.360  1.00  0.00     0.190 HD
BRANCH  18  20
HETATM   20  N4  UNL     1      12.642  15.184  61.617  1.00  0.00    -0.251 N 
HETATM   21  C10 UNL     1      12.251  16.537  61.511  1.00  0.00     0.347 C 
HETATM   22  N5  UNL     1      10.907  16.877  61.883  1.00  0.00    -0.038 NA
HETATM   23  O3  UNL     1      13.004  17.451  61.113  1.00  0.00    -0.249 OA
ATOM     24  H4  UNL     1      11.967  14.496  61.952  1.00  0.00     0.191 HD
ENDBRANCH  18  20
ENDBRANCH   1  16
TORSDOF 6
ENDMDL
MODEL 3
REMARK VINA RESULT: -7.257791196      2.465      5.081
REMARK  6 active torsions:
REMARK  status: ('A' for Active; 'I' for Inactive)
REMARK    1  A    between atoms: C2_2  and  C4_4 
REMARK       I    between atoms: C4_4  and  N1_6 
REMARK    2  A    between atoms: N1_6  and  C5_8 
REMARK    3  A    between atoms: C7_10  and  C8_11 
REMARK    4  A    between atoms: C8_11  and  N2_12 
REMARK    5  A    between atoms: C8_11  and  C9_16 
REMARK       I    between atoms: C9_16  and  N3_18 
REMARK    6  A    between atoms: N3_18  and  N4_20 
REMARK       I    between atoms: N4_20  and  C10_22 
ROOT
HETATM    1  C8  UNL     1      14.356  12.580  59.024  1.00  0.00     0.282 C 
ENDROOT
BRANCH   1   2
HETATM    2  C7  UNL     1      15.688  12.807  59.666  1.00  0.00     0.050 A 
HETATM    3  C5  UNL     1      15.881  12.117  61.005  1.00  0.00     0.091 A 
HETATM    4  C6  UNL     1      16.686  11.747  59.822  1.00  0.00     0.034 A 
BRANCH   3   5
HETATM    5  N1  UNL     1      16.397  12.968  62.038  1.00  0.00    -0.352 N 
HETATM    6  C4  UNL     1      15.584  13.587  63.035  1.00  0.00     0.246 C 
HETATM    7  O1  UNL     1      14.349  13.357  62.986  1.00  0.00    -0.268 OA
ATOM      8  H1  UNL     1      17.402  13.140  62.062  1.00  0.00     0.163 HD
BRANCH   6   9
HETATM    9  C2  UNL     1      16.106  14.441  64.070  1.00  0.00    -0.004 C 
HETATM   10  C1  UNL     1      17.395  14.670  64.152  1.00  0.00     0.024 C 
HETATM   11  C3  UNL     1      15.185  15.055  65.043  1.00  0.00     0.053 C 
ENDBRANCH   6   9
ENDBRANCH   3   5
ENDBRANCH   1   2
BRANCH   1  12
HETATM   12  N2  UNL     1      14.432  12.938  57.634  1.00  0.00    -0.066 N 
ATOM     13  H23 UNL     1      14.819  13.872  57.496  1.00  0.00     0.275 HD
ATOM     14  H22 UNL     1      15.148  12.409  57.137  1.00  0.00     0.275 HD
ATOM     15  H21 UNL     1      13.510  12.836  57.208  1.00  0.00     0.275 HD
ENDBRANCH   1  12
BRANCH   1  16
HETATM   16  C9  UNL     1      13.244  13.206  59.737  1.00  0.00     0.267 C 
HETATM   17  O2  UNL     1      12.176  12.568  59.896  1.00  0.00    -0.269 OA
HETATM   18  N3  UNL     1      13.342  14.516  60.254  1.00  0.00    -0.265 N 
ATOM     19  H3  UNL     1      14.199  15.056  60.136  1.00  0.00     0.190 HD
BRANCH  18  20
HETATM   20  N4  UNL     1      12.247  15.062  60.930  1.00  0.00    -0.251 N 
HETATM   21  C10 UNL     1      12.207  16.425  61.294  1.00  0.00     0.347 C 
HETATM   22  N5  UNL     1      11.043  16.901  61.985  1.00  0.00    -0.038 NA
HETATM   23  O3  UNL     1      13.124  17.238  61.049  1.00  0.00    -0.249 OA
ATOM     24  H4  UNL     1      11.457  14.460  61.166  1.00  0.00     0.191 HD
ENDBRANCH  18  20
ENDBRANCH   1  16
TORSDOF 6
ENDMDL
MODEL 4
REMARK VINA RESULT: -7.256460612      1.916      2.278
REMARK  6 active torsions:
REMARK  status: ('A' for Active; 'I' for Inactive)
REMARK    1  A    between atoms: C2_2  and  C4_4 
REMARK       I    between atoms: C4_4  and  N1_6 
REMARK    2  A    between atoms: N1_6  and  C5_8 
REMARK    3  A    between atoms: C7_10  and  C8_11 
REMARK    4  A    between atoms: C8_11  and  N2_12 
REMARK    5  A    between atoms: C8_11  and  C9_16 
REMARK       I    between atoms: C9_16  and  N3_18 
REMARK    6  A    between atoms: N3_18  and  N4_20 
REMARK       I    between atoms: N4_20  and  C10_22 
ROOT
HETATM    1  C8  UNL     1      16.002  13.585  61.586  1.00  0.00     0.282 C 
ENDROOT
BRANCH   1   2
HETATM    2  C7  UNL     1      16.308  12.250  60.986  1.00  0.00     0.050 A 
HETATM    3  C5  UNL     1      16.630  12.271  59.502  1.00  0.00     0.091 A 
HETATM    4  C6  UNL     1      17.642  11.881  60.506  1.00  0.00     0.034 A 
BRANCH   3   5
HETATM    5  N1  UNL     1      15.914  11.298  58.729  1.00  0.00    -0.352 N 
HETATM    6  C4  UNL     1      14.818  11.616  57.873  1.00  0.00     0.246 C 
HETATM    7  O1  UNL     1      14.480  12.825  57.806  1.00  0.00    -0.268 OA
ATOM      8  H1  UNL     1      16.205  10.322  58.796  1.00  0.00     0.163 HD
BRANCH   6   9
HETATM    9  C2  UNL     1      14.101  10.636  57.100  1.00  0.00    -0.004 C 
HETATM   10  C1  UNL     1      13.058  10.024  57.609  1.00  0.00     0.024 C 
HETATM   11  C3  UNL     1      14.547  10.317  55.732  1.00  0.00     0.053 C 
ENDBRANCH   6   9
ENDBRANCH   3   5
ENDBRANCH   1   2
BRANCH   1  12
HETATM   12  N2  UNL     1      16.467  13.614  62.946  1.00  0.00    -0.066 N 
ATOM     13  H23 UNL     1      16.804  12.703  63.258  1.00  0.00     0.275 HD
ATOM     14  H22 UNL     1      17.339  14.133  63.045  1.00  0.00     0.275 HD
ATOM     15  H21 UNL     1      15.729  13.980  63.547  1.00  0.00     0.275 HD
ENDBRANCH   1  12
BRANCH   1  16
HETATM   16  C9  UNL     1      14.607  13.995  61.429  1.00  0.00     0.267 C 
HETATM   17  O2  UNL     1      13.874  14.088  62.442  1.00  0.00    -0.269 OA
HETATM   18  N3  UNL     1      14.062  14.289  60.161  1.00  0.00    -0.265 N 
ATOM     19  H3  UNL     1      14.637  14.218  59.321  1.00  0.00     0.190 HD
BRANCH  18  20
HETATM   20  N4  UNL     1      12.723  14.679  60.073  1.00  0.00    -0.251 N 
HETATM   21  C10 UNL     1      11.683  13.731  59.949  1.00  0.00     0.347 C 
HETATM   22  N5  UNL     1      10.336  14.221  59.866  1.00  0.00    -0.038 NA
HETATM   23  O3  UNL     1      11.868  12.496  59.909  1.00  0.00    -0.249 OA
ATOM     24  H4  UNL     1      12.490  15.672  60.098  1.00  0.00     0.191 HD
ENDBRANCH  18  20
ENDBRANCH   1  16
TORSDOF 6
ENDMDL
MODEL 5
REMARK VINA RESULT: -6.909280548      1.830      2.188
REMARK  6 active torsions:
REMARK  status: ('A' for Active; 'I' for Inactive)
REMARK    1  A    between atoms: C2_2  and  C4_4 
REMARK       I    between atoms: C4_4  and  N1_6 
REMARK    2  A    between atoms: N1_6  and  C5_8 
REMARK    3  A    between atoms: C7_10  and  C8_11 
REMARK    4  A    between atoms: C8_11  and  N2_12 
REMARK    5  A    between atoms: C8_11  and  C9_16 
REMARK       I    between atoms: C9_16  and  N3_18 
REMARK    6  A    between atoms: N3_18  and  N4_20 
REMARK       I    between atoms: N4_20  and  C10_22 
ROOT
HETATM    1  C8  UNL     1      15.402  13.692  62.099  1.00  0.00     0.282 C 
ENDROOT
BRANCH   1   2
HETATM    2  C7  UNL     1      15.839  12.407  61.469  1.00  0.00     0.050 A 
HETATM    3  C5  UNL     1      16.275  12.520  60.019  1.00  0.00     0.091 A 
HETATM    4  C6  UNL     1      17.226  12.142  61.084  1.00  0.00     0.034 A 
BRANCH   3   5
HETATM    5  N1  UNL     1      15.685  11.543  59.148  1.00  0.00    -0.352 N 
HETATM    6  C4  UNL     1      14.940  11.874  57.977  1.00  0.00     0.246 C 
HETATM    7  O1  UNL     1      14.808  13.095  57.711  1.00  0.00    -0.268 OA
ATOM      8  H1  UNL     1      15.805  10.557  59.379  1.00  0.00     0.163 HD
BRANCH   6   9
HETATM    9  C2  UNL     1      14.348  10.891  57.106  1.00  0.00    -0.004 C 
HETATM   10  C1  UNL     1      14.795  10.736  55.882  1.00  0.00     0.024 C 
HETATM   11  C3  UNL     1      13.232  10.061  57.594  1.00  0.00     0.053 C 
ENDBRANCH   6   9
ENDBRANCH   3   5
ENDBRANCH   1   2
BRANCH   1  12
HETATM   12  N2  UNL     1      15.412  13.547  63.529  1.00  0.00    -0.066 N 
ATOM     13  H23 UNL     1      14.545  13.144  63.882  1.00  0.00     0.275 HD
ATOM     14  H22 UNL     1      16.050  12.814  63.838  1.00  0.00     0.275 HD
ATOM     15  H21 UNL     1      15.623  14.449  63.958  1.00  0.00     0.275 HD
ENDBRANCH   1  12
BRANCH   1  16
HETATM   16  C9  UNL     1      14.143  14.210  61.565  1.00  0.00     0.267 C 
HETATM   17  O2  UNL     1      14.164  15.175  60.764  1.00  0.00    -0.269 OA
HETATM   18  N3  UNL     1      12.900  13.651  61.930  1.00  0.00    -0.265 N 
ATOM     19  H3  UNL     1      12.856  12.868  62.581  1.00  0.00     0.190 HD
BRANCH  18  20
HETATM   20  N4  UNL     1      11.730  14.187  61.385  1.00  0.00    -0.251 N 
HETATM   21  C10 UNL     1      11.263  13.801  60.109  1.00  0.00     0.347 C 
HETATM   22  N5  UNL     1      10.052  14.402  59.629  1.00  0.00    -0.038 NA
HETATM   23  O3  UNL     1      11.842  12.970  59.378  1.00  0.00    -0.249 OA
ATOM     24  H4  UNL     1      11.199  14.874  61.922  1.00  0.00     0.191 HD
ENDBRANCH  18  20
ENDBRANCH   1  16
TORSDOF 6
ENDMDL
