MODEL 1
REMARK VINA RESULT: -7.517291150      0.000      0.000
REMARK  4 active torsions:
REMARK  status: ('A' for Active; 'I' for Inactive)
REMARK    1  A    between atoms: C2_2  and  O1_4 
REMARK    2  A    between atoms: O1_4  and  C4_5 
REMARK    3  A    between atoms: C8_11  and  N2_12 
REMARK    4  A    between atoms: C10_16  and  C11_17 
ROOT
HETATM    1  C4  UNL     1      69.871  81.357  20.385  1.00  0.00     0.110 A 
HETATM    2  C5  UNL     1      68.827  80.542  20.854  1.00  0.00     0.070 A 
HETATM    3  C6  UNL     1      68.972  79.610  21.837  1.00  0.00     0.045 A 
HETATM    4  N1  UNL     1      67.969  78.830  22.280  1.00  0.00    -0.352 N 
ATOM      5  H1  UNL     1      67.040  78.930  21.870  1.00  0.00     0.166 HD
HETATM    6  C7  UNL     1      68.162  77.922  23.251  1.00  0.00     0.086 A 
HETATM    7  C8  UNL     1      67.106  77.133  23.685  1.00  0.00     0.057 A 
HETATM    8  C9  UNL     1      67.351  76.217  24.678  1.00  0.00     0.057 A 
HETATM    9  C10 UNL     1      68.578  76.042  25.262  1.00  0.00     0.019 A 
HETATM   10  N3  UNL     1      69.584  76.826  24.817  1.00  0.00    -0.357 N 
ATOM     11  H3  UNL     1      70.511  76.722  25.229  1.00  0.00     0.166 HD
HETATM   12  C15 UNL     1      69.401  77.738  23.848  1.00  0.00     0.062 A 
HETATM   13  C16 UNL     1      70.416  78.544  23.382  1.00  0.00     0.045 A 
HETATM   14  C17 UNL     1      70.238  79.478  22.390  1.00  0.00    -0.004 A 
HETATM   15  C18 UNL     1      71.273  80.261  21.951  1.00  0.00     0.059 A 
HETATM   16  C19 UNL     1      71.104  81.213  20.941  1.00  0.00     0.150 A 
HETATM   17  F1  UNL     1      72.193  81.959  20.557  1.00  0.00    -0.203 F 
ENDROOT
BRANCH   1  18
HETATM   18  O1  UNL     1      69.582  82.230  19.413  1.00  0.00    -0.344 OA
BRANCH  18  19
HETATM   19  C2  UNL     1      69.503  82.266  18.066  1.00  0.00     0.121 C 
HETATM   20  C1  UNL     1      68.061  82.605  17.662  1.00  0.00     0.040 C 
HETATM   21  C3  UNL     1      70.402  83.349  17.450  1.00  0.00     0.040 C 
ENDBRANCH  18  19
ENDBRANCH   1  18
BRANCH   7  22
HETATM   22  N2  UNL     1      65.939  77.257  23.169  1.00  0.00    -0.397 N 
ATOM     23  H22 UNL     1      65.818  77.415  22.169  1.00  0.00     0.156 HD
ATOM     24  H21 UNL     1      65.103  77.201  23.750  1.00  0.00     0.156 HD
ENDBRANCH   7  22
BRANCH   9  25
HETATM   25  C11 UNL     1      68.913  75.091  26.324  1.00  0.00    -0.009 C 
HETATM   26  C12 UNL     1      67.969  74.992  27.452  1.00  0.00     0.021 C 
HETATM   27  C13 UNL     1      69.145  73.711  25.687  1.00  0.00     0.021 C 
HETATM   28  C14 UNL     1      70.272  75.516  26.878  1.00  0.00     0.021 C 
ENDBRANCH   9  25
TORSDOF 4
ENDMDL
MODEL 2
REMARK VINA RESULT: -7.136500041      1.703      2.745
REMARK  4 active torsions:
REMARK  status: ('A' for Active; 'I' for Inactive)
REMARK    1  A    between atoms: C2_2  and  O1_4 
REMARK    2  A    between atoms: O1_4  and  C4_5 
REMARK    3  A    between atoms: C8_11  and  N2_12 
REMARK    4  A    between atoms: C10_16  and  C11_17 
ROOT
HETATM    1  C4  UNL     1      69.941  81.543  21.014  1.00  0.00     0.110 A 
HETATM    2  C5  UNL     1      70.614  80.869  22.047  1.00  0.00     0.070 A 
HETATM    3  C6  UNL     1      70.084  79.830  22.749  1.00  0.00     0.045 A 
HETATM    4  N1  UNL     1      70.733  79.190  23.740  1.00  0.00    -0.352 N 
ATOM      5  H1  UNL     1      71.677  79.486  23.991  1.00  0.00     0.166 HD
HETATM    6  C7  UNL     1      70.167  78.171  24.407  1.00  0.00     0.086 A 
HETATM    7  C8  UNL     1      70.863  77.534  25.424  1.00  0.00     0.057 A 
HETATM    8  C9  UNL     1      70.243  76.498  26.080  1.00  0.00     0.057 A 
HETATM    9  C10 UNL     1      68.979  76.062  25.783  1.00  0.00     0.019 A 
HETATM   10  N3  UNL     1      68.329  76.704  24.788  1.00  0.00    -0.357 N 
ATOM     11  H3  UNL     1      67.385  76.407  24.542  1.00  0.00     0.166 HD
HETATM   12  C15 UNL     1      68.887  77.723  24.114  1.00  0.00     0.062 A 
HETATM   13  C16 UNL     1      68.238  78.390  23.098  1.00  0.00     0.045 A 
HETATM   14  C17 UNL     1      68.800  79.434  22.404  1.00  0.00    -0.004 A 
HETATM   15  C18 UNL     1      68.122  80.073  21.401  1.00  0.00     0.059 A 
HETATM   16  C19 UNL     1      68.684  81.138  20.690  1.00  0.00     0.150 A 
HETATM   17  F1  UNL     1      67.937  81.727  19.697  1.00  0.00    -0.203 F 
ENDROOT
BRANCH   1  18
HETATM   18  O1  UNL     1      70.586  82.547  20.410  1.00  0.00    -0.344 OA
BRANCH  18  19
HETATM   19  C2  UNL     1      71.556  82.726  19.487  1.00  0.00     0.121 C 
HETATM   20  C1  UNL     1      70.910  82.797  18.095  1.00  0.00     0.040 C 
HETATM   21  C3  UNL     1      72.324  84.041  19.686  1.00  0.00     0.040 C 
ENDBRANCH  18  19
ENDBRANCH   1  18
BRANCH   7  22
HETATM   22  N2  UNL     1      72.048  77.905  25.741  1.00  0.00    -0.397 N 
ATOM     23  H22 UNL     1      72.544  78.610  25.195  1.00  0.00     0.156 HD
ATOM     24  H21 UNL     1      72.524  77.501  26.547  1.00  0.00     0.156 HD
ENDBRANCH   7  22
BRANCH   9  25
HETATM   25  C11 UNL     1      68.257  74.968  26.435  1.00  0.00    -0.009 C 
HETATM   26  C12 UNL     1      68.453  74.812  27.888  1.00  0.00     0.021 C 
HETATM   27  C13 UNL     1      66.763  75.101  26.099  1.00  0.00     0.021 C 
HETATM   28  C14 UNL     1      68.712  73.678  25.753  1.00  0.00     0.021 C 
ENDBRANCH   9  25
TORSDOF 4
ENDMDL
MODEL 3
REMARK VINA RESULT: -7.053818985      4.081      4.473
REMARK  4 active torsions:
REMARK  status: ('A' for Active; 'I' for Inactive)
REMARK    1  A    between atoms: C2_2  and  O1_4 
REMARK    2  A    between atoms: O1_4  and  C4_5 
REMARK    3  A    between atoms: C8_11  and  N2_12 
REMARK    4  A    between atoms: C10_16  and  C11_17 
ROOT
HETATM    1  C4  UNL     1      68.490  83.780  24.986  1.00  0.00     0.110 A 
HETATM    2  C5  UNL     1      67.970  82.643  24.345  1.00  0.00     0.070 A 
HETATM    3  C6  UNL     1      68.236  81.364  24.731  1.00  0.00     0.045 A 
HETATM    4  N1  UNL     1      67.738  80.278  24.110  1.00  0.00    -0.352 N 
ATOM      5  H1  UNL     1      67.124  80.402  23.305  1.00  0.00     0.166 HD
HETATM    6  C7  UNL     1      68.032  79.036  24.526  1.00  0.00     0.086 A 
HETATM    7  C8  UNL     1      67.503  77.937  23.864  1.00  0.00     0.057 A 
HETATM    8  C9  UNL     1      67.832  76.686  24.324  1.00  0.00     0.057 A 
HETATM    9  C10 UNL     1      68.652  76.465  25.399  1.00  0.00     0.019 A 
HETATM   10  N3  UNL     1      69.151  77.556  26.021  1.00  0.00    -0.357 N 
ATOM     11  H3  UNL     1      69.766  77.428  26.824  1.00  0.00     0.166 HD
HETATM   12  C15 UNL     1      68.862  78.803  25.614  1.00  0.00     0.062 A 
HETATM   13  C16 UNL     1      69.362  79.925  26.236  1.00  0.00     0.045 A 
HETATM   14  C17 UNL     1      69.073  81.204  25.825  1.00  0.00    -0.004 A 
HETATM   15  C18 UNL     1      69.593  82.296  26.469  1.00  0.00     0.059 A 
HETATM   16  C19 UNL     1      69.307  83.602  26.058  1.00  0.00     0.150 A 
HETATM   17  F1  UNL     1      69.868  84.644  26.757  1.00  0.00    -0.203 F 
ENDROOT
BRANCH   1  18
HETATM   18  O1  UNL     1      68.142  84.976  24.497  1.00  0.00    -0.344 OA
BRANCH  18  19
HETATM   19  C2  UNL     1      68.062  86.260  24.907  1.00  0.00     0.121 C 
HETATM   20  C1  UNL     1      68.462  87.179  23.743  1.00  0.00     0.040 C 
HETATM   21  C3  UNL     1      66.637  86.661  25.317  1.00  0.00     0.040 C 
ENDBRANCH  18  19
ENDBRANCH   1  18
BRANCH   7  22
HETATM   22  N2  UNL     1      66.731  78.091  22.852  1.00  0.00    -0.397 N 
ATOM     23  H22 UNL     1      67.089  78.018  21.899  1.00  0.00     0.156 HD
ATOM     24  H21 UNL     1      65.739  78.290  22.977  1.00  0.00     0.156 HD
ENDBRANCH   7  22
BRANCH   9  25
HETATM   25  C11 UNL     1      69.045  75.165  25.946  1.00  0.00    -0.009 C 
HETATM   26  C12 UNL     1      68.910  73.999  25.053  1.00  0.00     0.021 C 
HETATM   27  C13 UNL     1      70.480  75.276  26.484  1.00  0.00     0.021 C 
HETATM   28  C14 UNL     1      68.169  74.926  27.175  1.00  0.00     0.021 C 
ENDBRANCH   9  25
TORSDOF 4
ENDMDL
MODEL 4
REMARK VINA RESULT: -7.037041216      3.058      7.905
REMARK  4 active torsions:
REMARK  status: ('A' for Active; 'I' for Inactive)
REMARK    1  A    between atoms: C2_2  and  O1_4 
REMARK    2  A    between atoms: O1_4  and  C4_5 
REMARK    3  A    between atoms: C8_11  and  N2_12 
REMARK    4  A    between atoms: C10_16  and  C11_17 
ROOT
HETATM    1  C4  UNL     1      69.894  77.293  25.611  1.00  0.00     0.110 A 
HETATM    2  C5  UNL     1      69.259  77.837  24.482  1.00  0.00     0.070 A 
HETATM    3  C6  UNL     1      69.858  78.696  23.612  1.00  0.00     0.045 A 
HETATM    4  N1  UNL     1      69.243  79.217  22.534  1.00  0.00    -0.352 N 
ATOM      5  H1  UNL     1      68.274  78.963  22.341  1.00  0.00     0.166 HD
HETATM    6  C7  UNL     1      69.876  80.063  21.706  1.00  0.00     0.086 A 
HETATM    7  C8  UNL     1      69.213  80.584  20.603  1.00  0.00     0.057 A 
HETATM    8  C9  UNL     1      69.900  81.447  19.785  1.00  0.00     0.057 A 
HETATM    9  C10 UNL     1      71.200  81.821  19.999  1.00  0.00     0.019 A 
HETATM   10  N3  UNL     1      71.816  81.297  21.081  1.00  0.00    -0.357 N 
ATOM     11  H3  UNL     1      72.785  81.555  21.271  1.00  0.00     0.166 HD
HETATM   12  C15 UNL     1      71.193  80.448  21.914  1.00  0.00     0.062 A 
HETATM   13  C16 UNL     1      71.806  79.906  23.022  1.00  0.00     0.045 A 
HETATM   14  C17 UNL     1      71.176  79.038  23.881  1.00  0.00    -0.004 A 
HETATM   15  C18 UNL     1      71.819  78.521  24.975  1.00  0.00     0.059 A 
HETATM   16  C19 UNL     1      71.186  77.640  25.856  1.00  0.00     0.150 A 
HETATM   17  F1  UNL     1      71.900  77.165  26.931  1.00  0.00    -0.203 F 
ENDROOT
BRANCH   1  18
HETATM   18  O1  UNL     1      69.181  76.460  26.378  1.00  0.00    -0.344 OA
BRANCH  18  19
HETATM   19  C2  UNL     1      68.585  75.252  26.290  1.00  0.00     0.121 C 
HETATM   20  C1  UNL     1      69.578  74.251  25.679  1.00  0.00     0.040 C 
HETATM   21  C3  UNL     1      68.180  74.691  27.661  1.00  0.00     0.040 C 
ENDBRANCH  18  19
ENDBRANCH   1  18
BRANCH   7  22
HETATM   22  N2  UNL     1      67.995  80.266  20.360  1.00  0.00    -0.397 N 
ATOM     23  H22 UNL     1      67.496  79.599  20.949  1.00  0.00     0.156 HD
ATOM     24  H21 UNL     1      67.497  80.673  19.569  1.00  0.00     0.156 HD
ENDBRANCH   7  22
BRANCH   9  25
HETATM   25  C11 UNL     1      71.994  82.731  19.172  1.00  0.00    -0.009 C 
HETATM   26  C12 UNL     1      73.307  82.241  18.712  1.00  0.00     0.021 C 
HETATM   27  C13 UNL     1      71.135  83.185  17.982  1.00  0.00     0.021 C 
HETATM   28  C14 UNL     1      72.225  83.990  20.008  1.00  0.00     0.021 C 
ENDBRANCH   9  25
TORSDOF 4
ENDMDL
MODEL 5
REMARK VINA RESULT: -6.916254767      4.875      8.245
REMARK  4 active torsions:
REMARK  status: ('A' for Active; 'I' for Inactive)
REMARK    1  A    between atoms: C2_2  and  O1_4 
REMARK    2  A    between atoms: O1_4  and  C4_5 
REMARK    3  A    between atoms: C8_11  and  N2_12 
REMARK    4  A    between atoms: C10_16  and  C11_17 
ROOT
HETATM    1  C4  UNL     1      68.188  77.139  24.930  1.00  0.00     0.110 A 
HETATM    2  C5  UNL     1      68.708  78.115  25.797  1.00  0.00     0.070 A 
HETATM    3  C6  UNL     1      68.676  79.453  25.543  1.00  0.00     0.045 A 
HETATM    4  N1  UNL     1      69.179  80.383  26.375  1.00  0.00    -0.352 N 
ATOM      5  H1  UNL     1      69.611  80.088  27.251  1.00  0.00     0.166 HD
HETATM    6  C7  UNL     1      69.127  81.692  26.079  1.00  0.00     0.086 A 
HETATM    7  C8  UNL     1      69.656  82.626  26.959  1.00  0.00     0.057 A 
HETATM    8  C9  UNL     1      69.581  83.953  26.613  1.00  0.00     0.057 A 
HETATM    9  C10 UNL     1      69.013  84.402  25.450  1.00  0.00     0.019 A 
HETATM   10  N3  UNL     1      68.508  83.468  24.616  1.00  0.00    -0.357 N 
ATOM     11  H3  UNL     1      68.079  83.767  23.741  1.00  0.00     0.166 HD
HETATM   12  C15 UNL     1      68.554  82.156  24.904  1.00  0.00     0.062 A 
HETATM   13  C16 UNL     1      68.045  81.191  24.064  1.00  0.00     0.045 A 
HETATM   14  C17 UNL     1      68.089  79.847  24.349  1.00  0.00    -0.004 A 
HETATM   15  C18 UNL     1      67.574  78.916  23.487  1.00  0.00     0.059 A 
HETATM   16  C19 UNL     1      67.616  77.546  23.766  1.00  0.00     0.150 A 
HETATM   17  F1  UNL     1      67.077  76.676  22.849  1.00  0.00    -0.203 F 
ENDROOT
BRANCH   1  18
HETATM   18  O1  UNL     1      68.289  75.860  25.311  1.00  0.00    -0.344 OA
BRANCH  18  19
HETATM   19  C2  UNL     1      69.028  75.102  26.148  1.00  0.00     0.121 C 
HETATM   20  C1  UNL     1      68.222  74.848  27.431  1.00  0.00     0.040 C 
HETATM   21  C3  UNL     1      69.364  73.724  25.557  1.00  0.00     0.040 C 
ENDBRANCH  18  19
ENDBRANCH   1  18
BRANCH   7  22
HETATM   22  N2  UNL     1      70.199  82.256  28.059  1.00  0.00    -0.397 N 
ATOM     23  H22 UNL     1      69.824  81.474  28.596  1.00  0.00     0.156 HD
ATOM     24  H21 UNL     1      71.020  82.738  28.425  1.00  0.00     0.156 HD
ENDBRANCH   7  22
BRANCH   9  25
HETATM   25  C11 UNL     1      68.896  85.796  25.017  1.00  0.00    -0.009 C 
HETATM   26  C12 UNL     1      69.476  86.137  23.705  1.00  0.00     0.021 C 
HETATM   27  C13 UNL     1      67.415  86.203  25.080  1.00  0.00     0.021 C 
HETATM   28  C14 UNL     1      69.594  86.644  26.080  1.00  0.00     0.021 C 
ENDBRANCH   9  25
TORSDOF 4
ENDMDL
