MODEL 1
REMARK VINA RESULT: -6.583819344      0.000      0.000
REMARK  4 active torsions:
REMARK  status: ('A' for Active; 'I' for Inactive)
REMARK    1  A    between atoms: C8_13  and  N3_14 
REMARK    2  A    between atoms: N3_14  and  C9_16 
REMARK    3  A    between atoms: C9_16  and  O1_18 
REMARK    4  A    between atoms: O1_18  and  C10_19 
ROOT
HETATM    1  C1  UNL     1      68.965  79.247  23.357  1.00  0.00     0.050 C 
HETATM    2  C2  UNL     1      68.399  78.182  24.222  1.00  0.00    -0.032 A 
HETATM    3  C3  UNL     1      67.028  78.080  24.367  1.00  0.00     0.041 A 
HETATM    4  C4  UNL     1      66.458  77.104  25.161  1.00  0.00     0.061 A 
HETATM    5  N1  UNL     1      65.200  76.762  25.490  1.00  0.00    -0.300 N 
ATOM      6  H1  UNL     1      64.353  77.227  25.165  1.00  0.00     0.187 HD
HETATM    7  N2  UNL     1      65.243  75.723  26.305  1.00  0.00    -0.311 N 
ATOM      8  H2  UNL     1      64.420  75.269  26.700  1.00  0.00     0.186 HD
HETATM    9  C5  UNL     1      66.503  75.342  26.546  1.00  0.00     0.122 A 
HETATM   10  C6  UNL     1      67.307  76.214  25.821  1.00  0.00     0.029 A 
HETATM   11  C7  UNL     1      68.668  76.332  25.664  1.00  0.00     0.052 A 
HETATM   12 BR1  UNL     1      69.783  75.082  26.597  1.00  0.00    -0.048 Br
HETATM   13  C8  UNL     1      69.228  77.305  24.873  1.00  0.00     0.059 A 
ENDROOT
BRANCH  13  14
HETATM   14  N3  UNL     1      70.620  77.434  24.705  1.00  0.00    -0.326 N 
ATOM     15  H3  UNL     1      71.078  76.913  23.958  1.00  0.00     0.169 HD
BRANCH  14  16
HETATM   16  C9  UNL     1      71.410  78.268  25.546  1.00  0.00     0.215 C 
HETATM   17  S1  UNL     1      72.984  78.487  25.190  1.00  0.00    -0.033 SA
BRANCH  16  18
HETATM   18  O1  UNL     1      70.840  78.869  26.632  1.00  0.00    -0.322 OA
BRANCH  18  19
HETATM   19  C10 UNL     1      70.726  80.270  26.793  1.00  0.00     0.123 C 
HETATM   20  C11 UNL     1      71.399  80.787  28.023  1.00  0.00     0.040 C 
HETATM   21  C12 UNL     1      69.284  80.717  26.805  1.00  0.00     0.040 C 
ENDBRANCH  18  19
ENDBRANCH  16  18
ENDBRANCH  14  16
ENDBRANCH  13  14
TORSDOF 4
ENDMDL
MODEL 2
REMARK VINA RESULT: -6.441950893      1.198      1.302
REMARK  4 active torsions:
REMARK  status: ('A' for Active; 'I' for Inactive)
REMARK    1  A    between atoms: C8_13  and  N3_14 
REMARK    2  A    between atoms: N3_14  and  C9_16 
REMARK    3  A    between atoms: C9_16  and  O1_18 
REMARK    4  A    between atoms: O1_18  and  C10_19 
ROOT
HETATM    1  C1  UNL     1      67.390  78.355  22.930  1.00  0.00     0.050 C 
HETATM    2  C2  UNL     1      67.377  77.459  24.114  1.00  0.00    -0.032 A 
HETATM    3  C3  UNL     1      66.173  77.130  24.706  1.00  0.00     0.041 A 
HETATM    4  C4  UNL     1      66.114  76.301  25.808  1.00  0.00     0.061 A 
HETATM    5  N1  UNL     1      65.127  75.815  26.580  1.00  0.00    -0.300 N 
ATOM      6  H1  UNL     1      64.132  76.004  26.462  1.00  0.00     0.187 HD
HETATM    7  N2  UNL     1      65.659  75.051  27.518  1.00  0.00    -0.311 N 
ATOM      8  H2  UNL     1      65.121  74.562  28.233  1.00  0.00     0.186 HD
HETATM    9  C5  UNL     1      66.991  75.000  27.409  1.00  0.00     0.122 A 
HETATM   10  C6  UNL     1      67.312  75.796  26.317  1.00  0.00     0.029 A 
HETATM   11  C7  UNL     1      68.501  76.135  25.713  1.00  0.00     0.052 A 
HETATM   12 BR1  UNL     1      70.113  75.412  26.456  1.00  0.00    -0.048 Br
HETATM   13  C8  UNL     1      68.551  76.961  24.617  1.00  0.00     0.059 A 
ENDROOT
BRANCH  13  14
HETATM   14  N3  UNL     1      69.763  77.314  23.992  1.00  0.00    -0.326 N 
ATOM     15  H3  UNL     1      70.154  76.690  23.286  1.00  0.00     0.169 HD
BRANCH  14  16
HETATM   16  C9  UNL     1      70.461  78.511  24.313  1.00  0.00     0.215 C 
HETATM   17  S1  UNL     1      71.148  79.374  23.115  1.00  0.00    -0.033 SA
BRANCH  16  18
HETATM   18  O1  UNL     1      70.544  78.918  25.615  1.00  0.00    -0.322 OA
BRANCH  18  19
HETATM   19  C10 UNL     1      70.148  80.198  26.071  1.00  0.00     0.123 C 
HETATM   20  C11 UNL     1      70.819  80.612  27.341  1.00  0.00     0.040 C 
HETATM   21  C12 UNL     1      68.653  80.287  26.260  1.00  0.00     0.040 C 
ENDBRANCH  18  19
ENDBRANCH  16  18
ENDBRANCH  14  16
ENDBRANCH  13  14
TORSDOF 4
ENDMDL
MODEL 3
REMARK VINA RESULT: -6.249977746      1.164      1.411
REMARK  4 active torsions:
REMARK  status: ('A' for Active; 'I' for Inactive)
REMARK    1  A    between atoms: C8_13  and  N3_14 
REMARK    2  A    between atoms: N3_14  and  C9_16 
REMARK    3  A    between atoms: C9_16  and  O1_18 
REMARK    4  A    between atoms: O1_18  and  C10_19 
ROOT
HETATM    1  C1  UNL     1      67.886  79.068  23.216  1.00  0.00     0.050 C 
HETATM    2  C2  UNL     1      67.711  77.992  24.224  1.00  0.00    -0.032 A 
HETATM    3  C3  UNL     1      66.443  77.691  24.684  1.00  0.00     0.041 A 
HETATM    4  C4  UNL     1      66.234  76.697  25.621  1.00  0.00     0.061 A 
HETATM    5  N1  UNL     1      65.156  76.190  26.243  1.00  0.00    -0.300 N 
ATOM      6  H1  UNL     1      64.193  76.495  26.106  1.00  0.00     0.187 HD
HETATM    7  N2  UNL     1      65.551  75.230  27.060  1.00  0.00    -0.311 N 
ATOM      8  H2  UNL     1      64.923  74.684  27.650  1.00  0.00     0.186 HD
HETATM    9  C5  UNL     1      66.878  75.065  27.016  1.00  0.00     0.122 A 
HETATM   10  C6  UNL     1      67.344  75.997  26.097  1.00  0.00     0.029 A 
HETATM   11  C7  UNL     1      68.598  76.312  25.626  1.00  0.00     0.052 A 
HETATM   12 BR1  UNL     1      70.083  75.317  26.317  1.00  0.00    -0.048 Br
HETATM   13  C8  UNL     1      68.798  77.301  24.694  1.00  0.00     0.059 A 
ENDROOT
BRANCH  13  14
HETATM   14  N3  UNL     1      70.077  77.631  24.205  1.00  0.00    -0.326 N 
ATOM     15  H3  UNL     1      70.461  77.094  23.428  1.00  0.00     0.169 HD
BRANCH  14  16
HETATM   16  C9  UNL     1      70.851  78.687  24.761  1.00  0.00     0.215 C 
HETATM   17  S1  UNL     1      71.656  79.690  23.761  1.00  0.00    -0.033 SA
BRANCH  16  18
HETATM   18  O1  UNL     1      70.908  78.845  26.117  1.00  0.00    -0.322 OA
BRANCH  18  19
HETATM   19  C10 UNL     1      72.103  79.078  26.838  1.00  0.00     0.123 C 
HETATM   20  C11 UNL     1      72.755  77.827  27.332  1.00  0.00     0.040 C 
HETATM   21  C12 UNL     1      71.879  80.005  28.009  1.00  0.00     0.040 C 
ENDBRANCH  18  19
ENDBRANCH  16  18
ENDBRANCH  14  16
ENDBRANCH  13  14
TORSDOF 4
ENDMDL
MODEL 4
REMARK VINA RESULT: -6.195576244      1.548      2.036
REMARK  4 active torsions:
REMARK  status: ('A' for Active; 'I' for Inactive)
REMARK    1  A    between atoms: C8_13  and  N3_14 
REMARK    2  A    between atoms: N3_14  and  C9_16 
REMARK    3  A    between atoms: C9_16  and  O1_18 
REMARK    4  A    between atoms: O1_18  and  C10_19 
ROOT
HETATM    1  C1  UNL     1      68.817  79.287  23.094  1.00  0.00     0.050 C 
HETATM    2  C2  UNL     1      68.324  78.240  24.023  1.00  0.00    -0.032 A 
HETATM    3  C3  UNL     1      66.964  78.064  24.191  1.00  0.00     0.041 A 
HETATM    4  C4  UNL     1      66.461  77.102  25.045  1.00  0.00     0.061 A 
HETATM    5  N1  UNL     1      65.229  76.704  25.409  1.00  0.00    -0.300 N 
ATOM      6  H1  UNL     1      64.353  77.100  25.070  1.00  0.00     0.187 HD
HETATM    7  N2  UNL     1      65.343  75.717  26.279  1.00  0.00    -0.311 N 
ATOM      8  H2  UNL     1      64.552  75.237  26.709  1.00  0.00     0.186 HD
HETATM    9  C5  UNL     1      66.626  75.425  26.523  1.00  0.00     0.122 A 
HETATM   10  C6  UNL     1      67.368  76.302  25.742  1.00  0.00     0.029 A 
HETATM   11  C7  UNL     1      68.718  76.492  25.560  1.00  0.00     0.052 A 
HETATM   12 BR1  UNL     1      69.915  75.364  26.545  1.00  0.00    -0.048 Br
HETATM   13  C8  UNL     1      69.211  77.451  24.709  1.00  0.00     0.059 A 
ENDROOT
BRANCH  13  14
HETATM   14  N3  UNL     1      70.591  77.653  24.517  1.00  0.00    -0.326 N 
ATOM     15  H3  UNL     1      71.035  77.265  23.685  1.00  0.00     0.169 HD
BRANCH  14  16
HETATM   16  C9  UNL     1      71.387  78.380  25.445  1.00  0.00     0.215 C 
HETATM   17  S1  UNL     1      70.699  79.570  26.318  1.00  0.00    -0.033 SA
BRANCH  16  18
HETATM   18  O1  UNL     1      72.710  78.070  25.591  1.00  0.00    -0.322 OA
BRANCH  18  19
HETATM   19  C10 UNL     1      73.549  78.628  26.585  1.00  0.00     0.123 C 
HETATM   20  C11 UNL     1      74.550  79.598  26.044  1.00  0.00     0.040 C 
HETATM   21  C12 UNL     1      74.278  77.562  27.366  1.00  0.00     0.040 C 
ENDBRANCH  18  19
ENDBRANCH  16  18
ENDBRANCH  14  16
ENDBRANCH  13  14
TORSDOF 4
ENDMDL
MODEL 5
REMARK VINA RESULT: -6.174166637      2.101      2.809
REMARK  4 active torsions:
REMARK  status: ('A' for Active; 'I' for Inactive)
REMARK    1  A    between atoms: C8_13  and  N3_14 
REMARK    2  A    between atoms: N3_14  and  C9_16 
REMARK    3  A    between atoms: C9_16  and  O1_18 
REMARK    4  A    between atoms: O1_18  and  C10_19 
ROOT
HETATM    1  C1  UNL     1      67.090  78.245  22.921  1.00  0.00     0.050 C 
HETATM    2  C2  UNL     1      67.163  77.382  24.126  1.00  0.00    -0.032 A 
HETATM    3  C3  UNL     1      65.996  76.984  24.750  1.00  0.00     0.041 A 
HETATM    4  C4  UNL     1      66.016  76.181  25.874  1.00  0.00     0.061 A 
HETATM    5  N1  UNL     1      65.080  75.646  26.677  1.00  0.00    -0.300 N 
ATOM      6  H1  UNL     1      64.072  75.762  26.573  1.00  0.00     0.187 HD
HETATM    7  N2  UNL     1      65.682  74.947  27.622  1.00  0.00    -0.311 N 
ATOM      8  H2  UNL     1      65.194  74.439  28.359  1.00  0.00     0.186 HD
HETATM    9  C5  UNL     1      67.013  74.988  27.488  1.00  0.00     0.122 A 
HETATM   10  C6  UNL     1      67.256  75.776  26.370  1.00  0.00     0.029 A 
HETATM   11  C7  UNL     1      68.407  76.182  25.735  1.00  0.00     0.052 A 
HETATM   12 BR1  UNL     1      70.080  75.595  26.464  1.00  0.00    -0.048 Br
HETATM   13  C8  UNL     1      68.378  76.981  24.618  1.00  0.00     0.059 A 
ENDROOT
BRANCH  13  14
HETATM   14  N3  UNL     1      69.551  77.402  23.961  1.00  0.00    -0.326 N 
ATOM     15  H3  UNL     1      69.988  76.778  23.284  1.00  0.00     0.169 HD
BRANCH  14  16
HETATM   16  C9  UNL     1      70.145  78.671  24.210  1.00  0.00     0.215 C 
HETATM   17  S1  UNL     1      69.974  79.350  25.680  1.00  0.00    -0.033 SA
BRANCH  16  18
HETATM   18  O1  UNL     1      70.846  79.297  23.218  1.00  0.00    -0.322 OA
BRANCH  18  19
HETATM   19  C10 UNL     1      70.261  79.811  22.037  1.00  0.00     0.123 C 
HETATM   20  C11 UNL     1      71.213  79.895  20.888  1.00  0.00     0.040 C 
HETATM   21  C12 UNL     1      69.649  81.173  22.262  1.00  0.00     0.040 C 
ENDBRANCH  18  19
ENDBRANCH  16  18
ENDBRANCH  14  16
ENDBRANCH  13  14
TORSDOF 4
ENDMDL
