MODEL 1
REMARK VINA RESULT: -7.067421729      0.000      0.000
REMARK  4 active torsions:
REMARK  status: ('A' for Active; 'I' for Inactive)
REMARK    1  A    between atoms: C5_5  and  O1_6 
REMARK    2  A    between atoms: O1_6  and  C6_7 
REMARK    3  A    between atoms: C6_7  and  N1_9 
REMARK    4  A    between atoms: N1_9  and  C7_11 
ROOT
HETATM    1  C1  UNL     1      69.399  81.678  22.802  1.00  0.00     0.037 C 
HETATM    2  C2  UNL     1      68.978  81.870  24.266  1.00  0.00     0.021 C 
HETATM    3  C3  UNL     1      68.552  83.327  24.382  1.00  0.00     0.037 C 
HETATM    4  C4  UNL     1      67.776  81.016  24.481  1.00  0.00     0.064 C 
HETATM    5  C5  UNL     1      68.222  79.597  24.681  1.00  0.00     0.154 C 
HETATM    6  C13 UNL     1      69.103  79.479  25.889  1.00  0.00     0.139 C 
HETATM    7 CL1  UNL     1      70.223  78.118  25.603  1.00  0.00    -0.120 Cl
HETATM    8  C14 UNL     1      69.868  80.723  26.198  1.00  0.00     0.038 C 
HETATM    9  C15 UNL     1      69.280  81.483  27.382  1.00  0.00     0.039 C 
HETATM   10  C16 UNL     1      71.258  80.276  26.682  1.00  0.00     0.039 C 
HETATM   11  N2  UNL     1      70.097  81.564  25.069  1.00  0.00    -0.404 N 
ATOM     12  H2  UNL     1      71.025  81.927  24.852  1.00  0.00     0.154 HD
ENDROOT
BRANCH   5  13
HETATM   13  O1  UNL     1      67.183  78.673  24.760  1.00  0.00    -0.320 OA
BRANCH  13  14
HETATM   14  C6  UNL     1      67.043  77.595  23.886  1.00  0.00     0.210 C 
HETATM   15  S1  UNL     1      66.606  77.791  22.334  1.00  0.00    -0.033 SA
BRANCH  14  16
HETATM   16  N1  UNL     1      67.304  76.294  24.418  1.00  0.00    -0.357 N 
ATOM     17  H1  UNL     1      67.481  75.504  23.797  1.00  0.00     0.162 HD
BRANCH  16  18
HETATM   18  C7  UNL     1      67.314  76.119  25.851  1.00  0.00     0.084 C 
HETATM   19  C8  UNL     1      65.880  76.069  26.334  1.00  0.00     0.025 C 
HETATM   20  C9  UNL     1      65.665  74.857  27.228  1.00  0.00     0.002 C 
HETATM   21  C10 UNL     1      66.741  74.896  28.304  1.00  0.00     0.000 C 
HETATM   22  C11 UNL     1      68.083  74.700  27.682  1.00  0.00     0.002 C 
HETATM   23  C12 UNL     1      68.041  74.834  26.175  1.00  0.00     0.025 C 
ENDBRANCH  16  18
ENDBRANCH  14  16
ENDBRANCH  13  14
ENDBRANCH   5  13
TORSDOF 4
ENDMDL
MODEL 2
REMARK VINA RESULT: -6.951714496      1.654      1.934
REMARK  4 active torsions:
REMARK  status: ('A' for Active; 'I' for Inactive)
REMARK    1  A    between atoms: C5_5  and  O1_6 
REMARK    2  A    between atoms: O1_6  and  C6_7 
REMARK    3  A    between atoms: C6_7  and  N1_9 
REMARK    4  A    between atoms: N1_9  and  C7_11 
ROOT
HETATM    1  C1  UNL     1      71.019  79.954  21.356  1.00  0.00     0.037 C 
HETATM    2  C2  UNL     1      71.008  80.529  22.778  1.00  0.00     0.021 C 
HETATM    3  C3  UNL     1      71.243  82.025  22.617  1.00  0.00     0.037 C 
HETATM    4  C4  UNL     1      69.630  80.331  23.309  1.00  0.00     0.064 C 
HETATM    5  C5  UNL     1      69.489  78.908  23.766  1.00  0.00     0.154 C 
HETATM    6  C13 UNL     1      70.463  78.601  24.865  1.00  0.00     0.139 C 
HETATM    7 CL1  UNL     1      70.852  76.862  24.762  1.00  0.00    -0.120 Cl
HETATM    8  C14 UNL     1      71.712  79.417  24.805  1.00  0.00     0.038 C 
HETATM    9  C15 UNL     1      71.728  80.526  25.849  1.00  0.00     0.039 C 
HETATM   10  C16 UNL     1      72.865  78.485  25.217  1.00  0.00     0.039 C 
HETATM   11  N2  UNL     1      72.038  79.891  23.499  1.00  0.00    -0.404 N 
ATOM     12  H2  UNL     1      72.972  79.773  23.105  1.00  0.00     0.154 HD
ENDROOT
BRANCH   5  13
HETATM   13  O1  UNL     1      68.201  78.556  24.162  1.00  0.00    -0.320 OA
BRANCH  13  14
HETATM   14  C6  UNL     1      67.404  77.647  23.467  1.00  0.00     0.210 C 
HETATM   15  S1  UNL     1      66.672  78.031  22.069  1.00  0.00    -0.033 SA
BRANCH  14  16
HETATM   16  N1  UNL     1      67.254  76.346  24.042  1.00  0.00    -0.357 N 
ATOM     17  H1  UNL     1      67.067  75.536  23.452  1.00  0.00     0.162 HD
BRANCH  16  18
HETATM   18  C7  UNL     1      67.374  76.203  25.473  1.00  0.00     0.084 C 
HETATM   19  C8  UNL     1      65.985  76.241  26.074  1.00  0.00     0.025 C 
HETATM   20  C9  UNL     1      65.782  75.062  27.014  1.00  0.00     0.002 C 
HETATM   21  C10 UNL     1      66.945  75.067  27.997  1.00  0.00     0.000 C 
HETATM   22  C11 UNL     1      68.218  74.785  27.272  1.00  0.00     0.002 C 
HETATM   23  C12 UNL     1      68.057  74.888  25.770  1.00  0.00     0.025 C 
ENDBRANCH  16  18
ENDBRANCH  14  16
ENDBRANCH  13  14
ENDBRANCH   5  13
TORSDOF 4
ENDMDL
MODEL 3
REMARK VINA RESULT: -6.895252336      1.485      1.924
REMARK  4 active torsions:
REMARK  status: ('A' for Active; 'I' for Inactive)
REMARK    1  A    between atoms: C5_5  and  O1_6 
REMARK    2  A    between atoms: O1_6  and  C6_7 
REMARK    3  A    between atoms: C6_7  and  N1_9 
REMARK    4  A    between atoms: N1_9  and  C7_11 
ROOT
HETATM    1  C1  UNL     1      67.886  81.725  24.760  1.00  0.00     0.037 C 
HETATM    2  C2  UNL     1      69.009  81.000  25.513  1.00  0.00     0.021 C 
HETATM    3  C3  UNL     1      68.848  81.403  26.973  1.00  0.00     0.037 C 
HETATM    4  C4  UNL     1      68.727  79.541  25.401  1.00  0.00     0.064 C 
HETATM    5  C5  UNL     1      69.179  79.066  24.051  1.00  0.00     0.154 C 
HETATM    6  C13 UNL     1      70.654  79.273  23.878  1.00  0.00     0.139 C 
HETATM    7 CL1  UNL     1      70.958  79.517  22.135  1.00  0.00    -0.120 Cl
HETATM    8  C14 UNL     1      71.196  80.421  24.664  1.00  0.00     0.038 C 
HETATM    9  C15 UNL     1      71.963  79.963  25.899  1.00  0.00     0.039 C 
HETATM   10  C16 UNL     1      72.259  81.096  23.781  1.00  0.00     0.039 C 
HETATM   11  N2  UNL     1      70.233  81.431  24.962  1.00  0.00    -0.404 N 
ATOM     12  H2  UNL     1      70.421  82.417  24.784  1.00  0.00     0.154 HD
ENDROOT
BRANCH   5  13
HETATM   13  O1  UNL     1      68.849  77.743  23.767  1.00  0.00    -0.320 OA
BRANCH  13  14
HETATM   14  C6  UNL     1      67.569  77.330  23.398  1.00  0.00     0.210 C 
HETATM   15  S1  UNL     1      66.736  78.057  22.208  1.00  0.00    -0.033 SA
BRANCH  14  16
HETATM   16  N1  UNL     1      67.013  76.227  24.118  1.00  0.00    -0.357 N 
ATOM     17  H1  UNL     1      66.442  75.530  23.640  1.00  0.00     0.162 HD
BRANCH  16  18
HETATM   18  C7  UNL     1      67.275  76.119  25.533  1.00  0.00     0.084 C 
HETATM   19  C8  UNL     1      65.951  76.155  26.267  1.00  0.00     0.025 C 
HETATM   20  C9  UNL     1      65.859  74.997  27.249  1.00  0.00     0.002 C 
HETATM   21  C10 UNL     1      67.113  75.039  28.112  1.00  0.00     0.000 C 
HETATM   22  C11 UNL     1      68.312  74.755  27.271  1.00  0.00     0.002 C 
HETATM   23  C12 UNL     1      68.003  74.820  25.791  1.00  0.00     0.025 C 
ENDBRANCH  16  18
ENDBRANCH  14  16
ENDBRANCH  13  14
ENDBRANCH   5  13
TORSDOF 4
ENDMDL
MODEL 4
REMARK VINA RESULT: -6.680575774      1.520      2.861
REMARK  4 active torsions:
REMARK  status: ('A' for Active; 'I' for Inactive)
REMARK    1  A    between atoms: C5_5  and  O1_6 
REMARK    2  A    between atoms: O1_6  and  C6_7 
REMARK    3  A    between atoms: C6_7  and  N1_9 
REMARK    4  A    between atoms: N1_9  and  C7_11 
ROOT
HETATM    1  C1  UNL     1      71.063  79.775  26.440  1.00  0.00     0.037 C 
HETATM    2  C2  UNL     1      71.002  79.408  24.951  1.00  0.00     0.021 C 
HETATM    3  C3  UNL     1      72.248  78.575  24.684  1.00  0.00     0.037 C 
HETATM    4  C4  UNL     1      69.810  78.531  24.775  1.00  0.00     0.064 C 
HETATM    5  C5  UNL     1      68.582  79.391  24.725  1.00  0.00     0.154 C 
HETATM    6  C13 UNL     1      68.640  80.339  23.565  1.00  0.00     0.139 C 
HETATM    7 CL1  UNL     1      67.708  81.794  24.017  1.00  0.00    -0.120 Cl
HETATM    8  C14 UNL     1      70.029  80.717  23.167  1.00  0.00     0.038 C 
HETATM    9  C15 UNL     1      70.479  80.004  21.898  1.00  0.00     0.039 C 
HETATM   10  C16 UNL     1      69.986  82.204  22.777  1.00  0.00     0.039 C 
HETATM   11  N2  UNL     1      70.986  80.614  24.220  1.00  0.00    -0.404 N 
ATOM     12  H2  UNL     1      71.628  81.377  24.434  1.00  0.00     0.154 HD
ENDROOT
BRANCH   5  13
HETATM   13  O1  UNL     1      67.384  78.681  24.697  1.00  0.00    -0.320 OA
BRANCH  13  14
HETATM   14  C6  UNL     1      67.151  77.596  23.852  1.00  0.00     0.210 C 
HETATM   15  S1  UNL     1      66.673  77.786  22.312  1.00  0.00    -0.033 SA
BRANCH  14  16
HETATM   16  N1  UNL     1      67.354  76.292  24.403  1.00  0.00    -0.357 N 
ATOM     17  H1  UNL     1      67.527  75.492  23.795  1.00  0.00     0.162 HD
BRANCH  16  18
HETATM   18  C7  UNL     1      67.312  76.131  25.837  1.00  0.00     0.084 C 
HETATM   19  C8  UNL     1      65.861  76.055  26.265  1.00  0.00     0.025 C 
HETATM   20  C9  UNL     1      65.636  74.848  27.161  1.00  0.00     0.002 C 
HETATM   21  C10 UNL     1      66.669  74.919  28.278  1.00  0.00     0.000 C 
HETATM   22  C11 UNL     1      68.038  74.745  27.711  1.00  0.00     0.002 C 
HETATM   23  C12 UNL     1      68.051  74.865  26.202  1.00  0.00     0.025 C 
ENDBRANCH  16  18
ENDBRANCH  14  16
ENDBRANCH  13  14
ENDBRANCH   5  13
TORSDOF 4
ENDMDL
MODEL 5
REMARK VINA RESULT: -6.642833715      1.402      2.588
REMARK  4 active torsions:
REMARK  status: ('A' for Active; 'I' for Inactive)
REMARK    1  A    between atoms: C5_5  and  O1_6 
REMARK    2  A    between atoms: O1_6  and  C6_7 
REMARK    3  A    between atoms: C6_7  and  N1_9 
REMARK    4  A    between atoms: N1_9  and  C7_11 
ROOT
HETATM    1  C1  UNL     1      69.490  81.266  27.101  1.00  0.00     0.037 C 
HETATM    2  C2  UNL     1      70.136  80.307  26.093  1.00  0.00     0.021 C 
HETATM    3  C3  UNL     1      71.347  79.720  26.805  1.00  0.00     0.037 C 
HETATM    4  C4  UNL     1      69.157  79.207  25.860  1.00  0.00     0.064 C 
HETATM    5  C5  UNL     1      68.112  79.689  24.897  1.00  0.00     0.154 C 
HETATM    6  C13 UNL     1      68.728  80.054  23.579  1.00  0.00     0.139 C 
HETATM    7 CL1  UNL     1      67.716  81.334  22.853  1.00  0.00    -0.120 Cl
HETATM    8  C14 UNL     1      70.145  80.513  23.685  1.00  0.00     0.038 C 
HETATM    9  C15 UNL     1      71.132  79.446  23.226  1.00  0.00     0.039 C 
HETATM   10  C16 UNL     1      70.315  81.655  22.669  1.00  0.00     0.039 C 
HETATM   11  N2  UNL     1      70.487  81.063  24.956  1.00  0.00    -0.404 N 
ATOM     12  H2  UNL     1      70.963  81.962  25.039  1.00  0.00     0.154 HD
ENDROOT
BRANCH   5  13
HETATM   13  O1  UNL     1      67.060  78.799  24.697  1.00  0.00    -0.320 OA
BRANCH  13  14
HETATM   14  C6  UNL     1      67.128  77.708  23.832  1.00  0.00     0.210 C 
HETATM   15  S1  UNL     1      66.716  77.820  22.264  1.00  0.00    -0.033 SA
BRANCH  14  16
HETATM   16  N1  UNL     1      67.582  76.470  24.385  1.00  0.00    -0.357 N 
ATOM     17  H1  UNL     1      68.009  75.760  23.791  1.00  0.00     0.162 HD
BRANCH  16  18
HETATM   18  C7  UNL     1      67.425  76.245  25.802  1.00  0.00     0.084 C 
HETATM   19  C8  UNL     1      65.945  76.154  26.109  1.00  0.00     0.025 C 
HETATM   20  C9  UNL     1      65.652  74.908  26.930  1.00  0.00     0.002 C 
HETATM   21  C10 UNL     1      66.591  74.927  28.128  1.00  0.00     0.000 C 
HETATM   22  C11 UNL     1      68.001  74.776  27.665  1.00  0.00     0.002 C 
HETATM   23  C12 UNL     1      68.135  74.962  26.169  1.00  0.00     0.025 C 
ENDBRANCH  16  18
ENDBRANCH  14  16
ENDBRANCH  13  14
ENDBRANCH   5  13
TORSDOF 4
ENDMDL
