MODEL 1
REMARK VINA RESULT: -6.741146423      0.000      0.000
REMARK  5 active torsions:
REMARK  status: ('A' for Active; 'I' for Inactive)
REMARK    1  A    between atoms: C5_7  and  N2_8 
REMARK    2  A    between atoms: C10_16  and  C11_17 
REMARK    3  A    between atoms: C12_19  and  O1_21 
REMARK    4  A    between atoms: O1_21  and  C14_22 
REMARK    5  A    between atoms: C14_22  and  C15_23 
ROOT
HETATM    1  C1  UNL     1      69.208  78.358  25.205  1.00  0.00     0.050 C 
HETATM    2  C2  UNL     1      68.621  78.593  23.895  1.00  0.00    -0.026 A 
HETATM    3  C3  UNL     1      69.110  79.531  23.039  1.00  0.00     0.006 A 
HETATM    4  C4  UNL     1      68.388  79.755  21.836  1.00  0.00     0.020 A 
HETATM    5  N1  UNL     1      67.275  79.058  21.554  1.00  0.00    -0.344 N 
ATOM      6  H1  UNL     1      66.787  79.248  20.678  1.00  0.00     0.167 HD
HETATM    7  C5  UNL     1      66.778  78.125  22.375  1.00  0.00     0.120 A 
HETATM    8  C6  UNL     1      67.443  77.882  23.552  1.00  0.00     0.094 A 
HETATM    9  C7  UNL     1      66.980  76.898  24.497  1.00  0.00     0.104 C 
HETATM   10  N3  UNL     1      66.590  76.097  25.247  1.00  0.00    -0.191 NA
HETATM   11  C8  UNL     1      68.718  80.822  20.899  1.00  0.00     0.058 C 
HETATM   12  C9  UNL     1      69.424  81.983  21.508  1.00  0.00     0.015 C 
HETATM   13  C10 UNL     1      69.939  81.782  22.869  1.00  0.00     0.039 C 
HETATM   14  C12 UNL     1      70.317  80.302  23.181  1.00  0.00     0.091 C 
HETATM   15  C13 UNL     1      71.101  79.905  21.836  1.00  0.00     0.052 C 
ENDROOT
BRANCH   7  16
HETATM   16  N2  UNL     1      65.716  77.439  22.132  1.00  0.00    -0.384 N 
ATOM     17  H22 UNL     1      65.820  76.570  21.607  1.00  0.00     0.157 HD
ATOM     18  H21 UNL     1      64.780  77.709  22.430  1.00  0.00     0.157 HD
ENDBRANCH   7  16
BRANCH  14  19
HETATM   19  O1  UNL     1      71.218  80.289  24.128  1.00  0.00    -0.374 OA
BRANCH  19  20
HETATM   20  C14 UNL     1      72.491  80.576  24.208  1.00  0.00     0.177 C 
BRANCH  20  21
HETATM   21  C15 UNL     1      73.254  79.723  25.259  1.00  0.00    -0.030 C 
HETATM   22  C16 UNL     1      72.892  78.303  25.001  1.00  0.00     0.016 C 
HETATM   23  C17 UNL     1      74.689  80.018  25.368  1.00  0.00     0.016 C 
HETATM   24  C18 UNL     1      72.602  80.120  26.590  1.00  0.00     0.016 C 
ENDBRANCH  20  21
ENDBRANCH  19  20
ENDBRANCH  14  19
BRANCH  13  25
HETATM   25  C11 UNL     1      69.180  82.409  23.987  1.00  0.00     0.122 C 
HETATM   26 CL1  UNL     1      67.440  82.373  23.865  1.00  0.00    -0.130 Cl
ENDBRANCH  13  25
TORSDOF 5
ENDMDL
MODEL 2
REMARK VINA RESULT: -6.536286513      3.511      5.296
REMARK  5 active torsions:
REMARK  status: ('A' for Active; 'I' for Inactive)
REMARK    1  A    between atoms: C5_7  and  N2_8 
REMARK    2  A    between atoms: C10_16  and  C11_17 
REMARK    3  A    between atoms: C12_19  and  O1_21 
REMARK    4  A    between atoms: O1_21  and  C14_22 
REMARK    5  A    between atoms: C14_22  and  C15_23 
ROOT
HETATM    1  C1  UNL     1      71.117  79.138  26.850  1.00  0.00     0.050 C 
HETATM    2  C2  UNL     1      70.196  80.174  26.410  1.00  0.00    -0.026 A 
HETATM    3  C3  UNL     1      69.309  79.973  25.399  1.00  0.00     0.006 A 
HETATM    4  C4  UNL     1      68.539  81.090  24.975  1.00  0.00     0.020 A 
HETATM    5  N1  UNL     1      68.678  82.291  25.559  1.00  0.00    -0.344 N 
ATOM      6  H1  UNL     1      68.104  83.066  25.226  1.00  0.00     0.167 HD
HETATM    7  C5  UNL     1      69.537  82.513  26.561  1.00  0.00     0.120 A 
HETATM    8  C6  UNL     1      70.306  81.461  26.996  1.00  0.00     0.094 A 
HETATM    9  C7  UNL     1      71.258  81.608  28.067  1.00  0.00     0.104 C 
HETATM   10  N3  UNL     1      72.023  81.747  28.935  1.00  0.00    -0.191 NA
HETATM   11  C8  UNL     1      67.656  81.051  23.816  1.00  0.00     0.058 C 
HETATM   12  C9  UNL     1      68.025  80.036  22.790  1.00  0.00     0.015 C 
HETATM   13  C10 UNL     1      69.026  79.042  23.199  1.00  0.00     0.039 C 
HETATM   14  C12 UNL     1      69.011  78.735  24.728  1.00  0.00     0.091 C 
HETATM   15  C13 UNL     1      67.431  78.608  24.991  1.00  0.00     0.052 C 
ENDROOT
BRANCH   7  16
HETATM   16  N2  UNL     1      69.691  83.651  27.143  1.00  0.00    -0.384 N 
ATOM     17  H22 UNL     1      69.061  84.409  26.880  1.00  0.00     0.157 HD
ATOM     18  H21 UNL     1      70.402  83.842  27.848  1.00  0.00     0.157 HD
ENDBRANCH   7  16
BRANCH  14  19
HETATM   19  O1  UNL     1      69.495  77.535  24.921  1.00  0.00    -0.374 OA
BRANCH  19  20
HETATM   20  C14 UNL     1      69.082  76.316  24.692  1.00  0.00     0.177 C 
BRANCH  20  21
HETATM   21  C15 UNL     1      69.259  75.364  25.908  1.00  0.00    -0.030 C 
HETATM   22  C16 UNL     1      70.585  75.678  26.506  1.00  0.00     0.016 C 
HETATM   23  C17 UNL     1      68.120  75.328  26.834  1.00  0.00     0.016 C 
HETATM   24  C18 UNL     1      69.372  73.975  25.267  1.00  0.00     0.016 C 
ENDBRANCH  20  21
ENDBRANCH  19  20
ENDBRANCH  14  19
BRANCH  13  25
HETATM   25  C11 UNL     1      70.412  79.211  22.680  1.00  0.00     0.122 C 
HETATM   26 CL1  UNL     1      70.872  80.824  22.202  1.00  0.00    -0.130 Cl
ENDBRANCH  13  25
TORSDOF 5
ENDMDL
MODEL 3
REMARK VINA RESULT: -6.456646157      2.528      4.421
REMARK  5 active torsions:
REMARK  status: ('A' for Active; 'I' for Inactive)
REMARK    1  A    between atoms: C5_7  and  N2_8 
REMARK    2  A    between atoms: C10_16  and  C11_17 
REMARK    3  A    between atoms: C12_19  and  O1_21 
REMARK    4  A    between atoms: O1_21  and  C14_22 
REMARK    5  A    between atoms: C14_22  and  C15_23 
ROOT
HETATM    1  C1  UNL     1      71.662  79.633  23.219  1.00  0.00     0.050 C 
HETATM    2  C2  UNL     1      70.223  79.596  23.009  1.00  0.00    -0.026 A 
HETATM    3  C3  UNL     1      69.363  79.140  23.960  1.00  0.00     0.006 A 
HETATM    4  C4  UNL     1      67.991  79.041  23.604  1.00  0.00     0.020 A 
HETATM    5  N1  UNL     1      67.563  79.393  22.381  1.00  0.00    -0.344 N 
ATOM      6  H1  UNL     1      66.569  79.308  22.167  1.00  0.00     0.167 HD
HETATM    7  C5  UNL     1      68.387  79.851  21.430  1.00  0.00     0.120 A 
HETATM    8  C6  UNL     1      69.723  79.957  21.732  1.00  0.00     0.094 A 
HETATM    9  C7  UNL     1      70.683  80.437  20.771  1.00  0.00     0.104 C 
HETATM   10  N3  UNL     1      71.443  80.829  19.980  1.00  0.00    -0.191 NA
HETATM   11  C8  UNL     1      66.987  78.441  24.474  1.00  0.00     0.058 C 
HETATM   12  C9  UNL     1      67.524  77.447  25.445  1.00  0.00     0.015 C 
HETATM   13  C10 UNL     1      68.985  77.415  25.592  1.00  0.00     0.039 C 
HETATM   14  C12 UNL     1      69.670  78.790  25.322  1.00  0.00     0.091 C 
HETATM   15  C13 UNL     1      68.687  79.775  26.126  1.00  0.00     0.052 C 
ENDROOT
BRANCH   7  16
HETATM   16  N2  UNL     1      68.008  80.199  20.251  1.00  0.00    -0.384 N 
ATOM     17  H22 UNL     1      68.356  81.083  19.879  1.00  0.00     0.157 HD
ATOM     18  H21 UNL     1      67.382  79.647  19.665  1.00  0.00     0.157 HD
ENDBRANCH   7  16
BRANCH  14  19
HETATM   19  O1  UNL     1      70.807  78.828  25.966  1.00  0.00    -0.374 OA
BRANCH  19  20
HETATM   20  C14 UNL     1      71.309  79.555  26.929  1.00  0.00     0.177 C 
BRANCH  20  21
HETATM   21  C15 UNL     1      72.624  78.976  27.522  1.00  0.00    -0.030 C 
HETATM   22  C16 UNL     1      73.745  79.659  26.821  1.00  0.00     0.016 C 
HETATM   23  C17 UNL     1      72.686  78.965  28.989  1.00  0.00     0.016 C 
HETATM   24  C18 UNL     1      72.621  77.516  27.052  1.00  0.00     0.016 C 
ENDBRANCH  20  21
ENDBRANCH  19  20
ENDBRANCH  14  19
BRANCH  13  25
HETATM   25  C11 UNL     1      69.716  76.294  24.938  1.00  0.00     0.122 C 
HETATM   26 CL1  UNL     1      70.051  74.899  25.932  1.00  0.00    -0.130 Cl
ENDBRANCH  13  25
TORSDOF 5
ENDMDL
MODEL 4
REMARK VINA RESULT: -6.408135090      3.643      6.026
REMARK  5 active torsions:
REMARK  status: ('A' for Active; 'I' for Inactive)
REMARK    1  A    between atoms: C5_7  and  N2_8 
REMARK    2  A    between atoms: C10_16  and  C11_17 
REMARK    3  A    between atoms: C12_19  and  O1_21 
REMARK    4  A    between atoms: O1_21  and  C14_22 
REMARK    5  A    between atoms: C14_22  and  C15_23 
ROOT
HETATM    1  C1  UNL     1      71.545  77.220  26.492  1.00  0.00     0.050 C 
HETATM    2  C2  UNL     1      71.957  78.610  26.377  1.00  0.00    -0.026 A 
HETATM    3  C3  UNL     1      71.132  79.572  25.880  1.00  0.00     0.006 A 
HETATM    4  C4  UNL     1      71.679  80.872  25.705  1.00  0.00     0.020 A 
HETATM    5  N1  UNL     1      72.954  81.139  26.029  1.00  0.00    -0.344 N 
ATOM      6  H1  UNL     1      73.306  82.087  25.890  1.00  0.00     0.167 HD
HETATM    7  C5  UNL     1      73.783  80.214  26.527  1.00  0.00     0.120 A 
HETATM    8  C6  UNL     1      73.296  78.941  26.706  1.00  0.00     0.094 A 
HETATM    9  C7  UNL     1      74.117  77.881  27.234  1.00  0.00     0.104 C 
HETATM   10  N3  UNL     1      74.796  77.038  27.663  1.00  0.00    -0.191 NA
HETATM   11  C8  UNL     1      70.953  81.956  25.056  1.00  0.00     0.058 C 
HETATM   12  C9  UNL     1      69.905  81.511  24.096  1.00  0.00     0.015 C 
HETATM   13  C10 UNL     1      69.551  80.087  24.144  1.00  0.00     0.039 C 
HETATM   14  C12 UNL     1      69.737  79.444  25.553  1.00  0.00     0.091 C 
HETATM   15  C13 UNL     1      69.092  80.582  26.486  1.00  0.00     0.052 C 
ENDROOT
BRANCH   7  16
HETATM   16  N2  UNL     1      75.009  80.439  26.849  1.00  0.00    -0.384 N 
ATOM     17  H22 UNL     1      75.244  80.465  27.842  1.00  0.00     0.157 HD
ATOM     18  H21 UNL     1      75.759  80.593  26.176  1.00  0.00     0.157 HD
ENDBRANCH   7  16
BRANCH  14  19
HETATM   19  O1  UNL     1      68.938  78.414  25.654  1.00  0.00    -0.374 OA
BRANCH  19  20
HETATM   20  C14 UNL     1      67.654  78.213  25.513  1.00  0.00     0.177 C 
BRANCH  20  21
HETATM   21  C15 UNL     1      67.311  76.869  24.811  1.00  0.00    -0.030 C 
HETATM   22  C16 UNL     1      66.984  77.198  23.397  1.00  0.00     0.016 C 
HETATM   23  C17 UNL     1      68.294  75.797  25.017  1.00  0.00     0.016 C 
HETATM   24  C18 UNL     1      66.006  76.430  25.486  1.00  0.00     0.016 C 
ENDBRANCH  20  21
ENDBRANCH  19  20
ENDBRANCH  14  19
BRANCH  13  25
HETATM   25  C11 UNL     1      70.081  79.213  23.060  1.00  0.00     0.122 C 
HETATM   26 CL1  UNL     1      71.435  79.833  22.152  1.00  0.00    -0.130 Cl
ENDBRANCH  13  25
TORSDOF 5
ENDMDL
MODEL 5
REMARK VINA RESULT: -6.247345432      3.461      6.119
REMARK  5 active torsions:
REMARK  status: ('A' for Active; 'I' for Inactive)
REMARK    1  A    between atoms: C5_7  and  N2_8 
REMARK    2  A    between atoms: C10_16  and  C11_17 
REMARK    3  A    between atoms: C12_19  and  O1_21 
REMARK    4  A    between atoms: O1_21  and  C14_22 
REMARK    5  A    between atoms: C14_22  and  C15_23 
ROOT
HETATM    1  C1  UNL     1      70.299  81.549  26.318  1.00  0.00     0.050 C 
HETATM    2  C2  UNL     1      70.954  80.285  26.618  1.00  0.00    -0.026 A 
HETATM    3  C3  UNL     1      70.780  79.178  25.846  1.00  0.00     0.006 A 
HETATM    4  C4  UNL     1      71.374  77.969  26.298  1.00  0.00     0.020 A 
HETATM    5  N1  UNL     1      72.088  77.928  27.435  1.00  0.00    -0.344 N 
ATOM      6  H1  UNL     1      72.500  77.040  27.722  1.00  0.00     0.167 HD
HETATM    7  C5  UNL     1      72.280  79.004  28.208  1.00  0.00     0.120 A 
HETATM    8  C6  UNL     1      71.716  80.192  27.810  1.00  0.00     0.094 A 
HETATM    9  C7  UNL     1      71.870  81.400  28.579  1.00  0.00     0.104 C 
HETATM   10  N3  UNL     1      72.006  82.367  29.215  1.00  0.00    -0.191 NA
HETATM   11  C8  UNL     1      71.152  76.684  25.647  1.00  0.00     0.058 C 
HETATM   12  C9  UNL     1      69.873  76.586  24.892  1.00  0.00     0.015 C 
HETATM   13  C10 UNL     1      69.159  77.850  24.667  1.00  0.00     0.039 C 
HETATM   14  C12 UNL     1      70.100  79.090  24.582  1.00  0.00     0.091 C 
HETATM   15  C13 UNL     1      71.267  78.515  23.638  1.00  0.00     0.052 C 
ENDROOT
BRANCH   7  16
HETATM   16  N2  UNL     1      72.960  78.997  29.300  1.00  0.00    -0.384 N 
ATOM     17  H22 UNL     1      72.458  79.153  30.175  1.00  0.00     0.157 HD
ATOM     18  H21 UNL     1      73.967  78.846  29.347  1.00  0.00     0.157 HD
ENDBRANCH   7  16
BRANCH  14  19
HETATM   19  O1  UNL     1      69.507  80.020  23.877  1.00  0.00    -0.374 OA
BRANCH  19  20
HETATM   20  C14 UNL     1      69.550  80.416  22.633  1.00  0.00     0.177 C 
BRANCH  20  21
HETATM   21  C15 UNL     1      68.147  80.638  22.004  1.00  0.00    -0.030 C 
HETATM   22  C16 UNL     1      68.353  81.454  20.776  1.00  0.00     0.016 C 
HETATM   23  C17 UNL     1      67.342  79.420  21.846  1.00  0.00     0.016 C 
HETATM   24  C18 UNL     1      67.430  81.532  23.024  1.00  0.00     0.016 C 
ENDBRANCH  20  21
ENDBRANCH  19  20
ENDBRANCH  14  19
BRANCH  13  25
HETATM   25  C11 UNL     1      67.960  78.119  25.510  1.00  0.00     0.122 C 
HETATM   26 CL1  UNL     1      66.480  77.327  25.033  1.00  0.00    -0.130 Cl
ENDBRANCH  13  25
TORSDOF 5
ENDMDL
