MODEL 1
REMARK VINA RESULT: -5.765477523      0.000      0.000
REMARK  1 active torsions:
REMARK  status: ('A' for Active; 'I' for Inactive)
REMARK    1  A    between atoms: N1_3  and  C3_4 
ROOT
HETATM    1  C1  UNL     1      46.357  75.565  61.498  1.00  0.00     0.158 C 
HETATM    2  C2  UNL     1      47.203  74.936  62.581  1.00  0.00     0.079 C 
HETATM    3  N1  UNL     1      47.643  73.663  62.225  1.00  0.00    -0.376 N 
HETATM    4  C8  UNL     1      48.029  73.374  60.920  1.00  0.00     0.051 C 
HETATM    5  C9  UNL     1      49.549  73.138  60.945  1.00  0.00     0.059 C 
HETATM    6  C10 UNL     1      50.071  72.613  59.651  1.00  0.00     0.170 C 
HETATM    7  O1  UNL     1      49.468  71.436  59.230  1.00  0.00    -0.391 OA
HETATM    8  C11 UNL     1      48.538  71.032  60.157  1.00  0.00     0.170 C 
HETATM    9  C12 UNL     1      47.453  72.064  60.373  1.00  0.00     0.059 C 
HETATM   10  C13 UNL     1      47.788  74.431  59.893  1.00  0.00     0.145 C 
HETATM   11  N2  UNL     1      47.137  75.612  60.322  1.00  0.00    -0.414 N 
ATOM     12  H2  UNL     1      47.229  76.478  59.792  1.00  0.00     0.153 HD
ENDROOT
BRANCH   3  13
HETATM   13  C3  UNL     1      47.433  72.655  63.161  1.00  0.00     0.086 C 
HETATM   14  C4  UNL     1      46.072  71.950  63.051  1.00  0.00     0.035 C 
HETATM   15  C5  UNL     1      46.169  70.522  63.570  1.00  0.00     0.076 C 
HETATM   16  S1  UNL     1      47.347  70.505  64.938  1.00  0.00    -0.169 SA
HETATM   17  C6  UNL     1      47.441  72.167  65.619  1.00  0.00     0.076 C 
HETATM   18  C7  UNL     1      47.453  73.243  64.558  1.00  0.00     0.035 C 
ENDBRANCH   3  13
TORSDOF 1
ENDMDL
MODEL 2
REMARK VINA RESULT: -5.452491675      2.486      4.436
REMARK  1 active torsions:
REMARK  status: ('A' for Active; 'I' for Inactive)
REMARK    1  A    between atoms: N1_3  and  C3_4 
ROOT
HETATM    1  C1  UNL     1      47.186  72.796  63.511  1.00  0.00     0.158 C 
HETATM    2  C2  UNL     1      46.637  73.639  62.381  1.00  0.00     0.079 C 
HETATM    3  N1  UNL     1      47.527  73.719  61.312  1.00  0.00    -0.376 N 
HETATM    4  C8  UNL     1      48.287  72.619  60.925  1.00  0.00     0.051 C 
HETATM    5  C9  UNL     1      47.756  72.171  59.552  1.00  0.00     0.059 C 
HETATM    6  C10 UNL     1      48.614  71.129  58.916  1.00  0.00     0.170 C 
HETATM    7  O1  UNL     1      49.939  71.506  58.753  1.00  0.00    -0.391 OA
HETATM    8  C11 UNL     1      50.117  72.790  59.208  1.00  0.00     0.170 C 
HETATM    9  C12 UNL     1      49.764  72.939  60.671  1.00  0.00     0.059 C 
HETATM   10  C13 UNL     1      48.235  71.416  61.806  1.00  0.00     0.145 C 
HETATM   11  N2  UNL     1      47.464  71.514  62.989  1.00  0.00    -0.414 N 
ATOM     12  H2  UNL     1      47.116  70.676  63.454  1.00  0.00     0.153 HD
ENDROOT
BRANCH   3  13
HETATM   13  C3  UNL     1      47.798  74.996  60.831  1.00  0.00     0.086 C 
HETATM   14  C4  UNL     1      47.115  76.133  61.608  1.00  0.00     0.035 C 
HETATM   15  C5  UNL     1      47.933  77.412  61.507  1.00  0.00     0.076 C 
HETATM   16  S1  UNL     1      48.700  77.457  59.874  1.00  0.00    -0.169 SA
HETATM   17  C6  UNL     1      47.729  76.419  58.770  1.00  0.00     0.076 C 
HETATM   18  C7  UNL     1      47.278  75.129  59.413  1.00  0.00     0.035 C 
ENDBRANCH   3  13
TORSDOF 1
ENDMDL
MODEL 3
REMARK VINA RESULT: -5.227607004      3.066      4.809
REMARK  1 active torsions:
REMARK  status: ('A' for Active; 'I' for Inactive)
REMARK    1  A    between atoms: N1_3  and  C3_4 
ROOT
HETATM    1  C1  UNL     1      47.204  73.636  62.680  1.00  0.00     0.158 C 
HETATM    2  C2  UNL     1      48.419  73.361  61.822  1.00  0.00     0.079 C 
HETATM    3  N1  UNL     1      48.364  74.042  60.608  1.00  0.00    -0.376 N 
HETATM    4  C8  UNL     1      47.857  75.336  60.532  1.00  0.00     0.051 C 
HETATM    5  C9  UNL     1      49.043  76.261  60.207  1.00  0.00     0.059 C 
HETATM    6  C10 UNL     1      48.615  77.654  59.888  1.00  0.00     0.170 C 
HETATM    7  O1  UNL     1      47.710  77.745  58.840  1.00  0.00    -0.391 OA
HETATM    8  C11 UNL     1      47.457  76.493  58.335  1.00  0.00     0.170 C 
HETATM    9  C12 UNL     1      46.880  75.557  59.373  1.00  0.00     0.059 C 
HETATM   10  C13 UNL     1      47.222  75.888  61.764  1.00  0.00     0.145 C 
HETATM   11  N2  UNL     1      47.138  75.031  62.887  1.00  0.00    -0.414 N 
ATOM     12  H2  UNL     1      47.030  75.414  63.827  1.00  0.00     0.153 HD
ENDROOT
BRANCH   3  13
HETATM   13  C3  UNL     1      48.596  73.283  59.465  1.00  0.00     0.086 C 
HETATM   14  C4  UNL     1      47.806  71.966  59.398  1.00  0.00     0.035 C 
HETATM   15  C5  UNL     1      47.565  71.564  57.950  1.00  0.00     0.076 C 
HETATM   16  S1  UNL     1      49.000  72.075  56.983  1.00  0.00    -0.169 SA
HETATM   17  C6  UNL     1      50.406  72.219  58.097  1.00  0.00     0.076 C 
HETATM   18  C7  UNL     1      50.052  72.864  59.417  1.00  0.00     0.035 C 
ENDBRANCH   3  13
TORSDOF 1
ENDMDL
MODEL 4
REMARK VINA RESULT: -5.183129995      2.851      4.734
REMARK  1 active torsions:
REMARK  status: ('A' for Active; 'I' for Inactive)
REMARK    1  A    between atoms: N1_3  and  C3_4 
ROOT
HETATM    1  C1  UNL     1      47.492  73.951  63.379  1.00  0.00     0.158 C 
HETATM    2  C2  UNL     1      46.721  74.534  62.217  1.00  0.00     0.079 C 
HETATM    3  N1  UNL     1      47.430  74.438  61.021  1.00  0.00    -0.376 N 
HETATM    4  C8  UNL     1      48.197  73.314  60.728  1.00  0.00     0.051 C 
HETATM    5  C9  UNL     1      47.496  72.584  59.569  1.00  0.00     0.059 C 
HETATM    6  C10 UNL     1      48.317  71.473  59.009  1.00  0.00     0.170 C 
HETATM    7  O1  UNL     1      49.572  71.861  58.565  1.00  0.00    -0.391 OA
HETATM    8  C11 UNL     1      49.727  73.216  58.735  1.00  0.00     0.170 C 
HETATM    9  C12 UNL     1      49.592  73.634  60.182  1.00  0.00     0.059 C 
HETATM   10  C13 UNL     1      48.363  72.305  61.816  1.00  0.00     0.145 C 
HETATM   11  N2  UNL     1      47.776  72.604  63.069  1.00  0.00    -0.414 N 
ATOM     12  H2  UNL     1      47.562  71.860  63.734  1.00  0.00     0.153 HD
ENDROOT
BRANCH   3  13
HETATM   13  C3  UNL     1      47.534  75.605  60.272  1.00  0.00     0.086 C 
HETATM   14  C4  UNL     1      48.249  76.764  60.985  1.00  0.00     0.035 C 
HETATM   15  C5  UNL     1      48.913  77.684  59.971  1.00  0.00     0.076 C 
HETATM   16  S1  UNL     1      47.875  77.730  58.495  1.00  0.00    -0.169 SA
HETATM   17  C6  UNL     1      46.199  77.282  58.973  1.00  0.00     0.076 C 
HETATM   18  C7  UNL     1      46.150  76.138  59.959  1.00  0.00     0.035 C 
ENDBRANCH   3  13
TORSDOF 1
ENDMDL
MODEL 5
REMARK VINA RESULT: -5.173026338      3.935      6.175
REMARK  1 active torsions:
REMARK  status: ('A' for Active; 'I' for Inactive)
REMARK    1  A    between atoms: N1_3  and  C3_4 
ROOT
HETATM    1  C1  UNL     1      47.635  79.513  59.837  1.00  0.00     0.158 C 
HETATM    2  C2  UNL     1      46.488  78.689  59.295  1.00  0.00     0.079 C 
HETATM    3  N1  UNL     1      46.753  77.323  59.359  1.00  0.00    -0.376 N 
HETATM    4  C8  UNL     1      47.427  76.771  60.444  1.00  0.00     0.051 C 
HETATM    5  C9  UNL     1      46.409  75.906  61.209  1.00  0.00     0.059 C 
HETATM    6  C10 UNL     1      47.043  75.084  62.280  1.00  0.00     0.170 C 
HETATM    7  O1  UNL     1      48.054  74.247  61.830  1.00  0.00    -0.391 OA
HETATM    8  C11 UNL     1      48.194  74.375  60.470  1.00  0.00     0.170 C 
HETATM    9  C12 UNL     1      48.538  75.789  60.056  1.00  0.00     0.059 C 
HETATM   10  C13 UNL     1      48.000  77.722  61.441  1.00  0.00     0.145 C 
HETATM   11  N2  UNL     1      47.859  79.104  61.170  1.00  0.00    -0.414 N 
ATOM     12  H2  UNL     1      47.919  79.791  61.922  1.00  0.00     0.153 HD
ENDROOT
BRANCH   3  13
HETATM   13  C3  UNL     1      46.543  76.600  58.188  1.00  0.00     0.086 C 
HETATM   14  C4  UNL     1      47.287  77.140  56.957  1.00  0.00     0.035 C 
HETATM   15  C5  UNL     1      47.575  76.016  55.973  1.00  0.00     0.076 C 
HETATM   16  S1  UNL     1      46.201  74.848  56.044  1.00  0.00    -0.169 SA
HETATM   17  C6  UNL     1      44.756  75.718  56.670  1.00  0.00     0.076 C 
HETATM   18  C7  UNL     1      45.076  76.656  57.810  1.00  0.00     0.035 C 
ENDBRANCH   3  13
TORSDOF 1
ENDMDL
