MODEL 1
REMARK VINA RESULT: -7.034646805      0.000      0.000
REMARK  2 active torsions:
REMARK  status: ('A' for Active; 'I' for Inactive)
REMARK    1  A    between atoms: N2_5  and  C4_6 
REMARK    2  A    between atoms: C12_14  and  O1_15 
ROOT
HETATM    1  C4  UNL     1      47.092  73.436  61.840  1.00  0.00     0.225 C 
HETATM    2  C5  UNL     1      47.671  74.723  62.259  1.00  0.00     0.036 C 
HETATM    3  C6  UNL     1      46.794  75.927  62.034  1.00  0.00     0.002 C 
HETATM    4  C7  UNL     1      46.259  76.129  60.673  1.00  0.00     0.000 C 
HETATM    5  C8  UNL     1      47.150  76.802  59.695  1.00  0.00     0.000 C 
HETATM    6  C9  UNL     1      48.328  76.074  59.205  1.00  0.00     0.000 C 
HETATM    7  C10 UNL     1      48.104  74.628  58.847  1.00  0.00     0.002 C 
HETATM    8  C11 UNL     1      49.307  73.832  59.205  1.00  0.00     0.032 C 
HETATM    9  C12 UNL     1      49.226  73.048  60.483  1.00  0.00     0.120 C 
HETATM   10  C13 UNL     1      47.888  72.601  60.889  1.00  0.00     0.067 C 
ENDROOT
BRANCH   1  11
HETATM   11  N2  UNL     1      46.697  72.612  62.992  1.00  0.00     0.096 N 
HETATM   12  C3  UNL     1      46.563  71.233  62.687  1.00  0.00     0.303 C 
HETATM   13  C2  UNL     1      47.056  70.359  63.808  1.00  0.00     0.302 C 
HETATM   14  N1  UNL     1      46.434  70.828  65.028  1.00  0.00     0.087 N 
HETATM   15  C1  UNL     1      46.818  69.918  66.083  1.00  0.00     0.310 C 
HETATM   16  C15 UNL     1      46.732  72.204  65.325  1.00  0.00     0.302 C 
HETATM   17  C14 UNL     1      47.455  72.903  64.171  1.00  0.00     0.303 C 
ENDBRANCH   1  11
BRANCH   9  18
HETATM   18  O1  UNL     1      49.999  71.873  60.210  1.00  0.00    -0.396 OA
ATOM     19  H1  UNL     1      49.403  71.160  60.408  1.00  0.00     0.210 HD
ENDBRANCH   9  18
TORSDOF 2
ENDMDL
MODEL 2
REMARK VINA RESULT: -6.914189823      1.703      3.103
REMARK  2 active torsions:
REMARK  status: ('A' for Active; 'I' for Inactive)
REMARK    1  A    between atoms: N2_5  and  C4_6 
REMARK    2  A    between atoms: C12_14  and  O1_15 
ROOT
HETATM    1  C4  UNL     1      48.014  72.728  62.166  1.00  0.00     0.225 C 
HETATM    2  C5  UNL     1      47.476  72.251  60.883  1.00  0.00     0.036 C 
HETATM    3  C6  UNL     1      48.487  71.638  59.949  1.00  0.00     0.002 C 
HETATM    4  C7  UNL     1      49.686  72.439  59.632  1.00  0.00     0.000 C 
HETATM    5  C8  UNL     1      49.552  73.452  58.555  1.00  0.00     0.000 C 
HETATM    6  C9  UNL     1      48.733  74.643  58.814  1.00  0.00     0.000 C 
HETATM    7  C10 UNL     1      48.920  75.289  60.161  1.00  0.00     0.002 C 
HETATM    8  C11 UNL     1      47.619  75.817  60.648  1.00  0.00     0.032 C 
HETATM    9  C12 UNL     1      46.902  74.977  61.666  1.00  0.00     0.120 C 
HETATM   10  C13 UNL     1      47.746  74.150  62.539  1.00  0.00     0.067 C 
ENDROOT
BRANCH   1  11
HETATM   11  N2  UNL     1      47.621  71.855  63.283  1.00  0.00     0.096 N 
HETATM   12  C3  UNL     1      47.538  72.527  64.530  1.00  0.00     0.303 C 
HETATM   13  C2  UNL     1      46.388  72.026  65.362  1.00  0.00     0.302 C 
HETATM   14  N1  UNL     1      46.477  70.582  65.396  1.00  0.00     0.087 N 
HETATM   15  C1  UNL     1      45.442  70.110  66.288  1.00  0.00     0.310 C 
HETATM   16  C15 UNL     1      46.423  69.978  64.091  1.00  0.00     0.302 C 
HETATM   17  C14 UNL     1      46.505  71.015  62.969  1.00  0.00     0.303 C 
ENDBRANCH   1  11
BRANCH   9  18
HETATM   18  O1  UNL     1      46.247  75.940  62.500  1.00  0.00    -0.396 OA
ATOM     19  H1  UNL     1      45.440  76.129  62.034  1.00  0.00     0.210 HD
ENDBRANCH   9  18
TORSDOF 2
ENDMDL
MODEL 3
REMARK VINA RESULT: -6.839311954      1.758      2.946
REMARK  2 active torsions:
REMARK  status: ('A' for Active; 'I' for Inactive)
REMARK    1  A    between atoms: N2_5  and  C4_6 
REMARK    2  A    between atoms: C12_14  and  O1_15 
ROOT
HETATM    1  C4  UNL     1      47.504  72.778  62.435  1.00  0.00     0.225 C 
HETATM    2  C5  UNL     1      47.053  72.319  61.112  1.00  0.00     0.036 C 
HETATM    3  C6  UNL     1      48.043  71.473  60.353  1.00  0.00     0.002 C 
HETATM    4  C7  UNL     1      49.401  72.022  60.169  1.00  0.00     0.000 C 
HETATM    5  C8  UNL     1      49.595  72.966  59.040  1.00  0.00     0.000 C 
HETATM    6  C9  UNL     1      48.987  74.300  59.132  1.00  0.00     0.000 C 
HETATM    7  C10 UNL     1      49.120  74.992  60.463  1.00  0.00     0.002 C 
HETATM    8  C11 UNL     1      47.889  75.778  60.743  1.00  0.00     0.032 C 
HETATM    9  C12 UNL     1      46.905  75.151  61.688  1.00  0.00     0.120 C 
HETATM   10  C13 UNL     1      47.461  74.248  62.704  1.00  0.00     0.067 C 
ENDROOT
BRANCH   1  11
HETATM   11  N2  UNL     1      46.817  72.069  63.525  1.00  0.00     0.096 N 
HETATM   12  C3  UNL     1      46.478  70.728  63.208  1.00  0.00     0.303 C 
HETATM   13  C2  UNL     1      46.651  69.811  64.388  1.00  0.00     0.302 C 
HETATM   14  N1  UNL     1      45.966  70.416  65.510  1.00  0.00     0.087 N 
HETATM   15  C1  UNL     1      46.036  69.482  66.611  1.00  0.00     0.310 C 
HETATM   16  C15 UNL     1      46.465  71.725  65.842  1.00  0.00     0.302 C 
HETATM   17  C14 UNL     1      47.450  72.252  64.796  1.00  0.00     0.303 C 
ENDBRANCH   1  11
BRANCH   9  18
HETATM   18  O1  UNL     1      46.340  76.270  62.382  1.00  0.00    -0.396 OA
ATOM     19  H1  UNL     1      47.046  76.906  62.395  1.00  0.00     0.210 HD
ENDBRANCH   9  18
TORSDOF 2
ENDMDL
MODEL 4
REMARK VINA RESULT: -6.659665252      2.365      6.842
REMARK  2 active torsions:
REMARK  status: ('A' for Active; 'I' for Inactive)
REMARK    1  A    between atoms: N2_5  and  C4_6 
REMARK    2  A    between atoms: C12_14  and  O1_15 
ROOT
HETATM    1  C4  UNL     1      46.136  71.017  64.386  1.00  0.00     0.225 C 
HETATM    2  C5  UNL     1      45.788  69.671  63.901  1.00  0.00     0.036 C 
HETATM    3  C6  UNL     1      44.320  69.335  63.936  1.00  0.00     0.002 C 
HETATM    4  C7  UNL     1      43.615  69.516  65.220  1.00  0.00     0.000 C 
HETATM    5  C8  UNL     1      43.721  68.410  66.205  1.00  0.00     0.000 C 
HETATM    6  C9  UNL     1      45.015  68.181  66.862  1.00  0.00     0.000 C 
HETATM    7  C10 UNL     1      45.740  69.414  67.332  1.00  0.00     0.002 C 
HETATM    8  C11 UNL     1      47.205  69.230  67.156  1.00  0.00     0.032 C 
HETATM    9  C12 UNL     1      47.816  69.891  65.954  1.00  0.00     0.120 C 
HETATM   10  C13 UNL     1      47.154  71.113  65.476  1.00  0.00     0.067 C 
ENDROOT
BRANCH   1  11
HETATM   11  N2  UNL     1      46.522  71.913  63.286  1.00  0.00     0.096 N 
HETATM   12  C3  UNL     1      46.976  73.185  63.719  1.00  0.00     0.303 C 
HETATM   13  C2  UNL     1      48.118  73.690  62.879  1.00  0.00     0.302 C 
HETATM   14  N1  UNL     1      47.720  73.569  61.493  1.00  0.00     0.087 N 
HETATM   15  C1  UNL     1      48.770  74.159  60.692  1.00  0.00     0.310 C 
HETATM   16  C15 UNL     1      47.402  72.220  61.108  1.00  0.00     0.302 C 
HETATM   17  C14 UNL     1      47.349  71.272  62.309  1.00  0.00     0.303 C 
ENDBRANCH   1  11
BRANCH   9  18
HETATM   18  O1  UNL     1      49.124  70.267  66.402  1.00  0.00    -0.396 OA
ATOM     19  H1  UNL     1      49.571  69.436  66.512  1.00  0.00     0.210 HD
ENDBRANCH   9  18
TORSDOF 2
ENDMDL
MODEL 5
REMARK VINA RESULT: -6.339394323      2.598      6.057
REMARK  2 active torsions:
REMARK  status: ('A' for Active; 'I' for Inactive)
REMARK    1  A    between atoms: N2_5  and  C4_6 
REMARK    2  A    between atoms: C12_14  and  O1_15 
ROOT
HETATM    1  C4  UNL     1      47.984  74.133  61.183  1.00  0.00     0.225 C 
HETATM    2  C5  UNL     1      49.131  73.221  61.051  1.00  0.00     0.036 C 
HETATM    3  C6  UNL     1      49.046  72.241  59.909  1.00  0.00     0.002 C 
HETATM    4  C7  UNL     1      47.831  71.407  59.823  1.00  0.00     0.000 C 
HETATM    5  C8  UNL     1      47.799  70.181  60.659  1.00  0.00     0.000 C 
HETATM    6  C9  UNL     1      47.685  70.330  62.116  1.00  0.00     0.000 C 
HETATM    7  C10 UNL     1      46.689  71.353  62.595  1.00  0.00     0.002 C 
HETATM    8  C11 UNL     1      47.207  72.021  63.817  1.00  0.00     0.032 C 
HETATM    9  C12 UNL     1      47.813  73.381  63.623  1.00  0.00     0.120 C 
HETATM   10  C13 UNL     1      47.287  74.175  62.504  1.00  0.00     0.067 C 
ENDROOT
BRANCH   1  11
HETATM   11  N2  UNL     1      48.325  75.504  60.775  1.00  0.00     0.096 N 
HETATM   12  C3  UNL     1      48.471  75.663  59.373  1.00  0.00     0.303 C 
HETATM   13  C2  UNL     1      47.926  76.982  58.896  1.00  0.00     0.302 C 
HETATM   14  N1  UNL     1      48.493  78.013  59.738  1.00  0.00     0.087 N 
HETATM   15  C1  UNL     1      48.060  79.287  59.209  1.00  0.00     0.310 C 
HETATM   16  C15 UNL     1      48.184  77.842  61.133  1.00  0.00     0.302 C 
HETATM   17  C14 UNL     1      47.515  76.495  61.417  1.00  0.00     0.303 C 
ENDBRANCH   1  11
BRANCH   9  18
HETATM   18  O1  UNL     1      47.480  74.078  64.829  1.00  0.00    -0.396 OA
ATOM     19  H1  UNL     1      48.291  74.512  65.069  1.00  0.00     0.210 HD
ENDBRANCH   9  18
TORSDOF 2
ENDMDL
