MODEL 1
REMARK VINA RESULT: -6.812324116      0.000      0.000
REMARK  13 active torsions:
REMARK  status: ('A' for Active; 'I' for Inactive)
REMARK    1  A    between atoms: C2_2  and  C3_3 
REMARK    2  A    between atoms: C3_3  and  C4_4 
REMARK    3  A    between atoms: C10_10  and  O1_11 
REMARK    4  A    between atoms: C11_13  and  O2_14 
REMARK    5  A    between atoms: O2_14  and  C12_15 
REMARK    6  A    between atoms: C14_18  and  O4_19 
REMARK    7  A    between atoms: O4_19  and  C15_20 
REMARK    8  A    between atoms: C17_23  and  O6_24 
REMARK    9  A    between atoms: C17_23  and  C18_26 
REMARK   10  A    between atoms: C18_26  and  O7_27 
REMARK   11  A    between atoms: C19_29  and  O8_30 
REMARK   12  A    between atoms: C20_32  and  O9_33 
REMARK   13  A    between atoms: C21_35  and  O10_36 
ROOT
HETATM    1  C12 UNL     1       6.368  53.062  -6.972  1.00  0.00     0.179 C 
HETATM    2  C13 UNL     1       6.742  53.512  -5.588  1.00  0.00     0.205 C 
HETATM    3  O3  UNL     1       8.091  53.743  -5.529  1.00  0.00    -0.356 OA
HETATM    4  C14 UNL     1       8.624  53.570  -6.796  1.00  0.00     0.294 C 
HETATM    5  C20 UNL     1       7.712  52.612  -7.517  1.00  0.00     0.204 C 
ENDROOT
BRANCH   1   6
HETATM    6  O2  UNL     1       5.426  52.037  -6.964  1.00  0.00    -0.370 OA
BRANCH   6   7
HETATM    7  C11 UNL     1       4.991  51.875  -5.655  1.00  0.00     0.180 C 
HETATM    8  C10 UNL     1       5.383  50.492  -5.120  1.00  0.00     0.154 C 
HETATM    9  C9  UNL     1       4.198  50.004  -4.369  1.00  0.00     0.028 C 
HETATM   10  C7  UNL     1       3.963  48.529  -4.425  1.00  0.00    -0.012 C 
HETATM   11  C22 UNL     1       2.988  50.637  -5.074  1.00  0.00     0.028 C 
HETATM   12  C6  UNL     1       2.632  48.263  -3.759  1.00  0.00     0.005 C 
HETATM   13  C8  UNL     1       5.082  47.692  -3.915  1.00  0.00     0.010 C 
HETATM   14  C5  UNL     1       2.027  49.488  -3.153  1.00  0.00     0.006 C 
HETATM   15  C4  UNL     1       1.892  50.658  -4.067  1.00  0.00    -0.004 C 
HETATM   16  C21 UNL     1       3.493  51.963  -5.512  1.00  0.00     0.154 C 
BRANCH   8  17
HETATM   17  O1  UNL     1       6.438  50.650  -4.252  1.00  0.00    -0.392 OA
ATOM     18  H1  UNL     1       6.223  51.321  -3.615  1.00  0.00     0.210 HD
ENDBRANCH   8  17
BRANCH  15  19
HETATM   19  C3  UNL     1       0.527  50.780  -4.705  1.00  0.00     0.031 C 
BRANCH  19  20
HETATM   20  C2  UNL     1       0.498  50.156  -6.050  1.00  0.00    -0.037 C 
HETATM   21  C1  UNL     1      -0.475  50.405  -6.916  1.00  0.00     0.007 C 
ENDBRANCH  19  20
ENDBRANCH  15  19
BRANCH  16  22
HETATM   22  O10 UNL     1       2.990  52.202  -6.812  1.00  0.00    -0.392 OA
ATOM     23  H10 UNL     1       2.616  51.378  -7.104  1.00  0.00     0.210 HD
ENDBRANCH  16  22
ENDBRANCH   6   7
ENDBRANCH   1   6
BRANCH   5  24
HETATM   24  O9  UNL     1       7.894  51.298  -7.096  1.00  0.00    -0.388 OA
ATOM     25  H9  UNL     1       8.789  51.064  -7.311  1.00  0.00     0.210 HD
ENDBRANCH   5  24
BRANCH   4  26
HETATM   26  O4  UNL     1       9.947  53.264  -6.819  1.00  0.00    -0.326 OA
BRANCH  26  27
HETATM   27  C15 UNL     1      10.611  53.403  -5.624  1.00  0.00     0.294 C 
HETATM   28  O5  UNL     1      11.781  54.107  -5.656  1.00  0.00    -0.355 OA
HETATM   29  C16 UNL     1      12.619  53.588  -4.676  1.00  0.00     0.213 C 
HETATM   30  C17 UNL     1      12.396  52.111  -4.767  1.00  0.00     0.130 C 
HETATM   31  C19 UNL     1      10.942  52.005  -5.126  1.00  0.00     0.212 C 
BRANCH  30  32
HETATM   32  O6  UNL     1      12.647  51.530  -3.527  1.00  0.00    -0.383 OA
ATOM     33  H6  UNL     1      13.583  51.536  -3.362  1.00  0.00     0.210 HD
ENDBRANCH  30  32
BRANCH  30  34
HETATM   34  C18 UNL     1      13.287  51.500  -5.831  1.00  0.00     0.207 C 
BRANCH  34  35
HETATM   35  O7  UNL     1      13.398  50.123  -5.589  1.00  0.00    -0.398 OA
ATOM     36  H7  UNL     1      14.254  49.831  -5.876  1.00  0.00     0.209 HD
ENDBRANCH  34  35
ENDBRANCH  30  34
BRANCH  31  37
HETATM   37  O8  UNL     1      10.850  51.081  -6.187  1.00  0.00    -0.387 OA
ATOM     38  H8  UNL     1      11.717  50.890  -6.528  1.00  0.00     0.210 HD
ENDBRANCH  31  37
ENDBRANCH  26  27
ENDBRANCH   4  26
TORSDOF 13
ENDMDL
MODEL 2
REMARK VINA RESULT: -6.676440645      2.762      3.995
REMARK  13 active torsions:
REMARK  status: ('A' for Active; 'I' for Inactive)
REMARK    1  A    between atoms: C2_2  and  C3_3 
REMARK    2  A    between atoms: C3_3  and  C4_4 
REMARK    3  A    between atoms: C10_10  and  O1_11 
REMARK    4  A    between atoms: C11_13  and  O2_14 
REMARK    5  A    between atoms: O2_14  and  C12_15 
REMARK    6  A    between atoms: C14_18  and  O4_19 
REMARK    7  A    between atoms: O4_19  and  C15_20 
REMARK    8  A    between atoms: C17_23  and  O6_24 
REMARK    9  A    between atoms: C17_23  and  C18_26 
REMARK   10  A    between atoms: C18_26  and  O7_27 
REMARK   11  A    between atoms: C19_29  and  O8_30 
REMARK   12  A    between atoms: C20_32  and  O9_33 
REMARK   13  A    between atoms: C21_35  and  O10_36 
ROOT
HETATM    1  C12 UNL     1       8.032  52.436  -5.336  1.00  0.00     0.179 C 
HETATM    2  C13 UNL     1       9.188  52.615  -6.279  1.00  0.00     0.205 C 
HETATM    3  O3  UNL     1      10.019  53.595  -5.806  1.00  0.00    -0.356 OA
HETATM    4  C14 UNL     1       9.550  54.014  -4.572  1.00  0.00     0.294 C 
HETATM    5  C20 UNL     1       8.067  53.743  -4.562  1.00  0.00     0.204 C 
ENDROOT
BRANCH   1   6
HETATM    6  O2  UNL     1       6.825  52.245  -6.002  1.00  0.00    -0.370 OA
BRANCH   6   7
HETATM    7  C11 UNL     1       5.850  51.994  -5.045  1.00  0.00     0.180 C 
HETATM    8  C10 UNL     1       5.961  50.557  -4.521  1.00  0.00     0.154 C 
HETATM    9  C9  UNL     1       4.565  50.058  -4.424  1.00  0.00     0.028 C 
HETATM   10  C7  UNL     1       4.379  48.604  -4.714  1.00  0.00    -0.012 C 
HETATM   11  C22 UNL     1       3.798  50.796  -5.533  1.00  0.00     0.028 C 
HETATM   12  C6  UNL     1       2.891  48.339  -4.738  1.00  0.00     0.005 C 
HETATM   13  C8  UNL     1       5.152  47.682  -3.839  1.00  0.00     0.010 C 
HETATM   14  C5  UNL     1       2.079  49.534  -4.355  1.00  0.00     0.006 C 
HETATM   15  C4  UNL     1       2.367  50.780  -5.123  1.00  0.00    -0.004 C 
HETATM   16  C21 UNL     1       4.446  52.131  -5.576  1.00  0.00     0.154 C 
BRANCH   8  17
HETATM   17  O1  UNL     1       6.517  50.599  -3.264  1.00  0.00    -0.392 OA
ATOM     18  H1  UNL     1       6.594  51.504  -2.985  1.00  0.00     0.210 HD
ENDBRANCH   8  17
BRANCH  15  19
HETATM   19  C3  UNL     1       1.432  51.010  -6.287  1.00  0.00     0.031 C 
BRANCH  19  20
HETATM   20  C2  UNL     1       0.076  50.479  -6.009  1.00  0.00    -0.037 C 
HETATM   21  C1  UNL     1      -0.862  50.428  -6.946  1.00  0.00     0.007 C 
ENDBRANCH  19  20
ENDBRANCH  15  19
BRANCH  16  22
HETATM   22  O10 UNL     1       4.577  52.497  -6.937  1.00  0.00    -0.392 OA
ATOM     23  H10 UNL     1       3.707  52.745  -7.227  1.00  0.00     0.210 HD
ENDBRANCH  16  22
ENDBRANCH   6   7
ENDBRANCH   1   6
BRANCH   5  24
HETATM   24  O9  UNL     1       7.360  54.673  -5.318  1.00  0.00    -0.388 OA
ATOM     25  H9  UNL     1       7.973  55.036  -5.946  1.00  0.00     0.210 HD
ENDBRANCH   5  24
BRANCH   4  26
HETATM   26  O4  UNL     1       9.926  55.270  -4.216  1.00  0.00    -0.326 OA
BRANCH  26  27
HETATM   27  C15 UNL     1      10.071  55.488  -2.867  1.00  0.00     0.294 C 
HETATM   28  O5  UNL     1       9.691  54.469  -2.041  1.00  0.00    -0.355 OA
HETATM   29  C16 UNL     1       9.230  55.028  -0.855  1.00  0.00     0.213 C 
HETATM   30  C17 UNL     1       8.452  56.224  -1.308  1.00  0.00     0.130 C 
HETATM   31  C19 UNL     1       9.217  56.695  -2.511  1.00  0.00     0.212 C 
BRANCH  30  32
HETATM   32  O6  UNL     1       8.460  57.187  -0.303  1.00  0.00    -0.383 OA
ATOM     33  H6  UNL     1       8.351  56.762   0.539  1.00  0.00     0.210 HD
ENDBRANCH  30  32
BRANCH  30  34
HETATM   34  C18 UNL     1       7.029  55.834  -1.660  1.00  0.00     0.207 C 
BRANCH  34  35
HETATM   35  O7  UNL     1       6.175  56.891  -1.314  1.00  0.00    -0.398 OA
ATOM     36  H7  UNL     1       5.747  56.681  -0.492  1.00  0.00     0.209 HD
ENDBRANCH  34  35
ENDBRANCH  30  34
BRANCH  31  37
HETATM   37  O8  UNL     1       8.270  56.933  -3.529  1.00  0.00    -0.387 OA
ATOM     38  H8  UNL     1       7.422  57.125  -3.145  1.00  0.00     0.210 HD
ENDBRANCH  31  37
ENDBRANCH  26  27
ENDBRANCH   4  26
TORSDOF 13
ENDMDL
MODEL 3
REMARK VINA RESULT: -6.607400470      1.142      1.263
REMARK  13 active torsions:
REMARK  status: ('A' for Active; 'I' for Inactive)
REMARK    1  A    between atoms: C2_2  and  C3_3 
REMARK    2  A    between atoms: C3_3  and  C4_4 
REMARK    3  A    between atoms: C10_10  and  O1_11 
REMARK    4  A    between atoms: C11_13  and  O2_14 
REMARK    5  A    between atoms: O2_14  and  C12_15 
REMARK    6  A    between atoms: C14_18  and  O4_19 
REMARK    7  A    between atoms: O4_19  and  C15_20 
REMARK    8  A    between atoms: C17_23  and  O6_24 
REMARK    9  A    between atoms: C17_23  and  C18_26 
REMARK   10  A    between atoms: C18_26  and  O7_27 
REMARK   11  A    between atoms: C19_29  and  O8_30 
REMARK   12  A    between atoms: C20_32  and  O9_33 
REMARK   13  A    between atoms: C21_35  and  O10_36 
ROOT
HETATM    1  C12 UNL     1       6.837  52.003  -8.484  1.00  0.00     0.179 C 
HETATM    2  C13 UNL     1       7.000  52.982  -7.356  1.00  0.00     0.205 C 
HETATM    3  O3  UNL     1       8.323  53.309  -7.220  1.00  0.00    -0.356 OA
HETATM    4  C14 UNL     1       9.037  52.691  -8.233  1.00  0.00     0.294 C 
HETATM    5  C20 UNL     1       8.251  51.467  -8.626  1.00  0.00     0.204 C 
ENDROOT
BRANCH   1   6
HETATM    6  O2  UNL     1       5.916  51.001  -8.192  1.00  0.00    -0.370 OA
BRANCH   6   7
HETATM    7  C11 UNL     1       5.321  51.318  -6.977  1.00  0.00     0.180 C 
HETATM    8  C10 UNL     1       5.603  50.229  -5.935  1.00  0.00     0.154 C 
HETATM    9  C9  UNL     1       4.322  50.027  -5.210  1.00  0.00     0.028 C 
HETATM   10  C7  UNL     1       4.051  48.629  -4.758  1.00  0.00    -0.012 C 
HETATM   11  C22 UNL     1       3.226  50.342  -6.241  1.00  0.00     0.028 C 
HETATM   12  C6  UNL     1       2.642  48.601  -4.211  1.00  0.00     0.005 C 
HETATM   13  C8  UNL     1       5.074  48.051  -3.846  1.00  0.00     0.010 C 
HETATM   14  C5  UNL     1       2.005  49.953  -4.168  1.00  0.00     0.006 C 
HETATM   15  C4  UNL     1       2.016  50.709  -5.453  1.00  0.00    -0.004 C 
HETATM   16  C21 UNL     1       3.820  51.427  -7.062  1.00  0.00     0.154 C 
BRANCH   8  17
HETATM   17  O1  UNL     1       6.550  50.707  -5.059  1.00  0.00    -0.392 OA
ATOM     18  H1  UNL     1       6.994  51.449  -5.452  1.00  0.00     0.210 HD
ENDBRANCH   8  17
BRANCH  15  19
HETATM   19  C3  UNL     1       0.744  50.570  -6.256  1.00  0.00     0.031 C 
BRANCH  19  20
HETATM   20  C2  UNL     1      -0.436  50.382  -5.377  1.00  0.00    -0.037 C 
HETATM   21  C1  UNL     1      -1.670  50.339  -5.861  1.00  0.00     0.007 C 
ENDBRANCH  19  20
ENDBRANCH  15  19
BRANCH  16  22
HETATM   22  O10 UNL     1       3.485  51.171  -8.412  1.00  0.00    -0.392 OA
ATOM     23  H10 UNL     1       2.648  51.596  -8.560  1.00  0.00     0.210 HD
ENDBRANCH  16  22
ENDBRANCH   6   7
ENDBRANCH   1   6
BRANCH   5  24
HETATM   24  O9  UNL     1       8.384  50.438  -7.698  1.00  0.00    -0.388 OA
ATOM     25  H9  UNL     1       8.511  50.851  -6.851  1.00  0.00     0.210 HD
ENDBRANCH   5  24
BRANCH   4  26
HETATM   26  O4  UNL     1      10.353  52.490  -7.961  1.00  0.00    -0.326 OA
BRANCH  26  27
HETATM   27  C15 UNL     1      10.763  52.856  -6.701  1.00  0.00     0.294 C 
HETATM   28  O5  UNL     1      11.888  53.625  -6.625  1.00  0.00    -0.355 OA
HETATM   29  C16 UNL     1      12.535  53.321  -5.433  1.00  0.00     0.213 C 
HETATM   30  C17 UNL     1      12.391  51.835  -5.324  1.00  0.00     0.130 C 
HETATM   31  C19 UNL     1      11.041  51.576  -5.929  1.00  0.00     0.212 C 
BRANCH  30  32
HETATM   32  O6  UNL     1      12.415  51.468  -3.982  1.00  0.00    -0.383 OA
ATOM     33  H6  UNL     1      12.985  50.716  -3.872  1.00  0.00     0.210 HD
ENDBRANCH  30  32
BRANCH  30  34
HETATM   34  C18 UNL     1      13.498  51.132  -6.087  1.00  0.00     0.207 C 
BRANCH  34  35
HETATM   35  O7  UNL     1      13.564  49.799  -5.657  1.00  0.00    -0.398 OA
ATOM     36  H7  UNL     1      14.128  49.316  -6.249  1.00  0.00     0.209 HD
ENDBRANCH  34  35
ENDBRANCH  30  34
BRANCH  31  37
HETATM   37  O8  UNL     1      11.197  50.496  -6.823  1.00  0.00    -0.387 OA
ATOM     38  H8  UNL     1      10.920  49.687  -6.408  1.00  0.00     0.210 HD
ENDBRANCH  31  37
ENDBRANCH  26  27
ENDBRANCH   4  26
TORSDOF 13
ENDMDL
MODEL 4
REMARK VINA RESULT: -6.603437943      3.234      9.166
REMARK  13 active torsions:
REMARK  status: ('A' for Active; 'I' for Inactive)
REMARK    1  A    between atoms: C2_2  and  C3_3 
REMARK    2  A    between atoms: C3_3  and  C4_4 
REMARK    3  A    between atoms: C10_10  and  O1_11 
REMARK    4  A    between atoms: C11_13  and  O2_14 
REMARK    5  A    between atoms: O2_14  and  C12_15 
REMARK    6  A    between atoms: C14_18  and  O4_19 
REMARK    7  A    between atoms: O4_19  and  C15_20 
REMARK    8  A    between atoms: C17_23  and  O6_24 
REMARK    9  A    between atoms: C17_23  and  C18_26 
REMARK   10  A    between atoms: C18_26  and  O7_27 
REMARK   11  A    between atoms: C19_29  and  O8_30 
REMARK   12  A    between atoms: C20_32  and  O9_33 
REMARK   13  A    between atoms: C21_35  and  O10_36 
ROOT
HETATM    1  C12 UNL     1       4.843  51.107  -5.113  1.00  0.00     0.179 C 
HETATM    2  C13 UNL     1       4.355  50.376  -6.332  1.00  0.00     0.205 C 
HETATM    3  O3  UNL     1       3.176  49.740  -6.045  1.00  0.00    -0.356 OA
HETATM    4  C14 UNL     1       2.799  50.073  -4.755  1.00  0.00     0.294 C 
HETATM    5  C20 UNL     1       4.065  50.410  -4.011  1.00  0.00     0.204 C 
ENDROOT
BRANCH   1   6
HETATM    6  O2  UNL     1       6.220  50.999  -4.942  1.00  0.00    -0.370 OA
BRANCH   6   7
HETATM    7  C11 UNL     1       6.774  52.251  -5.178  1.00  0.00     0.180 C 
HETATM    8  C10 UNL     1       8.053  52.131  -6.015  1.00  0.00     0.154 C 
HETATM    9  C9  UNL     1       9.021  53.078  -5.405  1.00  0.00     0.028 C 
HETATM   10  C7  UNL     1      10.452  52.652  -5.446  1.00  0.00    -0.012 C 
HETATM   11  C22 UNL     1       8.651  53.123  -3.913  1.00  0.00     0.028 C 
HETATM   12  C6  UNL     1      11.240  53.651  -4.629  1.00  0.00     0.005 C 
HETATM   13  C8  UNL     1      10.999  52.407  -6.808  1.00  0.00     0.010 C 
HETATM   14  C5  UNL     1      10.409  54.794  -4.145  1.00  0.00     0.006 C 
HETATM   15  C4  UNL     1       9.172  54.420  -3.401  1.00  0.00    -0.004 C 
HETATM   16  C21 UNL     1       7.175  52.970  -3.915  1.00  0.00     0.154 C 
BRANCH   8  17
HETATM   17  O1  UNL     1       7.766  52.537  -7.298  1.00  0.00    -0.392 OA
ATOM     18  H1  UNL     1       7.335  53.383  -7.270  1.00  0.00     0.210 HD
ENDBRANCH   8  17
BRANCH  15  19
HETATM   19  C3  UNL     1       9.339  54.420  -1.899  1.00  0.00     0.031 C 
BRANCH  19  20
HETATM   20  C2  UNL     1       8.574  55.522  -1.267  1.00  0.00    -0.037 C 
HETATM   21  C1  UNL     1       7.338  55.822  -1.643  1.00  0.00     0.007 C 
ENDBRANCH  19  20
ENDBRANCH  15  19
BRANCH  16  22
HETATM   22  O10 UNL     1       6.836  52.105  -2.848  1.00  0.00    -0.392 OA
ATOM     23  H10 UNL     1       7.559  51.494  -2.766  1.00  0.00     0.210 HD
ENDBRANCH  16  22
ENDBRANCH   6   7
ENDBRANCH   1   6
BRANCH   5  24
HETATM   24  O9  UNL     1       4.790  49.272  -3.668  1.00  0.00    -0.388 OA
ATOM     25  H9  UNL     1       4.254  48.781  -3.056  1.00  0.00     0.210 HD
ENDBRANCH   5  24
BRANCH   4  26
HETATM   26  O4  UNL     1       1.977  49.174  -4.153  1.00  0.00    -0.326 OA
BRANCH  26  27
HETATM   27  C15 UNL     1       1.694  49.419  -2.831  1.00  0.00     0.294 C 
HETATM   28  O5  UNL     1       1.100  48.404  -2.137  1.00  0.00    -0.355 OA
HETATM   29  C16 UNL     1       0.284  48.969  -1.165  1.00  0.00     0.213 C 
HETATM   30  C17 UNL     1      -0.343  50.134  -1.866  1.00  0.00     0.130 C 
HETATM   31  C19 UNL     1       0.746  50.607  -2.786  1.00  0.00     0.212 C 
BRANCH  30  32
HETATM   32  O6  UNL     1      -0.667  51.114  -0.932  1.00  0.00    -0.383 OA
ATOM     33  H6  UNL     1      -1.524  50.929  -0.568  1.00  0.00     0.210 HD
ENDBRANCH  30  32
BRANCH  30  34
HETATM   34  C18 UNL     1      -1.579  49.698  -2.628  1.00  0.00     0.207 C 
BRANCH  34  35
HETATM   35  O7  UNL     1      -2.577  49.353  -1.707  1.00  0.00    -0.398 OA
ATOM     36  H7  UNL     1      -3.415  49.654  -2.037  1.00  0.00     0.209 HD
ENDBRANCH  34  35
ENDBRANCH  30  34
BRANCH  31  37
HETATM   37  O8  UNL     1       0.154  50.800  -4.051  1.00  0.00    -0.387 OA
ATOM     38  H8  UNL     1       0.760  51.251  -4.628  1.00  0.00     0.210 HD
ENDBRANCH  31  37
ENDBRANCH  26  27
ENDBRANCH   4  26
TORSDOF 13
ENDMDL
MODEL 5
REMARK VINA RESULT: -6.555905167      3.895      8.884
REMARK  13 active torsions:
REMARK  status: ('A' for Active; 'I' for Inactive)
REMARK    1  A    between atoms: C2_2  and  C3_3 
REMARK    2  A    between atoms: C3_3  and  C4_4 
REMARK    3  A    between atoms: C10_10  and  O1_11 
REMARK    4  A    between atoms: C11_13  and  O2_14 
REMARK    5  A    between atoms: O2_14  and  C12_15 
REMARK    6  A    between atoms: C14_18  and  O4_19 
REMARK    7  A    between atoms: O4_19  and  C15_20 
REMARK    8  A    between atoms: C17_23  and  O6_24 
REMARK    9  A    between atoms: C17_23  and  C18_26 
REMARK   10  A    between atoms: C18_26  and  O7_27 
REMARK   11  A    between atoms: C19_29  and  O8_30 
REMARK   12  A    between atoms: C20_32  and  O9_33 
REMARK   13  A    between atoms: C21_35  and  O10_36 
ROOT
HETATM    1  C12 UNL     1       4.901  50.037  -5.677  1.00  0.00     0.179 C 
HETATM    2  C13 UNL     1       4.958  50.585  -4.279  1.00  0.00     0.205 C 
HETATM    3  O3  UNL     1       3.941  50.051  -3.534  1.00  0.00    -0.356 OA
HETATM    4  C14 UNL     1       3.270  49.118  -4.309  1.00  0.00     0.294 C 
HETATM    5  C20 UNL     1       3.471  49.529  -5.744  1.00  0.00     0.204 C 
ENDROOT
BRANCH   1   6
HETATM    6  O2  UNL     1       5.168  51.005  -6.641  1.00  0.00    -0.370 OA
BRANCH   6   7
HETATM    7  C11 UNL     1       5.810  50.379  -7.701  1.00  0.00     0.180 C 
HETATM    8  C10 UNL     1       7.156  51.054  -7.995  1.00  0.00     0.154 C 
HETATM    9  C9  UNL     1       7.248  51.134  -9.475  1.00  0.00     0.028 C 
HETATM   10  C7  UNL     1       7.953  52.338 -10.012  1.00  0.00    -0.012 C 
HETATM   11  C22 UNL     1       5.795  51.262  -9.960  1.00  0.00     0.028 C 
HETATM   12  C6  UNL     1       7.784  52.322 -11.514  1.00  0.00     0.005 C 
HETATM   13  C8  UNL     1       9.359  52.503  -9.554  1.00  0.00     0.010 C 
HETATM   14  C5  UNL     1       7.098  51.091 -12.012  1.00  0.00     0.006 C 
HETATM   15  C4  UNL     1       5.789  50.779 -11.368  1.00  0.00    -0.004 C 
HETATM   16  C21 UNL     1       5.029  50.441  -8.989  1.00  0.00     0.154 C 
BRANCH   8  17
HETATM   17  O1  UNL     1       8.158  50.239  -7.520  1.00  0.00    -0.392 OA
ATOM     18  H1  UNL     1       8.255  50.374  -6.585  1.00  0.00     0.210 HD
ENDBRANCH   8  17
BRANCH  15  19
HETATM   19  C3  UNL     1       4.593  51.281 -12.143  1.00  0.00     0.031 C 
BRANCH  19  20
HETATM   20  C2  UNL     1       3.600  50.203 -12.368  1.00  0.00    -0.037 C 
HETATM   21  C1  UNL     1       3.898  48.925 -12.178  1.00  0.00     0.007 C 
ENDBRANCH  19  20
ENDBRANCH  15  19
BRANCH  16  22
HETATM   22  O10 UNL     1       3.836  51.139  -8.689  1.00  0.00    -0.392 OA
ATOM     23  H10 UNL     1       3.141  50.678  -9.146  1.00  0.00     0.210 HD
ENDBRANCH  16  22
ENDBRANCH   6   7
ENDBRANCH   1   6
BRANCH   5  24
HETATM   24  O9  UNL     1       2.677  50.617  -6.095  1.00  0.00    -0.388 OA
ATOM     25  H9  UNL     1       1.927  50.267  -6.561  1.00  0.00     0.210 HD
ENDBRANCH   5  24
BRANCH   4  26
HETATM   26  O4  UNL     1       1.986  48.884  -3.932  1.00  0.00    -0.326 OA
BRANCH  26  27
HETATM   27  C15 UNL     1       1.674  49.225  -2.638  1.00  0.00     0.294 C 
HETATM   28  O5  UNL     1       0.979  48.299  -1.914  1.00  0.00    -0.355 OA
HETATM   29  C16 UNL     1       0.173  48.979  -1.008  1.00  0.00     0.213 C 
HETATM   30  C17 UNL     1      -0.335  50.146  -1.797  1.00  0.00     0.130 C 
HETATM   31  C19 UNL     1       0.820  50.482  -2.696  1.00  0.00     0.212 C 
BRANCH  30  32
HETATM   32  O6  UNL     1      -0.616  51.199  -0.931  1.00  0.00    -0.383 OA
ATOM     33  H6  UNL     1      -0.567  52.019  -1.407  1.00  0.00     0.210 HD
ENDBRANCH  30  32
BRANCH  30  34
HETATM   34  C18 UNL     1      -1.572  49.761  -2.584  1.00  0.00     0.207 C 
BRANCH  34  35
HETATM   35  O7  UNL     1      -2.585  49.401  -1.684  1.00  0.00    -0.398 OA
ATOM     36  H7  UNL     1      -3.288  48.984  -2.166  1.00  0.00     0.209 HD
ENDBRANCH  34  35
ENDBRANCH  30  34
BRANCH  31  37
HETATM   37  O8  UNL     1       0.291  50.647  -3.993  1.00  0.00    -0.387 OA
ATOM     38  H8  UNL     1      -0.353  51.346  -3.995  1.00  0.00     0.210 HD
ENDBRANCH  31  37
ENDBRANCH  26  27
ENDBRANCH   4  26
TORSDOF 13
ENDMDL
