MODEL 1
REMARK VINA RESULT: -7.773510831      0.000      0.000
REMARK  10 active torsions:
REMARK  status: ('A' for Active; 'I' for Inactive)
REMARK    1  A    between atoms: C2_2  and  C4_10 
REMARK    2  A    between atoms: N1_3  and  N2_5 
REMARK       I    between atoms: N2_5  and  C3_7 
REMARK    3  A    between atoms: C4_10  and  C5_11 
REMARK    4  A    between atoms: C4_10  and  C13_25 
REMARK    5  A    between atoms: C5_11  and  S1_12 
REMARK    6  A    between atoms: S1_12  and  C6_13 
REMARK    7  A    between atoms: C11_21  and  C12_22 
REMARK       I    between atoms: C13_25  and  N6_27 
REMARK    8  A    between atoms: N6_27  and  N7_29 
REMARK       I    between atoms: N7_29  and  C14_31 
REMARK    9  A    between atoms: C14_31  and  C15_33 
REMARK   10  A    between atoms: C15_33  and  N8_36 
ROOT
HETATM    1  C4  UNL     1       4.593  50.264  -5.530  1.00  0.00     0.136 C 
ENDROOT
BRANCH   1   2
HETATM    2  C2  UNL     1       5.237  49.223  -6.352  1.00  0.00     0.014 C 
HETATM    3  C1  UNL     1       5.606  49.440  -7.763  1.00  0.00     0.066 C 
HETATM    4  N1  UNL     1       5.517  48.085  -5.799  1.00  0.00    -0.305 N 
ATOM      5  H1  UNL     1       5.253  47.958  -4.822  1.00  0.00     0.186 HD
BRANCH   4   6
HETATM    6  N2  UNL     1       6.149  47.022  -6.437  1.00  0.00    -0.254 N 
HETATM    7  C3  UNL     1       6.611  45.927  -5.685  1.00  0.00     0.347 C 
HETATM    8  N3  UNL     1       7.266  44.829  -6.313  1.00  0.00    -0.038 NA
HETATM    9  O1  UNL     1       6.450  45.906  -4.445  1.00  0.00    -0.249 OA
ATOM     10  H2  UNL     1       6.278  47.037  -7.449  1.00  0.00     0.191 HD
ENDBRANCH   4   6
ENDBRANCH   1   2
BRANCH   1  11
HETATM   11  C5  UNL     1       3.720  51.174  -6.419  1.00  0.00     0.100 C 
BRANCH  11  12
HETATM   12  S1  UNL     1       4.271  52.879  -6.337  1.00  0.00    -0.116 SA
BRANCH  12  13
HETATM   13  C6  UNL     1       6.042  52.931  -6.146  1.00  0.00     0.043 C 
HETATM   14  N4  UNL     1       6.787  52.594  -7.099  1.00  0.00    -0.382 N 
HETATM   15  C7  UNL     1       8.225  52.592  -7.069  1.00  0.00     0.105 C 
ATOM     16  H4  UNL     1       6.335  52.299  -7.965  1.00  0.00     0.160 HD
HETATM   17  C8  UNL     1       8.683  53.966  -7.474  1.00  0.00     0.100 C 
HETATM   18  C11 UNL     1       8.645  52.366  -5.650  1.00  0.00     0.112 C 
HETATM   19  S2  UNL     1       8.443  54.908  -5.919  1.00  0.00    -0.161 SA
HETATM   20  C9  UNL     1       8.032  53.512  -4.831  1.00  0.00     0.068 C 
HETATM   21  C10 UNL     1       6.548  53.381  -4.812  1.00  0.00     0.080 C 
BRANCH  18  22
HETATM   22  C12 UNL     1      10.079  52.259  -5.410  1.00  0.00     0.238 C 
HETATM   23  N5  UNL     1      10.793  52.990  -4.416  1.00  0.00    -0.062 NA
HETATM   24  O2  UNL     1      10.809  51.471  -6.112  1.00  0.00    -0.276 OA
ENDBRANCH  18  22
ENDBRANCH  12  13
ENDBRANCH  11  12
ENDBRANCH   1  11
BRANCH   1  25
HETATM   25  C13 UNL     1       3.660  49.705  -4.508  1.00  0.00     0.246 C 
HETATM   26  O3  UNL     1       4.104  49.006  -3.553  1.00  0.00    -0.271 OA
HETATM   27  N6  UNL     1       2.255  49.945  -4.589  1.00  0.00    -0.267 N 
ATOM     28  H6  UNL     1       1.873  50.503  -5.354  1.00  0.00     0.190 HD
BRANCH  27  29
HETATM   29  N7  UNL     1       1.411  49.415  -3.621  1.00  0.00    -0.265 N 
HETATM   30  C14 UNL     1       0.811  50.251  -2.661  1.00  0.00     0.271 C 
HETATM   31  O4  UNL     1       1.045  51.483  -2.693  1.00  0.00    -0.269 OA
ATOM     32  H7  UNL     1       1.223  48.412  -3.606  1.00  0.00     0.190 HD
BRANCH  30  33
HETATM   33  C15 UNL     1      -0.088  49.724  -1.610  1.00  0.00     0.197 C 
HETATM   34  C16 UNL     1      -1.486  49.590  -2.165  1.00  0.00     0.056 C 
HETATM   35  C17 UNL     1       0.429  48.388  -1.099  1.00  0.00     0.056 C 
BRANCH  33  36
HETATM   36  N8  UNL     1      -0.119  50.668  -0.512  1.00  0.00    -0.062 N 
ATOM     37  H83 UNL     1       0.798  51.069  -0.315  1.00  0.00     0.275 HD
ATOM     38  H82 UNL     1      -0.601  51.533  -0.754  1.00  0.00     0.275 HD
ATOM     39  H81 UNL     1      -0.526  50.208   0.302  1.00  0.00     0.275 HD
ENDBRANCH  33  36
ENDBRANCH  30  33
ENDBRANCH  27  29
ENDBRANCH   1  25
TORSDOF 10
ENDMDL
MODEL 2
REMARK VINA RESULT: -7.621042168      1.247      1.615
REMARK  10 active torsions:
REMARK  status: ('A' for Active; 'I' for Inactive)
REMARK    1  A    between atoms: C2_2  and  C4_10 
REMARK    2  A    between atoms: N1_3  and  N2_5 
REMARK       I    between atoms: N2_5  and  C3_7 
REMARK    3  A    between atoms: C4_10  and  C5_11 
REMARK    4  A    between atoms: C4_10  and  C13_25 
REMARK    5  A    between atoms: C5_11  and  S1_12 
REMARK    6  A    between atoms: S1_12  and  C6_13 
REMARK    7  A    between atoms: C11_21  and  C12_22 
REMARK       I    between atoms: C13_25  and  N6_27 
REMARK    8  A    between atoms: N6_27  and  N7_29 
REMARK       I    between atoms: N7_29  and  C14_31 
REMARK    9  A    between atoms: C14_31  and  C15_33 
REMARK   10  A    between atoms: C15_33  and  N8_36 
ROOT
HETATM    1  C4  UNL     1       4.494  50.387  -5.724  1.00  0.00     0.136 C 
ENDROOT
BRANCH   1   2
HETATM    2  C2  UNL     1       5.243  49.356  -6.463  1.00  0.00     0.014 C 
HETATM    3  C1  UNL     1       5.915  49.629  -7.748  1.00  0.00     0.066 C 
HETATM    4  N1  UNL     1       5.340  48.171  -5.946  1.00  0.00    -0.305 N 
ATOM      5  H1  UNL     1       4.869  48.005  -5.057  1.00  0.00     0.186 HD
BRANCH   4   6
HETATM    6  N2  UNL     1       6.039  47.109  -6.511  1.00  0.00    -0.254 N 
HETATM    7  C3  UNL     1       6.546  46.086  -5.688  1.00  0.00     0.347 C 
HETATM    8  N3  UNL     1       7.269  44.991  -6.240  1.00  0.00    -0.038 NA
HETATM    9  O1  UNL     1       6.366  46.131  -4.451  1.00  0.00    -0.249 OA
ATOM     10  H2  UNL     1       6.183  47.071  -7.519  1.00  0.00     0.191 HD
ENDBRANCH   4   6
ENDBRANCH   1   2
BRANCH   1  11
HETATM   11  C5  UNL     1       3.508  51.104  -6.669  1.00  0.00     0.100 C 
BRANCH  11  12
HETATM   12  S1  UNL     1       3.719  52.884  -6.594  1.00  0.00    -0.116 SA
BRANCH  12  13
HETATM   13  C6  UNL     1       5.439  53.276  -6.344  1.00  0.00     0.043 C 
HETATM   14  N4  UNL     1       5.907  53.336  -5.181  1.00  0.00    -0.382 N 
HETATM   15  C7  UNL     1       7.273  53.643  -4.849  1.00  0.00     0.105 C 
ATOM     16  H4  UNL     1       5.267  53.151  -4.408  1.00  0.00     0.160 HD
HETATM   17  C8  UNL     1       8.039  52.348  -4.864  1.00  0.00     0.100 C 
HETATM   18  C11 UNL     1       7.817  54.512  -5.941  1.00  0.00     0.112 C 
HETATM   19  S2  UNL     1       8.311  52.101  -6.661  1.00  0.00    -0.161 SA
HETATM   20  C9  UNL     1       7.684  53.704  -7.242  1.00  0.00     0.068 C 
HETATM   21  C10 UNL     1       6.244  53.526  -7.580  1.00  0.00     0.080 C 
BRANCH  18  22
HETATM   22  C12 UNL     1       9.180  54.997  -5.762  1.00  0.00     0.238 C 
HETATM   23  N5  UNL     1       9.764  55.330  -4.506  1.00  0.00    -0.062 NA
HETATM   24  O2  UNL     1       9.960  55.160  -6.767  1.00  0.00    -0.276 OA
ENDBRANCH  18  22
ENDBRANCH  12  13
ENDBRANCH  11  12
ENDBRANCH   1  11
BRANCH   1  25
HETATM   25  C13 UNL     1       3.647  49.821  -4.632  1.00  0.00     0.246 C 
HETATM   26  O3  UNL     1       4.183  49.289  -3.619  1.00  0.00    -0.271 OA
HETATM   27  N6  UNL     1       2.222  49.868  -4.712  1.00  0.00    -0.267 N 
ATOM     28  H6  UNL     1       1.767  50.289  -5.523  1.00  0.00     0.190 HD
BRANCH  27  29
HETATM   29  N7  UNL     1       1.459  49.336  -3.679  1.00  0.00    -0.265 N 
HETATM   30  C14 UNL     1       0.873  50.179  -2.718  1.00  0.00     0.271 C 
HETATM   31  O4  UNL     1       1.044  51.418  -2.806  1.00  0.00    -0.269 OA
ATOM     32  H7  UNL     1       1.322  48.327  -3.618  1.00  0.00     0.190 HD
BRANCH  30  33
HETATM   33  C15 UNL     1       0.059  49.652  -1.599  1.00  0.00     0.197 C 
HETATM   34  C16 UNL     1      -1.372  49.491  -2.050  1.00  0.00     0.056 C 
HETATM   35  C17 UNL     1       0.631  48.330  -1.113  1.00  0.00     0.056 C 
BRANCH  33  36
HETATM   36  N8  UNL     1       0.094  50.608  -0.511  1.00  0.00    -0.062 N 
ATOM     37  H83 UNL     1      -0.389  50.271   0.321  1.00  0.00     0.275 HD
ATOM     38  H82 UNL     1       1.024  50.703  -0.104  1.00  0.00     0.275 HD
ATOM     39  H81 UNL     1      -0.278  51.495  -0.846  1.00  0.00     0.275 HD
ENDBRANCH  33  36
ENDBRANCH  30  33
ENDBRANCH  27  29
ENDBRANCH   1  25
TORSDOF 10
ENDMDL
MODEL 3
REMARK VINA RESULT: -7.505493482      1.530      1.834
REMARK  10 active torsions:
REMARK  status: ('A' for Active; 'I' for Inactive)
REMARK    1  A    between atoms: C2_2  and  C4_10 
REMARK    2  A    between atoms: N1_3  and  N2_5 
REMARK       I    between atoms: N2_5  and  C3_7 
REMARK    3  A    between atoms: C4_10  and  C5_11 
REMARK    4  A    between atoms: C4_10  and  C13_25 
REMARK    5  A    between atoms: C5_11  and  S1_12 
REMARK    6  A    between atoms: S1_12  and  C6_13 
REMARK    7  A    between atoms: C11_21  and  C12_22 
REMARK       I    between atoms: C13_25  and  N6_27 
REMARK    8  A    between atoms: N6_27  and  N7_29 
REMARK       I    between atoms: N7_29  and  C14_31 
REMARK    9  A    between atoms: C14_31  and  C15_33 
REMARK   10  A    between atoms: C15_33  and  N8_36 
ROOT
HETATM    1  C4  UNL     1       4.536  50.454  -5.629  1.00  0.00     0.136 C 
ENDROOT
BRANCH   1   2
HETATM    2  C2  UNL     1       5.279  49.431  -6.385  1.00  0.00     0.014 C 
HETATM    3  C1  UNL     1       6.015  49.738  -7.627  1.00  0.00     0.066 C 
HETATM    4  N1  UNL     1       5.313  48.221  -5.922  1.00  0.00    -0.305 N 
ATOM      5  H1  UNL     1       4.798  48.032  -5.062  1.00  0.00     0.186 HD
BRANCH   4   6
HETATM    6  N2  UNL     1       5.997  47.160  -6.507  1.00  0.00    -0.254 N 
HETATM    7  C3  UNL     1       6.505  46.124  -5.703  1.00  0.00     0.347 C 
HETATM    8  N3  UNL     1       7.213  45.030  -6.276  1.00  0.00    -0.038 NA
HETATM    9  O1  UNL     1       6.339  46.154  -4.464  1.00  0.00    -0.249 OA
ATOM     10  H2  UNL     1       6.129  47.134  -7.517  1.00  0.00     0.191 HD
ENDBRANCH   4   6
ENDBRANCH   1   2
BRANCH   1  11
HETATM   11  C5  UNL     1       3.585  51.221  -6.571  1.00  0.00     0.100 C 
BRANCH  11  12
HETATM   12  S1  UNL     1       4.171  52.890  -6.863  1.00  0.00    -0.116 SA
BRANCH  12  13
HETATM   13  C6  UNL     1       5.597  53.214  -5.844  1.00  0.00     0.043 C 
HETATM   14  N4  UNL     1       5.711  52.653  -4.727  1.00  0.00    -0.382 N 
HETATM   15  C7  UNL     1       6.809  52.833  -3.815  1.00  0.00     0.105 C 
ATOM     16  H4  UNL     1       4.964  52.019  -4.442  1.00  0.00     0.160 HD
HETATM   17  C8  UNL     1       7.868  51.832  -4.188  1.00  0.00     0.100 C 
HETATM   18  C11 UNL     1       7.368  54.203  -4.047  1.00  0.00     0.112 C 
HETATM   19  S2  UNL     1       8.657  52.649  -5.628  1.00  0.00    -0.161 SA
HETATM   20  C9  UNL     1       7.800  54.248  -5.521  1.00  0.00     0.068 C 
HETATM   21  C10 UNL     1       6.601  54.174  -6.401  1.00  0.00     0.080 C 
BRANCH  18  22
HETATM   22  C12 UNL     1       8.456  54.614  -3.168  1.00  0.00     0.238 C 
HETATM   23  N5  UNL     1       8.603  54.203  -1.812  1.00  0.00    -0.062 NA
HETATM   24  O2  UNL     1       9.378  55.403  -3.584  1.00  0.00    -0.276 OA
ENDBRANCH  18  22
ENDBRANCH  12  13
ENDBRANCH  11  12
ENDBRANCH   1  11
BRANCH   1  25
HETATM   25  C13 UNL     1       3.655  49.872  -4.573  1.00  0.00     0.246 C 
HETATM   26  O3  UNL     1       4.159  49.307  -3.561  1.00  0.00    -0.271 OA
HETATM   27  N6  UNL     1       2.233  49.940  -4.686  1.00  0.00    -0.267 N 
ATOM     28  H6  UNL     1       1.804  50.387  -5.497  1.00  0.00     0.190 HD
BRANCH  27  29
HETATM   29  N7  UNL     1       1.439  49.393  -3.686  1.00  0.00    -0.265 N 
HETATM   30  C14 UNL     1       0.857  50.217  -2.706  1.00  0.00     0.271 C 
HETATM   31  O4  UNL     1       1.061  51.454  -2.748  1.00  0.00    -0.269 OA
ATOM     32  H7  UNL     1       1.275  48.386  -3.662  1.00  0.00     0.190 HD
BRANCH  30  33
HETATM   33  C15 UNL     1       0.010  49.673  -1.620  1.00  0.00     0.197 C 
HETATM   34  C16 UNL     1      -1.405  49.512  -2.120  1.00  0.00     0.056 C 
HETATM   35  C17 UNL     1       0.572  48.347  -1.132  1.00  0.00     0.056 C 
BRANCH  33  36
HETATM   36  N8  UNL     1       0.005  50.615  -0.520  1.00  0.00    -0.062 N 
ATOM     37  H83 UNL     1      -0.841  51.183  -0.496  1.00  0.00     0.275 HD
ATOM     38  H82 UNL     1      -0.106  50.159   0.385  1.00  0.00     0.275 HD
ATOM     39  H81 UNL     1       0.853  51.179  -0.572  1.00  0.00     0.275 HD
ENDBRANCH  33  36
ENDBRANCH  30  33
ENDBRANCH  27  29
ENDBRANCH   1  25
TORSDOF 10
ENDMDL
MODEL 4
REMARK VINA RESULT: -7.170419687      1.593      1.726
REMARK  10 active torsions:
REMARK  status: ('A' for Active; 'I' for Inactive)
REMARK    1  A    between atoms: C2_2  and  C4_10 
REMARK    2  A    between atoms: N1_3  and  N2_5 
REMARK       I    between atoms: N2_5  and  C3_7 
REMARK    3  A    between atoms: C4_10  and  C5_11 
REMARK    4  A    between atoms: C4_10  and  C13_25 
REMARK    5  A    between atoms: C5_11  and  S1_12 
REMARK    6  A    between atoms: S1_12  and  C6_13 
REMARK    7  A    between atoms: C11_21  and  C12_22 
REMARK       I    between atoms: C13_25  and  N6_27 
REMARK    8  A    between atoms: N6_27  and  N7_29 
REMARK       I    between atoms: N7_29  and  C14_31 
REMARK    9  A    between atoms: C14_31  and  C15_33 
REMARK   10  A    between atoms: C15_33  and  N8_36 
ROOT
HETATM    1  C4  UNL     1       4.530  50.327  -5.683  1.00  0.00     0.136 C 
ENDROOT
BRANCH   1   2
HETATM    2  C2  UNL     1       5.256  49.293  -6.442  1.00  0.00     0.014 C 
HETATM    3  C1  UNL     1       5.890  49.564  -7.746  1.00  0.00     0.066 C 
HETATM    4  N1  UNL     1       5.365  48.109  -5.927  1.00  0.00    -0.305 N 
ATOM      5  H1  UNL     1       4.919  47.945  -5.025  1.00  0.00     0.186 HD
BRANCH   4   6
HETATM    6  N2  UNL     1       6.045  47.045  -6.510  1.00  0.00    -0.254 N 
HETATM    7  C3  UNL     1       6.544  46.005  -5.705  1.00  0.00     0.347 C 
HETATM    8  N3  UNL     1       7.247  44.906  -6.276  1.00  0.00    -0.038 NA
HETATM    9  O1  UNL     1       6.374  46.036  -4.466  1.00  0.00    -0.249 OA
ATOM     10  H2  UNL     1       6.180  47.017  -7.520  1.00  0.00     0.191 HD
ENDBRANCH   4   6
ENDBRANCH   1   2
BRANCH   1  11
HETATM   11  C5  UNL     1       3.571  51.094  -6.617  1.00  0.00     0.100 C 
BRANCH  11  12
HETATM   12  S1  UNL     1       3.840  52.864  -6.507  1.00  0.00    -0.116 SA
BRANCH  12  13
HETATM   13  C6  UNL     1       5.434  53.274  -7.188  1.00  0.00     0.043 C 
HETATM   14  N4  UNL     1       5.670  53.069  -8.404  1.00  0.00    -0.382 N 
HETATM   15  C7  UNL     1       6.912  53.355  -9.070  1.00  0.00     0.105 C 
ATOM     16  H4  UNL     1       4.919  52.667  -8.965  1.00  0.00     0.160 HD
HETATM   17  C8  UNL     1       6.849  54.782  -9.540  1.00  0.00     0.100 C 
HETATM   18  C11 UNL     1       8.004  53.255  -8.049  1.00  0.00     0.112 C 
HETATM   19  S2  UNL     1       7.224  55.698  -7.996  1.00  0.00    -0.161 SA
HETATM   20  C9  UNL     1       7.663  54.276  -6.953  1.00  0.00     0.068 C 
HETATM   21  C10 UNL     1       6.431  53.852  -6.232  1.00  0.00     0.080 C 
BRANCH  18  22
HETATM   22  C12 UNL     1       9.364  53.444  -8.538  1.00  0.00     0.238 C 
HETATM   23  N5  UNL     1       9.824  53.053  -9.828  1.00  0.00    -0.062 NA
HETATM   24  O2  UNL     1      10.260  53.994  -7.802  1.00  0.00    -0.276 OA
ENDBRANCH  18  22
ENDBRANCH  12  13
ENDBRANCH  11  12
ENDBRANCH   1  11
BRANCH   1  25
HETATM   25  C13 UNL     1       3.660  49.759  -4.611  1.00  0.00     0.246 C 
HETATM   26  O3  UNL     1       4.172  49.143  -3.633  1.00  0.00    -0.271 OA
HETATM   27  N6  UNL     1       2.240  49.897  -4.669  1.00  0.00    -0.267 N 
ATOM     28  H6  UNL     1       1.804  50.387  -5.452  1.00  0.00     0.190 HD
BRANCH  27  29
HETATM   29  N7  UNL     1       1.456  49.361  -3.655  1.00  0.00    -0.265 N 
HETATM   30  C14 UNL     1       0.856  50.200  -2.698  1.00  0.00     0.271 C 
HETATM   31  O4  UNL     1       1.033  51.439  -2.774  1.00  0.00    -0.269 OA
ATOM     32  H7  UNL     1       1.314  48.352  -3.604  1.00  0.00     0.190 HD
BRANCH  30  33
HETATM   33  C15 UNL     1       0.019  49.667  -1.599  1.00  0.00     0.197 C 
HETATM   34  C16 UNL     1      -1.395  49.473  -2.092  1.00  0.00     0.056 C 
HETATM   35  C17 UNL     1       0.602  48.362  -1.081  1.00  0.00     0.056 C 
BRANCH  33  36
HETATM   36  N8  UNL     1       0.001  50.635  -0.521  1.00  0.00    -0.062 N 
ATOM     37  H83 UNL     1       0.932  50.822  -0.148  1.00  0.00     0.275 HD
ATOM     38  H82 UNL     1      -0.212  51.578  -0.846  1.00  0.00     0.275 HD
ATOM     39  H81 UNL     1      -0.649  50.313   0.195  1.00  0.00     0.275 HD
ENDBRANCH  33  36
ENDBRANCH  30  33
ENDBRANCH  27  29
ENDBRANCH   1  25
TORSDOF 10
ENDMDL
MODEL 5
REMARK VINA RESULT: -7.155755328      1.527      1.888
REMARK  10 active torsions:
REMARK  status: ('A' for Active; 'I' for Inactive)
REMARK    1  A    between atoms: C2_2  and  C4_10 
REMARK    2  A    between atoms: N1_3  and  N2_5 
REMARK       I    between atoms: N2_5  and  C3_7 
REMARK    3  A    between atoms: C4_10  and  C5_11 
REMARK    4  A    between atoms: C4_10  and  C13_25 
REMARK    5  A    between atoms: C5_11  and  S1_12 
REMARK    6  A    between atoms: S1_12  and  C6_13 
REMARK    7  A    between atoms: C11_21  and  C12_22 
REMARK       I    between atoms: C13_25  and  N6_27 
REMARK    8  A    between atoms: N6_27  and  N7_29 
REMARK       I    between atoms: N7_29  and  C14_31 
REMARK    9  A    between atoms: C14_31  and  C15_33 
REMARK   10  A    between atoms: C15_33  and  N8_36 
ROOT
HETATM    1  C4  UNL     1       4.591  50.216  -5.461  1.00  0.00     0.136 C 
ENDROOT
BRANCH   1   2
HETATM    2  C2  UNL     1       5.196  49.165  -6.299  1.00  0.00     0.014 C 
HETATM    3  C1  UNL     1       5.396  49.325  -7.752  1.00  0.00     0.066 C 
HETATM    4  N1  UNL     1       5.596  48.073  -5.729  1.00  0.00    -0.305 N 
ATOM      5  H1  UNL     1       5.449  47.985  -4.723  1.00  0.00     0.186 HD
BRANCH   4   6
HETATM    6  N2  UNL     1       6.211  47.010  -6.383  1.00  0.00    -0.254 N 
HETATM    7  C3  UNL     1       6.615  45.876  -5.654  1.00  0.00     0.347 C 
HETATM    8  N3  UNL     1       7.251  44.777  -6.298  1.00  0.00    -0.038 NA
HETATM    9  O1  UNL     1       6.417  45.822  -4.420  1.00  0.00    -0.249 OA
ATOM     10  H2  UNL     1       6.369  47.052  -7.389  1.00  0.00     0.191 HD
ENDBRANCH   4   6
ENDBRANCH   1   2
BRANCH   1  11
HETATM   11  C5  UNL     1       3.774  51.187  -6.338  1.00  0.00     0.100 C 
BRANCH  11  12
HETATM   12  S1  UNL     1       4.429  52.853  -6.242  1.00  0.00    -0.116 SA
BRANCH  12  13
HETATM   13  C6  UNL     1       6.036  52.913  -7.010  1.00  0.00     0.043 C 
HETATM   14  N4  UNL     1       7.019  52.365  -6.453  1.00  0.00    -0.382 N 
HETATM   15  C7  UNL     1       8.362  52.346  -6.969  1.00  0.00     0.105 C 
ATOM     16  H4  UNL     1       6.852  51.896  -5.563  1.00  0.00     0.160 HD
HETATM   17  C8  UNL     1       8.476  51.149  -7.873  1.00  0.00     0.100 C 
HETATM   18  C11 UNL     1       8.541  53.574  -7.807  1.00  0.00     0.112 C 
HETATM   19  S2  UNL     1       7.673  51.764  -9.403  1.00  0.00    -0.161 SA
HETATM   20  C9  UNL     1       7.474  53.502  -8.911  1.00  0.00     0.068 C 
HETATM   21  C10 UNL     1       6.118  53.645  -8.312  1.00  0.00     0.080 C 
BRANCH  18  22
HETATM   22  C12 UNL     1       9.868  53.782  -8.373  1.00  0.00     0.238 C 
HETATM   23  N5  UNL     1      11.090  53.488  -7.703  1.00  0.00    -0.062 NA
HETATM   24  O2  UNL     1      10.014  54.264  -9.553  1.00  0.00    -0.276 OA
ENDBRANCH  18  22
ENDBRANCH  12  13
ENDBRANCH  11  12
ENDBRANCH   1  11
BRANCH   1  25
HETATM   25  C13 UNL     1       3.620  49.678  -4.463  1.00  0.00     0.246 C 
HETATM   26  O3  UNL     1       4.023  48.968  -3.498  1.00  0.00    -0.271 OA
HETATM   27  N6  UNL     1       2.223  49.950  -4.581  1.00  0.00    -0.267 N 
ATOM     28  H6  UNL     1       1.874  50.517  -5.354  1.00  0.00     0.190 HD
BRANCH  27  29
HETATM   29  N7  UNL     1       1.342  49.439  -3.635  1.00  0.00    -0.265 N 
HETATM   30  C14 UNL     1       0.771  50.280  -2.663  1.00  0.00     0.271 C 
HETATM   31  O4  UNL     1       1.062  51.500  -2.663  1.00  0.00    -0.269 OA
ATOM     32  H7  UNL     1       1.108  48.446  -3.646  1.00  0.00     0.190 HD
BRANCH  30  33
HETATM   33  C15 UNL     1      -0.166  49.773  -1.635  1.00  0.00     0.197 C 
HETATM   34  C16 UNL     1      -1.533  49.585  -2.249  1.00  0.00     0.056 C 
HETATM   35  C17 UNL     1       0.354  48.470  -1.049  1.00  0.00     0.056 C 
BRANCH  33  36
HETATM   36  N8  UNL     1      -0.269  50.757  -0.578  1.00  0.00    -0.062 N 
ATOM     37  H83 UNL     1       0.491  51.436  -0.601  1.00  0.00     0.275 HD
ATOM     38  H82 UNL     1      -1.042  51.406  -0.721  1.00  0.00     0.275 HD
ATOM     39  H81 UNL     1      -0.330  50.270   0.316  1.00  0.00     0.275 HD
ENDBRANCH  33  36
ENDBRANCH  30  33
ENDBRANCH  27  29
ENDBRANCH   1  25
TORSDOF 10
ENDMDL
