MODEL 1
REMARK VINA RESULT: -6.532202821      0.000      0.000
REMARK  11 active torsions:
REMARK  status: ('A' for Active; 'I' for Inactive)
REMARK    1  A    between atoms: C2_2  and  N1_3 
REMARK    2  A    between atoms: N1_3  and  C3_6 
REMARK    3  A    between atoms: C3_6  and  C4_7 
REMARK       I    between atoms: C4_7  and  N2_9 
REMARK    4  A    between atoms: N2_9  and  C5_11 
REMARK    5  A    between atoms: C6_12  and  N3_13 
REMARK    6  A    between atoms: C13_24  and  O3_25 
REMARK    7  A    between atoms: O3_25  and  C14_26 
REMARK    8  A    between atoms: C15_28  and  C16_29 
REMARK    9  A    between atoms: C16_29  and  O5_30 
REMARK   10  A    between atoms: C17_32  and  O6_33 
REMARK   11  A    between atoms: C20_37  and  O7_38 
ROOT
HETATM    1  C5  UNL     1       5.511  51.968  -8.167  1.00  0.00     0.146 C 
HETATM    2  C6  UNL     1       6.505  53.078  -8.239  1.00  0.00     0.208 C 
HETATM    3  C7  UNL     1       7.193  53.311  -6.892  1.00  0.00     0.037 C 
HETATM    4  C8  UNL     1       7.485  51.941  -6.333  1.00  0.00     0.037 C 
HETATM    5  C9  UNL     1       6.175  51.360  -5.835  1.00  0.00     0.154 C 
HETATM    6  O2  UNL     1       6.370  50.013  -5.686  1.00  0.00    -0.368 OA
HETATM    7  C10 UNL     1       5.244  49.267  -5.438  1.00  0.00     0.104 C 
HETATM    8  C11 UNL     1       5.599  47.828  -5.799  1.00  0.00     0.051 C 
HETATM    9  C12 UNL     1       5.079  49.285  -3.918  1.00  0.00     0.051 C 
HETATM   10  C13 UNL     1       4.005  49.712  -6.079  1.00  0.00     0.297 C 
HETATM   11  O8  UNL     1       3.981  50.907  -6.742  1.00  0.00    -0.348 OA
HETATM   12  C21 UNL     1       5.032  51.734  -6.723  1.00  0.00     0.178 C 
ENDROOT
BRANCH  10  13
HETATM   13  O3  UNL     1       2.972  49.738  -5.155  1.00  0.00    -0.326 OA
BRANCH  13  14
HETATM   14  C14 UNL     1       2.368  50.944  -4.950  1.00  0.00     0.292 C 
HETATM   15  O4  UNL     1       2.052  51.139  -3.597  1.00  0.00    -0.349 OA
HETATM   16  C15 UNL     1       1.007  50.390  -3.128  1.00  0.00     0.177 C 
HETATM   17  C17 UNL     1      -0.265  50.506  -3.929  1.00  0.00     0.155 C 
HETATM   18  C18 UNL     1       0.081  50.157  -5.375  1.00  0.00     0.046 C 
HETATM   19  C19 UNL     1      -1.104  50.224  -6.293  1.00  0.00     0.015 C 
HETATM   20  C20 UNL     1       1.128  51.203  -5.760  1.00  0.00     0.179 C 
BRANCH  16  21
HETATM   21  C16 UNL     1       1.359  48.972  -2.759  1.00  0.00     0.198 C 
BRANCH  21  22
HETATM   22  O5  UNL     1       0.474  48.529  -1.765  1.00  0.00    -0.398 OA
ATOM     23  H5  UNL     1       0.971  48.319  -0.983  1.00  0.00     0.209 HD
ENDBRANCH  21  22
ENDBRANCH  16  21
BRANCH  17  24
HETATM   24  O6  UNL     1      -1.289  49.765  -3.424  1.00  0.00    -0.392 OA
ATOM     25  H6  UNL     1      -1.331  49.779  -2.475  1.00  0.00     0.210 HD
ENDBRANCH  17  24
BRANCH  20  26
HETATM   26  O7  UNL     1       1.305  51.362  -7.096  1.00  0.00    -0.390 OA
ATOM     27  H7  UNL     1       0.556  51.682  -7.584  1.00  0.00     0.210 HD
ENDBRANCH  20  26
ENDBRANCH  13  14
ENDBRANCH  10  13
BRANCH   1  28
HETATM   28  N2  UNL     1       4.370  52.311  -8.987  1.00  0.00    -0.350 N 
HETATM   29  C4  UNL     1       3.863  51.434  -9.988  1.00  0.00     0.243 C 
HETATM   30  O1  UNL     1       4.436  50.329 -10.152  1.00  0.00    -0.272 OA
ATOM     31  H2  UNL     1       3.912  53.212  -8.842  1.00  0.00     0.163 HD
BRANCH  29  32
HETATM   32  C3  UNL     1       2.703  51.748 -10.847  1.00  0.00     0.334 C 
BRANCH  32  33
HETATM   33  N1  UNL     1       1.477  51.723 -10.072  1.00  0.00    -0.067 N 
ATOM     34  H12 UNL     1       1.263  52.653  -9.712  1.00  0.00     0.277 HD
ATOM     35  H11 UNL     1       1.620  51.225  -9.194  1.00  0.00     0.277 HD
BRANCH  33  36
HETATM   36  C2  UNL     1       0.353  51.186 -10.773  1.00  0.00     0.228 C 
HETATM   37  C1  UNL     1      -0.824  50.899  -9.899  1.00  0.00     0.034 C 
ENDBRANCH  33  36
ENDBRANCH  32  33
ENDBRANCH  29  32
ENDBRANCH   1  28
BRANCH   2  38
HETATM   38  N3  UNL     1       7.556  52.855  -9.213  1.00  0.00    -0.073 N 
ATOM     39  H33 UNL     1       8.355  52.390  -8.782  1.00  0.00     0.274 HD
ATOM     40  H32 UNL     1       7.281  52.135  -9.882  1.00  0.00     0.274 HD
ATOM     41  H31 UNL     1       7.850  53.703  -9.698  1.00  0.00     0.274 HD
ENDBRANCH   2  38
TORSDOF 11
ENDMDL
MODEL 2
REMARK VINA RESULT: -6.213842938      1.391      1.803
REMARK  11 active torsions:
REMARK  status: ('A' for Active; 'I' for Inactive)
REMARK    1  A    between atoms: C2_2  and  N1_3 
REMARK    2  A    between atoms: N1_3  and  C3_6 
REMARK    3  A    between atoms: C3_6  and  C4_7 
REMARK       I    between atoms: C4_7  and  N2_9 
REMARK    4  A    between atoms: N2_9  and  C5_11 
REMARK    5  A    between atoms: C6_12  and  N3_13 
REMARK    6  A    between atoms: C13_24  and  O3_25 
REMARK    7  A    between atoms: O3_25  and  C14_26 
REMARK    8  A    between atoms: C15_28  and  C16_29 
REMARK    9  A    between atoms: C16_29  and  O5_30 
REMARK   10  A    between atoms: C17_32  and  O6_33 
REMARK   11  A    between atoms: C20_37  and  O7_38 
ROOT
HETATM    1  C5  UNL     1       6.380  52.648  -6.135  1.00  0.00     0.146 C 
HETATM    2  C6  UNL     1       7.379  53.549  -5.491  1.00  0.00     0.208 C 
HETATM    3  C7  UNL     1       7.586  53.205  -4.015  1.00  0.00     0.037 C 
HETATM    4  C8  UNL     1       7.626  51.699  -3.943  1.00  0.00     0.037 C 
HETATM    5  C9  UNL     1       6.205  51.193  -4.109  1.00  0.00     0.154 C 
HETATM    6  O2  UNL     1       6.291  49.862  -4.418  1.00  0.00    -0.368 OA
HETATM    7  C10 UNL     1       5.121  49.260  -4.811  1.00  0.00     0.104 C 
HETATM    8  C11 UNL     1       5.525  47.990  -5.555  1.00  0.00     0.051 C 
HETATM    9  C12 UNL     1       4.459  48.788  -3.516  1.00  0.00     0.051 C 
HETATM   10  C13 UNL     1       4.184  50.081  -5.580  1.00  0.00     0.297 C 
HETATM   11  O8  UNL     1       4.425  51.417  -5.729  1.00  0.00    -0.348 OA
HETATM   12  C21 UNL     1       5.438  52.017  -5.093  1.00  0.00     0.178 C 
ENDROOT
BRANCH  10  13
HETATM   13  O3  UNL     1       2.903  49.953  -5.065  1.00  0.00    -0.326 OA
BRANCH  13  14
HETATM   14  C14 UNL     1       2.190  51.105  -4.911  1.00  0.00     0.292 C 
HETATM   15  O4  UNL     1       1.745  51.264  -3.589  1.00  0.00    -0.349 OA
HETATM   16  C15 UNL     1       0.727  50.431  -3.213  1.00  0.00     0.177 C 
HETATM   17  C17 UNL     1      -0.477  50.453  -4.119  1.00  0.00     0.155 C 
HETATM   18  C18 UNL     1       0.018  50.143  -5.530  1.00  0.00     0.046 C 
HETATM   19  C19 UNL     1      -1.086  50.123  -6.547  1.00  0.00     0.015 C 
HETATM   20  C20 UNL     1       1.008  51.272  -5.824  1.00  0.00     0.179 C 
BRANCH  16  21
HETATM   21  C16 UNL     1       1.158  49.042  -2.816  1.00  0.00     0.198 C 
BRANCH  21  22
HETATM   22  O5  UNL     1       0.371  48.614  -1.737  1.00  0.00    -0.398 OA
ATOM     23  H5  UNL     1       0.912  48.582  -0.956  1.00  0.00     0.209 HD
ENDBRANCH  21  22
ENDBRANCH  16  21
BRANCH  17  24
HETATM   24  O6  UNL     1      -1.478  49.628  -3.705  1.00  0.00    -0.392 OA
ATOM     25  H6  UNL     1      -1.858  49.887  -2.873  1.00  0.00     0.210 HD
ENDBRANCH  17  24
BRANCH  20  26
HETATM   26  O7  UNL     1       1.284  51.455  -7.139  1.00  0.00    -0.390 OA
ATOM     27  H7  UNL     1       0.538  51.493  -7.725  1.00  0.00     0.210 HD
ENDBRANCH  20  26
ENDBRANCH  13  14
ENDBRANCH  10  13
BRANCH   1  28
HETATM   28  N2  UNL     1       5.590  53.420  -7.069  1.00  0.00    -0.350 N 
HETATM   29  C4  UNL     1       5.258  52.932  -8.366  1.00  0.00     0.243 C 
HETATM   30  O1  UNL     1       5.670  51.792  -8.693  1.00  0.00    -0.272 OA
ATOM     31  H2  UNL     1       5.260  54.344  -6.790  1.00  0.00     0.163 HD
BRANCH  29  32
HETATM   32  C3  UNL     1       4.457  53.690  -9.350  1.00  0.00     0.334 C 
BRANCH  32  33
HETATM   33  N1  UNL     1       3.041  53.450  -9.143  1.00  0.00    -0.067 N 
ATOM     34  H12 UNL     1       2.591  54.281  -8.758  1.00  0.00     0.277 HD
ATOM     35  H11 UNL     1       2.898  52.802  -8.369  1.00  0.00     0.277 HD
BRANCH  33  36
HETATM   36  C2  UNL     1       2.348  52.999 -10.309  1.00  0.00     0.228 C 
HETATM   37  C1  UNL     1       2.422  51.522 -10.523  1.00  0.00     0.034 C 
ENDBRANCH  33  36
ENDBRANCH  32  33
ENDBRANCH  29  32
ENDBRANCH   1  28
BRANCH   2  38
HETATM   38  N3  UNL     1       8.686  53.509  -6.119  1.00  0.00    -0.073 N 
ATOM     39  H33 UNL     1       9.377  53.988  -5.542  1.00  0.00     0.274 HD
ATOM     40  H32 UNL     1       9.069  52.564  -6.094  1.00  0.00     0.274 HD
ATOM     41  H31 UNL     1       8.694  53.876  -7.070  1.00  0.00     0.274 HD
ENDBRANCH   2  38
TORSDOF 11
ENDMDL
MODEL 3
REMARK VINA RESULT: -5.990421211      3.119      5.739
REMARK  11 active torsions:
REMARK  status: ('A' for Active; 'I' for Inactive)
REMARK    1  A    between atoms: C2_2  and  N1_3 
REMARK    2  A    between atoms: N1_3  and  C3_6 
REMARK    3  A    between atoms: C3_6  and  C4_7 
REMARK       I    between atoms: C4_7  and  N2_9 
REMARK    4  A    between atoms: N2_9  and  C5_11 
REMARK    5  A    between atoms: C6_12  and  N3_13 
REMARK    6  A    between atoms: C13_24  and  O3_25 
REMARK    7  A    between atoms: O3_25  and  C14_26 
REMARK    8  A    between atoms: C15_28  and  C16_29 
REMARK    9  A    between atoms: C16_29  and  O5_30 
REMARK   10  A    between atoms: C17_32  and  O6_33 
REMARK   11  A    between atoms: C20_37  and  O7_38 
ROOT
HETATM    1  C5  UNL     1       9.746  52.109  -7.112  1.00  0.00     0.146 C 
HETATM    2  C6  UNL     1      10.974  51.591  -7.781  1.00  0.00     0.208 C 
HETATM    3  C7  UNL     1      10.644  50.521  -8.823  1.00  0.00     0.037 C 
HETATM    4  C8  UNL     1       9.421  51.018  -9.553  1.00  0.00     0.037 C 
HETATM    5  C9  UNL     1       8.229  50.831  -8.634  1.00  0.00     0.154 C 
HETATM    6  O2  UNL     1       7.218  51.609  -9.130  1.00  0.00    -0.368 OA
HETATM    7  C10 UNL     1       6.112  51.743  -8.327  1.00  0.00     0.104 C 
HETATM    8  C11 UNL     1       5.378  52.987  -8.817  1.00  0.00     0.051 C 
HETATM    9  C12 UNL     1       5.211  50.560  -8.687  1.00  0.00     0.051 C 
HETATM   10  C13 UNL     1       6.348  51.768  -6.882  1.00  0.00     0.297 C 
HETATM   11  O8  UNL     1       7.597  51.499  -6.399  1.00  0.00    -0.348 OA
HETATM   12  C21 UNL     1       8.585  51.102  -7.207  1.00  0.00     0.178 C 
ENDROOT
BRANCH  10  13
HETATM   13  O3  UNL     1       5.469  50.909  -6.240  1.00  0.00    -0.326 OA
BRANCH  13  14
HETATM   14  C14 UNL     1       4.729  51.441  -5.224  1.00  0.00     0.292 C 
HETATM   15  O4  UNL     1       4.890  50.715  -4.034  1.00  0.00    -0.349 OA
HETATM   16  C15 UNL     1       4.279  49.490  -4.012  1.00  0.00     0.177 C 
HETATM   17  C17 UNL     1       2.811  49.508  -4.357  1.00  0.00     0.155 C 
HETATM   18  C18 UNL     1       2.679  50.183  -5.721  1.00  0.00     0.046 C 
HETATM   19  C19 UNL     1       1.259  50.265  -6.199  1.00  0.00     0.015 C 
HETATM   20  C20 UNL     1       3.257  51.581  -5.490  1.00  0.00     0.179 C 
BRANCH  16  21
HETATM   21  C16 UNL     1       5.045  48.387  -4.695  1.00  0.00     0.198 C 
BRANCH  21  22
HETATM   22  O5  UNL     1       6.242  48.167  -3.998  1.00  0.00    -0.398 OA
ATOM     23  H5  UNL     1       6.283  47.254  -3.738  1.00  0.00     0.209 HD
ENDBRANCH  21  22
ENDBRANCH  16  21
BRANCH  17  24
HETATM   24  O6  UNL     1       2.231  48.278  -4.306  1.00  0.00    -0.392 OA
ATOM     25  H6  UNL     1       1.307  48.288  -4.529  1.00  0.00     0.210 HD
ENDBRANCH  17  24
BRANCH  20  26
HETATM   26  O7  UNL     1       2.898  52.503  -6.419  1.00  0.00    -0.390 OA
ATOM     27  H7  UNL     1       2.402  52.180  -7.162  1.00  0.00     0.210 HD
ENDBRANCH  20  26
ENDBRANCH  13  14
ENDBRANCH  10  13
BRANCH   1  28
HETATM   28  N2  UNL     1      10.042  52.348  -5.716  1.00  0.00    -0.350 N 
HETATM   29  C4  UNL     1      10.067  53.659  -5.159  1.00  0.00     0.243 C 
HETATM   30  O1  UNL     1       9.820  54.629  -5.918  1.00  0.00    -0.272 OA
ATOM     31  H2  UNL     1      10.238  51.551  -5.110  1.00  0.00     0.163 HD
BRANCH  29  32
HETATM   32  C3  UNL     1      10.367  53.946  -3.741  1.00  0.00     0.334 C 
BRANCH  32  33
HETATM   33  N1  UNL     1       9.253  54.634  -3.117  1.00  0.00    -0.067 N 
ATOM     34  H12 UNL     1       9.017  55.477  -3.639  1.00  0.00     0.277 HD
ATOM     35  H11 UNL     1       9.542  55.053  -2.233  1.00  0.00     0.277 HD
BRANCH  33  36
HETATM   36  C2  UNL     1       8.094  53.820  -2.928  1.00  0.00     0.228 C 
HETATM   37  C1  UNL     1       7.242  54.238  -1.774  1.00  0.00     0.034 C 
ENDBRANCH  33  36
ENDBRANCH  32  33
ENDBRANCH  29  32
ENDBRANCH   1  28
BRANCH   2  38
HETATM   38  N3  UNL     1      11.742  52.616  -8.461  1.00  0.00    -0.073 N 
ATOM     39  H33 UNL     1      11.178  53.072  -9.178  1.00  0.00     0.274 HD
ATOM     40  H32 UNL     1      11.908  53.411  -7.844  1.00  0.00     0.274 HD
ATOM     41  H31 UNL     1      12.620  52.276  -8.854  1.00  0.00     0.274 HD
ENDBRANCH   2  38
TORSDOF 11
ENDMDL
MODEL 4
REMARK VINA RESULT: -5.901823418      3.577      6.815
REMARK  11 active torsions:
REMARK  status: ('A' for Active; 'I' for Inactive)
REMARK    1  A    between atoms: C2_2  and  N1_3 
REMARK    2  A    between atoms: N1_3  and  C3_6 
REMARK    3  A    between atoms: C3_6  and  C4_7 
REMARK       I    between atoms: C4_7  and  N2_9 
REMARK    4  A    between atoms: N2_9  and  C5_11 
REMARK    5  A    between atoms: C6_12  and  N3_13 
REMARK    6  A    between atoms: C13_24  and  O3_25 
REMARK    7  A    between atoms: O3_25  and  C14_26 
REMARK    8  A    between atoms: C15_28  and  C16_29 
REMARK    9  A    between atoms: C16_29  and  O5_30 
REMARK   10  A    between atoms: C17_32  and  O6_33 
REMARK   11  A    between atoms: C20_37  and  O7_38 
ROOT
HETATM    1  C5  UNL     1      10.383  51.343  -7.888  1.00  0.00     0.146 C 
HETATM    2  C6  UNL     1      11.344  50.893  -8.936  1.00  0.00     0.208 C 
HETATM    3  C7  UNL     1      10.623  50.370 -10.180  1.00  0.00     0.037 C 
HETATM    4  C8  UNL     1       9.478  51.320 -10.425  1.00  0.00     0.037 C 
HETATM    5  C9  UNL     1       8.409  51.028  -9.389  1.00  0.00     0.154 C 
HETATM    6  O2  UNL     1       7.568  52.108  -9.372  1.00  0.00    -0.368 OA
HETATM    7  C10 UNL     1       6.646  52.136  -8.355  1.00  0.00     0.104 C 
HETATM    8  C11 UNL     1       6.187  53.586  -8.235  1.00  0.00     0.051 C 
HETATM    9  C12 UNL     1       5.439  51.362  -8.887  1.00  0.00     0.051 C 
HETATM   10  C13 UNL     1       7.068  51.578  -7.068  1.00  0.00     0.297 C 
HETATM   11  O8  UNL     1       8.263  50.922  -6.979  1.00  0.00    -0.348 OA
HETATM   12  C21 UNL     1       9.006  50.678  -8.064  1.00  0.00     0.178 C 
ENDROOT
BRANCH  10  13
HETATM   13  O3  UNL     1       6.095  50.720  -6.577  1.00  0.00    -0.326 OA
BRANCH  13  14
HETATM   14  C14 UNL     1       5.642  50.970  -5.315  1.00  0.00     0.292 C 
HETATM   15  O4  UNL     1       5.769  49.843  -4.489  1.00  0.00    -0.349 OA
HETATM   16  C15 UNL     1       4.885  48.831  -4.744  1.00  0.00     0.177 C 
HETATM   17  C17 UNL     1       3.434  49.244  -4.757  1.00  0.00     0.155 C 
HETATM   18  C18 UNL     1       3.301  50.383  -5.766  1.00  0.00     0.046 C 
HETATM   19  C19 UNL     1       1.895  50.894  -5.890  1.00  0.00     0.015 C 
HETATM   20  C20 UNL     1       4.228  51.467  -5.213  1.00  0.00     0.179 C 
BRANCH  16  21
HETATM   21  C16 UNL     1       5.265  47.932  -5.893  1.00  0.00     0.198 C 
BRANCH  21  22
HETATM   22  O5  UNL     1       6.656  47.753  -5.888  1.00  0.00    -0.398 OA
ATOM     23  H5  UNL     1       6.949  47.653  -4.990  1.00  0.00     0.209 HD
ENDBRANCH  21  22
ENDBRANCH  16  21
BRANCH  17  24
HETATM   24  O6  UNL     1       2.582  48.210  -4.994  1.00  0.00    -0.392 OA
ATOM     25  H6  UNL     1       2.551  47.950  -5.908  1.00  0.00     0.210 HD
ENDBRANCH  17  24
BRANCH  20  26
HETATM   26  O7  UNL     1       3.992  52.714  -5.694  1.00  0.00    -0.390 OA
ATOM     27  H7  UNL     1       4.540  53.409  -5.349  1.00  0.00     0.210 HD
ENDBRANCH  20  26
ENDBRANCH  13  14
ENDBRANCH  10  13
BRANCH   1  28
HETATM   28  N2  UNL     1      10.910  50.986  -6.589  1.00  0.00    -0.350 N 
HETATM   29  C4  UNL     1      11.701  51.886  -5.817  1.00  0.00     0.243 C 
HETATM   30  O1  UNL     1      11.938  53.023  -6.293  1.00  0.00    -0.272 OA
ATOM     31  H2  UNL     1      10.709  50.060  -6.213  1.00  0.00     0.163 HD
BRANCH  29  32
HETATM   32  C3  UNL     1      12.259  51.559  -4.489  1.00  0.00     0.334 C 
BRANCH  32  33
HETATM   33  N1  UNL     1      13.214  52.571  -4.078  1.00  0.00    -0.067 N 
ATOM     34  H12 UNL     1      13.237  53.335  -4.752  1.00  0.00     0.277 HD
ATOM     35  H11 UNL     1      14.167  52.224  -4.177  1.00  0.00     0.277 HD
BRANCH  33  36
HETATM   36  C2  UNL     1      13.000  53.074  -2.757  1.00  0.00     0.228 C 
HETATM   37  C1  UNL     1      11.825  53.991  -2.643  1.00  0.00     0.034 C 
ENDBRANCH  33  36
ENDBRANCH  32  33
ENDBRANCH  29  32
ENDBRANCH   1  28
BRANCH   2  38
HETATM   38  N3  UNL     1      12.247  51.937  -9.383  1.00  0.00    -0.073 N 
ATOM     39  H33 UNL     1      11.820  52.856  -9.268  1.00  0.00     0.274 HD
ATOM     40  H32 UNL     1      13.033  52.033  -8.740  1.00  0.00     0.274 HD
ATOM     41  H31 UNL     1      12.577  51.809 -10.340  1.00  0.00     0.274 HD
ENDBRANCH   2  38
TORSDOF 11
ENDMDL
MODEL 5
REMARK VINA RESULT: -5.871551164      3.144      6.583
REMARK  11 active torsions:
REMARK  status: ('A' for Active; 'I' for Inactive)
REMARK    1  A    between atoms: C2_2  and  N1_3 
REMARK    2  A    between atoms: N1_3  and  C3_6 
REMARK    3  A    between atoms: C3_6  and  C4_7 
REMARK       I    between atoms: C4_7  and  N2_9 
REMARK    4  A    between atoms: N2_9  and  C5_11 
REMARK    5  A    between atoms: C6_12  and  N3_13 
REMARK    6  A    between atoms: C13_24  and  O3_25 
REMARK    7  A    between atoms: O3_25  and  C14_26 
REMARK    8  A    between atoms: C15_28  and  C16_29 
REMARK    9  A    between atoms: C16_29  and  O5_30 
REMARK   10  A    between atoms: C17_32  and  O6_33 
REMARK   11  A    between atoms: C20_37  and  O7_38 
ROOT
HETATM    1  C5  UNL     1       3.414  49.709  -4.676  1.00  0.00     0.146 C 
HETATM    2  C6  UNL     1       3.507  48.222  -4.627  1.00  0.00     0.208 C 
HETATM    3  C7  UNL     1       4.789  47.711  -5.286  1.00  0.00     0.037 C 
HETATM    4  C8  UNL     1       5.885  48.648  -4.843  1.00  0.00     0.037 C 
HETATM    5  C9  UNL     1       5.720  49.944  -5.613  1.00  0.00     0.154 C 
HETATM    6  O2  UNL     1       6.453  50.894  -4.954  1.00  0.00    -0.368 OA
HETATM    7  C10 UNL     1       6.274  52.190  -5.373  1.00  0.00     0.104 C 
HETATM    8  C11 UNL     1       6.763  53.077  -4.233  1.00  0.00     0.051 C 
HETATM    9  C12 UNL     1       7.277  52.384  -6.510  1.00  0.00     0.051 C 
HETATM   10  C13 UNL     1       4.930  52.555  -5.825  1.00  0.00     0.297 C 
HETATM   11  O8  UNL     1       3.980  51.584  -5.967  1.00  0.00    -0.348 OA
HETATM   12  C21 UNL     1       4.279  50.290  -5.811  1.00  0.00     0.178 C 
ENDROOT
BRANCH  10  13
HETATM   13  O3  UNL     1       5.001  53.234  -7.032  1.00  0.00    -0.326 OA
BRANCH  13  14
HETATM   14  C14 UNL     1       4.025  54.156  -7.272  1.00  0.00     0.292 C 
HETATM   15  O4  UNL     1       3.154  53.734  -8.288  1.00  0.00    -0.349 OA
HETATM   16  C15 UNL     1       3.676  53.767  -9.553  1.00  0.00     0.177 C 
HETATM   17  C17 UNL     1       4.266  55.094  -9.961  1.00  0.00     0.155 C 
HETATM   18  C18 UNL     1       5.308  55.464  -8.907  1.00  0.00     0.046 C 
HETATM   19  C19 UNL     1       5.989  56.771  -9.191  1.00  0.00     0.015 C 
HETATM   20  C20 UNL     1       4.500  55.541  -7.610  1.00  0.00     0.179 C 
BRANCH  16  21
HETATM   21  C16 UNL     1       4.541  52.587  -9.913  1.00  0.00     0.198 C 
BRANCH  21  22
HETATM   22  O5  UNL     1       4.122  51.474  -9.170  1.00  0.00    -0.398 OA
ATOM     23  H5  UNL     1       4.159  51.690  -8.245  1.00  0.00     0.209 HD
ENDBRANCH  21  22
ENDBRANCH  16  21
BRANCH  17  24
HETATM   24  O6  UNL     1       4.757  55.097 -11.230  1.00  0.00    -0.392 OA
ATOM     25  H6  UNL     1       5.459  55.725 -11.360  1.00  0.00     0.210 HD
ENDBRANCH  17  24
BRANCH  20  26
HETATM   26  O7  UNL     1       5.101  56.232  -6.609  1.00  0.00    -0.390 OA
ATOM     27  H7  UNL     1       4.641  57.001  -6.293  1.00  0.00     0.210 HD
ENDBRANCH  20  26
ENDBRANCH  13  14
ENDBRANCH  10  13
BRANCH   1  28
HETATM   28  N2  UNL     1       2.035  50.083  -4.905  1.00  0.00    -0.350 N 
HETATM   29  C4  UNL     1       1.110  50.258  -3.836  1.00  0.00     0.243 C 
HETATM   30  O1  UNL     1       1.519  50.081  -2.663  1.00  0.00    -0.272 OA
ATOM     31  H2  UNL     1       1.715  50.226  -5.863  1.00  0.00     0.163 HD
BRANCH  29  32
HETATM   32  C3  UNL     1      -0.306  50.636  -4.027  1.00  0.00     0.334 C 
BRANCH  32  33
HETATM   33  N1  UNL     1      -1.152  49.925  -3.087  1.00  0.00    -0.067 N 
ATOM     34  H12 UNL     1      -1.023  50.291  -2.144  1.00  0.00     0.277 HD
ATOM     35  H11 UNL     1      -0.813  48.973  -2.951  1.00  0.00     0.277 HD
BRANCH  33  36
HETATM   36  C2  UNL     1      -2.538  49.918  -3.436  1.00  0.00     0.228 C 
HETATM   37  C1  UNL     1      -3.373  49.025  -2.577  1.00  0.00     0.034 C 
ENDBRANCH  33  36
ENDBRANCH  32  33
ENDBRANCH  29  32
ENDBRANCH   1  28
BRANCH   2  38
HETATM   38  N3  UNL     1       3.484  47.683  -3.281  1.00  0.00    -0.073 N 
ATOM     39  H33 UNL     1       4.432  47.520  -2.941  1.00  0.00     0.274 HD
ATOM     40  H32 UNL     1       3.184  48.394  -2.612  1.00  0.00     0.274 HD
ATOM     41  H31 UNL     1       2.918  46.839  -3.187  1.00  0.00     0.274 HD
ENDBRANCH   2  38
TORSDOF 11
ENDMDL
