MODEL 1
REMARK VINA RESULT: -6.977668759      0.000      0.000
REMARK  5 active torsions:
REMARK  status: ('A' for Active; 'I' for Inactive)
REMARK    1  A    between atoms: C5_5  and  C6_6 
REMARK    2  A    between atoms: N2_14  and  C10_15 
REMARK    3  A    between atoms: C10_15  and  C11_16 
REMARK    4  A    between atoms: C13_20  and  C14_21 
REMARK    5  A    between atoms: C14_21  and  O2_22 
ROOT
HETATM    1  C1  UNL     1      24.674  60.589  17.117  1.00  0.00     0.032 C 
HETATM    2  C2  UNL     1      23.790  59.373  17.293  1.00  0.00     0.080 C 
HETATM    3  C3  UNL     1      24.012  58.507  16.041  1.00  0.00     0.027 C 
HETATM    4  C4  UNL     1      22.628  58.119  15.603  1.00  0.00     0.030 C 
HETATM    5  C5  UNL     1      21.752  59.230  16.192  1.00  0.00     0.115 C 
HETATM    6  N2  UNL     1      22.431  59.723  17.326  1.00  0.00    -0.376 N 
ENDROOT
BRANCH   6   7
HETATM    7  C10 UNL     1      21.752  59.814  18.551  1.00  0.00     0.117 C 
BRANCH   7   8
HETATM    8  C11 UNL     1      20.495  59.040  18.667  1.00  0.00     0.064 A 
HETATM    9  C12 UNL     1      20.324  57.725  19.053  1.00  0.00     0.120 A 
HETATM   10  N3  UNL     1      18.991  57.464  18.995  1.00  0.00    -0.351 N 
HETATM   11  C13 UNL     1      18.342  58.566  18.588  1.00  0.00     0.117 A 
ATOM     12  H3  UNL     1      18.553  56.572  19.226  1.00  0.00     0.166 HD
HETATM   13  N4  UNL     1      19.270  59.508  18.397  1.00  0.00    -0.341 N 
ATOM     14  H4  UNL     1      19.072  60.459  18.086  1.00  0.00     0.167 HD
BRANCH  11  15
HETATM   15  C14 UNL     1      16.899  58.793  18.363  1.00  0.00     0.116 C 
HETATM   16  C15 UNL     1      16.501  60.191  18.843  1.00  0.00     0.046 C 
HETATM   17  C16 UNL     1      16.524  60.615  17.406  1.00  0.00     0.007 C 
HETATM   18  C17 UNL     1      16.486  59.164  16.964  1.00  0.00     0.046 C 
BRANCH  15  19
HETATM   19  O2  UNL     1      16.131  57.776  18.936  1.00  0.00    -0.382 OA
ATOM     20  H2  UNL     1      15.392  58.132  19.415  1.00  0.00     0.211 HD
ENDBRANCH  15  19
ENDBRANCH  11  15
ENDBRANCH   7   8
ENDBRANCH   6   7
BRANCH   5  21
HETATM   21  C6  UNL     1      21.720  60.378  15.180  1.00  0.00     0.169 C 
HETATM   22  C7  UNL     1      20.528  61.267  15.472  1.00  0.00     0.266 C 
HETATM   23  N1  UNL     1      20.448  62.217  14.367  1.00  0.00    -0.071 N 
HETATM   24  C8  UNL     1      21.687  62.292  13.625  1.00  0.00     0.258 C 
ATOM     25  H12 UNL     1      19.661  62.006  13.754  1.00  0.00     0.277 HD
ATOM     26  H11 UNL     1      20.156  63.139  14.692  1.00  0.00     0.277 HD
HETATM   27  C9  UNL     1      22.138  60.982  13.079  1.00  0.00     0.196 C 
HETATM   28  O1  UNL     1      21.676  59.923  13.891  1.00  0.00    -0.380 OA
ENDBRANCH   5  21
TORSDOF 5
ENDMDL
MODEL 2
REMARK VINA RESULT: -6.862193102      1.772      2.438
REMARK  5 active torsions:
REMARK  status: ('A' for Active; 'I' for Inactive)
REMARK    1  A    between atoms: C5_5  and  C6_6 
REMARK    2  A    between atoms: N2_14  and  C10_15 
REMARK    3  A    between atoms: C10_15  and  C11_16 
REMARK    4  A    between atoms: C13_20  and  C14_21 
REMARK    5  A    between atoms: C14_21  and  O2_22 
ROOT
HETATM    1  C1  UNL     1      23.148  61.613  19.490  1.00  0.00     0.032 C 
HETATM    2  C2  UNL     1      23.666  60.198  19.353  1.00  0.00     0.080 C 
HETATM    3  C3  UNL     1      25.156  60.329  18.993  1.00  0.00     0.027 C 
HETATM    4  C4  UNL     1      25.352  59.368  17.854  1.00  0.00     0.030 C 
HETATM    5  C5  UNL     1      23.946  59.246  17.255  1.00  0.00     0.115 C 
HETATM    6  N2  UNL     1      23.037  59.518  18.299  1.00  0.00    -0.376 N 
ENDROOT
BRANCH   6   7
HETATM    7  C10 UNL     1      21.995  58.614  18.559  1.00  0.00     0.117 C 
BRANCH   7   8
HETATM    8  C11 UNL     1      20.664  58.968  18.016  1.00  0.00     0.064 A 
HETATM    9  C12 UNL     1      20.359  59.659  16.861  1.00  0.00     0.120 A 
HETATM   10  N3  UNL     1      19.004  59.743  16.793  1.00  0.00    -0.351 N 
HETATM   11  C13 UNL     1      18.470  59.132  17.862  1.00  0.00     0.117 A 
ATOM     12  H3  UNL     1      18.477  60.198  16.048  1.00  0.00     0.166 HD
HETATM   13  N4  UNL     1      19.491  58.668  18.588  1.00  0.00    -0.341 N 
ATOM     14  H4  UNL     1      19.391  58.154  19.463  1.00  0.00     0.167 HD
BRANCH  11  15
HETATM   15  C14 UNL     1      17.054  58.956  18.250  1.00  0.00     0.116 C 
HETATM   16  C15 UNL     1      16.489  60.267  18.803  1.00  0.00     0.046 C 
HETATM   17  C16 UNL     1      15.828  60.461  17.472  1.00  0.00     0.007 C 
HETATM   18  C17 UNL     1      16.041  58.996  17.138  1.00  0.00     0.046 C 
BRANCH  15  19
HETATM   19  O2  UNL     1      16.899  57.879  19.127  1.00  0.00    -0.382 OA
ATOM     20  H2  UNL     1      17.715  57.677  19.571  1.00  0.00     0.211 HD
ENDBRANCH  15  19
ENDBRANCH  11  15
ENDBRANCH   7   8
ENDBRANCH   6   7
BRANCH   5  21
HETATM   21  C6  UNL     1      23.780  60.375  16.235  1.00  0.00     0.169 C 
HETATM   22  C7  UNL     1      23.581  59.777  14.858  1.00  0.00     0.266 C 
HETATM   23  N1  UNL     1      23.621  60.893  13.919  1.00  0.00    -0.071 N 
HETATM   24  C8  UNL     1      23.415  62.163  14.578  1.00  0.00     0.258 C 
ATOM     25  H12 UNL     1      24.488  60.892  13.380  1.00  0.00     0.277 HD
ATOM     26  H11 UNL     1      22.958  60.760  13.156  1.00  0.00     0.277 HD
HETATM   27  C9  UNL     1      24.390  62.439  15.669  1.00  0.00     0.196 C 
HETATM   28  O1  UNL     1      24.847  61.230  16.239  1.00  0.00    -0.380 OA
ENDBRANCH   5  21
TORSDOF 5
ENDMDL
MODEL 3
REMARK VINA RESULT: -6.778834615      1.663      2.226
REMARK  5 active torsions:
REMARK  status: ('A' for Active; 'I' for Inactive)
REMARK    1  A    between atoms: C5_5  and  C6_6 
REMARK    2  A    between atoms: N2_14  and  C10_15 
REMARK    3  A    between atoms: C10_15  and  C11_16 
REMARK    4  A    between atoms: C13_20  and  C14_21 
REMARK    5  A    between atoms: C14_21  and  O2_22 
ROOT
HETATM    1  C1  UNL     1      22.808  61.578  19.081  1.00  0.00     0.032 C 
HETATM    2  C2  UNL     1      23.559  60.265  19.132  1.00  0.00     0.080 C 
HETATM    3  C3  UNL     1      24.896  60.516  18.413  1.00  0.00     0.027 C 
HETATM    4  C4  UNL     1      25.052  59.338  17.493  1.00  0.00     0.030 C 
HETATM    5  C5  UNL     1      23.610  58.866  17.281  1.00  0.00     0.115 C 
HETATM    6  N2  UNL     1      22.884  59.257  18.426  1.00  0.00    -0.376 N 
ENDROOT
BRANCH   6   7
HETATM    7  C10 UNL     1      22.111  58.306  19.110  1.00  0.00     0.117 C 
BRANCH   7   8
HETATM    8  C11 UNL     1      20.662  58.293  18.807  1.00  0.00     0.064 A 
HETATM    9  C12 UNL     1      19.690  57.430  19.273  1.00  0.00     0.120 A 
HETATM   10  N3  UNL     1      18.514  57.813  18.708  1.00  0.00    -0.351 N 
HETATM   11  C13 UNL     1      18.730  58.874  17.915  1.00  0.00     0.117 A 
ATOM     12  H3  UNL     1      17.611  57.364  18.862  1.00  0.00     0.166 HD
HETATM   13  N4  UNL     1      20.035  59.150  17.991  1.00  0.00    -0.341 N 
ATOM     14  H4  UNL     1      20.494  59.912  17.492  1.00  0.00     0.167 HD
BRANCH  11  15
HETATM   15  C14 UNL     1      17.785  59.649  17.083  1.00  0.00     0.116 C 
HETATM   16  C15 UNL     1      16.368  59.090  17.230  1.00  0.00     0.046 C 
HETATM   17  C16 UNL     1      16.087  60.236  18.154  1.00  0.00     0.007 C 
HETATM   18  C17 UNL     1      17.317  60.965  17.645  1.00  0.00     0.046 C 
BRANCH  15  19
HETATM   19  O2  UNL     1      18.215  59.713  15.755  1.00  0.00    -0.382 OA
ATOM     20  H2  UNL     1      18.618  58.897  15.484  1.00  0.00     0.211 HD
ENDBRANCH  15  19
ENDBRANCH  11  15
ENDBRANCH   7   8
ENDBRANCH   6   7
BRANCH   5  21
HETATM   21  C6  UNL     1      23.031  59.666  16.111  1.00  0.00     0.169 C 
HETATM   22  C7  UNL     1      22.307  58.722  15.172  1.00  0.00     0.266 C 
HETATM   23  N1  UNL     1      21.950  59.510  13.997  1.00  0.00    -0.071 N 
HETATM   24  C8  UNL     1      22.003  60.931  14.261  1.00  0.00     0.258 C 
ATOM     25  H12 UNL     1      22.529  59.261  13.195  1.00  0.00     0.277 HD
ATOM     26  H11 UNL     1      21.040  59.236  13.630  1.00  0.00     0.277 HD
HETATM   27  C9  UNL     1      23.328  61.402  14.751  1.00  0.00     0.196 C 
HETATM   28  O1  UNL     1      23.995  60.366  15.441  1.00  0.00    -0.380 OA
ENDBRANCH   5  21
TORSDOF 5
ENDMDL
MODEL 4
REMARK VINA RESULT: -6.688338573      1.714      2.678
REMARK  5 active torsions:
REMARK  status: ('A' for Active; 'I' for Inactive)
REMARK    1  A    between atoms: C5_5  and  C6_6 
REMARK    2  A    between atoms: N2_14  and  C10_15 
REMARK    3  A    between atoms: C10_15  and  C11_16 
REMARK    4  A    between atoms: C13_20  and  C14_21 
REMARK    5  A    between atoms: C14_21  and  O2_22 
ROOT
HETATM    1  C1  UNL     1      23.596  58.165  15.907  1.00  0.00     0.032 C 
HETATM    2  C2  UNL     1      22.238  58.642  16.373  1.00  0.00     0.080 C 
HETATM    3  C3  UNL     1      21.759  59.652  15.315  1.00  0.00     0.027 C 
HETATM    4  C4  UNL     1      21.253  60.820  16.114  1.00  0.00     0.030 C 
HETATM    5  C5  UNL     1      22.012  60.692  17.438  1.00  0.00     0.115 C 
HETATM    6  N2  UNL     1      22.322  59.325  17.597  1.00  0.00    -0.376 N 
ENDROOT
BRANCH   6   7
HETATM    7  C10 UNL     1      21.988  58.676  18.796  1.00  0.00     0.117 C 
BRANCH   7   8
HETATM    8  C11 UNL     1      20.590  58.206  18.923  1.00  0.00     0.064 A 
HETATM    9  C12 UNL     1      20.121  57.027  19.468  1.00  0.00     0.120 A 
HETATM   10  N3  UNL     1      18.767  57.044  19.349  1.00  0.00    -0.351 N 
HETATM   11  C13 UNL     1      18.391  58.186  18.752  1.00  0.00     0.117 A 
ATOM     12  H3  UNL     1      18.137  56.306  19.665  1.00  0.00     0.166 HD
HETATM   13  N4  UNL     1      19.508  58.875  18.505  1.00  0.00    -0.341 N 
ATOM     14  H4  UNL     1      19.534  59.790  18.056  1.00  0.00     0.167 HD
BRANCH  11  15
HETATM   15  C14 UNL     1      17.041  58.673  18.394  1.00  0.00     0.116 C 
HETATM   16  C15 UNL     1      16.871  60.130  18.830  1.00  0.00     0.046 C 
HETATM   17  C16 UNL     1      17.102  60.511  17.398  1.00  0.00     0.007 C 
HETATM   18  C17 UNL     1      16.832  59.083  16.962  1.00  0.00     0.046 C 
BRANCH  15  19
HETATM   19  O2  UNL     1      16.048  57.830  18.900  1.00  0.00    -0.382 OA
ATOM     20  H2  UNL     1      16.040  57.839  19.850  1.00  0.00     0.211 HD
ENDBRANCH  15  19
ENDBRANCH  11  15
ENDBRANCH   7   8
ENDBRANCH   6   7
BRANCH   5  21
HETATM   21  C6  UNL     1      23.349  61.419  17.276  1.00  0.00     0.169 C 
HETATM   22  C7  UNL     1      23.881  61.796  18.644  1.00  0.00     0.266 C 
HETATM   23  N1  UNL     1      25.045  62.644  18.410  1.00  0.00    -0.071 N 
HETATM   24  C8  UNL     1      25.549  62.512  17.061  1.00  0.00     0.258 C 
ATOM     25  H12 UNL     1      24.844  63.619  18.636  1.00  0.00     0.277 HD
ATOM     26  H11 UNL     1      25.777  62.466  19.097  1.00  0.00     0.277 HD
HETATM   27  C9  UNL     1      24.537  62.812  16.010  1.00  0.00     0.196 C 
HETATM   28  O1  UNL     1      23.237  62.527  16.482  1.00  0.00    -0.380 OA
ENDBRANCH   5  21
TORSDOF 5
ENDMDL
MODEL 5
REMARK VINA RESULT: -6.606798630      2.058      3.475
REMARK  5 active torsions:
REMARK  status: ('A' for Active; 'I' for Inactive)
REMARK    1  A    between atoms: C5_5  and  C6_6 
REMARK    2  A    between atoms: N2_14  and  C10_15 
REMARK    3  A    between atoms: C10_15  and  C11_16 
REMARK    4  A    between atoms: C13_20  and  C14_21 
REMARK    5  A    between atoms: C14_21  and  O2_22 
ROOT
HETATM    1  C1  UNL     1      22.961  58.100  15.738  1.00  0.00     0.032 C 
HETATM    2  C2  UNL     1      21.794  58.862  16.327  1.00  0.00     0.080 C 
HETATM    3  C3  UNL     1      21.825  60.253  15.670  1.00  0.00     0.027 C 
HETATM    4  C4  UNL     1      21.642  61.211  16.814  1.00  0.00     0.030 C 
HETATM    5  C5  UNL     1      22.134  60.409  18.023  1.00  0.00     0.115 C 
HETATM    6  N2  UNL     1      21.943  59.047  17.710  1.00  0.00    -0.376 N 
ENDROOT
BRANCH   6   7
HETATM    7  C10 UNL     1      21.257  58.221  18.614  1.00  0.00     0.117 C 
BRANCH   7   8
HETATM    8  C11 UNL     1      19.783  58.356  18.641  1.00  0.00     0.064 A 
HETATM    9  C12 UNL     1      18.840  57.444  19.073  1.00  0.00     0.120 A 
HETATM   10  N3  UNL     1      17.620  58.017  18.894  1.00  0.00    -0.351 N 
HETATM   11  C13 UNL     1      17.781  59.241  18.368  1.00  0.00     0.117 A 
ATOM     12  H3  UNL     1      16.725  57.585  19.123  1.00  0.00     0.166 HD
HETATM   13  N4  UNL     1      19.096  59.427  18.225  1.00  0.00    -0.341 N 
ATOM     14  H4  UNL     1      19.521  60.274  17.848  1.00  0.00     0.167 HD
BRANCH  11  15
HETATM   15  C14 UNL     1      16.773  60.253  17.986  1.00  0.00     0.116 C 
HETATM   16  C15 UNL     1      17.253  61.047  16.769  1.00  0.00     0.046 C 
HETATM   17  C16 UNL     1      16.334  60.200  15.942  1.00  0.00     0.007 C 
HETATM   18  C17 UNL     1      15.593  59.762  17.192  1.00  0.00     0.046 C 
BRANCH  15  19
HETATM   19  O2  UNL     1      16.434  61.065  19.072  1.00  0.00    -0.382 OA
ATOM     20  H2  UNL     1      16.429  60.571  19.883  1.00  0.00     0.211 HD
ENDBRANCH  15  19
ENDBRANCH  11  15
ENDBRANCH   7   8
ENDBRANCH   6   7
BRANCH   5  21
HETATM   21  C6  UNL     1      23.647  60.617  18.129  1.00  0.00     0.169 C 
HETATM   22  C7  UNL     1      24.176  59.834  19.314  1.00  0.00     0.266 C 
HETATM   23  N1  UNL     1      25.573  60.225  19.471  1.00  0.00    -0.071 N 
HETATM   24  C8  UNL     1      26.097  60.852  18.278  1.00  0.00     0.258 C 
ATOM     25  H12 UNL     1      25.700  60.822  20.289  1.00  0.00     0.277 HD
ATOM     26  H11 UNL     1      26.149  59.435  19.757  1.00  0.00     0.277 HD
HETATM   27  C9  UNL     1      25.326  62.048  17.840  1.00  0.00     0.196 C 
HETATM   28  O1  UNL     1      23.976  61.939  18.240  1.00  0.00    -0.380 OA
ENDBRANCH   5  21
TORSDOF 5
ENDMDL
