MODEL 1
REMARK VINA RESULT: -6.900277442      0.000      0.000
REMARK  5 active torsions:
REMARK  status: ('A' for Active; 'I' for Inactive)
REMARK    1  A    between atoms: O1_2  and  C2_3 
REMARK    2  A    between atoms: C10_14  and  C11_15 
REMARK    3  A    between atoms: C12_16  and  O3_17 
REMARK    4  A    between atoms: O3_17  and  C13_18 
REMARK    5  A    between atoms: C15_21  and  O5_22 
ROOT
HETATM    1  C2  UNL     1      12.428  62.807  23.596  1.00  0.00     0.146 C 
HETATM    2  C3  UNL     1      11.321  62.346  24.492  1.00  0.00    -0.012 C 
HETATM    3  C4  UNL     1      10.229  63.382  24.390  1.00  0.00     0.021 C 
HETATM    4  C5  UNL     1       9.293  63.147  23.266  1.00  0.00     0.103 C 
HETATM    5  C6  UNL     1       9.868  62.549  22.044  1.00  0.00     0.217 C 
HETATM    6  O2  UNL     1       9.112  62.812  21.081  1.00  0.00    -0.274 OA
HETATM    7  N1  UNL     1      11.030  61.788  21.762  1.00  0.00    -0.355 N 
ATOM      8  H1  UNL     1      11.319  61.961  20.799  1.00  0.00     0.162 HD
HETATM    9  C7  UNL     1      11.954  60.842  22.378  1.00  0.00     0.101 C 
HETATM   10  C8  UNL     1      11.105  60.063  23.348  1.00  0.00     0.027 C 
HETATM   11  C9  UNL     1      10.761  61.003  24.451  1.00  0.00     0.014 C 
HETATM   12  C10 UNL     1      13.067  61.523  23.156  1.00  0.00     0.052 C 
HETATM   13  C15 UNL     1      13.485  60.836  24.418  1.00  0.00     0.135 C 
HETATM   14  C16 UNL     1      13.195  61.453  25.715  1.00  0.00     0.034 C 
HETATM   15  C17 UNL     1      12.032  62.395  25.861  1.00  0.00     0.014 C 
ENDROOT
BRANCH  12  16
HETATM   16  C11 UNL     1      14.186  61.729  22.208  1.00  0.00     0.015 C 
HETATM   17  C12 UNL     1      14.280  61.034  21.108  1.00  0.00     0.142 C 
BRANCH  17  18
HETATM   18  O3  UNL     1      15.331  61.211  20.194  1.00  0.00    -0.292 OA
BRANCH  18  19
HETATM   19  C13 UNL     1      15.802  60.162  19.456  1.00  0.00     0.259 C 
HETATM   20  C14 UNL     1      16.100  60.213  18.000  1.00  0.00     0.126 C 
HETATM   21  O4  UNL     1      16.005  59.061  20.042  1.00  0.00    -0.265 OA
ENDBRANCH  18  19
ENDBRANCH  17  18
ENDBRANCH  12  16
BRANCH   1  22
HETATM   22  O1  UNL     1      13.420  63.540  24.285  1.00  0.00    -0.389 OA
HETATM   23  C1  UNL     1      13.650  64.794  23.812  1.00  0.00     0.202 C 
ENDBRANCH   1  22
BRANCH  13  24
HETATM   24  O5  UNL     1      14.910  60.765  24.341  1.00  0.00    -0.394 OA
ATOM     25  H5  UNL     1      15.097  60.612  23.422  1.00  0.00     0.210 HD
ENDBRANCH  13  24
TORSDOF 5
ENDMDL
MODEL 2
REMARK VINA RESULT: -6.772862654      1.665      2.583
REMARK  5 active torsions:
REMARK  status: ('A' for Active; 'I' for Inactive)
REMARK    1  A    between atoms: O1_2  and  C2_3 
REMARK    2  A    between atoms: C10_14  and  C11_15 
REMARK    3  A    between atoms: C12_16  and  O3_17 
REMARK    4  A    between atoms: O3_17  and  C13_18 
REMARK    5  A    between atoms: C15_21  and  O5_22 
ROOT
HETATM    1  C2  UNL     1      12.272  62.637  23.546  1.00  0.00     0.146 C 
HETATM    2  C3  UNL     1      12.345  62.779  25.034  1.00  0.00    -0.012 C 
HETATM    3  C4  UNL     1      10.949  62.545  25.556  1.00  0.00     0.021 C 
HETATM    4  C5  UNL     1      10.640  61.117  25.799  1.00  0.00     0.103 C 
HETATM    5  C6  UNL     1      11.266  60.142  24.883  1.00  0.00     0.217 C 
HETATM    6  O2  UNL     1      10.599  59.081  24.918  1.00  0.00    -0.274 OA
HETATM    7  N1  UNL     1      12.394  60.165  24.027  1.00  0.00    -0.355 N 
ATOM      8  H1  UNL     1      12.238  59.525  23.247  1.00  0.00     0.162 HD
HETATM    9  C7  UNL     1      13.704  60.791  23.879  1.00  0.00     0.101 C 
HETATM   10  C8  UNL     1      14.180  61.008  25.292  1.00  0.00     0.027 C 
HETATM   11  C9  UNL     1      13.325  62.087  25.860  1.00  0.00     0.014 C 
HETATM   12  C10 UNL     1      13.640  62.140  23.184  1.00  0.00     0.052 C 
HETATM   13  C15 UNL     1      14.588  63.177  23.699  1.00  0.00     0.135 C 
HETATM   14  C16 UNL     1      14.070  64.344  24.419  1.00  0.00     0.034 C 
HETATM   15  C17 UNL     1      12.761  64.260  25.153  1.00  0.00     0.014 C 
ENDROOT
BRANCH  12  16
HETATM   16  C11 UNL     1      13.796  61.880  21.733  1.00  0.00     0.015 C 
HETATM   17  C12 UNL     1      14.735  61.095  21.282  1.00  0.00     0.142 C 
BRANCH  17  18
HETATM   18  O3  UNL     1      14.903  60.833  19.913  1.00  0.00    -0.292 OA
BRANCH  18  19
HETATM   19  C13 UNL     1      15.901  60.010  19.473  1.00  0.00     0.259 C 
HETATM   20  C14 UNL     1      16.837  60.327  18.363  1.00  0.00     0.126 C 
HETATM   21  O4  UNL     1      16.049  58.892  20.045  1.00  0.00    -0.265 OA
ENDBRANCH  18  19
ENDBRANCH  17  18
ENDBRANCH  12  16
BRANCH   1  22
HETATM   22  O1  UNL     1      12.100  63.875  22.887  1.00  0.00    -0.389 OA
HETATM   23  C1  UNL     1      10.920  64.024  22.228  1.00  0.00     0.202 C 
ENDBRANCH   1  22
BRANCH  13  24
HETATM   24  O5  UNL     1      15.226  63.702  22.533  1.00  0.00    -0.394 OA
ATOM     25  H5  UNL     1      16.076  63.279  22.510  1.00  0.00     0.210 HD
ENDBRANCH  13  24
TORSDOF 5
ENDMDL
MODEL 3
REMARK VINA RESULT: -6.730272975      8.896     12.199
REMARK  5 active torsions:
REMARK  status: ('A' for Active; 'I' for Inactive)
REMARK    1  A    between atoms: O1_2  and  C2_3 
REMARK    2  A    between atoms: C10_14  and  C11_15 
REMARK    3  A    between atoms: C12_16  and  O3_17 
REMARK    4  A    between atoms: O3_17  and  C13_18 
REMARK    5  A    between atoms: C15_21  and  O5_22 
ROOT
HETATM    1  C2  UNL     1      22.207  60.613  16.814  1.00  0.00     0.146 C 
HETATM    2  C3  UNL     1      23.259  61.539  16.289  1.00  0.00    -0.012 C 
HETATM    3  C4  UNL     1      22.738  62.940  16.494  1.00  0.00     0.021 C 
HETATM    4  C5  UNL     1      23.046  63.496  17.831  1.00  0.00     0.103 C 
HETATM    5  C6  UNL     1      23.066  62.538  18.955  1.00  0.00     0.217 C 
HETATM    6  O2  UNL     1      22.899  63.175  20.022  1.00  0.00    -0.274 OA
HETATM    7  N1  UNL     1      23.226  61.134  19.062  1.00  0.00    -0.355 N 
ATOM      8  H1  UNL     1      22.732  60.802  19.890  1.00  0.00     0.162 HD
HETATM    9  C7  UNL     1      23.854  60.002  18.391  1.00  0.00     0.101 C 
HETATM   10  C8  UNL     1      25.107  60.572  17.780  1.00  0.00     0.027 C 
HETATM   11  C9  UNL     1      24.664  61.453  16.664  1.00  0.00     0.014 C 
HETATM   12  C10 UNL     1      22.999  59.425  17.275  1.00  0.00     0.052 C 
HETATM   13  C15 UNL     1      23.745  58.953  16.067  1.00  0.00     0.135 C 
HETATM   14  C16 UNL     1      23.615  59.678  14.801  1.00  0.00     0.034 C 
HETATM   15  C17 UNL     1      23.263  61.140  14.798  1.00  0.00     0.014 C 
ENDROOT
BRANCH  12  16
HETATM   16  C11 UNL     1      22.156  58.370  17.886  1.00  0.00     0.015 C 
HETATM   17  C12 UNL     1      21.460  58.598  18.965  1.00  0.00     0.142 C 
BRANCH  17  18
HETATM   18  O3  UNL     1      20.655  57.616  19.562  1.00  0.00    -0.292 OA
BRANCH  18  19
HETATM   19  C13 UNL     1      19.339  57.481  19.216  1.00  0.00     0.259 C 
HETATM   20  C14 UNL     1      18.557  58.483  18.446  1.00  0.00     0.126 C 
HETATM   21  O4  UNL     1      18.732  56.432  19.572  1.00  0.00    -0.265 OA
ENDBRANCH  18  19
ENDBRANCH  17  18
ENDBRANCH  12  16
BRANCH   1  22
HETATM   22  O1  UNL     1      21.331  60.153  15.806  1.00  0.00    -0.389 OA
HETATM   23  C1  UNL     1      20.040  60.562  15.927  1.00  0.00     0.202 C 
ENDBRANCH   1  22
BRANCH  13  24
HETATM   24  O5  UNL     1      23.236  57.643  15.810  1.00  0.00    -0.394 OA
ATOM     25  H5  UNL     1      22.450  57.785  15.296  1.00  0.00     0.210 HD
ENDBRANCH  13  24
TORSDOF 5
ENDMDL
MODEL 4
REMARK VINA RESULT: -6.380766946      2.371      5.564
REMARK  5 active torsions:
REMARK  status: ('A' for Active; 'I' for Inactive)
REMARK    1  A    between atoms: O1_2  and  C2_3 
REMARK    2  A    between atoms: C10_14  and  C11_15 
REMARK    3  A    between atoms: C12_16  and  O3_17 
REMARK    4  A    between atoms: O3_17  and  C13_18 
REMARK    5  A    between atoms: C15_21  and  O5_22 
ROOT
HETATM    1  C2  UNL     1      11.427  62.142  23.299  1.00  0.00     0.146 C 
HETATM    2  C3  UNL     1      12.228  61.006  23.852  1.00  0.00    -0.012 C 
HETATM    3  C4  UNL     1      12.907  60.348  22.676  1.00  0.00     0.021 C 
HETATM    4  C5  UNL     1      14.204  60.967  22.319  1.00  0.00     0.103 C 
HETATM    5  C6  UNL     1      14.316  62.426  22.522  1.00  0.00     0.217 C 
HETATM    6  O2  UNL     1      15.244  62.857  21.798  1.00  0.00    -0.274 OA
HETATM    7  N1  UNL     1      13.628  63.374  23.319  1.00  0.00    -0.355 N 
ATOM      8  H1  UNL     1      13.661  64.285  22.861  1.00  0.00     0.162 HD
HETATM    9  C7  UNL     1      12.887  63.493  24.570  1.00  0.00     0.101 C 
HETATM   10  C8  UNL     1      13.533  62.487  25.487  1.00  0.00     0.027 C 
HETATM   11  C9  UNL     1      13.154  61.144  24.969  1.00  0.00     0.014 C 
HETATM   12  C10 UNL     1      11.418  63.133  24.426  1.00  0.00     0.052 C 
HETATM   13  C15 UNL     1      10.814  62.408  25.586  1.00  0.00     0.135 C 
HETATM   14  C16 UNL     1      10.418  61.004  25.443  1.00  0.00     0.034 C 
HETATM   15  C17 UNL     1      11.100  60.126  24.430  1.00  0.00     0.014 C 
ENDROOT
BRANCH  12  16
HETATM   16  C11 UNL     1      10.703  64.386  24.088  1.00  0.00     0.015 C 
HETATM   17  C12 UNL     1      11.264  65.553  24.255  1.00  0.00     0.142 C 
BRANCH  17  18
HETATM   18  O3  UNL     1      10.607  66.754  23.944  1.00  0.00    -0.292 OA
BRANCH  18  19
HETATM   19  C13 UNL     1       9.937  66.901  22.762  1.00  0.00     0.259 C 
HETATM   20  C14 UNL     1       8.464  66.782  22.600  1.00  0.00     0.126 C 
HETATM   21  O4  UNL     1      10.608  67.157  21.721  1.00  0.00    -0.265 OA
ENDBRANCH  18  19
ENDBRANCH  17  18
ENDBRANCH  12  16
BRANCH   1  22
HETATM   22  O1  UNL     1      10.081  61.793  23.052  1.00  0.00    -0.389 OA
HETATM   23  C1  UNL     1       9.625  62.079  21.803  1.00  0.00     0.202 C 
ENDBRANCH   1  22
BRANCH  13  24
HETATM   24  O5  UNL     1       9.607  63.116  25.873  1.00  0.00    -0.394 OA
ATOM     25  H5  UNL     1       9.886  63.893  26.342  1.00  0.00     0.210 HD
ENDBRANCH  13  24
TORSDOF 5
ENDMDL
MODEL 5
REMARK VINA RESULT: -6.261288867      2.662      5.177
REMARK  5 active torsions:
REMARK  status: ('A' for Active; 'I' for Inactive)
REMARK    1  A    between atoms: O1_2  and  C2_3 
REMARK    2  A    between atoms: C10_14  and  C11_15 
REMARK    3  A    between atoms: C12_16  and  O3_17 
REMARK    4  A    between atoms: O3_17  and  C13_18 
REMARK    5  A    between atoms: C15_21  and  O5_22 
ROOT
HETATM    1  C2  UNL     1      11.093  62.635  22.845  1.00  0.00     0.146 C 
HETATM    2  C3  UNL     1      11.653  61.645  23.817  1.00  0.00    -0.012 C 
HETATM    3  C4  UNL     1      11.859  60.362  23.051  1.00  0.00     0.021 C 
HETATM    4  C5  UNL     1      13.169  60.288  22.363  1.00  0.00     0.103 C 
HETATM    5  C6  UNL     1      13.715  61.559  21.847  1.00  0.00     0.217 C 
HETATM    6  O2  UNL     1      14.549  61.297  20.949  1.00  0.00    -0.274 OA
HETATM    7  N1  UNL     1      13.498  62.927  22.144  1.00  0.00    -0.355 N 
ATOM      8  H1  UNL     1      13.680  63.485  21.310  1.00  0.00     0.162 HD
HETATM    9  C7  UNL     1      13.102  63.811  23.235  1.00  0.00     0.101 C 
HETATM   10  C8  UNL     1      13.629  63.138  24.476  1.00  0.00     0.027 C 
HETATM   11  C9  UNL     1      12.796  61.920  24.677  1.00  0.00     0.014 C 
HETATM   12  C10 UNL     1      11.595  63.948  23.370  1.00  0.00     0.052 C 
HETATM   13  C15 UNL     1      11.078  64.039  24.771  1.00  0.00     0.135 C 
HETATM   14  C16 UNL     1      10.293  62.935  25.331  1.00  0.00     0.034 C 
HETATM   15  C17 UNL     1      10.478  61.536  24.812  1.00  0.00     0.014 C 
ENDROOT
BRANCH  12  16
HETATM   16  C11 UNL     1      11.195  65.099  22.527  1.00  0.00     0.015 C 
HETATM   17  C12 UNL     1      12.078  65.940  22.063  1.00  0.00     0.142 C 
BRANCH  17  18
HETATM   18  O3  UNL     1      11.723  67.037  21.263  1.00  0.00    -0.292 OA
BRANCH  18  19
HETATM   19  C13 UNL     1      12.606  68.056  21.038  1.00  0.00     0.259 C 
HETATM   20  C14 UNL     1      12.937  68.613  19.700  1.00  0.00     0.126 C 
HETATM   21  O4  UNL     1      13.191  68.571  22.033  1.00  0.00    -0.265 OA
ENDBRANCH  18  19
ENDBRANCH  17  18
ENDBRANCH  12  16
BRANCH   1  22
HETATM   22  O1  UNL     1       9.682  62.696  22.878  1.00  0.00    -0.389 OA
HETATM   23  C1  UNL     1       9.069  62.620  21.666  1.00  0.00     0.202 C 
ENDBRANCH   1  22
BRANCH  13  24
HETATM   24  O5  UNL     1      10.199  65.166  24.765  1.00  0.00    -0.394 OA
ATOM     25  H5  UNL     1       9.494  64.928  25.355  1.00  0.00     0.210 HD
ENDBRANCH  13  24
TORSDOF 5
ENDMDL
