MODEL 1
REMARK VINA RESULT: -6.841730509      0.000      0.000
REMARK  8 active torsions:
REMARK  status: ('A' for Active; 'I' for Inactive)
REMARK    1  A    between atoms: C9_9  and  O1_10 
REMARK    2  A    between atoms: C10_12  and  C11_13 
REMARK    3  A    between atoms: C11_13  and  O3_15 
REMARK    4  A    between atoms: O3_15  and  C12_16 
REMARK    5  A    between atoms: C12_16  and  C13_17 
REMARK    6  A    between atoms: C13_17  and  C14_18 
REMARK    7  A    between atoms: C14_18  and  O4_19 
REMARK    8  A    between atoms: C16_22  and  O5_23 
ROOT
HETATM    1  C1  UNL     1      24.591  58.918  15.549  1.00  0.00     0.015 C 
HETATM    2  C2  UNL     1      24.050  59.754  16.718  1.00  0.00    -0.043 C 
HETATM    3  C3  UNL     1      24.020  61.175  16.265  1.00  0.00     0.015 C 
HETATM    4  C4  UNL     1      25.035  59.549  17.850  1.00  0.00     0.009 C 
HETATM    5  C5  UNL     1      24.633  60.253  19.092  1.00  0.00     0.002 C 
HETATM    6  C6  UNL     1      23.164  60.453  19.251  1.00  0.00     0.010 C 
HETATM    7  C7  UNL     1      22.301  59.516  18.508  1.00  0.00    -0.032 C 
HETATM    8  C8  UNL     1      22.083  58.191  19.251  1.00  0.00     0.043 C 
HETATM    9  C9  UNL     1      20.848  57.670  18.545  1.00  0.00     0.139 C 
HETATM   10  C10 UNL     1      20.130  58.850  17.968  1.00  0.00     0.100 C 
HETATM   11  C15 UNL     1      20.864  60.059  18.564  1.00  0.00     0.035 C 
HETATM   12  C16 UNL     1      20.327  58.977  16.469  1.00  0.00     0.139 C 
HETATM   13  C17 UNL     1      21.634  59.677  16.150  1.00  0.00     0.039 C 
HETATM   14  C18 UNL     1      22.725  59.197  17.117  1.00  0.00     0.004 C 
ENDROOT
BRANCH  10  15
HETATM   15  C11 UNL     1      18.688  58.888  18.340  1.00  0.00     0.272 C 
HETATM   16  O2  UNL     1      18.022  57.880  18.614  1.00  0.00    -0.264 OA
BRANCH  15  17
HETATM   17  O3  UNL     1      18.072  60.114  18.378  1.00  0.00    -0.321 OA
BRANCH  17  18
HETATM   18  C12 UNL     1      16.709  60.373  18.416  1.00  0.00     0.180 C 
BRANCH  18  19
HETATM   19  C13 UNL     1      16.049  60.540  17.082  1.00  0.00     0.053 C 
BRANCH  19  20
HETATM   20  C14 UNL     1      15.310  59.260  16.704  1.00  0.00     0.166 C 
BRANCH  20  21
HETATM   21  O4  UNL     1      14.008  59.535  16.308  1.00  0.00    -0.401 OA
ATOM     22  H4  UNL     1      13.699  58.891  15.682  1.00  0.00     0.209 HD
ENDBRANCH  20  21
ENDBRANCH  19  20
ENDBRANCH  18  19
ENDBRANCH  17  18
ENDBRANCH  15  17
ENDBRANCH  10  15
BRANCH   9  23
HETATM   23  O1  UNL     1      20.031  57.007  19.485  1.00  0.00    -0.394 OA
ATOM     24  H1  UNL     1      19.644  57.653  20.064  1.00  0.00     0.210 HD
ENDBRANCH   9  23
BRANCH  12  25
HETATM   25  O5  UNL     1      19.307  59.755  15.922  1.00  0.00    -0.394 OA
ATOM     26  H5  UNL     1      19.482  60.674  16.083  1.00  0.00     0.210 HD
ENDBRANCH  12  25
TORSDOF 8
ENDMDL
MODEL 2
REMARK VINA RESULT: -6.613256269      1.222      1.752
REMARK  8 active torsions:
REMARK  status: ('A' for Active; 'I' for Inactive)
REMARK    1  A    between atoms: C9_9  and  O1_10 
REMARK    2  A    between atoms: C10_12  and  C11_13 
REMARK    3  A    between atoms: C11_13  and  O3_15 
REMARK    4  A    between atoms: O3_15  and  C12_16 
REMARK    5  A    between atoms: C12_16  and  C13_17 
REMARK    6  A    between atoms: C13_17  and  C14_18 
REMARK    7  A    between atoms: C14_18  and  O4_19 
REMARK    8  A    between atoms: C16_22  and  O5_23 
ROOT
HETATM    1  C1  UNL     1      25.581  58.945  17.494  1.00  0.00     0.015 C 
HETATM    2  C2  UNL     1      24.655  60.148  17.726  1.00  0.00    -0.043 C 
HETATM    3  C3  UNL     1      25.156  61.261  16.869  1.00  0.00     0.015 C 
HETATM    4  C4  UNL     1      24.781  60.475  19.199  1.00  0.00     0.009 C 
HETATM    5  C5  UNL     1      23.901  61.596  19.613  1.00  0.00     0.002 C 
HETATM    6  C6  UNL     1      22.664  61.754  18.797  1.00  0.00     0.010 C 
HETATM    7  C7  UNL     1      22.199  60.548  18.088  1.00  0.00    -0.032 C 
HETATM    8  C8  UNL     1      21.354  59.624  18.976  1.00  0.00     0.043 C 
HETATM    9  C9  UNL     1      20.648  58.790  17.927  1.00  0.00     0.139 C 
HETATM   10  C10 UNL     1      20.616  59.592  16.663  1.00  0.00     0.100 C 
HETATM   11  C15 UNL     1      21.111  60.980  17.092  1.00  0.00     0.035 C 
HETATM   12  C16 UNL     1      21.633  59.115  15.644  1.00  0.00     0.139 C 
HETATM   13  C17 UNL     1      23.002  59.704  15.927  1.00  0.00     0.039 C 
HETATM   14  C18 UNL     1      23.254  59.720  17.440  1.00  0.00     0.004 C 
ENDROOT
BRANCH  10  15
HETATM   15  C11 UNL     1      19.250  59.690  16.076  1.00  0.00     0.272 C 
HETATM   16  O2  UNL     1      18.759  58.832  15.330  1.00  0.00    -0.264 OA
BRANCH  15  17
HETATM   17  O3  UNL     1      18.503  60.800  16.383  1.00  0.00    -0.321 OA
BRANCH  17  18
HETATM   18  C12 UNL     1      17.144  60.987  16.173  1.00  0.00     0.180 C 
BRANCH  18  19
HETATM   19  C13 UNL     1      16.249  60.493  17.266  1.00  0.00     0.053 C 
BRANCH  19  20
HETATM   20  C14 UNL     1      15.459  59.281  16.784  1.00  0.00     0.166 C 
BRANCH  20  21
HETATM   21  O4  UNL     1      14.184  59.649  16.375  1.00  0.00    -0.401 OA
ATOM     22  H4  UNL     1      13.971  59.261  15.534  1.00  0.00     0.209 HD
ENDBRANCH  20  21
ENDBRANCH  19  20
ENDBRANCH  18  19
ENDBRANCH  17  18
ENDBRANCH  15  17
ENDBRANCH  10  15
BRANCH   9  23
HETATM   23  O1  UNL     1      19.337  58.515  18.370  1.00  0.00    -0.394 OA
ATOM     24  H1  UNL     1      19.309  58.600  19.316  1.00  0.00     0.210 HD
ENDBRANCH   9  23
BRANCH  12  25
HETATM   25  O5  UNL     1      21.263  59.544  14.370  1.00  0.00    -0.394 OA
ATOM     26  H5  UNL     1      21.217  60.493  14.350  1.00  0.00     0.210 HD
ENDBRANCH  12  25
TORSDOF 8
ENDMDL
MODEL 3
REMARK VINA RESULT: -6.415734283      6.677     10.920
REMARK  8 active torsions:
REMARK  status: ('A' for Active; 'I' for Inactive)
REMARK    1  A    between atoms: C9_9  and  O1_10 
REMARK    2  A    between atoms: C10_12  and  C11_13 
REMARK    3  A    between atoms: C11_13  and  O3_15 
REMARK    4  A    between atoms: O3_15  and  C12_16 
REMARK    5  A    between atoms: C12_16  and  C13_17 
REMARK    6  A    between atoms: C13_17  and  C14_18 
REMARK    7  A    between atoms: C14_18  and  O4_19 
REMARK    8  A    between atoms: C16_22  and  O5_23 
ROOT
HETATM    1  C1  UNL     1      11.239  65.928  24.168  1.00  0.00     0.015 C 
HETATM    2  C2  UNL     1      10.917  64.849  23.124  1.00  0.00    -0.043 C 
HETATM    3  C3  UNL     1      11.000  65.496  21.782  1.00  0.00     0.015 C 
HETATM    4  C4  UNL     1       9.507  64.393  23.438  1.00  0.00     0.009 C 
HETATM    5  C5  UNL     1       9.048  63.300  22.545  1.00  0.00     0.002 C 
HETATM    6  C6  UNL     1      10.135  62.435  22.005  1.00  0.00     0.010 C 
HETATM    7  C7  UNL     1      11.383  62.402  22.789  1.00  0.00    -0.032 C 
HETATM    8  C8  UNL     1      11.329  61.403  23.954  1.00  0.00     0.043 C 
HETATM    9  C9  UNL     1      12.804  61.228  24.247  1.00  0.00     0.139 C 
HETATM   10  C10 UNL     1      13.553  61.565  22.996  1.00  0.00     0.100 C 
HETATM   11  C15 UNL     1      12.455  61.708  21.933  1.00  0.00     0.035 C 
HETATM   12  C16 UNL     1      14.210  62.932  23.060  1.00  0.00     0.139 C 
HETATM   13  C17 UNL     1      13.222  64.027  22.707  1.00  0.00     0.039 C 
HETATM   14  C18 UNL     1      11.856  63.707  23.327  1.00  0.00     0.004 C 
ENDROOT
BRANCH  10  15
HETATM   15  C11 UNL     1      14.522  60.505  22.598  1.00  0.00     0.272 C 
HETATM   16  O2  UNL     1      15.275  59.928  23.394  1.00  0.00    -0.264 OA
BRANCH  15  17
HETATM   17  O3  UNL     1      14.575  60.157  21.272  1.00  0.00    -0.321 OA
BRANCH  17  18
HETATM   18  C12 UNL     1      15.652  59.613  20.585  1.00  0.00     0.180 C 
BRANCH  18  19
HETATM   19  C13 UNL     1      15.897  60.179  19.221  1.00  0.00     0.053 C 
BRANCH  19  20
HETATM   20  C14 UNL     1      16.195  59.053  18.237  1.00  0.00     0.166 C 
BRANCH  20  21
HETATM   21  O4  UNL     1      16.179  57.818  18.871  1.00  0.00    -0.401 OA
ATOM     22  H4  UNL     1      15.498  57.261  18.515  1.00  0.00     0.209 HD
ENDBRANCH  20  21
ENDBRANCH  19  20
ENDBRANCH  18  19
ENDBRANCH  17  18
ENDBRANCH  15  17
ENDBRANCH  10  15
BRANCH   9  23
HETATM   23  O1  UNL     1      13.039  59.887  24.616  1.00  0.00    -0.394 OA
ATOM     24  H1  UNL     1      13.284  59.860  25.534  1.00  0.00     0.210 HD
ENDBRANCH   9  23
BRANCH  12  25
HETATM   25  O5  UNL     1      15.245  63.003  22.128  1.00  0.00    -0.394 OA
ATOM     26  H5  UNL     1      16.035  62.624  22.495  1.00  0.00     0.210 HD
ENDBRANCH  12  25
TORSDOF 8
ENDMDL
MODEL 4
REMARK VINA RESULT: -6.351914814      2.029      3.165
REMARK  8 active torsions:
REMARK  status: ('A' for Active; 'I' for Inactive)
REMARK    1  A    between atoms: C9_9  and  O1_10 
REMARK    2  A    between atoms: C10_12  and  C11_13 
REMARK    3  A    between atoms: C11_13  and  O3_15 
REMARK    4  A    between atoms: O3_15  and  C12_16 
REMARK    5  A    between atoms: C12_16  and  C13_17 
REMARK    6  A    between atoms: C13_17  and  C14_18 
REMARK    7  A    between atoms: C14_18  and  O4_19 
REMARK    8  A    between atoms: C16_22  and  O5_23 
ROOT
HETATM    1  C1  UNL     1      25.924  61.821  17.664  1.00  0.00     0.015 C 
HETATM    2  C2  UNL     1      24.680  61.147  18.259  1.00  0.00    -0.043 C 
HETATM    3  C3  UNL     1      24.279  61.940  19.457  1.00  0.00     0.015 C 
HETATM    4  C4  UNL     1      25.121  59.748  18.637  1.00  0.00     0.009 C 
HETATM    5  C5  UNL     1      24.013  58.928  19.186  1.00  0.00     0.002 C 
HETATM    6  C6  UNL     1      22.656  59.303  18.698  1.00  0.00     0.010 C 
HETATM    7  C7  UNL     1      22.607  60.009  17.405  1.00  0.00    -0.032 C 
HETATM    8  C8  UNL     1      22.647  59.055  16.203  1.00  0.00     0.043 C 
HETATM    9  C9  UNL     1      22.112  59.955  15.108  1.00  0.00     0.139 C 
HETATM   10  C10 UNL     1      21.287  61.018  15.764  1.00  0.00     0.100 C 
HETATM   11  C15 UNL     1      21.182  60.557  17.224  1.00  0.00     0.035 C 
HETATM   12  C16 UNL     1      22.002  62.354  15.829  1.00  0.00     0.139 C 
HETATM   13  C17 UNL     1      22.938  62.412  17.022  1.00  0.00     0.039 C 
HETATM   14  C18 UNL     1      23.641  61.059  17.191  1.00  0.00     0.004 C 
ENDROOT
BRANCH  10  15
HETATM   15  C11 UNL     1      19.929  61.147  15.165  1.00  0.00     0.272 C 
HETATM   16  O2  UNL     1      19.666  61.895  14.214  1.00  0.00    -0.264 OA
BRANCH  15  17
HETATM   17  O3  UNL     1      18.920  60.390  15.705  1.00  0.00    -0.321 OA
BRANCH  17  18
HETATM   18  C12 UNL     1      17.652  60.815  16.076  1.00  0.00     0.180 C 
BRANCH  18  19
HETATM   19  C13 UNL     1      16.858  59.840  16.889  1.00  0.00     0.053 C 
BRANCH  19  20
HETATM   20  C14 UNL     1      15.390  59.897  16.481  1.00  0.00     0.166 C 
BRANCH  20  21
HETATM   21  O4  UNL     1      14.918  58.637  16.138  1.00  0.00    -0.401 OA
ATOM     22  H4  UNL     1      14.661  58.606  15.225  1.00  0.00     0.209 HD
ENDBRANCH  20  21
ENDBRANCH  19  20
ENDBRANCH  18  19
ENDBRANCH  17  18
ENDBRANCH  15  17
ENDBRANCH  10  15
BRANCH   9  23
HETATM   23  O1  UNL     1      21.319  59.185  14.232  1.00  0.00    -0.394 OA
ATOM     24  H1  UNL     1      20.545  59.684  14.000  1.00  0.00     0.210 HD
ENDBRANCH   9  23
BRANCH  12  25
HETATM   25  O5  UNL     1      21.073  63.381  15.994  1.00  0.00    -0.394 OA
ATOM     26  H5  UNL     1      20.741  63.653  15.146  1.00  0.00     0.210 HD
ENDBRANCH  12  25
TORSDOF 8
ENDMDL
MODEL 5
REMARK VINA RESULT: -6.330118386      2.357      3.810
REMARK  8 active torsions:
REMARK  status: ('A' for Active; 'I' for Inactive)
REMARK    1  A    between atoms: C9_9  and  O1_10 
REMARK    2  A    between atoms: C10_12  and  C11_13 
REMARK    3  A    between atoms: C11_13  and  O3_15 
REMARK    4  A    between atoms: O3_15  and  C12_16 
REMARK    5  A    between atoms: C12_16  and  C13_17 
REMARK    6  A    between atoms: C13_17  and  C14_18 
REMARK    7  A    between atoms: C14_18  and  O4_19 
REMARK    8  A    between atoms: C16_22  and  O5_23 
ROOT
HETATM    1  C1  UNL     1      27.517  62.411  18.544  1.00  0.00     0.015 C 
HETATM    2  C2  UNL     1      26.058  62.841  18.755  1.00  0.00    -0.043 C 
HETATM    3  C3  UNL     1      25.884  64.157  18.075  1.00  0.00     0.015 C 
HETATM    4  C4  UNL     1      25.887  62.960  20.255  1.00  0.00     0.009 C 
HETATM    5  C5  UNL     1      24.501  63.320  20.645  1.00  0.00     0.002 C 
HETATM    6  C6  UNL     1      23.447  62.881  19.687  1.00  0.00     0.010 C 
HETATM    7  C7  UNL     1      23.798  61.742  18.819  1.00  0.00    -0.032 C 
HETATM    8  C8  UNL     1      23.581  60.384  19.500  1.00  0.00     0.043 C 
HETATM    9  C9  UNL     1      23.542  59.465  18.296  1.00  0.00     0.139 C 
HETATM   10  C10 UNL     1      23.133  60.290  17.116  1.00  0.00     0.100 C 
HETATM   11  C15 UNL     1      22.720  61.635  17.728  1.00  0.00     0.035 C 
HETATM   12  C16 UNL     1      24.300  60.621  16.204  1.00  0.00     0.139 C 
HETATM   13  C17 UNL     1      25.067  61.824  16.718  1.00  0.00     0.039 C 
HETATM   14  C18 UNL     1      25.173  61.752  18.247  1.00  0.00     0.004 C 
ENDROOT
BRANCH  10  15
HETATM   15  C11 UNL     1      21.994  59.695  16.361  1.00  0.00     0.272 C 
HETATM   16  O2  UNL     1      22.108  58.731  15.592  1.00  0.00    -0.264 OA
BRANCH  15  17
HETATM   17  O3  UNL     1      20.753  60.255  16.535  1.00  0.00    -0.321 OA
BRANCH  17  18
HETATM   18  C12 UNL     1      19.544  59.594  16.698  1.00  0.00     0.180 C 
BRANCH  18  19
HETATM   19  C13 UNL     1      19.286  59.054  18.070  1.00  0.00     0.053 C 
BRANCH  19  20
HETATM   20  C14 UNL     1      17.786  58.883  18.287  1.00  0.00     0.166 C 
BRANCH  20  21
HETATM   21  O4  UNL     1      17.519  57.758  19.056  1.00  0.00    -0.401 OA
ATOM     22  H4  UNL     1      16.737  57.315  18.750  1.00  0.00     0.209 HD
ENDBRANCH  20  21
ENDBRANCH  19  20
ENDBRANCH  18  19
ENDBRANCH  17  18
ENDBRANCH  15  17
ENDBRANCH  10  15
BRANCH   9  23
HETATM   23  O1  UNL     1      22.600  58.442  18.533  1.00  0.00    -0.394 OA
ATOM     24  H1  UNL     1      22.739  58.094  19.406  1.00  0.00     0.210 HD
ENDBRANCH   9  23
BRANCH  12  25
HETATM   25  O5  UNL     1      23.828  60.954  14.934  1.00  0.00    -0.394 OA
ATOM     26  H5  UNL     1      23.493  61.843  14.938  1.00  0.00     0.210 HD
ENDBRANCH  12  25
TORSDOF 8
ENDMDL
