MODEL 1
REMARK VINA RESULT: -6.169799040      0.000      0.000
REMARK  12 active torsions:
REMARK  status: ('A' for Active; 'I' for Inactive)
REMARK    1  A    between atoms: C2_2  and  C3_3 
REMARK    2  A    between atoms: C3_3  and  C5_5 
REMARK    3  A    between atoms: C9_14  and  C10_15 
REMARK    4  A    between atoms: C10_15  and  C13_18 
REMARK    5  A    between atoms: C14_21  and  C15_22 
REMARK    6  A    between atoms: C15_22  and  C16_23 
REMARK    7  A    between atoms: C15_22  and  C18_25 
REMARK    8  A    between atoms: C21_30  and  O4_31 
REMARK    9  A    between atoms: C22_33  and  C23_34 
REMARK   10  A    between atoms: C23_34  and  C25_36 
REMARK   11  A    between atoms: C28_40  and  O5_41 
REMARK   12  A    between atoms: C29_43  and  C30_44 
ROOT
HETATM    1  C5  UNL     1      17.994  21.936  18.907  1.00  0.00     0.188 C 
HETATM    2  N1  UNL     1      19.019  21.684  19.902  1.00  0.00    -0.345 N 
ATOM      3  H1  UNL     1      19.010  20.739  20.286  1.00  0.00     0.163 HD
HETATM    4  C6  UNL     1      20.007  22.501  20.421  1.00  0.00     0.240 C 
HETATM    5  O1  UNL     1      21.218  22.081  20.288  1.00  0.00    -0.271 OA
HETATM    6  C7  UNL     1      19.925  23.807  21.125  1.00  0.00     0.165 C 
HETATM    7  C8  UNL     1      18.836  24.657  20.581  1.00  0.00     0.042 C 
HETATM    8  N2  UNL     1      21.218  24.371  21.280  1.00  0.00    -0.402 N 
ATOM      9  H2  UNL     1      21.956  23.775  21.654  1.00  0.00     0.154 HD
HETATM   10  C9  UNL     1      21.541  25.667  20.958  1.00  0.00     0.118 C 
HETATM   11  C14 UNL     1      22.608  26.011  19.959  1.00  0.00     0.111 C 
HETATM   12  N3  UNL     1      22.043  26.853  18.901  1.00  0.00    -0.366 N 
ATOM     13  H3  UNL     1      22.254  27.836  19.071  1.00  0.00     0.161 HD
HETATM   14  C21 UNL     1      21.307  26.703  17.741  1.00  0.00     0.135 C 
HETATM   15  C22 UNL     1      21.557  26.385  16.338  1.00  0.00     0.163 C 
HETATM   16  N4  UNL     1      20.828  25.419  15.602  1.00  0.00    -0.355 N 
HETATM   17  C27 UNL     1      21.730  24.666  14.634  1.00  0.00     0.152 C 
HETATM   18  C28 UNL     1      19.487  25.041  15.514  1.00  0.00     0.144 C 
HETATM   19  C29 UNL     1      18.516  24.374  16.419  1.00  0.00     0.209 C 
HETATM   20  O6  UNL     1      18.985  23.208  16.966  1.00  0.00    -0.306 OA
HETATM   21  C33 UNL     1      18.620  22.088  17.538  1.00  0.00     0.283 C 
HETATM   22  O7  UNL     1      18.781  20.968  16.939  1.00  0.00    -0.263 OA
ENDROOT
BRANCH  10  23
HETATM   23  C10 UNL     1      21.742  26.472  22.258  1.00  0.00     0.063 C 
HETATM   24  C11 UNL     1      23.218  26.507  22.674  1.00  0.00     0.028 C 
HETATM   25  C12 UNL     1      21.087  25.772  23.444  1.00  0.00     0.028 C 
BRANCH  23  26
HETATM   26  C13 UNL     1      21.154  27.811  22.270  1.00  0.00     0.183 C 
HETATM   27  O2  UNL     1      20.898  28.349  23.397  1.00  0.00    -0.647 OA
HETATM   28  O3  UNL     1      20.834  28.582  21.169  1.00  0.00    -0.647 OA
ENDBRANCH  23  26
ENDBRANCH  10  23
BRANCH  11  29
HETATM   29  C15 UNL     1      23.506  24.981  19.359  1.00  0.00     0.013 C 
BRANCH  29  30
HETATM   30  C16 UNL     1      24.059  23.973  20.315  1.00  0.00     0.002 C 
HETATM   31  C17 UNL     1      24.681  22.736  19.773  1.00  0.00     0.005 C 
ENDBRANCH  29  30
BRANCH  29  32
HETATM   32  C18 UNL     1      24.725  25.859  18.918  1.00  0.00    -0.017 C 
HETATM   33  C19 UNL     1      25.175  25.620  17.531  1.00  0.00     0.010 C 
HETATM   34  C20 UNL     1      25.852  25.845  19.921  1.00  0.00     0.010 C 
ENDBRANCH  29  32
ENDBRANCH  11  29
BRANCH  14  35
HETATM   35  O4  UNL     1      20.025  26.896  17.874  1.00  0.00    -0.348 OA
ATOM     36  H4  UNL     1      19.478  26.340  17.332  1.00  0.00     0.219 HD
ENDBRANCH  14  35
BRANCH  15  37
HETATM   37  C23 UNL     1      21.678  27.725  15.596  1.00  0.00     0.012 C 
HETATM   38  C24 UNL     1      23.027  28.040  15.076  1.00  0.00     0.012 C 
BRANCH  37  39
HETATM   39  C25 UNL     1      20.595  27.968  14.586  1.00  0.00     0.002 C 
HETATM   40  C26 UNL     1      21.180  28.262  13.217  1.00  0.00     0.005 C 
ENDBRANCH  37  39
ENDBRANCH  15  37
BRANCH   1  41
HETATM   41  C3  UNL     1      17.039  20.766  18.781  1.00  0.00     0.014 C 
HETATM   42  C4  UNL     1      16.113  20.653  19.972  1.00  0.00     0.012 C 
BRANCH  41  43
HETATM   43  C2  UNL     1      16.218  20.761  17.553  1.00  0.00     0.002 C 
HETATM   44  C1  UNL     1      14.751  20.867  17.981  1.00  0.00     0.005 C 
ENDBRANCH  41  43
ENDBRANCH   1  41
BRANCH  18  45
HETATM   45  O5  UNL     1      18.951  25.346  14.355  1.00  0.00    -0.347 OA
ATOM     46  H5  UNL     1      18.082  24.977  14.246  1.00  0.00     0.219 HD
ENDBRANCH  18  45
BRANCH  19  47
HETATM   47  C30 UNL     1      17.169  24.136  15.675  1.00  0.00     0.015 C 
HETATM   48  C31 UNL     1      17.254  22.857  14.871  1.00  0.00     0.012 C 
HETATM   49  C32 UNL     1      16.021  24.149  16.628  1.00  0.00     0.012 C 
ENDBRANCH  19  47
TORSDOF 12
ENDMDL
MODEL 2
REMARK VINA RESULT: -5.636003305      0.766      1.038
REMARK  12 active torsions:
REMARK  status: ('A' for Active; 'I' for Inactive)
REMARK    1  A    between atoms: C2_2  and  C3_3 
REMARK    2  A    between atoms: C3_3  and  C5_5 
REMARK    3  A    between atoms: C9_14  and  C10_15 
REMARK    4  A    between atoms: C10_15  and  C13_18 
REMARK    5  A    between atoms: C14_21  and  C15_22 
REMARK    6  A    between atoms: C15_22  and  C16_23 
REMARK    7  A    between atoms: C15_22  and  C18_25 
REMARK    8  A    between atoms: C21_30  and  O4_31 
REMARK    9  A    between atoms: C22_33  and  C23_34 
REMARK   10  A    between atoms: C23_34  and  C25_36 
REMARK   11  A    between atoms: C28_40  and  O5_41 
REMARK   12  A    between atoms: C29_43  and  C30_44 
ROOT
HETATM    1  C5  UNL     1      17.953  21.891  18.854  1.00  0.00     0.188 C 
HETATM    2  N1  UNL     1      18.976  21.651  19.854  1.00  0.00    -0.345 N 
ATOM      3  H1  UNL     1      18.980  20.703  20.233  1.00  0.00     0.163 HD
HETATM    4  C6  UNL     1      19.947  22.481  20.384  1.00  0.00     0.240 C 
HETATM    5  O1  UNL     1      21.166  22.083  20.257  1.00  0.00    -0.271 OA
HETATM    6  C7  UNL     1      19.839  23.781  21.096  1.00  0.00     0.165 C 
HETATM    7  C8  UNL     1      18.739  24.616  20.550  1.00  0.00     0.042 C 
HETATM    8  N2  UNL     1      21.121  24.366  21.262  1.00  0.00    -0.402 N 
ATOM      9  H2  UNL     1      21.866  23.780  21.638  1.00  0.00     0.154 HD
HETATM   10  C9  UNL     1      21.423  25.669  20.950  1.00  0.00     0.118 C 
HETATM   11  C14 UNL     1      22.491  26.038  19.960  1.00  0.00     0.111 C 
HETATM   12  N3  UNL     1      21.918  26.876  18.903  1.00  0.00    -0.366 N 
ATOM     13  H3  UNL     1      22.111  27.862  19.080  1.00  0.00     0.161 HD
HETATM   14  C21 UNL     1      21.192  26.721  17.737  1.00  0.00     0.135 C 
HETATM   15  C22 UNL     1      21.456  26.415  16.334  1.00  0.00     0.163 C 
HETATM   16  N4  UNL     1      20.748  25.441  15.588  1.00  0.00    -0.355 N 
HETATM   17  C27 UNL     1      21.669  24.709  14.621  1.00  0.00     0.152 C 
HETATM   18  C28 UNL     1      19.414  25.042  15.489  1.00  0.00     0.144 C 
HETATM   19  C29 UNL     1      18.449  24.353  16.384  1.00  0.00     0.209 C 
HETATM   20  O6  UNL     1      18.934  23.192  16.927  1.00  0.00    -0.306 OA
HETATM   21  C33 UNL     1      18.585  22.063  17.490  1.00  0.00     0.283 C 
HETATM   22  O7  UNL     1      18.768  20.949  16.886  1.00  0.00    -0.263 OA
ENDROOT
BRANCH  10  23
HETATM   23  C10 UNL     1      21.603  26.470  22.256  1.00  0.00     0.063 C 
HETATM   24  C11 UNL     1      20.532  26.105  23.291  1.00  0.00     0.028 C 
HETATM   25  C12 UNL     1      21.341  27.955  22.029  1.00  0.00     0.028 C 
BRANCH  23  26
HETATM   26  C13 UNL     1      22.943  26.433  22.841  1.00  0.00     0.183 C 
HETATM   27  O2  UNL     1      23.177  27.161  23.861  1.00  0.00    -0.647 OA
HETATM   28  O3  UNL     1      24.015  25.680  22.403  1.00  0.00    -0.647 OA
ENDBRANCH  23  26
ENDBRANCH  10  23
BRANCH  11  29
HETATM   29  C15 UNL     1      23.410  25.026  19.359  1.00  0.00     0.013 C 
BRANCH  29  30
HETATM   30  C16 UNL     1      24.031  24.067  20.324  1.00  0.00     0.002 C 
HETATM   31  C17 UNL     1      24.609  22.800  19.804  1.00  0.00     0.005 C 
ENDBRANCH  29  30
BRANCH  29  32
HETATM   32  C18 UNL     1      24.579  25.938  18.858  1.00  0.00    -0.017 C 
HETATM   33  C19 UNL     1      24.960  25.716  17.447  1.00  0.00     0.010 C 
HETATM   34  C20 UNL     1      25.759  25.950  19.798  1.00  0.00     0.010 C 
ENDBRANCH  29  32
ENDBRANCH  11  29
BRANCH  14  35
HETATM   35  O4  UNL     1      19.906  26.892  17.864  1.00  0.00    -0.348 OA
ATOM     36  H4  UNL     1      19.420  26.891  17.047  1.00  0.00     0.219 HD
ENDBRANCH  14  35
BRANCH  15  37
HETATM   37  C23 UNL     1      21.560  27.762  15.600  1.00  0.00     0.012 C 
HETATM   38  C24 UNL     1      22.908  28.107  15.099  1.00  0.00     0.012 C 
BRANCH  37  39
HETATM   39  C25 UNL     1      20.484  27.989  14.579  1.00  0.00     0.002 C 
HETATM   40  C26 UNL     1      21.079  28.217  13.201  1.00  0.00     0.005 C 
ENDBRANCH  37  39
ENDBRANCH  15  37
BRANCH   1  41
HETATM   41  C3  UNL     1      17.019  20.707  18.715  1.00  0.00     0.014 C 
HETATM   42  C4  UNL     1      16.167  20.502  19.949  1.00  0.00     0.012 C 
BRANCH  41  43
HETATM   43  C2  UNL     1      16.127  20.750  17.538  1.00  0.00     0.002 C 
HETATM   44  C1  UNL     1      14.699  20.953  18.053  1.00  0.00     0.005 C 
ENDBRANCH  41  43
ENDBRANCH   1  41
BRANCH  18  45
HETATM   45  O5  UNL     1      18.880  25.344  14.329  1.00  0.00    -0.347 OA
ATOM     46  H5  UNL     1      17.935  25.420  14.370  1.00  0.00     0.219 HD
ENDBRANCH  18  45
BRANCH  19  47
HETATM   47  C30 UNL     1      17.111  24.097  15.630  1.00  0.00     0.015 C 
HETATM   48  C31 UNL     1      17.212  22.808  14.845  1.00  0.00     0.012 C 
HETATM   49  C32 UNL     1      15.954  24.115  16.572  1.00  0.00     0.012 C 
ENDBRANCH  19  47
TORSDOF 12
ENDMDL
MODEL 3
REMARK VINA RESULT: -4.700619709     11.300     16.760
REMARK  12 active torsions:
REMARK  status: ('A' for Active; 'I' for Inactive)
REMARK    1  A    between atoms: C2_2  and  C3_3 
REMARK    2  A    between atoms: C3_3  and  C5_5 
REMARK    3  A    between atoms: C9_14  and  C10_15 
REMARK    4  A    between atoms: C10_15  and  C13_18 
REMARK    5  A    between atoms: C14_21  and  C15_22 
REMARK    6  A    between atoms: C15_22  and  C16_23 
REMARK    7  A    between atoms: C15_22  and  C18_25 
REMARK    8  A    between atoms: C21_30  and  O4_31 
REMARK    9  A    between atoms: C22_33  and  C23_34 
REMARK   10  A    between atoms: C23_34  and  C25_36 
REMARK   11  A    between atoms: C28_40  and  O5_41 
REMARK   12  A    between atoms: C29_43  and  C30_44 
ROOT
HETATM    1  C5  UNL     1      10.684  16.942  17.255  1.00  0.00     0.188 C 
HETATM    2  N1  UNL     1       9.607  16.077  17.696  1.00  0.00    -0.345 N 
ATOM      3  H1  UNL     1       9.180  16.352  18.581  1.00  0.00     0.163 HD
HETATM    4  C6  UNL     1       9.056  14.942  17.127  1.00  0.00     0.240 C 
HETATM    5  O1  UNL     1       7.792  14.987  16.881  1.00  0.00    -0.271 OA
HETATM    6  C7  UNL     1       9.672  13.647  16.739  1.00  0.00     0.165 C 
HETATM    7  C8  UNL     1      11.049  13.828  16.213  1.00  0.00     0.042 C 
HETATM    8  N2  UNL     1       8.754  12.864  15.992  1.00  0.00    -0.402 N 
ATOM      9  H2  UNL     1       7.812  12.748  16.366  1.00  0.00     0.154 HD
HETATM   10  C9  UNL     1       9.052  12.251  14.799  1.00  0.00     0.118 C 
HETATM   11  C14 UNL     1       8.294  12.533  13.533  1.00  0.00     0.111 C 
HETATM   12  N3  UNL     1       9.222  12.978  12.490  1.00  0.00    -0.366 N 
ATOM     13  H3  UNL     1       9.459  12.206  11.865  1.00  0.00     0.161 HD
HETATM   14  C21 UNL     1       9.871  14.135  12.105  1.00  0.00     0.135 C 
HETATM   15  C22 UNL     1       9.574  15.329  11.318  1.00  0.00     0.163 C 
HETATM   16  N4  UNL     1       9.836  16.651  11.753  1.00  0.00    -0.355 N 
HETATM   17  C27 UNL     1       8.741  17.609  11.301  1.00  0.00     0.152 C 
HETATM   18  C28 UNL     1      10.876  17.284  12.435  1.00  0.00     0.144 C 
HETATM   19  C29 UNL     1      11.409  17.243  13.821  1.00  0.00     0.209 C 
HETATM   20  O6  UNL     1      10.449  17.405  14.786  1.00  0.00    -0.306 OA
HETATM   21  C33 UNL     1      10.255  17.733  16.038  1.00  0.00     0.283 C 
HETATM   22  O7  UNL     1       9.646  18.817  16.342  1.00  0.00    -0.263 OA
ENDROOT
BRANCH  10  23
HETATM   23  C10 UNL     1       9.164  10.730  15.029  1.00  0.00     0.063 C 
HETATM   24  C11 UNL     1      10.623  10.259  14.969  1.00  0.00     0.028 C 
HETATM   25  C12 UNL     1       8.525   9.953  13.883  1.00  0.00     0.028 C 
BRANCH  23  26
HETATM   26  C13 UNL     1       8.489  10.220  16.222  1.00  0.00     0.183 C 
HETATM   27  O2  UNL     1       7.228  10.038  16.172  1.00  0.00    -0.647 OA
HETATM   28  O3  UNL     1       9.076   9.903  17.432  1.00  0.00    -0.647 OA
ENDBRANCH  23  26
ENDBRANCH  10  23
BRANCH  11  29
HETATM   29  C15 UNL     1       7.064  13.378  13.507  1.00  0.00     0.013 C 
BRANCH  29  30
HETATM   30  C16 UNL     1       5.921  12.876  14.330  1.00  0.00     0.002 C 
HETATM   31  C17 UNL     1       5.094  13.856  15.083  1.00  0.00     0.005 C 
ENDBRANCH  29  30
BRANCH  29  32
HETATM   32  C18 UNL     1       6.615  13.215  12.016  1.00  0.00    -0.017 C 
HETATM   33  C19 UNL     1       5.955  14.409  11.448  1.00  0.00     0.010 C 
HETATM   34  C20 UNL     1       5.850  11.938  11.769  1.00  0.00     0.010 C 
ENDBRANCH  29  32
ENDBRANCH  11  29
BRANCH  14  35
HETATM   35  O4  UNL     1      11.099  14.244  12.528  1.00  0.00    -0.348 OA
ATOM     36  H4  UNL     1      11.253  13.904  13.402  1.00  0.00     0.219 HD
ENDBRANCH  14  35
BRANCH  15  37
HETATM   37  C23 UNL     1      10.090  15.060   9.896  1.00  0.00     0.012 C 
HETATM   38  C24 UNL     1      11.561  15.098   9.739  1.00  0.00     0.012 C 
BRANCH  37  39
HETATM   39  C25 UNL     1       9.465  13.870   9.230  1.00  0.00     0.002 C 
HETATM   40  C26 UNL     1       8.196  14.259   8.494  1.00  0.00     0.005 C 
ENDBRANCH  37  39
ENDBRANCH  15  37
BRANCH   1  41
HETATM   41  C3  UNL     1      11.030  17.980  18.303  1.00  0.00     0.014 C 
HETATM   42  C4  UNL     1      11.114  17.385  19.692  1.00  0.00     0.012 C 
BRANCH  41  43
HETATM   43  C2  UNL     1      12.275  18.735  18.047  1.00  0.00     0.002 C 
HETATM   44  C1  UNL     1      13.304  18.288  19.089  1.00  0.00     0.005 C 
ENDBRANCH  41  43
ENDBRANCH   1  41
BRANCH  18  45
HETATM   45  O5  UNL     1      11.546  18.119  11.676  1.00  0.00    -0.347 OA
ATOM     46  H5  UNL     1      12.207  17.686  11.150  1.00  0.00     0.219 HD
ENDBRANCH  18  45
BRANCH  19  47
HETATM   47  C30 UNL     1      12.547  18.292  13.987  1.00  0.00     0.015 C 
HETATM   48  C31 UNL     1      13.592  18.078  12.915  1.00  0.00     0.012 C 
HETATM   49  C32 UNL     1      11.999  19.680  13.997  1.00  0.00     0.012 C 
ENDBRANCH  19  47
TORSDOF 12
ENDMDL
MODEL 4
REMARK VINA RESULT: -4.476244441     11.289     16.644
REMARK  12 active torsions:
REMARK  status: ('A' for Active; 'I' for Inactive)
REMARK    1  A    between atoms: C2_2  and  C3_3 
REMARK    2  A    between atoms: C3_3  and  C5_5 
REMARK    3  A    between atoms: C9_14  and  C10_15 
REMARK    4  A    between atoms: C10_15  and  C13_18 
REMARK    5  A    between atoms: C14_21  and  C15_22 
REMARK    6  A    between atoms: C15_22  and  C16_23 
REMARK    7  A    between atoms: C15_22  and  C18_25 
REMARK    8  A    between atoms: C21_30  and  O4_31 
REMARK    9  A    between atoms: C22_33  and  C23_34 
REMARK   10  A    between atoms: C23_34  and  C25_36 
REMARK   11  A    between atoms: C28_40  and  O5_41 
REMARK   12  A    between atoms: C29_43  and  C30_44 
ROOT
HETATM    1  C5  UNL     1      10.770  16.919  17.279  1.00  0.00     0.188 C 
HETATM    2  N1  UNL     1       9.682  16.054  17.694  1.00  0.00    -0.345 N 
ATOM      3  H1  UNL     1       9.259  16.307  18.587  1.00  0.00     0.163 HD
HETATM    4  C6  UNL     1       9.117  14.945  17.089  1.00  0.00     0.240 C 
HETATM    5  O1  UNL     1       7.854  15.013  16.846  1.00  0.00    -0.271 OA
HETATM    6  C7  UNL     1       9.716  13.654  16.661  1.00  0.00     0.165 C 
HETATM    7  C8  UNL     1      11.095  13.834  16.140  1.00  0.00     0.042 C 
HETATM    8  N2  UNL     1       8.789  12.906  15.891  1.00  0.00    -0.402 N 
ATOM      9  H2  UNL     1       7.846  12.791  16.261  1.00  0.00     0.154 HD
HETATM   10  C9  UNL     1       9.078  12.327  14.679  1.00  0.00     0.118 C 
HETATM   11  C14 UNL     1       8.324  12.659  13.423  1.00  0.00     0.111 C 
HETATM   12  N3  UNL     1       9.257  13.124  12.393  1.00  0.00    -0.366 N 
ATOM     13  H3  UNL     1       9.484  12.369  11.745  1.00  0.00     0.161 HD
HETATM   14  C21 UNL     1       9.920  14.285  12.044  1.00  0.00     0.135 C 
HETATM   15  C22 UNL     1       9.638  15.506  11.296  1.00  0.00     0.163 C 
HETATM   16  N4  UNL     1       9.917  16.810  11.771  1.00  0.00    -0.355 N 
HETATM   17  C27 UNL     1       8.835  17.795  11.350  1.00  0.00     0.152 C 
HETATM   18  C28 UNL     1      10.965  17.409  12.472  1.00  0.00     0.144 C 
HETATM   19  C29 UNL     1      11.498  17.317  13.856  1.00  0.00     0.209 C 
HETATM   20  O6  UNL     1      10.540  17.461  14.826  1.00  0.00    -0.306 OA
HETATM   21  C33 UNL     1      10.351  17.752  16.088  1.00  0.00     0.283 C 
HETATM   22  O7  UNL     1       9.755  18.834  16.425  1.00  0.00    -0.263 OA
ENDROOT
BRANCH  10  23
HETATM   23  C10 UNL     1       9.172  10.799  14.862  1.00  0.00     0.063 C 
HETATM   24  C11 UNL     1       8.104  10.068  14.038  1.00  0.00     0.028 C 
HETATM   25  C12 UNL     1       8.814  10.394  16.288  1.00  0.00     0.028 C 
BRANCH  23  26
HETATM   26  C13 UNL     1      10.497  10.217  14.651  1.00  0.00     0.183 C 
HETATM   27  O2  UNL     1      10.826   9.876  13.467  1.00  0.00    -0.647 OA
HETATM   28  O3  UNL     1      11.460   9.986  15.614  1.00  0.00    -0.647 OA
ENDBRANCH  23  26
ENDBRANCH  10  23
BRANCH  11  29
HETATM   29  C15 UNL     1       7.104  13.519  13.424  1.00  0.00     0.013 C 
BRANCH  29  30
HETATM   30  C16 UNL     1       5.975  13.033  14.275  1.00  0.00     0.002 C 
HETATM   31  C17 UNL     1       5.096  14.032  14.939  1.00  0.00     0.005 C 
ENDBRANCH  29  30
BRANCH  29  32
HETATM   32  C18 UNL     1       6.619  13.359  11.944  1.00  0.00    -0.017 C 
HETATM   33  C19 UNL     1       6.046  14.589  11.358  1.00  0.00     0.010 C 
HETATM   34  C20 UNL     1       5.750  12.142  11.740  1.00  0.00     0.010 C 
ENDBRANCH  29  32
ENDBRANCH  11  29
BRANCH  14  35
HETATM   35  O4  UNL     1      11.150  14.365  12.470  1.00  0.00    -0.348 OA
ATOM     36  H4  UNL     1      11.242  14.572  13.393  1.00  0.00     0.219 HD
ENDBRANCH  14  35
BRANCH  15  37
HETATM   37  C23 UNL     1      10.151  15.275   9.865  1.00  0.00     0.012 C 
HETATM   38  C24 UNL     1      11.620  15.350   9.700  1.00  0.00     0.012 C 
BRANCH  37  39
HETATM   39  C25 UNL     1       9.550  14.083   9.182  1.00  0.00     0.002 C 
HETATM   40  C26 UNL     1       8.350  14.481   8.341  1.00  0.00     0.005 C 
ENDBRANCH  37  39
ENDBRANCH  15  37
BRANCH   1  41
HETATM   41  C3  UNL     1      11.129  17.919  18.359  1.00  0.00     0.014 C 
HETATM   42  C4  UNL     1      11.035  17.323  19.746  1.00  0.00     0.012 C 
BRANCH  41  43
HETATM   43  C2  UNL     1      12.461  18.543  18.213  1.00  0.00     0.002 C 
HETATM   44  C1  UNL     1      13.339  18.023  19.355  1.00  0.00     0.005 C 
ENDBRANCH  41  43
ENDBRANCH   1  41
BRANCH  18  45
HETATM   45  O5  UNL     1      11.645  18.258  11.738  1.00  0.00    -0.347 OA
ATOM     46  H5  UNL     1      12.259  18.773  12.248  1.00  0.00     0.219 HD
ENDBRANCH  18  45
BRANCH  19  47
HETATM   47  C30 UNL     1      12.649  18.347  14.054  1.00  0.00     0.015 C 
HETATM   48  C31 UNL     1      13.702  18.139  12.988  1.00  0.00     0.012 C 
HETATM   49  C32 UNL     1      12.121  19.742  14.085  1.00  0.00     0.012 C 
ENDBRANCH  19  47
TORSDOF 12
ENDMDL
MODEL 5
REMARK VINA RESULT: -4.433688991     11.860     18.083
REMARK  12 active torsions:
REMARK  status: ('A' for Active; 'I' for Inactive)
REMARK    1  A    between atoms: C2_2  and  C3_3 
REMARK    2  A    between atoms: C3_3  and  C5_5 
REMARK    3  A    between atoms: C9_14  and  C10_15 
REMARK    4  A    between atoms: C10_15  and  C13_18 
REMARK    5  A    between atoms: C14_21  and  C15_22 
REMARK    6  A    between atoms: C15_22  and  C16_23 
REMARK    7  A    between atoms: C15_22  and  C18_25 
REMARK    8  A    between atoms: C21_30  and  O4_31 
REMARK    9  A    between atoms: C22_33  and  C23_34 
REMARK   10  A    between atoms: C23_34  and  C25_36 
REMARK   11  A    between atoms: C28_40  and  O5_41 
REMARK   12  A    between atoms: C29_43  and  C30_44 
ROOT
HETATM    1  C5  UNL     1      10.916  17.235  13.595  1.00  0.00     0.188 C 
HETATM    2  N1  UNL     1      10.639  16.735  14.929  1.00  0.00    -0.345 N 
ATOM      3  H1  UNL     1      10.940  17.356  15.681  1.00  0.00     0.163 HD
HETATM    4  C6  UNL     1      10.039  15.566  15.359  1.00  0.00     0.240 C 
HETATM    5  O1  UNL     1       8.998  15.703  16.106  1.00  0.00    -0.271 OA
HETATM    6  C7  UNL     1      10.387  14.142  15.114  1.00  0.00     0.165 C 
HETATM    7  C8  UNL     1      10.915  13.933  13.742  1.00  0.00     0.042 C 
HETATM    8  N2  UNL     1       9.354  13.290  15.584  1.00  0.00    -0.402 N 
ATOM      9  H2  UNL     1       9.001  13.445  16.528  1.00  0.00     0.154 HD
HETATM   10  C9  UNL     1       8.799  12.269  14.851  1.00  0.00     0.118 C 
HETATM   11  C14 UNL     1       7.332  12.206  14.533  1.00  0.00     0.111 C 
HETATM   12  N3  UNL     1       7.143  12.128  13.082  1.00  0.00    -0.366 N 
ATOM     13  H3  UNL     1       6.980  11.164  12.791  1.00  0.00     0.161 HD
HETATM   14  C21 UNL     1       7.122  12.979  11.993  1.00  0.00     0.135 C 
HETATM   15  C22 UNL     1       6.165  13.860  11.330  1.00  0.00     0.163 C 
HETATM   16  N4  UNL     1       6.443  15.198  10.962  1.00  0.00    -0.355 N 
HETATM   17  C27 UNL     1       5.223  16.089  11.155  1.00  0.00     0.152 C 
HETATM   18  C28 UNL     1       7.536  15.872  10.415  1.00  0.00     0.144 C 
HETATM   19  C29 UNL     1       8.898  16.232  10.887  1.00  0.00     0.209 C 
HETATM   20  O6  UNL     1       8.912  16.851  12.110  1.00  0.00    -0.306 OA
HETATM   21  C33 UNL     1       9.626  17.612  12.900  1.00  0.00     0.283 C 
HETATM   22  O7  UNL     1       9.255  18.810  13.160  1.00  0.00    -0.263 OA
ENDROOT
BRANCH  10  23
HETATM   23  C10 UNL     1       9.284  10.920  15.419  1.00  0.00     0.063 C 
HETATM   24  C11 UNL     1       8.163   9.874  15.417  1.00  0.00     0.028 C 
HETATM   25  C12 UNL     1       9.617  11.037  16.903  1.00  0.00     0.028 C 
BRANCH  23  26
HETATM   26  C13 UNL     1      10.510  10.387  14.824  1.00  0.00     0.183 C 
HETATM   27  O2  UNL     1      11.514  10.190  15.584  1.00  0.00    -0.647 OA
HETATM   28  O3  UNL     1      10.711  10.066  13.495  1.00  0.00    -0.647 OA
ENDBRANCH  23  26
ENDBRANCH  10  23
BRANCH  11  29
HETATM   29  C15 UNL     1       6.344  13.157  15.121  1.00  0.00     0.013 C 
BRANCH  29  30
HETATM   30  C16 UNL     1       6.237  13.135  16.612  1.00  0.00     0.002 C 
HETATM   31  C17 UNL     1       5.984  14.411  17.332  1.00  0.00     0.005 C 
ENDBRANCH  29  30
BRANCH  29  32
HETATM   32  C18 UNL     1       4.997  12.560  14.592  1.00  0.00    -0.017 C 
HETATM   33  C19 UNL     1       4.000  13.574  14.191  1.00  0.00     0.010 C 
HETATM   34  C20 UNL     1       4.430  11.494  15.498  1.00  0.00     0.010 C 
ENDBRANCH  29  32
ENDBRANCH  11  29
BRANCH  14  35
HETATM   35  O4  UNL     1       8.241  13.049  11.329  1.00  0.00    -0.348 OA
ATOM     36  H4  UNL     1       8.201  12.715  10.440  1.00  0.00     0.219 HD
ENDBRANCH  14  35
BRANCH  15  37
HETATM   37  C23 UNL     1       5.539  13.049  10.184  1.00  0.00     0.012 C 
HETATM   38  C24 UNL     1       6.448  12.741   9.057  1.00  0.00     0.012 C 
BRANCH  37  39
HETATM   39  C25 UNL     1       4.749  11.856  10.636  1.00  0.00     0.002 C 
HETATM   40  C26 UNL     1       4.493  10.902   9.483  1.00  0.00     0.005 C 
ENDBRANCH  37  39
ENDBRANCH  15  37
BRANCH   1  41
HETATM   41  C3  UNL     1      11.735  18.508  13.634  1.00  0.00     0.014 C 
HETATM   42  C4  UNL     1      11.910  19.032  15.043  1.00  0.00     0.012 C 
BRANCH  41  43
HETATM   43  C2  UNL     1      13.069  18.410  13.007  1.00  0.00     0.002 C 
HETATM   44  C1  UNL     1      13.834  19.692  13.353  1.00  0.00     0.005 C 
ENDBRANCH  41  43
ENDBRANCH   1  41
BRANCH  18  45
HETATM   45  O5  UNL     1       7.312  16.291   9.192  1.00  0.00    -0.347 OA
ATOM     46  H5  UNL     1       7.992  16.873   8.874  1.00  0.00     0.219 HD
ENDBRANCH  18  45
BRANCH  19  47
HETATM   47  C30 UNL     1       9.621  17.101   9.816  1.00  0.00     0.015 C 
HETATM   48  C31 UNL     1       9.072  18.510   9.853  1.00  0.00     0.012 C 
HETATM   49  C32 UNL     1      11.102  17.050   9.996  1.00  0.00     0.012 C 
ENDBRANCH  19  47
TORSDOF 12
ENDMDL
