MODEL 1
REMARK VINA RESULT: -8.714753780      0.000      0.000
REMARK  13 active torsions:
REMARK  status: ('A' for Active; 'I' for Inactive)
REMARK    1  A    between atoms: C2_2  and  C4_4 
REMARK    2  A    between atoms: C4_4  and  N1_5 
REMARK    3  A    between atoms: C4_4  and  C5_9 
REMARK    4  A    between atoms: C5_9  and  N2_10 
REMARK    5  A    between atoms: C5_9  and  C22_35 
REMARK       I    between atoms: N2_10  and  C6_12 
REMARK    6  A    between atoms: C6_12  and  C7_14 
REMARK    7  A    between atoms: C7_14  and  N3_15 
REMARK    8  A    between atoms: N3_15  and  C8_16 
REMARK    9  A    between atoms: N3_15  and  S1_23 
REMARK   10  A    between atoms: C8_16  and  C9_17 
REMARK   11  A    between atoms: S1_23  and  N4_26 
REMARK   12  A    between atoms: C23_36  and  C24_37 
REMARK   13  A    between atoms: N6_43  and  C28_44 
ROOT
HETATM    1  N2  UNL     1      21.949  24.988  19.428  1.00  0.00    -0.348 N 
ATOM      2  H2  UNL     1      22.214  24.171  19.978  1.00  0.00     0.163 HD
HETATM    3  C6  UNL     1      20.697  25.047  18.833  1.00  0.00     0.247 C 
HETATM    4  O1  UNL     1      20.440  26.115  18.142  1.00  0.00    -0.271 OA
ENDROOT
BRANCH   1   5
HETATM    5  C5  UNL     1      22.950  26.164  19.258  1.00  0.00     0.156 C 
BRANCH   5   6
HETATM    6  C4  UNL     1      22.614  26.974  20.499  1.00  0.00     0.214 C 
BRANCH   6   7
HETATM    7  C2  UNL     1      22.205  25.981  21.622  1.00  0.00     0.010 C 
HETATM    8  C1  UNL     1      20.925  26.384  22.291  1.00  0.00     0.011 C 
HETATM    9  C3  UNL     1      23.274  26.251  22.721  1.00  0.00     0.011 C 
ENDBRANCH   6   7
BRANCH   6  10
HETATM   10  N1  UNL     1      21.546  27.897  20.391  1.00  0.00    -0.072 N 
ATOM     11  H13 UNL     1      20.625  27.466  20.465  1.00  0.00     0.274 HD
ATOM     12  H12 UNL     1      21.458  28.514  21.198  1.00  0.00     0.274 HD
ATOM     13  H11 UNL     1      21.695  28.393  19.512  1.00  0.00     0.274 HD
ENDBRANCH   6  10
ENDBRANCH   5   6
BRANCH   5  14
HETATM   14  C22 UNL     1      24.222  25.467  19.195  1.00  0.00     0.061 A 
HETATM   15  C23 UNL     1      25.193  25.602  18.199  1.00  0.00     0.047 A 
HETATM   16  N5  UNL     1      26.082  24.616  18.414  1.00  0.00    -0.298 N 
HETATM   17  N6  UNL     1      25.793  23.877  19.428  1.00  0.00    -0.248 N 
ATOM     18  H5  UNL     1      26.906  24.468  17.831  1.00  0.00     0.187 HD
HETATM   19  C32 UNL     1      24.629  24.386  19.941  1.00  0.00     0.273 A 
HETATM   20  O5  UNL     1      24.149  23.810  20.953  1.00  0.00    -0.266 OA
BRANCH  15  21
HETATM   21  C24 UNL     1      25.343  26.645  17.203  1.00  0.00    -0.006 C 
HETATM   22  C25 UNL     1      24.272  26.855  16.200  1.00  0.00     0.021 C 
HETATM   23  C26 UNL     1      26.590  26.293  16.329  1.00  0.00     0.021 C 
HETATM   24  C27 UNL     1      25.781  27.982  17.845  1.00  0.00     0.021 C 
ENDBRANCH  15  21
BRANCH  17  25
HETATM   25  C28 UNL     1      26.566  22.741  19.884  1.00  0.00     0.046 C 
HETATM   26  C29 UNL     1      26.036  21.447  19.262  1.00  0.00     0.040 C 
HETATM   27  C30 UNL     1      26.491  22.529  21.379  1.00  0.00     0.040 C 
HETATM   28  C31 UNL     1      28.052  22.933  19.582  1.00  0.00     0.040 C 
ENDBRANCH  17  25
ENDBRANCH   5  14
ENDBRANCH   1   5
BRANCH   3  29
HETATM   29  C7  UNL     1      19.656  24.026  18.930  1.00  0.00     0.125 C 
HETATM   30  C19 UNL     1      18.517  24.484  19.848  1.00  0.00     0.042 C 
HETATM   31  C20 UNL     1      19.177  23.769  20.995  1.00  0.00     0.006 C 
HETATM   32  C21 UNL     1      20.077  23.058  20.042  1.00  0.00     0.042 C 
BRANCH  29  33
HETATM   33  N3  UNL     1      19.225  23.402  17.739  1.00  0.00    -0.274 N 
BRANCH  33  34
HETATM   34  C8  UNL     1      20.065  23.390  16.604  1.00  0.00     0.143 C 
BRANCH  34  35
HETATM   35  C9  UNL     1      19.473  24.036  15.353  1.00  0.00     0.004 C 
HETATM   36  C10 UNL     1      18.438  25.072  15.629  1.00  0.00     0.006 C 
HETATM   37  C11 UNL     1      18.300  25.880  14.329  1.00  0.00     0.000 C 
HETATM   38  C12 UNL     1      19.508  26.784  14.131  1.00  0.00     0.000 C 
HETATM   39  C13 UNL     1      20.705  26.143  14.783  1.00  0.00     0.000 C 
HETATM   40  C14 UNL     1      20.649  24.660  14.594  1.00  0.00     0.006 C 
ENDBRANCH  34  35
ENDBRANCH  33  34
BRANCH  33  41
HETATM   41  S1  UNL     1      18.342  21.970  17.992  1.00  0.00     0.323 S 
HETATM   42  O2  UNL     1      18.533  21.029  16.858  1.00  0.00    -0.182 OA
HETATM   43  O3  UNL     1      19.085  21.243  19.168  1.00  0.00    -0.182 OA
BRANCH  41  44
HETATM   44  N4  UNL     1      16.720  22.107  18.368  1.00  0.00    -0.270 N 
HETATM   45  C15 UNL     1      16.102  21.299  19.335  1.00  0.00     0.103 C 
HETATM   46  C16 UNL     1      14.580  21.297  19.189  1.00  0.00     0.213 C 
HETATM   47  O4  UNL     1      14.187  22.611  18.948  1.00  0.00    -0.385 OA
HETATM   48  C17 UNL     1      14.539  22.946  17.662  1.00  0.00     0.189 C 
HETATM   49  C18 UNL     1      15.882  22.369  17.247  1.00  0.00     0.168 C 
ENDBRANCH  41  44
ENDBRANCH  33  41
ENDBRANCH  29  33
ENDBRANCH   3  29
TORSDOF 13
ENDMDL
MODEL 2
REMARK VINA RESULT: -8.578691147      1.228      1.537
REMARK  13 active torsions:
REMARK  status: ('A' for Active; 'I' for Inactive)
REMARK    1  A    between atoms: C2_2  and  C4_4 
REMARK    2  A    between atoms: C4_4  and  N1_5 
REMARK    3  A    between atoms: C4_4  and  C5_9 
REMARK    4  A    between atoms: C5_9  and  N2_10 
REMARK    5  A    between atoms: C5_9  and  C22_35 
REMARK       I    between atoms: N2_10  and  C6_12 
REMARK    6  A    between atoms: C6_12  and  C7_14 
REMARK    7  A    between atoms: C7_14  and  N3_15 
REMARK    8  A    between atoms: N3_15  and  C8_16 
REMARK    9  A    between atoms: N3_15  and  S1_23 
REMARK   10  A    between atoms: C8_16  and  C9_17 
REMARK   11  A    between atoms: S1_23  and  N4_26 
REMARK   12  A    between atoms: C23_36  and  C24_37 
REMARK   13  A    between atoms: N6_43  and  C28_44 
ROOT
HETATM    1  N2  UNL     1      22.003  25.248  19.183  1.00  0.00    -0.348 N 
ATOM      2  H2  UNL     1      22.209  24.359  19.640  1.00  0.00     0.163 HD
HETATM    3  C6  UNL     1      20.816  25.407  18.482  1.00  0.00     0.247 C 
HETATM    4  O1  UNL     1      20.633  26.562  17.920  1.00  0.00    -0.271 OA
ENDROOT
BRANCH   1   5
HETATM    5  C5  UNL     1      23.019  26.420  19.274  1.00  0.00     0.156 C 
BRANCH   5   6
HETATM    6  C4  UNL     1      22.543  27.078  20.559  1.00  0.00     0.214 C 
BRANCH   6   7
HETATM    7  C2  UNL     1      22.176  25.953  21.564  1.00  0.00     0.010 C 
HETATM    8  C1  UNL     1      20.787  26.116  22.108  1.00  0.00     0.011 C 
HETATM    9  C3  UNL     1      23.073  26.289  22.792  1.00  0.00     0.011 C 
ENDBRANCH   6   7
BRANCH   6  10
HETATM   10  N1  UNL     1      21.398  27.906  20.467  1.00  0.00    -0.072 N 
ATOM     11  H13 UNL     1      20.528  27.423  20.694  1.00  0.00     0.274 HD
ATOM     12  H12 UNL     1      21.343  28.609  21.203  1.00  0.00     0.274 HD
ATOM     13  H11 UNL     1      21.413  28.300  19.527  1.00  0.00     0.274 HD
ENDBRANCH   6  10
ENDBRANCH   5   6
BRANCH   5  14
HETATM   14  C22 UNL     1      24.288  25.715  19.272  1.00  0.00     0.061 A 
HETATM   15  C23 UNL     1      25.365  25.949  18.413  1.00  0.00     0.047 A 
HETATM   16  N5  UNL     1      26.223  24.932  18.610  1.00  0.00    -0.298 N 
HETATM   17  N6  UNL     1      25.819  24.086  19.492  1.00  0.00    -0.248 N 
ATOM     18  H5  UNL     1      27.107  24.840  18.108  1.00  0.00     0.187 HD
HETATM   19  C32 UNL     1      24.607  24.550  19.929  1.00  0.00     0.273 A 
HETATM   20  O5  UNL     1      24.015  23.868  20.806  1.00  0.00    -0.266 OA
BRANCH  15  21
HETATM   21  C24 UNL     1      25.629  27.098  17.568  1.00  0.00    -0.006 C 
HETATM   22  C25 UNL     1      24.493  27.827  16.955  1.00  0.00     0.021 C 
HETATM   23  C26 UNL     1      26.447  26.603  16.333  1.00  0.00     0.021 C 
HETATM   24  C27 UNL     1      26.628  28.073  18.233  1.00  0.00     0.021 C 
ENDBRANCH  15  21
BRANCH  17  25
HETATM   25  C28 UNL     1      26.535  22.893  19.896  1.00  0.00     0.046 C 
HETATM   26  C29 UNL     1      25.932  21.655  19.228  1.00  0.00     0.040 C 
HETATM   27  C30 UNL     1      26.457  22.625  21.382  1.00  0.00     0.040 C 
HETATM   28  C31 UNL     1      28.027  23.018  19.590  1.00  0.00     0.040 C 
ENDBRANCH  17  25
ENDBRANCH   5  14
ENDBRANCH   1   5
BRANCH   3  29
HETATM   29  C7  UNL     1      19.768  24.399  18.336  1.00  0.00     0.125 C 
HETATM   30  C19 UNL     1      18.890  24.330  19.590  1.00  0.00     0.042 C 
HETATM   31  C20 UNL     1      19.749  23.209  20.109  1.00  0.00     0.006 C 
HETATM   32  C21 UNL     1      20.373  23.056  18.762  1.00  0.00     0.042 C 
BRANCH  29  33
HETATM   33  N3  UNL     1      19.049  24.361  17.122  1.00  0.00    -0.274 N 
BRANCH  33  34
HETATM   34  C8  UNL     1      19.625  23.771  15.976  1.00  0.00     0.143 C 
BRANCH  34  35
HETATM   35  C9  UNL     1      19.841  24.717  14.797  1.00  0.00     0.004 C 
HETATM   36  C10 UNL     1      19.348  26.105  15.027  1.00  0.00     0.006 C 
HETATM   37  C11 UNL     1      20.029  26.971  13.955  1.00  0.00     0.000 C 
HETATM   38  C12 UNL     1      21.500  27.173  14.287  1.00  0.00     0.000 C 
HETATM   39  C13 UNL     1      21.991  25.977  15.060  1.00  0.00     0.000 C 
HETATM   40  C14 UNL     1      21.349  24.735  14.529  1.00  0.00     0.006 C 
ENDBRANCH  34  35
ENDBRANCH  33  34
BRANCH  33  41
HETATM   41  S1  UNL     1      17.384  24.070  17.317  1.00  0.00     0.323 S 
HETATM   42  O2  UNL     1      16.725  25.220  17.990  1.00  0.00    -0.182 OA
HETATM   43  O3  UNL     1      16.791  24.140  15.865  1.00  0.00    -0.182 OA
BRANCH  41  44
HETATM   44  N4  UNL     1      16.919  22.633  18.031  1.00  0.00    -0.270 N 
HETATM   45  C15 UNL     1      17.474  21.397  17.663  1.00  0.00     0.103 C 
HETATM   46  C16 UNL     1      16.604  20.224  18.116  1.00  0.00     0.213 C 
HETATM   47  O4  UNL     1      16.184  20.500  19.415  1.00  0.00    -0.385 OA
HETATM   48  C17 UNL     1      15.227  21.486  19.366  1.00  0.00     0.189 C 
HETATM   49  C18 UNL     1      15.528  22.551  18.324  1.00  0.00     0.168 C 
ENDBRANCH  41  44
ENDBRANCH  33  41
ENDBRANCH  29  33
ENDBRANCH   3  29
TORSDOF 13
ENDMDL
MODEL 3
REMARK VINA RESULT: -8.554954341      3.693     10.608
REMARK  13 active torsions:
REMARK  status: ('A' for Active; 'I' for Inactive)
REMARK    1  A    between atoms: C2_2  and  C4_4 
REMARK    2  A    between atoms: C4_4  and  N1_5 
REMARK    3  A    between atoms: C4_4  and  C5_9 
REMARK    4  A    between atoms: C5_9  and  N2_10 
REMARK    5  A    between atoms: C5_9  and  C22_35 
REMARK       I    between atoms: N2_10  and  C6_12 
REMARK    6  A    between atoms: C6_12  and  C7_14 
REMARK    7  A    between atoms: C7_14  and  N3_15 
REMARK    8  A    between atoms: N3_15  and  C8_16 
REMARK    9  A    between atoms: N3_15  and  S1_23 
REMARK   10  A    between atoms: C8_16  and  C9_17 
REMARK   11  A    between atoms: S1_23  and  N4_26 
REMARK   12  A    between atoms: C23_36  and  C24_37 
REMARK   13  A    between atoms: N6_43  and  C28_44 
ROOT
HETATM    1  N2  UNL     1      15.110  20.929  16.337  1.00  0.00    -0.348 N 
ATOM      2  H2  UNL     1      15.851  20.228  16.319  1.00  0.00     0.163 HD
HETATM    3  C6  UNL     1      15.245  22.060  17.130  1.00  0.00     0.247 C 
HETATM    4  O1  UNL     1      14.254  22.898  17.105  1.00  0.00    -0.271 OA
ENDROOT
BRANCH   1   5
HETATM    5  C5  UNL     1      13.833  20.727  15.476  1.00  0.00     0.156 C 
BRANCH   5   6
HETATM    6  C4  UNL     1      14.454  20.137  14.221  1.00  0.00     0.214 C 
BRANCH   6   7
HETATM    7  C2  UNL     1      14.185  21.119  13.048  1.00  0.00     0.010 C 
HETATM    8  C1  UNL     1      15.457  21.631  12.438  1.00  0.00     0.011 C 
HETATM    9  C3  UNL     1      13.618  22.373  13.777  1.00  0.00     0.011 C 
ENDBRANCH   6   7
BRANCH   6  10
HETATM   10  N1  UNL     1      13.963  18.880  13.794  1.00  0.00    -0.072 N 
ATOM     11  H13 UNL     1      12.945  18.815  13.806  1.00  0.00     0.274 HD
ATOM     12  H12 UNL     1      14.084  18.712  12.795  1.00  0.00     0.274 HD
ATOM     13  H11 UNL     1      14.423  18.186  14.383  1.00  0.00     0.274 HD
ENDBRANCH   6  10
ENDBRANCH   5   6
BRANCH   5  14
HETATM   14  C22 UNL     1      13.028  19.874  16.331  1.00  0.00     0.061 A 
HETATM   15  C23 UNL     1      11.633  19.805  16.357  1.00  0.00     0.047 A 
HETATM   16  N5  UNL     1      11.319  19.071  17.440  1.00  0.00    -0.298 N 
HETATM   17  N6  UNL     1      12.348  18.664  18.098  1.00  0.00    -0.248 N 
ATOM     18  H5  UNL     1      10.359  18.858  17.713  1.00  0.00     0.187 HD
HETATM   19  C32 UNL     1      13.438  19.151  17.427  1.00  0.00     0.273 A 
HETATM   20  O5  UNL     1      14.572  18.876  17.899  1.00  0.00    -0.266 OA
BRANCH  15  21
HETATM   21  C24 UNL     1      10.674  20.282  15.379  1.00  0.00    -0.006 C 
HETATM   22  C25 UNL     1      10.923  21.567  14.682  1.00  0.00     0.021 C 
HETATM   23  C26 UNL     1       9.321  20.530  16.119  1.00  0.00     0.021 C 
HETATM   24  C27 UNL     1      10.283  19.168  14.380  1.00  0.00     0.021 C 
ENDBRANCH  15  21
BRANCH  17  25
HETATM   25  C28 UNL     1      12.307  17.866  19.306  1.00  0.00     0.046 C 
HETATM   26  C29 UNL     1      12.813  18.677  20.501  1.00  0.00     0.040 C 
HETATM   27  C30 UNL     1      13.195  16.644  19.245  1.00  0.00     0.040 C 
HETATM   28  C31 UNL     1      10.900  17.326  19.559  1.00  0.00     0.040 C 
ENDBRANCH  17  25
ENDBRANCH   5  14
ENDBRANCH   1   5
BRANCH   3  29
HETATM   29  C7  UNL     1      16.397  22.384  17.967  1.00  0.00     0.125 C 
HETATM   30  C19 UNL     1      17.218  21.129  18.287  1.00  0.00     0.042 C 
HETATM   31  C20 UNL     1      16.456  20.981  19.576  1.00  0.00     0.006 C 
HETATM   32  C21 UNL     1      15.915  22.363  19.423  1.00  0.00     0.042 C 
BRANCH  29  33
HETATM   33  N3  UNL     1      17.173  23.511  17.621  1.00  0.00    -0.274 N 
BRANCH  33  34
HETATM   34  C8  UNL     1      17.817  24.263  18.629  1.00  0.00     0.143 C 
BRANCH  34  35
HETATM   35  C9  UNL     1      19.189  23.743  19.049  1.00  0.00     0.004 C 
HETATM   36  C10 UNL     1      20.306  24.703  18.814  1.00  0.00     0.006 C 
HETATM   37  C11 UNL     1      21.476  24.198  19.674  1.00  0.00     0.000 C 
HETATM   38  C12 UNL     1      21.216  24.478  21.147  1.00  0.00     0.000 C 
HETATM   39  C13 UNL     1      19.729  24.470  21.386  1.00  0.00     0.000 C 
HETATM   40  C14 UNL     1      19.087  23.415  20.542  1.00  0.00     0.006 C 
ENDBRANCH  34  35
ENDBRANCH  33  34
BRANCH  33  41
HETATM   41  S1  UNL     1      18.070  23.317  16.189  1.00  0.00     0.323 S 
HETATM   42  O2  UNL     1      19.014  22.175  16.312  1.00  0.00    -0.182 OA
HETATM   43  O3  UNL     1      17.034  22.790  15.135  1.00  0.00    -0.182 OA
BRANCH  41  44
HETATM   44  N4  UNL     1      18.854  24.655  15.569  1.00  0.00    -0.270 N 
HETATM   45  C15 UNL     1      18.259  25.502  14.620  1.00  0.00     0.103 C 
HETATM   46  C16 UNL     1      19.293  26.363  13.895  1.00  0.00     0.213 C 
HETATM   47  O4  UNL     1      20.190  26.827  14.855  1.00  0.00    -0.385 OA
HETATM   48  C17 UNL     1      20.995  25.782  15.243  1.00  0.00     0.189 C 
HETATM   49  C18 UNL     1      20.247  24.463  15.343  1.00  0.00     0.168 C 
ENDBRANCH  41  44
ENDBRANCH  33  41
ENDBRANCH  29  33
ENDBRANCH   3  29
TORSDOF 13
ENDMDL
MODEL 4
REMARK VINA RESULT: -8.383331950      8.840     13.775
REMARK  13 active torsions:
REMARK  status: ('A' for Active; 'I' for Inactive)
REMARK    1  A    between atoms: C2_2  and  C4_4 
REMARK    2  A    between atoms: C4_4  and  N1_5 
REMARK    3  A    between atoms: C4_4  and  C5_9 
REMARK    4  A    between atoms: C5_9  and  N2_10 
REMARK    5  A    between atoms: C5_9  and  C22_35 
REMARK       I    between atoms: N2_10  and  C6_12 
REMARK    6  A    between atoms: C6_12  and  C7_14 
REMARK    7  A    between atoms: C7_14  and  N3_15 
REMARK    8  A    between atoms: N3_15  and  C8_16 
REMARK    9  A    between atoms: N3_15  and  S1_23 
REMARK   10  A    between atoms: C8_16  and  C9_17 
REMARK   11  A    between atoms: S1_23  and  N4_26 
REMARK   12  A    between atoms: C23_36  and  C24_37 
REMARK   13  A    between atoms: N6_43  and  C28_44 
ROOT
HETATM    1  N2  UNL     1      11.496  18.036  14.888  1.00  0.00    -0.348 N 
ATOM      2  H2  UNL     1      11.857  17.434  15.628  1.00  0.00     0.163 HD
HETATM    3  C6  UNL     1      10.931  17.473  13.752  1.00  0.00     0.247 C 
HETATM    4  O1  UNL     1      10.504  18.306  12.852  1.00  0.00    -0.271 OA
ENDROOT
BRANCH   1   5
HETATM    5  C5  UNL     1      11.578  19.580  15.036  1.00  0.00     0.156 C 
BRANCH   5   6
HETATM    6  C4  UNL     1      10.115  19.896  15.294  1.00  0.00     0.214 C 
BRANCH   6   7
HETATM    7  C2  UNL     1       9.909  21.420  15.072  1.00  0.00     0.010 C 
HETATM    8  C1  UNL     1       9.006  22.023  16.107  1.00  0.00     0.011 C 
HETATM    9  C3  UNL     1       9.037  21.460  13.782  1.00  0.00     0.011 C 
ENDBRANCH   6   7
BRANCH   6  10
HETATM   10  N1  UNL     1       9.621  19.624  16.593  1.00  0.00    -0.072 N 
ATOM     11  H13 UNL     1       8.649  19.314  16.603  1.00  0.00     0.274 HD
ATOM     12  H12 UNL     1      10.021  18.786  17.014  1.00  0.00     0.274 HD
ATOM     13  H11 UNL     1       9.785  20.471  17.136  1.00  0.00     0.274 HD
ENDBRANCH   6  10
ENDBRANCH   5   6
BRANCH   5  14
HETATM   14  C22 UNL     1      12.532  19.725  16.121  1.00  0.00     0.061 A 
HETATM   15  C23 UNL     1      13.757  20.396  16.064  1.00  0.00     0.047 A 
HETATM   16  N5  UNL     1      14.403  20.084  17.201  1.00  0.00    -0.298 N 
HETATM   17  N6  UNL     1      13.732  19.301  17.972  1.00  0.00    -0.248 N 
ATOM     18  H5  UNL     1      15.333  20.434  17.432  1.00  0.00     0.187 HD
HETATM   19  C32 UNL     1      12.551  19.057  17.322  1.00  0.00     0.273 A 
HETATM   20  O5  UNL     1      11.725  18.300  17.898  1.00  0.00    -0.266 OA
BRANCH  15  21
HETATM   21  C24 UNL     1      14.232  21.351  15.081  1.00  0.00    -0.006 C 
HETATM   22  C25 UNL     1      14.410  20.922  13.673  1.00  0.00     0.021 C 
HETATM   23  C26 UNL     1      15.669  21.796  15.505  1.00  0.00     0.021 C 
HETATM   24  C27 UNL     1      13.456  22.686  15.167  1.00  0.00     0.021 C 
ENDBRANCH  15  21
BRANCH  17  25
HETATM   25  C28 UNL     1      14.185  18.797  19.253  1.00  0.00     0.046 C 
HETATM   26  C29 UNL     1      14.871  17.440  19.082  1.00  0.00     0.040 C 
HETATM   27  C30 UNL     1      13.058  18.558  20.232  1.00  0.00     0.040 C 
HETATM   28  C31 UNL     1      15.107  19.803  19.942  1.00  0.00     0.040 C 
ENDBRANCH  17  25
ENDBRANCH   5  14
ENDBRANCH   1   5
BRANCH   3  29
HETATM   29  C7  UNL     1      10.771  16.044  13.495  1.00  0.00     0.125 C 
HETATM   30  C19 UNL     1      12.110  15.308  13.614  1.00  0.00     0.042 C 
HETATM   31  C20 UNL     1      12.298  15.447  12.128  1.00  0.00     0.006 C 
HETATM   32  C21 UNL     1      10.869  15.846  11.978  1.00  0.00     0.042 C 
BRANCH  29  33
HETATM   33  N3  UNL     1       9.687  15.378  14.106  1.00  0.00    -0.274 N 
BRANCH  33  34
HETATM   34  C8  UNL     1       9.032  14.325  13.430  1.00  0.00     0.143 C 
BRANCH  34  35
HETATM   35  C9  UNL     1       7.529  14.511  13.240  1.00  0.00     0.004 C 
HETATM   36  C10 UNL     1       7.162  15.539  12.225  1.00  0.00     0.006 C 
HETATM   37  C11 UNL     1       5.690  15.270  11.873  1.00  0.00     0.000 C 
HETATM   38  C12 UNL     1       5.566  14.020  11.015  1.00  0.00     0.000 C 
HETATM   39  C13 UNL     1       6.695  13.084  11.357  1.00  0.00     0.000 C 
HETATM   40  C14 UNL     1       6.974  13.145  12.825  1.00  0.00     0.006 C 
ENDBRANCH  34  35
ENDBRANCH  33  34
BRANCH  33  41
HETATM   41  S1  UNL     1       9.877  15.144  15.781  1.00  0.00     0.323 S 
HETATM   42  O2  UNL     1      11.315  15.002  16.131  1.00  0.00    -0.182 OA
HETATM   43  O3  UNL     1       9.507  16.528  16.423  1.00  0.00    -0.182 OA
BRANCH  41  44
HETATM   44  N4  UNL     1       8.978  13.940  16.511  1.00  0.00    -0.270 N 
HETATM   45  C15 UNL     1       7.857  14.218  17.309  1.00  0.00     0.103 C 
HETATM   46  C16 UNL     1       7.483  13.034  18.200  1.00  0.00     0.213 C 
HETATM   47  O4  UNL     1       7.581  11.884  17.420  1.00  0.00    -0.385 OA
HETATM   48  C17 UNL     1       8.911  11.604  17.216  1.00  0.00     0.189 C 
HETATM   49  C18 UNL     1       9.753  12.852  17.004  1.00  0.00     0.168 C 
ENDBRANCH  41  44
ENDBRANCH  33  41
ENDBRANCH  29  33
ENDBRANCH   3  29
TORSDOF 13
ENDMDL
MODEL 5
REMARK VINA RESULT: -8.344227310      8.800     13.679
REMARK  13 active torsions:
REMARK  status: ('A' for Active; 'I' for Inactive)
REMARK    1  A    between atoms: C2_2  and  C4_4 
REMARK    2  A    between atoms: C4_4  and  N1_5 
REMARK    3  A    between atoms: C4_4  and  C5_9 
REMARK    4  A    between atoms: C5_9  and  N2_10 
REMARK    5  A    between atoms: C5_9  and  C22_35 
REMARK       I    between atoms: N2_10  and  C6_12 
REMARK    6  A    between atoms: C6_12  and  C7_14 
REMARK    7  A    between atoms: C7_14  and  N3_15 
REMARK    8  A    between atoms: N3_15  and  C8_16 
REMARK    9  A    between atoms: N3_15  and  S1_23 
REMARK   10  A    between atoms: C8_16  and  C9_17 
REMARK   11  A    between atoms: S1_23  and  N4_26 
REMARK   12  A    between atoms: C23_36  and  C24_37 
REMARK   13  A    between atoms: N6_43  and  C28_44 
ROOT
HETATM    1  N2  UNL     1      11.560  18.099  14.847  1.00  0.00    -0.348 N 
ATOM      2  H2  UNL     1      11.923  17.485  15.576  1.00  0.00     0.163 HD
HETATM    3  C6  UNL     1      11.024  17.557  13.687  1.00  0.00     0.247 C 
HETATM    4  O1  UNL     1      10.594  18.405  12.804  1.00  0.00    -0.271 OA
ENDROOT
BRANCH   1   5
HETATM    5  C5  UNL     1      11.609  19.640  15.038  1.00  0.00     0.156 C 
BRANCH   5   6
HETATM    6  C4  UNL     1      10.137  19.918  15.295  1.00  0.00     0.214 C 
BRANCH   6   7
HETATM    7  C2  UNL     1       9.892  21.436  15.074  1.00  0.00     0.010 C 
HETATM    8  C1  UNL     1       8.961  22.011  16.099  1.00  0.00     0.011 C 
HETATM    9  C3  UNL     1       9.036  21.456  13.773  1.00  0.00     0.011 C 
ENDBRANCH   6   7
BRANCH   6  10
HETATM   10  N1  UNL     1       9.650  19.633  16.593  1.00  0.00    -0.072 N 
ATOM     11  H13 UNL     1       9.769  20.403  17.252  1.00  0.00     0.274 HD
ATOM     12  H12 UNL     1       8.633  19.584  16.645  1.00  0.00     0.274 HD
ATOM     13  H11 UNL     1      10.115  18.773  16.883  1.00  0.00     0.274 HD
ENDBRANCH   6  10
ENDBRANCH   5   6
BRANCH   5  14
HETATM   14  C22 UNL     1      12.553  19.775  16.133  1.00  0.00     0.061 A 
HETATM   15  C23 UNL     1      13.768  20.465  16.100  1.00  0.00     0.047 A 
HETATM   16  N5  UNL     1      14.410  20.137  17.235  1.00  0.00    -0.298 N 
HETATM   17  N6  UNL     1      13.746  19.327  17.983  1.00  0.00    -0.248 N 
ATOM     18  H5  UNL     1      15.334  20.496  17.480  1.00  0.00     0.187 HD
HETATM   19  C32 UNL     1      12.573  19.081  17.319  1.00  0.00     0.273 A 
HETATM   20  O5  UNL     1      11.755  18.299  17.872  1.00  0.00    -0.266 OA
BRANCH  15  21
HETATM   21  C24 UNL     1      14.236  21.449  15.143  1.00  0.00    -0.006 C 
HETATM   22  C25 UNL     1      14.476  21.042  13.737  1.00  0.00     0.021 C 
HETATM   23  C26 UNL     1      15.639  21.945  15.617  1.00  0.00     0.021 C 
HETATM   24  C27 UNL     1      13.404  22.750  15.216  1.00  0.00     0.021 C 
ENDBRANCH  15  21
BRANCH  17  25
HETATM   25  C28 UNL     1      14.197  18.802  19.256  1.00  0.00     0.046 C 
HETATM   26  C29 UNL     1      14.904  17.458  19.060  1.00  0.00     0.040 C 
HETATM   27  C30 UNL     1      13.067  18.524  20.222  1.00  0.00     0.040 C 
HETATM   28  C31 UNL     1      15.100  19.804  19.973  1.00  0.00     0.040 C 
ENDBRANCH  17  25
ENDBRANCH   5  14
ENDBRANCH   1   5
BRANCH   3  29
HETATM   29  C7  UNL     1      10.897  16.133  13.389  1.00  0.00     0.125 C 
HETATM   30  C19 UNL     1      12.249  15.420  13.509  1.00  0.00     0.042 C 
HETATM   31  C20 UNL     1      12.457  15.604  12.030  1.00  0.00     0.006 C 
HETATM   32  C21 UNL     1      11.022  15.978  11.869  1.00  0.00     0.042 C 
BRANCH  29  33
HETATM   33  N3  UNL     1       9.818  15.428  13.965  1.00  0.00    -0.274 N 
BRANCH  33  34
HETATM   34  C8  UNL     1       9.231  14.346  13.273  1.00  0.00     0.143 C 
BRANCH  34  35
HETATM   35  C9  UNL     1      10.009  13.034  13.338  1.00  0.00     0.004 C 
HETATM   36  C10 UNL     1       9.251  11.901  13.939  1.00  0.00     0.006 C 
HETATM   37  C11 UNL     1      10.005  10.628  13.523  1.00  0.00     0.000 C 
HETATM   38  C12 UNL     1       9.772  10.327  12.049  1.00  0.00     0.000 C 
HETATM   39  C13 UNL     1       9.529  11.625  11.323  1.00  0.00     0.000 C 
HETATM   40  C14 UNL     1      10.402  12.695  11.897  1.00  0.00     0.006 C 
ENDBRANCH  34  35
ENDBRANCH  33  34
BRANCH  33  41
HETATM   41  S1  UNL     1       9.955  15.213  15.647  1.00  0.00     0.323 S 
HETATM   42  O2  UNL     1      11.375  15.014  16.037  1.00  0.00    -0.182 OA
HETATM   43  O3  UNL     1       9.628  16.621  16.259  1.00  0.00    -0.182 OA
BRANCH  41  44
HETATM   44  N4  UNL     1       8.986  14.061  16.370  1.00  0.00    -0.270 N 
HETATM   45  C15 UNL     1       7.648  14.312  16.714  1.00  0.00     0.103 C 
HETATM   46  C16 UNL     1       7.120  13.301  17.732  1.00  0.00     0.213 C 
HETATM   47  O4  UNL     1       7.568  12.043  17.333  1.00  0.00    -0.385 OA
HETATM   48  C17 UNL     1       8.914  11.952  17.599  1.00  0.00     0.189 C 
HETATM   49  C18 UNL     1       9.660  13.248  17.326  1.00  0.00     0.168 C 
ENDBRANCH  41  44
ENDBRANCH  33  41
ENDBRANCH  29  33
ENDBRANCH   3  29
TORSDOF 13
ENDMDL
