MODEL 1
REMARK VINA RESULT: -9.381614695      0.000      0.000
REMARK  14 active torsions:
REMARK  status: ('A' for Active; 'I' for Inactive)
REMARK    1  A    between atoms: O1_2  and  C2_3 
REMARK    2  A    between atoms: C4_5  and  C5_6 
REMARK    3  A    between atoms: N1_7  and  N2_9 
REMARK    4  A    between atoms: N2_9  and  C6_11 
REMARK    5  A    between atoms: C7_14  and  N4_15 
REMARK    6  A    between atoms: N4_15  and  C8_17 
REMARK    7  A    between atoms: C8_17  and  C9_18 
REMARK    8  A    between atoms: C9_18  and  C10_19 
REMARK    9  A    between atoms: C10_19  and  N5_20 
REMARK   10  A    between atoms: C11_26  and  N7_27 
REMARK   11  A    between atoms: N7_27  and  C12_29 
REMARK   12  A    between atoms: C12_29  and  C13_30 
REMARK   13  A    between atoms: C13_30  and  C14_31 
REMARK   14  A    between atoms: C14_31  and  C15_32 
ROOT
HETATM    1  C6  UNL     1      18.746  24.533  19.211  1.00  0.00     0.726 A 
HETATM    2  N3  UNL     1      19.172  24.986  18.023  1.00  0.00    -0.020 N 
ATOM      3  H3  UNL     1      20.171  25.125  17.870  1.00  0.00     0.203 HD
HETATM    4  C7  UNL     1      18.313  25.260  17.033  1.00  0.00     0.707 A 
HETATM    5  N6  UNL     1      16.986  25.062  17.274  1.00  0.00    -0.022 N 
ATOM      6  H6  UNL     1      16.313  25.264  16.535  1.00  0.00     0.203 HD
HETATM    7  C11 UNL     1      16.537  24.608  18.459  1.00  0.00     0.707 A 
HETATM    8  N8  UNL     1      17.419  24.348  19.416  1.00  0.00    -0.020 N 
ATOM      9  H8  UNL     1      17.093  24.005  20.320  1.00  0.00     0.203 HD
ENDROOT
BRANCH   7  10
HETATM   10  N7  UNL     1      15.292  24.437  18.646  1.00  0.00    -0.225 N 
ATOM     11  H7  UNL     1      14.790  25.131  19.201  1.00  0.00     0.177 HD
BRANCH  10  12
HETATM   12  C12 UNL     1      14.552  23.325  18.121  1.00  0.00     0.138 C 
BRANCH  12  13
HETATM   13  C13 UNL     1      14.846  22.074  18.969  1.00  0.00     0.025 C 
BRANCH  13  14
HETATM   14  C14 UNL     1      15.115  20.889  18.104  1.00  0.00     0.041 C 
BRANCH  14  15
HETATM   15  C15 UNL     1      13.797  20.378  17.522  1.00  0.00    -0.044 A 
HETATM   16  C16 UNL     1      12.913  19.691  18.325  1.00  0.00     0.057 A 
HETATM   17  S1  UNL     1      11.642  19.303  17.268  1.00  0.00    -0.105 SA
HETATM   18  C17 UNL     1      12.235  20.005  15.844  1.00  0.00    -0.003 A 
HETATM   19  C18 UNL     1      13.438  20.540  16.227  1.00  0.00    -0.037 A 
HETATM   20  C22 UNL     1      11.717  20.109  14.442  1.00  0.00    -0.013 C 
HETATM   21  C19 UNL     1      14.203  21.271  15.125  1.00  0.00     0.040 C 
HETATM   22  C20 UNL     1      14.172  20.375  13.909  1.00  0.00     0.006 C 
HETATM   23  C21 UNL     1      12.777  20.221  13.410  1.00  0.00     0.014 C 
HETATM   24  C23 UNL     1      10.859  21.360  14.410  1.00  0.00     0.020 C 
HETATM   25  C24 UNL     1      10.826  18.903  14.178  1.00  0.00     0.020 C 
ENDBRANCH  14  15
ENDBRANCH  13  14
ENDBRANCH  12  13
ENDBRANCH  10  12
ENDBRANCH   7  10
BRANCH   4  26
HETATM   26  N4  UNL     1      18.672  25.695  15.866  1.00  0.00    -0.225 N 
ATOM     27  H4  UNL     1      18.217  26.517  15.469  1.00  0.00     0.177 HD
BRANCH  26  28
HETATM   28  C8  UNL     1      19.712  25.025  15.127  1.00  0.00     0.139 C 
BRANCH  28  29
HETATM   29  C9  UNL     1      20.022  25.730  13.825  1.00  0.00     0.047 C 
BRANCH  29  30
HETATM   30  C10 UNL     1      18.965  26.751  13.479  1.00  0.00     0.231 C 
BRANCH  30  31
HETATM   31  N5  UNL     1      19.583  28.027  13.153  1.00  0.00    -0.079 N 
ATOM     32  H53 UNL     1      18.974  28.814  13.376  1.00  0.00     0.274 HD
ATOM     33  H52 UNL     1      20.352  28.249  13.784  1.00  0.00     0.274 HD
ATOM     34  H51 UNL     1      19.877  28.038  12.176  1.00  0.00     0.274 HD
ENDBRANCH  30  31
ENDBRANCH  29  30
ENDBRANCH  28  29
ENDBRANCH  26  28
ENDBRANCH   4  26
BRANCH   1  35
HETATM   35  N2  UNL     1      19.583  24.276  20.154  1.00  0.00    -0.131 N 
ATOM     36  H2  UNL     1      19.923  23.323  20.279  1.00  0.00     0.205 HD
BRANCH  35  37
HETATM   37  N1  UNL     1      20.017  25.251  20.984  1.00  0.00    -0.297 N 
HETATM   38  C5  UNL     1      20.973  26.028  21.036  1.00  0.00     0.120 C 
ATOM     39  H1  UNL     1      19.388  25.378  21.776  1.00  0.00     0.186 HD
BRANCH  38  40
HETATM   40  C4  UNL     1      22.073  26.159  20.108  1.00  0.00     0.001 A 
HETATM   41  C3  UNL     1      22.061  26.957  18.983  1.00  0.00     0.052 A 
HETATM   42  C2  UNL     1      23.153  27.050  18.112  1.00  0.00     0.086 A 
HETATM   43  C27 UNL     1      24.297  26.333  18.355  1.00  0.00     0.045 A 
HETATM   44  C26 UNL     1      24.314  25.543  19.464  1.00  0.00     0.042 A 
HETATM   45 BR2  UNL     1      25.820  26.413  17.211  1.00  0.00    -0.048 Br
HETATM   46  C25 UNL     1      23.263  25.444  20.317  1.00  0.00     0.024 A 
HETATM   47 BR1  UNL     1      23.379  24.309  21.848  1.00  0.00    -0.050 Br
BRANCH  42  48
HETATM   48  O1  UNL     1      23.062  27.871  17.010  1.00  0.00    -0.355 OA
HETATM   49  C1  UNL     1      21.978  27.895  16.129  1.00  0.00     0.210 C 
ENDBRANCH  42  48
ENDBRANCH  38  40
ENDBRANCH  35  37
ENDBRANCH   1  35
TORSDOF 14
ENDMDL
MODEL 2
REMARK VINA RESULT: -9.242737107      6.124     11.706
REMARK  14 active torsions:
REMARK  status: ('A' for Active; 'I' for Inactive)
REMARK    1  A    between atoms: O1_2  and  C2_3 
REMARK    2  A    between atoms: C4_5  and  C5_6 
REMARK    3  A    between atoms: N1_7  and  N2_9 
REMARK    4  A    between atoms: N2_9  and  C6_11 
REMARK    5  A    between atoms: C7_14  and  N4_15 
REMARK    6  A    between atoms: N4_15  and  C8_17 
REMARK    7  A    between atoms: C8_17  and  C9_18 
REMARK    8  A    between atoms: C9_18  and  C10_19 
REMARK    9  A    between atoms: C10_19  and  N5_20 
REMARK   10  A    between atoms: C11_26  and  N7_27 
REMARK   11  A    between atoms: N7_27  and  C12_29 
REMARK   12  A    between atoms: C12_29  and  C13_30 
REMARK   13  A    between atoms: C13_30  and  C14_31 
REMARK   14  A    between atoms: C14_31  and  C15_32 
ROOT
HETATM    1  C6  UNL     1      13.031  20.565  16.647  1.00  0.00     0.726 A 
HETATM    2  N3  UNL     1      13.439  19.379  17.119  1.00  0.00    -0.020 N 
ATOM      3  H3  UNL     1      13.088  18.523  16.690  1.00  0.00     0.203 HD
HETATM    4  C7  UNL     1      14.299  19.295  18.142  1.00  0.00     0.707 A 
HETATM    5  N6  UNL     1      14.747  20.461  18.690  1.00  0.00    -0.022 N 
ATOM      6  H6  UNL     1      15.402  20.421  19.470  1.00  0.00     0.203 HD
HETATM    7  C11 UNL     1      14.349  21.661  18.231  1.00  0.00     0.707 A 
HETATM    8  N8  UNL     1      13.496  21.704  17.216  1.00  0.00    -0.020 N 
ATOM      9  H8  UNL     1      13.186  22.608  16.858  1.00  0.00     0.203 HD
ENDROOT
BRANCH   7  10
HETATM   10  N7  UNL     1      14.788  22.726  18.768  1.00  0.00    -0.225 N 
ATOM     11  H7  UNL     1      14.353  23.042  19.635  1.00  0.00     0.177 HD
BRANCH  10  12
HETATM   12  C12 UNL     1      15.862  23.509  18.226  1.00  0.00     0.138 C 
BRANCH  12  13
HETATM   13  C13 UNL     1      17.036  23.522  19.222  1.00  0.00     0.025 C 
BRANCH  13  14
HETATM   14  C14 UNL     1      18.258  22.912  18.622  1.00  0.00     0.041 C 
BRANCH  14  15
HETATM   15  C15 UNL     1      19.179  24.022  18.113  1.00  0.00    -0.044 A 
HETATM   16  C16 UNL     1      20.063  24.629  18.976  1.00  0.00     0.057 A 
HETATM   17  S1  UNL     1      20.831  25.789  18.002  1.00  0.00    -0.105 SA
HETATM   18  C17 UNL     1      20.035  25.494  16.534  1.00  0.00    -0.003 A 
HETATM   19  C18 UNL     1      19.168  24.476  16.837  1.00  0.00    -0.037 A 
HETATM   20  C22 UNL     1      20.126  26.094  15.164  1.00  0.00    -0.013 C 
HETATM   21  C19 UNL     1      18.316  23.981  15.671  1.00  0.00     0.040 C 
HETATM   22  C20 UNL     1      17.766  25.209  14.984  1.00  0.00     0.006 C 
HETATM   23  C21 UNL     1      18.870  26.006  14.379  1.00  0.00     0.014 C 
HETATM   24  C23 UNL     1      21.215  25.320  14.445  1.00  0.00     0.020 C 
HETATM   25  C24 UNL     1      20.575  27.541  15.311  1.00  0.00     0.020 C 
ENDBRANCH  14  15
ENDBRANCH  13  14
ENDBRANCH  12  13
ENDBRANCH  10  12
ENDBRANCH   7  10
BRANCH   4  26
HETATM   26  N4  UNL     1      14.728  18.174  18.634  1.00  0.00    -0.225 N 
ATOM     27  H4  UNL     1      15.712  17.924  18.542  1.00  0.00     0.177 HD
BRANCH  26  28
HETATM   28  C8  UNL     1      13.821  17.282  19.311  1.00  0.00     0.139 C 
BRANCH  28  29
HETATM   29  C9  UNL     1      13.485  17.771  20.702  1.00  0.00     0.047 C 
BRANCH  29  30
HETATM   30  C10 UNL     1      12.015  18.089  20.842  1.00  0.00     0.231 C 
BRANCH  30  31
HETATM   31  N5  UNL     1      11.216  16.900  20.583  1.00  0.00    -0.079 N 
ATOM     32  H53 UNL     1      10.784  16.926  19.660  1.00  0.00     0.274 HD
ATOM     33  H52 UNL     1      11.797  16.072  20.455  1.00  0.00     0.274 HD
ATOM     34  H51 UNL     1      10.526  16.770  21.323  1.00  0.00     0.274 HD
ENDBRANCH  30  31
ENDBRANCH  29  30
ENDBRANCH  28  29
ENDBRANCH  26  28
ENDBRANCH   4  26
BRANCH   1  35
HETATM   35  N2  UNL     1      12.203  20.632  15.664  1.00  0.00    -0.131 N 
ATOM     36  H2  UNL     1      12.558  20.689  14.710  1.00  0.00     0.205 HD
BRANCH  35  37
HETATM   37  N1  UNL     1      10.867  20.627  15.878  1.00  0.00    -0.297 N 
HETATM   38  C5  UNL     1       9.977  19.781  15.989  1.00  0.00     0.120 C 
ATOM     39  H1  UNL     1      10.500  21.573  15.971  1.00  0.00     0.186 HD
BRANCH  38  40
HETATM   40  C4  UNL     1      10.094  18.342  15.918  1.00  0.00     0.001 A 
HETATM   41  C3  UNL     1      10.242  17.512  17.009  1.00  0.00     0.052 A 
HETATM   42  C2  UNL     1      10.352  16.121  16.889  1.00  0.00     0.086 A 
HETATM   43  C27 UNL     1      10.317  15.527  15.653  1.00  0.00     0.045 A 
HETATM   44  C26 UNL     1      10.171  16.342  14.573  1.00  0.00     0.042 A 
HETATM   45 BR2  UNL     1      10.461  13.640  15.418  1.00  0.00    -0.048 Br
HETATM   46  C25 UNL     1      10.062  17.692  14.675  1.00  0.00     0.024 A 
HETATM   47 BR1  UNL     1       9.862  18.755  13.102  1.00  0.00    -0.050 Br
BRANCH  42  48
HETATM   48  O1  UNL     1      10.498  15.361  18.028  1.00  0.00    -0.355 OA
HETATM   49  C1  UNL     1       9.458  14.672  18.657  1.00  0.00     0.210 C 
ENDBRANCH  42  48
ENDBRANCH  38  40
ENDBRANCH  35  37
ENDBRANCH   1  35
TORSDOF 14
ENDMDL
MODEL 3
REMARK VINA RESULT: -9.241466088      5.243     10.420
REMARK  14 active torsions:
REMARK  status: ('A' for Active; 'I' for Inactive)
REMARK    1  A    between atoms: O1_2  and  C2_3 
REMARK    2  A    between atoms: C4_5  and  C5_6 
REMARK    3  A    between atoms: N1_7  and  N2_9 
REMARK    4  A    between atoms: N2_9  and  C6_11 
REMARK    5  A    between atoms: C7_14  and  N4_15 
REMARK    6  A    between atoms: N4_15  and  C8_17 
REMARK    7  A    between atoms: C8_17  and  C9_18 
REMARK    8  A    between atoms: C9_18  and  C10_19 
REMARK    9  A    between atoms: C10_19  and  N5_20 
REMARK   10  A    between atoms: C11_26  and  N7_27 
REMARK   11  A    between atoms: N7_27  and  C12_29 
REMARK   12  A    between atoms: C12_29  and  C13_30 
REMARK   13  A    between atoms: C13_30  and  C14_31 
REMARK   14  A    between atoms: C14_31  and  C15_32 
ROOT
HETATM    1  C6  UNL     1      14.461  22.015  17.590  1.00  0.00     0.726 A 
HETATM    2  N3  UNL     1      13.972  20.776  17.743  1.00  0.00    -0.020 N 
ATOM      3  H3  UNL     1      12.980  20.607  17.574  1.00  0.00     0.203 HD
HETATM    4  C7  UNL     1      14.757  19.758  18.115  1.00  0.00     0.707 A 
HETATM    5  N6  UNL     1      16.077  20.024  18.333  1.00  0.00    -0.022 N 
ATOM      6  H6  UNL     1      16.694  19.264  18.616  1.00  0.00     0.203 HD
HETATM    7  C11 UNL     1      16.588  21.260  18.184  1.00  0.00     0.707 A 
HETATM    8  N8  UNL     1      15.778  22.244  17.815  1.00  0.00    -0.020 N 
ATOM      9  H8  UNL     1      16.152  23.186  17.699  1.00  0.00     0.203 HD
ENDROOT
BRANCH   7  10
HETATM   10  N7  UNL     1      17.823  21.468  18.397  1.00  0.00    -0.225 N 
ATOM     11  H7  UNL     1      18.451  21.501  17.593  1.00  0.00     0.177 HD
BRANCH  10  12
HETATM   12  C12 UNL     1      18.386  21.660  19.704  1.00  0.00     0.138 C 
BRANCH  12  13
HETATM   13  C13 UNL     1      19.346  22.864  19.672  1.00  0.00     0.025 C 
BRANCH  13  14
HETATM   14  C14 UNL     1      18.640  24.104  19.239  1.00  0.00     0.041 C 
BRANCH  14  15
HETATM   15  C15 UNL     1      19.564  24.923  18.336  1.00  0.00    -0.044 A 
HETATM   16  C16 UNL     1      20.599  25.644  18.888  1.00  0.00     0.057 A 
HETATM   17  S1  UNL     1      21.313  26.399  17.544  1.00  0.00    -0.105 SA
HETATM   18  C17 UNL     1      20.307  25.801  16.318  1.00  0.00    -0.003 A 
HETATM   19  C18 UNL     1      19.416  25.007  16.993  1.00  0.00    -0.037 A 
HETATM   20  C22 UNL     1      20.256  25.985  14.832  1.00  0.00    -0.013 C 
HETATM   21  C19 UNL     1      18.380  24.305  16.117  1.00  0.00     0.040 C 
HETATM   22  C20 UNL     1      17.835  25.349  15.170  1.00  0.00     0.006 C 
HETATM   23  C21 UNL     1      18.903  25.822  14.246  1.00  0.00     0.014 C 
HETATM   24  C23 UNL     1      21.179  24.929  14.252  1.00  0.00     0.020 C 
HETATM   25  C24 UNL     1      20.828  27.359  14.508  1.00  0.00     0.020 C 
ENDBRANCH  14  15
ENDBRANCH  13  14
ENDBRANCH  12  13
ENDBRANCH  10  12
ENDBRANCH   7  10
BRANCH   4  26
HETATM   26  N4  UNL     1      14.336  18.542  18.273  1.00  0.00    -0.225 N 
ATOM     27  H4  UNL     1      14.855  17.767  17.861  1.00  0.00     0.177 HD
BRANCH  26  28
HETATM   28  C8  UNL     1      13.138  18.281  19.030  1.00  0.00     0.139 C 
BRANCH  28  29
HETATM   29  C9  UNL     1      13.431  18.103  20.504  1.00  0.00     0.047 C 
BRANCH  29  30
HETATM   30  C10 UNL     1      12.331  17.341  21.204  1.00  0.00     0.231 C 
BRANCH  30  31
HETATM   31  N5  UNL     1      11.211  17.129  20.299  1.00  0.00    -0.079 N 
ATOM     32  H53 UNL     1      11.493  17.198  19.322  1.00  0.00     0.274 HD
ATOM     33  H52 UNL     1      10.901  16.158  20.299  1.00  0.00     0.274 HD
ATOM     34  H51 UNL     1      10.451  17.772  20.522  1.00  0.00     0.274 HD
ENDBRANCH  30  31
ENDBRANCH  29  30
ENDBRANCH  28  29
ENDBRANCH  26  28
ENDBRANCH   4  26
BRANCH   1  35
HETATM   35  N2  UNL     1      13.694  22.986  17.234  1.00  0.00    -0.131 N 
ATOM     36  H2  UNL     1      13.081  23.420  17.923  1.00  0.00     0.205 HD
BRANCH  35  37
HETATM   37  N1  UNL     1      13.688  23.437  15.960  1.00  0.00    -0.297 N 
HETATM   38  C5  UNL     1      13.362  23.003  14.853  1.00  0.00     0.120 C 
ATOM     39  H1  UNL     1      14.048  24.389  15.897  1.00  0.00     0.186 HD
BRANCH  38  40
HETATM   40  C4  UNL     1      12.812  21.707  14.525  1.00  0.00     0.001 A 
HETATM   41  C3  UNL     1      11.621  21.213  15.013  1.00  0.00     0.052 A 
HETATM   42  C2  UNL     1      11.130  19.948  14.666  1.00  0.00     0.086 A 
HETATM   43  C27 UNL     1      11.836  19.141  13.810  1.00  0.00     0.045 A 
HETATM   44  C26 UNL     1      13.013  19.624  13.326  1.00  0.00     0.042 A 
HETATM   45 BR2  UNL     1      11.226  17.409  13.296  1.00  0.00    -0.048 Br
HETATM   46  C25 UNL     1      13.501  20.848  13.653  1.00  0.00     0.024 A 
HETATM   47 BR1  UNL     1      15.162  21.440  12.924  1.00  0.00    -0.050 Br
BRANCH  42  48
HETATM   48  O1  UNL     1       9.931  19.528  15.197  1.00  0.00    -0.355 OA
HETATM   49  C1  UNL     1       9.766  19.047  16.498  1.00  0.00     0.210 C 
ENDBRANCH  42  48
ENDBRANCH  38  40
ENDBRANCH  35  37
ENDBRANCH   1  35
TORSDOF 14
ENDMDL
MODEL 4
REMARK VINA RESULT: -9.198921931      1.791      4.180
REMARK  14 active torsions:
REMARK  status: ('A' for Active; 'I' for Inactive)
REMARK    1  A    between atoms: O1_2  and  C2_3 
REMARK    2  A    between atoms: C4_5  and  C5_6 
REMARK    3  A    between atoms: N1_7  and  N2_9 
REMARK    4  A    between atoms: N2_9  and  C6_11 
REMARK    5  A    between atoms: C7_14  and  N4_15 
REMARK    6  A    between atoms: N4_15  and  C8_17 
REMARK    7  A    between atoms: C8_17  and  C9_18 
REMARK    8  A    between atoms: C9_18  and  C10_19 
REMARK    9  A    between atoms: C10_19  and  N5_20 
REMARK   10  A    between atoms: C11_26  and  N7_27 
REMARK   11  A    between atoms: N7_27  and  C12_29 
REMARK   12  A    between atoms: C12_29  and  C13_30 
REMARK   13  A    between atoms: C13_30  and  C14_31 
REMARK   14  A    between atoms: C14_31  and  C15_32 
ROOT
HETATM    1  C6  UNL     1      18.204  24.393  16.845  1.00  0.00     0.726 A 
HETATM    2  N3  UNL     1      19.045  24.471  17.886  1.00  0.00    -0.020 N 
ATOM      3  H3  UNL     1      20.050  24.506  17.714  1.00  0.00     0.203 HD
HETATM    4  C7  UNL     1      18.594  24.503  19.146  1.00  0.00     0.707 A 
HETATM    5  N6  UNL     1      17.245  24.454  19.336  1.00  0.00    -0.022 N 
ATOM      6  H6  UNL     1      16.878  24.478  20.287  1.00  0.00     0.203 HD
HETATM    7  C11 UNL     1      16.383  24.376  18.306  1.00  0.00     0.707 A 
HETATM    8  N8  UNL     1      16.868  24.345  17.071  1.00  0.00    -0.020 N 
ATOM      9  H8  UNL     1      16.226  24.285  16.280  1.00  0.00     0.203 HD
ENDROOT
BRANCH   7  10
HETATM   10  N7  UNL     1      15.132  24.331  18.523  1.00  0.00    -0.225 N 
ATOM     11  H7  UNL     1      14.684  25.155  18.926  1.00  0.00     0.177 HD
BRANCH  10  12
HETATM   12  C12 UNL     1      14.312  23.188  18.235  1.00  0.00     0.138 C 
BRANCH  12  13
HETATM   13  C13 UNL     1      14.858  21.966  18.997  1.00  0.00     0.025 C 
BRANCH  13  14
HETATM   14  C14 UNL     1      15.117  20.826  18.071  1.00  0.00     0.041 C 
BRANCH  14  15
HETATM   15  C15 UNL     1      13.792  20.341  17.483  1.00  0.00    -0.044 A 
HETATM   16  C16 UNL     1      12.893  19.667  18.280  1.00  0.00     0.057 A 
HETATM   17  S1  UNL     1      11.619  19.306  17.217  1.00  0.00    -0.105 SA
HETATM   18  C17 UNL     1      12.230  20.003  15.798  1.00  0.00    -0.003 A 
HETATM   19  C18 UNL     1      13.440  20.515  16.187  1.00  0.00    -0.037 A 
HETATM   20  C22 UNL     1      11.718  20.121  14.395  1.00  0.00    -0.013 C 
HETATM   21  C19 UNL     1      14.221  21.236  15.090  1.00  0.00     0.040 C 
HETATM   22  C20 UNL     1      14.179  20.345  13.871  1.00  0.00     0.006 C 
HETATM   23  C21 UNL     1      12.783  20.219  13.366  1.00  0.00     0.014 C 
HETATM   24  C23 UNL     1      10.882  21.388  14.364  1.00  0.00     0.020 C 
HETATM   25  C24 UNL     1      10.806  18.932  14.123  1.00  0.00     0.020 C 
ENDBRANCH  14  15
ENDBRANCH  13  14
ENDBRANCH  12  13
ENDBRANCH  10  12
ENDBRANCH   7  10
BRANCH   4  26
HETATM   26  N4  UNL     1      19.364  24.582  20.186  1.00  0.00    -0.225 N 
ATOM     27  H4  UNL     1      19.796  25.473  20.431  1.00  0.00     0.177 HD
BRANCH  26  28
HETATM   28  C8  UNL     1      19.611  23.418  20.999  1.00  0.00     0.139 C 
BRANCH  28  29
HETATM   29  C9  UNL     1      20.921  22.751  20.641  1.00  0.00     0.047 C 
BRANCH  29  30
HETATM   30  C10 UNL     1      22.075  23.723  20.693  1.00  0.00     0.231 C 
BRANCH  30  31
HETATM   31  N5  UNL     1      23.156  23.268  19.833  1.00  0.00    -0.079 N 
ATOM     32  H53 UNL     1      23.874  22.768  20.356  1.00  0.00     0.274 HD
ATOM     33  H52 UNL     1      22.860  22.510  19.219  1.00  0.00     0.274 HD
ATOM     34  H51 UNL     1      23.545  24.053  19.309  1.00  0.00     0.274 HD
ENDBRANCH  30  31
ENDBRANCH  29  30
ENDBRANCH  28  29
ENDBRANCH  26  28
ENDBRANCH   4  26
BRANCH   1  35
HETATM   35  N2  UNL     1      18.651  24.360  15.639  1.00  0.00    -0.131 N 
ATOM     36  H2  UNL     1      19.209  23.564  15.331  1.00  0.00     0.205 HD
BRANCH  35  37
HETATM   37  N1  UNL     1      18.394  25.367  14.773  1.00  0.00    -0.297 N 
HETATM   38  C5  UNL     1      18.955  26.401  14.404  1.00  0.00     0.120 C 
ATOM     39  H1  UNL     1      17.500  25.236  14.301  1.00  0.00     0.186 HD
BRANCH  38  40
HETATM   40  C4  UNL     1      20.228  26.933  14.835  1.00  0.00     0.001 A 
HETATM   41  C3  UNL     1      20.828  26.651  16.044  1.00  0.00     0.052 A 
HETATM   42  C2  UNL     1      22.064  27.193  16.417  1.00  0.00     0.086 A 
HETATM   43  C27 UNL     1      22.733  28.041  15.572  1.00  0.00     0.045 A 
HETATM   44  C26 UNL     1      22.145  28.323  14.377  1.00  0.00     0.042 A 
HETATM   45 BR2  UNL     1      24.419  28.814  16.016  1.00  0.00    -0.048 Br
HETATM   46  C25 UNL     1      20.947  27.804  14.002  1.00  0.00     0.024 A 
HETATM   47 BR1  UNL     1      20.199  28.257  12.305  1.00  0.00    -0.050 Br
BRANCH  42  48
HETATM   48  O1  UNL     1      22.597  26.862  17.643  1.00  0.00    -0.355 OA
HETATM   49  C1  UNL     1      21.974  27.108  18.869  1.00  0.00     0.210 C 
ENDBRANCH  42  48
ENDBRANCH  38  40
ENDBRANCH  35  37
ENDBRANCH   1  35
TORSDOF 14
ENDMDL
MODEL 5
REMARK VINA RESULT: -9.183120672      5.555     10.704
REMARK  14 active torsions:
REMARK  status: ('A' for Active; 'I' for Inactive)
REMARK    1  A    between atoms: O1_2  and  C2_3 
REMARK    2  A    between atoms: C4_5  and  C5_6 
REMARK    3  A    between atoms: N1_7  and  N2_9 
REMARK    4  A    between atoms: N2_9  and  C6_11 
REMARK    5  A    between atoms: C7_14  and  N4_15 
REMARK    6  A    between atoms: N4_15  and  C8_17 
REMARK    7  A    between atoms: C8_17  and  C9_18 
REMARK    8  A    between atoms: C9_18  and  C10_19 
REMARK    9  A    between atoms: C10_19  and  N5_20 
REMARK   10  A    between atoms: C11_26  and  N7_27 
REMARK   11  A    between atoms: N7_27  and  C12_29 
REMARK   12  A    between atoms: C12_29  and  C13_30 
REMARK   13  A    between atoms: C13_30  and  C14_31 
REMARK   14  A    between atoms: C14_31  and  C15_32 
ROOT
HETATM    1  C6  UNL     1      14.127  20.901  17.365  1.00  0.00     0.726 A 
HETATM    2  N3  UNL     1      13.476  21.173  16.225  1.00  0.00    -0.020 N 
ATOM      3  H3  UNL     1      13.102  20.405  15.668  1.00  0.00     0.203 HD
HETATM    4  C7  UNL     1      13.306  22.432  15.803  1.00  0.00     0.707 A 
HETATM    5  N6  UNL     1      13.820  23.433  16.574  1.00  0.00    -0.022 N 
ATOM      6  H6  UNL     1      13.702  24.400  16.272  1.00  0.00     0.203 HD
HETATM    7  C11 UNL     1      14.477  23.182  17.721  1.00  0.00     0.707 A 
HETATM    8  N8  UNL     1      14.625  21.921  18.107  1.00  0.00    -0.020 N 
ATOM      9  H8  UNL     1      15.122  21.716  18.974  1.00  0.00     0.203 HD
ENDROOT
BRANCH   7  10
HETATM   10  N7  UNL     1      14.942  24.141  18.412  1.00  0.00    -0.225 N 
ATOM     11  H7  UNL     1      14.322  24.595  19.084  1.00  0.00     0.177 HD
BRANCH  10  12
HETATM   12  C12 UNL     1      16.289  24.624  18.301  1.00  0.00     0.138 C 
BRANCH  12  13
HETATM   13  C13 UNL     1      17.190  23.846  19.278  1.00  0.00     0.025 C 
BRANCH  13  14
HETATM   14  C14 UNL     1      18.330  23.203  18.564  1.00  0.00     0.041 C 
BRANCH  14  15
HETATM   15  C15 UNL     1      19.284  24.285  18.057  1.00  0.00    -0.044 A 
HETATM   16  C16 UNL     1      20.150  24.902  18.933  1.00  0.00     0.057 A 
HETATM   17  S1  UNL     1      20.967  26.023  17.955  1.00  0.00    -0.105 SA
HETATM   18  C17 UNL     1      20.214  25.703  16.470  1.00  0.00    -0.003 A 
HETATM   19  C18 UNL     1      19.322  24.706  16.771  1.00  0.00    -0.037 A 
HETATM   20  C22 UNL     1      20.359  26.265  15.089  1.00  0.00    -0.013 C 
HETATM   21  C19 UNL     1      18.500  24.194  15.590  1.00  0.00     0.040 C 
HETATM   22  C20 UNL     1      17.993  25.412  14.855  1.00  0.00     0.006 C 
HETATM   23  C21 UNL     1      19.128  26.176  14.266  1.00  0.00     0.014 C 
HETATM   24  C23 UNL     1      21.459  25.456  14.426  1.00  0.00     0.020 C 
HETATM   25  C24 UNL     1      20.826  27.709  15.214  1.00  0.00     0.020 C 
ENDBRANCH  14  15
ENDBRANCH  13  14
ENDBRANCH  12  13
ENDBRANCH  10  12
ENDBRANCH   7  10
BRANCH   4  26
HETATM   26  N4  UNL     1      12.681  22.749  14.712  1.00  0.00    -0.225 N 
ATOM     27  H4  UNL     1      12.743  23.701  14.350  1.00  0.00     0.177 HD
BRANCH  26  28
HETATM   28  C8  UNL     1      11.901  21.764  14.007  1.00  0.00     0.139 C 
BRANCH  28  29
HETATM   29  C9  UNL     1      10.429  21.870  14.339  1.00  0.00     0.047 C 
BRANCH  29  30
HETATM   30  C10 UNL     1       9.846  20.530  14.723  1.00  0.00     0.231 C 
BRANCH  30  31
HETATM   31  N5  UNL     1       9.538  20.504  16.145  1.00  0.00    -0.079 N 
ATOM     32  H53 UNL     1      10.227  21.019  16.693  1.00  0.00     0.274 HD
ATOM     33  H52 UNL     1       8.717  21.066  16.367  1.00  0.00     0.274 HD
ATOM     34  H51 UNL     1       9.438  19.541  16.467  1.00  0.00     0.274 HD
ENDBRANCH  30  31
ENDBRANCH  29  30
ENDBRANCH  28  29
ENDBRANCH  26  28
ENDBRANCH   4  26
BRANCH   1  35
HETATM   35  N2  UNL     1      14.284  19.686  17.758  1.00  0.00    -0.131 N 
ATOM     36  H2  UNL     1      14.561  18.972  17.085  1.00  0.00     0.205 HD
BRANCH  35  37
HETATM   37  N1  UNL     1      14.089  19.342  19.051  1.00  0.00    -0.297 N 
HETATM   38  C5  UNL     1      13.289  18.652  19.687  1.00  0.00     0.120 C 
ATOM     39  H1  UNL     1      14.787  19.764  19.661  1.00  0.00     0.186 HD
BRANCH  38  40
HETATM   40  C4  UNL     1      12.163  17.896  19.188  1.00  0.00     0.001 A 
HETATM   41  C3  UNL     1      11.650  18.001  17.912  1.00  0.00     0.052 A 
HETATM   42  C2  UNL     1      10.554  17.246  17.475  1.00  0.00     0.086 A 
HETATM   43  C27 UNL     1       9.942  16.357  18.322  1.00  0.00     0.045 A 
HETATM   44  C26 UNL     1      10.444  16.250  19.583  1.00  0.00     0.042 A 
HETATM   45 BR2  UNL     1       8.447  15.299  17.792  1.00  0.00    -0.048 Br
HETATM   46  C25 UNL     1      11.506  16.975  20.020  1.00  0.00     0.024 A 
HETATM   47 BR1  UNL     1      12.141  16.757  21.806  1.00  0.00    -0.050 Br
BRANCH  42  48
HETATM   48  O1  UNL     1      10.102  17.409  16.184  1.00  0.00    -0.355 OA
HETATM   49  C1  UNL     1      10.607  16.726  15.076  1.00  0.00     0.210 C 
ENDBRANCH  42  48
ENDBRANCH  38  40
ENDBRANCH  35  37
ENDBRANCH   1  35
TORSDOF 14
ENDMDL
