MODEL 1
REMARK VINA RESULT: -10.079400934      0.000      0.000
REMARK  12 active torsions:
REMARK  status: ('A' for Active; 'I' for Inactive)
REMARK    1  A    between atoms: O1_2  and  C2_3 
REMARK    2  A    between atoms: C11_14  and  O2_15 
REMARK    3  A    between atoms: O2_15  and  C12_16 
REMARK    4  A    between atoms: C12_16  and  C13_17 
REMARK       I    between atoms: C13_17  and  N1_19 
REMARK    5  A    between atoms: N1_19  and  C14_21 
REMARK    6  A    between atoms: C19_34  and  N6_35 
REMARK    7  A    between atoms: N6_35  and  C20_37 
REMARK    8  A    between atoms: C20_37  and  C21_38 
REMARK    9  A    between atoms: C21_38  and  C22_39 
REMARK   10  A    between atoms: C22_39  and  C23_40 
REMARK   11  A    between atoms: C23_40  and  N7_41 
REMARK   12  A    between atoms: C26_47  and  O4_48 
ROOT
HETATM    1  C2  UNL     1      12.110  18.554  19.642  1.00  0.00     0.102 A 
HETATM    2  C3  UNL     1      13.285  19.235  19.849  1.00  0.00     0.052 A 
HETATM    3  C4  UNL     1      13.936  19.930  18.833  1.00  0.00    -0.017 A 
HETATM    4  C5  UNL     1      15.093  20.608  19.014  1.00  0.00     0.043 A 
HETATM    5  C6  UNL     1      15.781  21.324  18.003  1.00  0.00     0.045 A 
HETATM    6  C7  UNL     1      16.963  22.070  18.344  1.00  0.00     0.001 A 
HETATM    7  C8  UNL     1      17.744  21.610  19.431  1.00  0.00     0.035 A 
HETATM    8  C9  UNL     1      18.843  22.278  19.887  1.00  0.00     0.032 A 
HETATM    9 BR1  UNL     1      19.888  21.640  21.359  1.00  0.00    -0.050 Br
HETATM   10  C10 UNL     1      19.236  23.453  19.288  1.00  0.00     0.062 A 
HETATM   11 BR2  UNL     1      20.776  24.389  19.923  1.00  0.00    -0.047 Br
HETATM   12  C11 UNL     1      18.500  23.917  18.240  1.00  0.00     0.095 A 
HETATM   13  C17 UNL     1      17.362  23.225  17.767  1.00  0.00    -0.015 A 
HETATM   14  C18 UNL     1      16.649  23.853  16.655  1.00  0.00     0.052 C 
HETATM   15  N5  UNL     1      15.195  21.287  16.816  1.00  0.00    -0.341 N 
ATOM     16  H5  UNL     1      15.639  21.781  16.043  1.00  0.00     0.167 HD
HETATM   17  C19 UNL     1      14.020  20.618  16.569  1.00  0.00     0.112 A 
HETATM   18  C24 UNL     1      13.374  19.931  17.575  1.00  0.00     0.021 A 
HETATM   19  C25 UNL     1      12.191  19.244  17.368  1.00  0.00     0.055 A 
HETATM   20  C26 UNL     1      11.554  18.559  18.382  1.00  0.00     0.102 A 
ENDROOT
BRANCH  17  21
HETATM   21  N6  UNL     1      13.494  20.615  15.405  1.00  0.00    -0.376 N 
ATOM     22  H6  UNL     1      13.119  19.750  15.014  1.00  0.00     0.161 HD
BRANCH  21  23
HETATM   23  C20 UNL     1      13.433  21.840  14.647  1.00  0.00     0.121 C 
BRANCH  23  24
HETATM   24  C21 UNL     1      12.000  22.279  14.410  1.00  0.00     0.021 C 
BRANCH  24  25
HETATM   25  C22 UNL     1      11.156  21.011  14.349  1.00  0.00     0.029 C 
BRANCH  25  26
HETATM   26  C23 UNL     1       9.713  21.299  14.685  1.00  0.00     0.229 C 
BRANCH  26  27
HETATM   27  N7  UNL     1       9.367  20.974  16.036  1.00  0.00    -0.079 N 
ATOM     28  H73 UNL     1      10.040  20.319  16.433  1.00  0.00     0.274 HD
ATOM     29  H72 UNL     1       9.524  21.773  16.651  1.00  0.00     0.274 HD
ATOM     30  H71 UNL     1       8.416  20.621  16.137  1.00  0.00     0.274 HD
ENDBRANCH  26  27
ENDBRANCH  25  26
ENDBRANCH  24  25
ENDBRANCH  23  24
ENDBRANCH  21  23
ENDBRANCH  17  21
BRANCH  12  31
HETATM   31  O2  UNL     1      18.932  25.103  17.666  1.00  0.00    -0.340 OA
BRANCH  31  32
HETATM   32  C12 UNL     1      19.903  25.183  16.633  1.00  0.00     0.279 C 
BRANCH  32  33
HETATM   33  C13 UNL     1      20.519  26.527  16.618  1.00  0.00     0.260 C 
HETATM   34  O3  UNL     1      20.598  27.215  17.658  1.00  0.00    -0.270 OA
HETATM   35  N1  UNL     1      21.028  27.046  15.408  1.00  0.00    -0.156 N 
ATOM     36  H1  UNL     1      20.438  27.108  14.579  1.00  0.00     0.187 HD
BRANCH  35  37
HETATM   37  C14 UNL     1      22.273  27.445  15.372  1.00  0.00     0.701 A 
HETATM   38  N2  UNL     1      23.310  26.667  15.731  1.00  0.00    -0.178 N 
HETATM   39  C15 UNL     1      24.461  27.360  15.584  1.00  0.00     0.108 A 
ATOM     40  H2  UNL     1      23.238  25.705  16.063  1.00  0.00     0.185 HD
HETATM   41  C16 UNL     1      25.827  26.867  15.871  1.00  0.00     0.091 C 
HETATM   42  N3  UNL     1      24.098  28.560  15.131  1.00  0.00    -0.275 N 
HETATM   43  N4  UNL     1      22.767  28.630  14.995  1.00  0.00    -0.130 N 
ATOM     44  H3  UNL     1      24.744  29.319  14.917  1.00  0.00     0.189 HD
ATOM     45  H4  UNL     1      22.233  29.435  14.667  1.00  0.00     0.205 HD
ENDBRANCH  35  37
ENDBRANCH  32  33
ENDBRANCH  31  32
ENDBRANCH  12  31
BRANCH   1  46
HETATM   46  O1  UNL     1      11.463  17.857  20.677  1.00  0.00    -0.353 OA
HETATM   47  C1  UNL     1      12.204  17.001  21.539  1.00  0.00     0.210 C 
ENDBRANCH   1  46
BRANCH  20  48
HETATM   48  O4  UNL     1      10.374  17.869  18.194  1.00  0.00    -0.353 OA
HETATM   49  C27 UNL     1      10.026  17.315  16.943  1.00  0.00     0.210 C 
ENDBRANCH  20  48
TORSDOF 12
ENDMDL
MODEL 2
REMARK VINA RESULT: -9.902073966      3.578     11.428
REMARK  12 active torsions:
REMARK  status: ('A' for Active; 'I' for Inactive)
REMARK    1  A    between atoms: O1_2  and  C2_3 
REMARK    2  A    between atoms: C11_14  and  O2_15 
REMARK    3  A    between atoms: O2_15  and  C12_16 
REMARK    4  A    between atoms: C12_16  and  C13_17 
REMARK       I    between atoms: C13_17  and  N1_19 
REMARK    5  A    between atoms: N1_19  and  C14_21 
REMARK    6  A    between atoms: C19_34  and  N6_35 
REMARK    7  A    between atoms: N6_35  and  C20_37 
REMARK    8  A    between atoms: C20_37  and  C21_38 
REMARK    9  A    between atoms: C21_38  and  C22_39 
REMARK   10  A    between atoms: C22_39  and  C23_40 
REMARK   11  A    between atoms: C23_40  and  N7_41 
REMARK   12  A    between atoms: C26_47  and  O4_48 
ROOT
HETATM    1  C2  UNL     1      20.293  27.408  14.742  1.00  0.00     0.102 A 
HETATM    2  C3  UNL     1      19.256  26.513  14.643  1.00  0.00     0.052 A 
HETATM    3  C4  UNL     1      19.026  25.526  15.598  1.00  0.00    -0.017 A 
HETATM    4  C5  UNL     1      18.011  24.634  15.520  1.00  0.00     0.043 A 
HETATM    5  C6  UNL     1      17.749  23.618  16.473  1.00  0.00     0.045 A 
HETATM    6  C7  UNL     1      16.590  22.782  16.315  1.00  0.00     0.001 A 
HETATM    7  C8  UNL     1      16.117  22.548  15.001  1.00  0.00     0.035 A 
HETATM    8  C9  UNL     1      14.986  21.832  14.738  1.00  0.00     0.032 A 
HETATM    9 BR1  UNL     1      14.362  21.527  12.954  1.00  0.00    -0.050 Br
HETATM   10  C10 UNL     1      14.248  21.300  15.771  1.00  0.00     0.062 A 
HETATM   11 BR2  UNL     1      12.665  20.295  15.405  1.00  0.00    -0.047 Br
HETATM   12  C11 UNL     1      14.682  21.511  17.045  1.00  0.00     0.095 A 
HETATM   13  C17 UNL     1      15.854  22.253  17.317  1.00  0.00    -0.015 A 
HETATM   14  C18 UNL     1      16.185  22.428  18.732  1.00  0.00     0.052 C 
HETATM   15  N5  UNL     1      18.598  23.595  17.490  1.00  0.00    -0.341 N 
ATOM     16  H5  UNL     1      18.467  22.886  18.211  1.00  0.00     0.167 HD
HETATM   17  C19 UNL     1      19.645  24.473  17.626  1.00  0.00     0.112 A 
HETATM   18  C24 UNL     1      19.874  25.452  16.681  1.00  0.00     0.021 A 
HETATM   19  C25 UNL     1      20.917  26.355  16.780  1.00  0.00     0.055 A 
HETATM   20  C26 UNL     1      21.136  27.329  15.828  1.00  0.00     0.102 A 
ENDROOT
BRANCH  17  21
HETATM   21  N6  UNL     1      20.435  24.410  18.628  1.00  0.00    -0.376 N 
ATOM     22  H6  UNL     1      21.226  25.050  18.700  1.00  0.00     0.161 HD
BRANCH  21  23
HETATM   23  C20 UNL     1      20.202  23.427  19.657  1.00  0.00     0.121 C 
BRANCH  23  24
HETATM   24  C21 UNL     1      19.575  24.049  20.892  1.00  0.00     0.021 C 
BRANCH  24  25
HETATM   25  C22 UNL     1      18.514  23.072  21.386  1.00  0.00     0.029 C 
BRANCH  25  26
HETATM   26  C23 UNL     1      18.985  21.644  21.258  1.00  0.00     0.229 C 
BRANCH  26  27
HETATM   27  N7  UNL     1      19.189  20.996  22.518  1.00  0.00    -0.079 N 
ATOM     28  H73 UNL     1      18.358  20.472  22.793  1.00  0.00     0.274 HD
ATOM     29  H72 UNL     1      19.852  20.227  22.425  1.00  0.00     0.274 HD
ATOM     30  H71 UNL     1      19.476  21.633  23.261  1.00  0.00     0.274 HD
ENDBRANCH  26  27
ENDBRANCH  25  26
ENDBRANCH  24  25
ENDBRANCH  23  24
ENDBRANCH  21  23
ENDBRANCH  17  21
BRANCH  12  31
HETATM   31  O2  UNL     1      13.909  20.958  18.055  1.00  0.00    -0.340 OA
BRANCH  31  32
HETATM   32  C12 UNL     1      14.387  20.008  18.996  1.00  0.00     0.279 C 
BRANCH  32  33
HETATM   33  C13 UNL     1      13.891  18.659  18.651  1.00  0.00     0.260 C 
HETATM   34  O3  UNL     1      14.591  17.642  18.846  1.00  0.00    -0.270 OA
HETATM   35  N1  UNL     1      12.604  18.512  18.092  1.00  0.00    -0.156 N 
ATOM     36  H1  UNL     1      12.341  19.022  17.248  1.00  0.00     0.187 HD
BRANCH  35  37
HETATM   37  C14 UNL     1      11.754  17.709  18.678  1.00  0.00     0.701 A 
HETATM   38  N2  UNL     1      10.894  16.923  18.005  1.00  0.00    -0.178 N 
HETATM   39  C15 UNL     1      10.153  16.214  18.886  1.00  0.00     0.108 A 
ATOM     40  H2  UNL     1      10.815  16.870  16.989  1.00  0.00     0.185 HD
HETATM   41  C16 UNL     1       9.094  15.235  18.555  1.00  0.00     0.091 C 
HETATM   42  N3  UNL     1      10.582  16.586  20.092  1.00  0.00    -0.275 N 
HETATM   43  N4  UNL     1      11.559  17.497  19.985  1.00  0.00    -0.130 N 
ATOM     44  H3  UNL     1      10.218  16.227  20.974  1.00  0.00     0.189 HD
ATOM     45  H4  UNL     1      12.058  17.944  20.754  1.00  0.00     0.205 HD
ENDBRANCH  35  37
ENDBRANCH  32  33
ENDBRANCH  31  32
ENDBRANCH  12  31
BRANCH   1  46
HETATM   46  O1  UNL     1      20.513  28.401  13.770  1.00  0.00    -0.353 OA
HETATM   47  C1  UNL     1      20.006  28.239  12.452  1.00  0.00     0.210 C 
ENDBRANCH   1  46
BRANCH  20  48
HETATM   48  O4  UNL     1      22.171  28.237  15.910  1.00  0.00    -0.353 OA
HETATM   49  C27 UNL     1      23.522  27.834  15.850  1.00  0.00     0.210 C 
ENDBRANCH  20  48
TORSDOF 12
ENDMDL
MODEL 3
REMARK VINA RESULT: -9.820559954      0.963      1.058
REMARK  12 active torsions:
REMARK  status: ('A' for Active; 'I' for Inactive)
REMARK    1  A    between atoms: O1_2  and  C2_3 
REMARK    2  A    between atoms: C11_14  and  O2_15 
REMARK    3  A    between atoms: O2_15  and  C12_16 
REMARK    4  A    between atoms: C12_16  and  C13_17 
REMARK       I    between atoms: C13_17  and  N1_19 
REMARK    5  A    between atoms: N1_19  and  C14_21 
REMARK    6  A    between atoms: C19_34  and  N6_35 
REMARK    7  A    between atoms: N6_35  and  C20_37 
REMARK    8  A    between atoms: C20_37  and  C21_38 
REMARK    9  A    between atoms: C21_38  and  C22_39 
REMARK   10  A    between atoms: C22_39  and  C23_40 
REMARK   11  A    between atoms: C23_40  and  N7_41 
REMARK   12  A    between atoms: C26_47  and  O4_48 
ROOT
HETATM    1  C2  UNL     1      12.236  18.720  19.757  1.00  0.00     0.102 A 
HETATM    2  C3  UNL     1      13.419  19.404  19.889  1.00  0.00     0.052 A 
HETATM    3  C4  UNL     1      14.055  20.014  18.811  1.00  0.00    -0.017 A 
HETATM    4  C5  UNL     1      15.221  20.693  18.917  1.00  0.00     0.043 A 
HETATM    5  C6  UNL     1      15.893  21.324  17.842  1.00  0.00     0.045 A 
HETATM    6  C7  UNL     1      17.088  22.083  18.102  1.00  0.00     0.001 A 
HETATM    7  C8  UNL     1      17.888  21.699  19.205  1.00  0.00     0.035 A 
HETATM    8  C9  UNL     1      19.001  22.389  19.587  1.00  0.00     0.032 A 
HETATM    9 BR1  UNL     1      20.070  21.855  21.083  1.00  0.00    -0.050 Br
HETATM   10  C10 UNL     1      19.391  23.512  18.893  1.00  0.00     0.062 A 
HETATM   11 BR2  UNL     1      20.950  24.479  19.426  1.00  0.00    -0.047 Br
HETATM   12  C11 UNL     1      18.637  23.902  17.828  1.00  0.00     0.095 A 
HETATM   13  C17 UNL     1      17.485  23.187  17.432  1.00  0.00    -0.015 A 
HETATM   14  C18 UNL     1      16.753  23.736  16.289  1.00  0.00     0.052 C 
HETATM   15  N5  UNL     1      15.283  21.203  16.673  1.00  0.00    -0.341 N 
ATOM     16  H5  UNL     1      15.716  21.633  15.856  1.00  0.00     0.167 HD
HETATM   17  C19 UNL     1      14.099  20.528  16.500  1.00  0.00     0.112 A 
HETATM   18  C24 UNL     1      13.468  19.925  17.567  1.00  0.00     0.021 A 
HETATM   19  C25 UNL     1      12.275  19.236  17.436  1.00  0.00     0.055 A 
HETATM   20  C26 UNL     1      11.654  18.635  18.512  1.00  0.00     0.102 A 
ENDROOT
BRANCH  17  21
HETATM   21  N6  UNL     1      13.549  20.442  15.350  1.00  0.00    -0.376 N 
ATOM     22  H6  UNL     1      13.165  19.553  15.031  1.00  0.00     0.161 HD
BRANCH  21  23
HETATM   23  C20 UNL     1      13.475  21.609  14.506  1.00  0.00     0.121 C 
BRANCH  23  24
HETATM   24  C21 UNL     1      12.057  22.142  14.413  1.00  0.00     0.021 C 
BRANCH  24  25
HETATM   25  C22 UNL     1      11.132  20.929  14.406  1.00  0.00     0.029 C 
BRANCH  25  26
HETATM   26  C23 UNL     1       9.731  21.310  14.817  1.00  0.00     0.229 C 
BRANCH  26  27
HETATM   27  N7  UNL     1       9.373  20.842  16.122  1.00  0.00    -0.079 N 
ATOM     28  H73 UNL     1       8.966  21.595  16.677  1.00  0.00     0.274 HD
ATOM     29  H72 UNL     1       8.571  20.214  16.073  1.00  0.00     0.274 HD
ATOM     30  H71 UNL     1      10.146  20.402  16.622  1.00  0.00     0.274 HD
ENDBRANCH  26  27
ENDBRANCH  25  26
ENDBRANCH  24  25
ENDBRANCH  23  24
ENDBRANCH  21  23
ENDBRANCH  17  21
BRANCH  12  31
HETATM   31  O2  UNL     1      19.066  25.038  17.158  1.00  0.00    -0.340 OA
BRANCH  31  32
HETATM   32  C12 UNL     1      19.902  25.019  16.010  1.00  0.00     0.279 C 
BRANCH  32  33
HETATM   33  C13 UNL     1      20.762  26.221  15.989  1.00  0.00     0.260 C 
HETATM   34  O3  UNL     1      20.278  27.367  16.101  1.00  0.00    -0.270 OA
HETATM   35  N1  UNL     1      22.159  26.075  15.841  1.00  0.00    -0.156 N 
ATOM     36  H1  UNL     1      22.548  25.561  15.050  1.00  0.00     0.187 HD
BRANCH  35  37
HETATM   37  C14 UNL     1      22.944  26.613  16.738  1.00  0.00     0.701 A 
HETATM   38  N2  UNL     1      24.272  26.410  16.776  1.00  0.00    -0.178 N 
HETATM   39  C15 UNL     1      24.801  27.097  17.812  1.00  0.00     0.108 A 
ATOM     40  H2  UNL     1      24.799  25.828  16.124  1.00  0.00     0.185 HD
HETATM   41  C16 UNL     1      26.228  27.142  18.202  1.00  0.00     0.091 C 
HETATM   42  N3  UNL     1      23.771  27.714  18.392  1.00  0.00    -0.275 N 
HETATM   43  N4  UNL     1      22.630  27.431  17.750  1.00  0.00    -0.130 N 
ATOM     44  H3  UNL     1      23.842  28.319  19.210  1.00  0.00     0.189 HD
ATOM     45  H4  UNL     1      21.699  27.773  17.988  1.00  0.00     0.205 HD
ENDBRANCH  35  37
ENDBRANCH  32  33
ENDBRANCH  31  32
ENDBRANCH  12  31
BRANCH   1  46
HETATM   46  O1  UNL     1      11.604  18.109  20.855  1.00  0.00    -0.353 OA
HETATM   47  C1  UNL     1      12.208  16.995  21.501  1.00  0.00     0.210 C 
ENDBRANCH   1  46
BRANCH  20  48
HETATM   48  O4  UNL     1      10.465  17.944  18.400  1.00  0.00    -0.353 OA
HETATM   49  C27 UNL     1      10.126  17.230  17.230  1.00  0.00     0.210 C 
ENDBRANCH  20  48
TORSDOF 12
ENDMDL
MODEL 4
REMARK VINA RESULT: -9.798556711      3.659     11.787
REMARK  12 active torsions:
REMARK  status: ('A' for Active; 'I' for Inactive)
REMARK    1  A    between atoms: O1_2  and  C2_3 
REMARK    2  A    between atoms: C11_14  and  O2_15 
REMARK    3  A    between atoms: O2_15  and  C12_16 
REMARK    4  A    between atoms: C12_16  and  C13_17 
REMARK       I    between atoms: C13_17  and  N1_19 
REMARK    5  A    between atoms: N1_19  and  C14_21 
REMARK    6  A    between atoms: C19_34  and  N6_35 
REMARK    7  A    between atoms: N6_35  and  C20_37 
REMARK    8  A    between atoms: C20_37  and  C21_38 
REMARK    9  A    between atoms: C21_38  and  C22_39 
REMARK   10  A    between atoms: C22_39  and  C23_40 
REMARK   11  A    between atoms: C23_40  and  N7_41 
REMARK   12  A    between atoms: C26_47  and  O4_48 
ROOT
HETATM    1  C2  UNL     1      20.111  27.218  15.135  1.00  0.00     0.102 A 
HETATM    2  C3  UNL     1      19.073  26.342  14.932  1.00  0.00     0.052 A 
HETATM    3  C4  UNL     1      18.759  25.330  15.835  1.00  0.00    -0.017 A 
HETATM    4  C5  UNL     1      17.741  24.456  15.655  1.00  0.00     0.043 A 
HETATM    5  C6  UNL     1      17.396  23.417  16.553  1.00  0.00     0.045 A 
HETATM    6  C7  UNL     1      16.240  22.603  16.284  1.00  0.00     0.001 A 
HETATM    7  C8  UNL     1      15.863  22.417  14.932  1.00  0.00     0.035 A 
HETATM    8  C9  UNL     1      14.745  21.727  14.564  1.00  0.00     0.032 A 
HETATM    9 BR1  UNL     1      14.252  21.486  12.729  1.00  0.00    -0.050 Br
HETATM   10  C10 UNL     1      13.926  21.176  15.522  1.00  0.00     0.062 A 
HETATM   11 BR2  UNL     1      12.362  20.207  15.009  1.00  0.00    -0.047 Br
HETATM   12  C11 UNL     1      14.266  21.341  16.831  1.00  0.00     0.095 A 
HETATM   13  C17 UNL     1      15.425  22.056  17.212  1.00  0.00    -0.015 A 
HETATM   14  C18 UNL     1      15.652  22.183  18.652  1.00  0.00     0.052 C 
HETATM   15  N5  UNL     1      18.166  23.349  17.629  1.00  0.00    -0.341 N 
ATOM     16  H5  UNL     1      17.972  22.621  18.316  1.00  0.00     0.167 HD
HETATM   17  C19 UNL     1      19.212  24.207  17.869  1.00  0.00     0.112 A 
HETATM   18  C24 UNL     1      19.522  25.210  16.976  1.00  0.00     0.021 A 
HETATM   19  C25 UNL     1      20.568  26.093  17.180  1.00  0.00     0.055 A 
HETATM   20  C26 UNL     1      20.870  27.093  16.277  1.00  0.00     0.102 A 
ENDROOT
BRANCH  17  21
HETATM   21  N6  UNL     1      19.924  24.101  18.925  1.00  0.00    -0.376 N 
ATOM     22  H6  UNL     1      20.936  24.213  18.874  1.00  0.00     0.161 HD
BRANCH  21  23
HETATM   23  C20 UNL     1      19.287  23.821  20.189  1.00  0.00     0.121 C 
BRANCH  23  24
HETATM   24  C21 UNL     1      19.716  24.806  21.260  1.00  0.00     0.021 C 
BRANCH  24  25
HETATM   25  C22 UNL     1      21.105  25.301  20.872  1.00  0.00     0.029 C 
BRANCH  25  26
HETATM   26  C23 UNL     1      21.349  26.698  21.386  1.00  0.00     0.229 C 
BRANCH  26  27
HETATM   27  N7  UNL     1      21.362  27.690  20.354  1.00  0.00    -0.079 N 
ATOM     28  H73 UNL     1      22.314  27.872  20.038  1.00  0.00     0.274 HD
ATOM     29  H72 UNL     1      20.965  27.318  19.491  1.00  0.00     0.274 HD
ATOM     30  H71 UNL     1      20.898  28.559  20.620  1.00  0.00     0.274 HD
ENDBRANCH  26  27
ENDBRANCH  25  26
ENDBRANCH  24  25
ENDBRANCH  23  24
ENDBRANCH  21  23
ENDBRANCH  17  21
BRANCH  12  31
HETATM   31  O2  UNL     1      13.413  20.770  17.762  1.00  0.00    -0.340 OA
BRANCH  31  32
HETATM   32  C12 UNL     1      13.465  19.408  18.163  1.00  0.00     0.279 C 
BRANCH  32  33
HETATM   33  C13 UNL     1      12.135  18.964  18.627  1.00  0.00     0.260 C 
HETATM   34  O3  UNL     1      11.093  19.552  18.266  1.00  0.00    -0.270 OA
HETATM   35  N1  UNL     1      12.035  17.856  19.495  1.00  0.00    -0.156 N 
ATOM     36  H1  UNL     1      12.549  17.835  20.376  1.00  0.00     0.187 HD
BRANCH  35  37
HETATM   37  C14 UNL     1      11.268  16.855  19.147  1.00  0.00     0.701 A 
HETATM   38  N2  UNL     1      11.362  16.228  17.961  1.00  0.00    -0.178 N 
HETATM   39  C15 UNL     1      10.439  15.242  17.901  1.00  0.00     0.108 A 
ATOM     40  H2  UNL     1      12.026  16.461  17.222  1.00  0.00     0.185 HD
HETATM   41  C16 UNL     1      10.212  14.318  16.768  1.00  0.00     0.091 C 
HETATM   42  N3  UNL     1       9.795  15.287  19.068  1.00  0.00    -0.275 N 
HETATM   43  N4  UNL     1      10.287  16.264  19.841  1.00  0.00    -0.130 N 
ATOM     44  H3  UNL     1       9.033  14.664  19.334  1.00  0.00     0.189 HD
ATOM     45  H4  UNL     1       9.973  16.512  20.779  1.00  0.00     0.205 HD
ENDBRANCH  35  37
ENDBRANCH  32  33
ENDBRANCH  31  32
ENDBRANCH  12  31
BRANCH   1  46
HETATM   46  O1  UNL     1      20.416  28.235  14.214  1.00  0.00    -0.353 OA
HETATM   47  C1  UNL     1      20.074  28.087  12.842  1.00  0.00     0.210 C 
ENDBRANCH   1  46
BRANCH  20  48
HETATM   48  O4  UNL     1      21.908  27.982  16.465  1.00  0.00    -0.353 OA
HETATM   49  C27 UNL     1      23.110  27.600  17.097  1.00  0.00     0.210 C 
ENDBRANCH  20  48
TORSDOF 12
ENDMDL
MODEL 5
REMARK VINA RESULT: -9.789606777      0.943      1.115
REMARK  12 active torsions:
REMARK  status: ('A' for Active; 'I' for Inactive)
REMARK    1  A    between atoms: O1_2  and  C2_3 
REMARK    2  A    between atoms: C11_14  and  O2_15 
REMARK    3  A    between atoms: O2_15  and  C12_16 
REMARK    4  A    between atoms: C12_16  and  C13_17 
REMARK       I    between atoms: C13_17  and  N1_19 
REMARK    5  A    between atoms: N1_19  and  C14_21 
REMARK    6  A    between atoms: C19_34  and  N6_35 
REMARK    7  A    between atoms: N6_35  and  C20_37 
REMARK    8  A    between atoms: C20_37  and  C21_38 
REMARK    9  A    between atoms: C21_38  and  C22_39 
REMARK   10  A    between atoms: C22_39  and  C23_40 
REMARK   11  A    between atoms: C23_40  and  N7_41 
REMARK   12  A    between atoms: C26_47  and  O4_48 
ROOT
HETATM    1  C2  UNL     1      12.119  18.379  19.850  1.00  0.00     0.102 A 
HETATM    2  C3  UNL     1      13.274  19.098  20.036  1.00  0.00     0.052 A 
HETATM    3  C4  UNL     1      13.931  19.743  18.991  1.00  0.00    -0.017 A 
HETATM    4  C5  UNL     1      15.070  20.456  19.152  1.00  0.00     0.043 A 
HETATM    5  C6  UNL     1      15.763  21.122  18.111  1.00  0.00     0.045 A 
HETATM    6  C7  UNL     1      16.922  21.914  18.427  1.00  0.00     0.001 A 
HETATM    7  C8  UNL     1      17.690  21.541  19.556  1.00  0.00     0.035 A 
HETATM    8  C9  UNL     1      18.765  22.262  19.989  1.00  0.00     0.032 A 
HETATM    9 BR1  UNL     1      19.792  21.741  21.519  1.00  0.00    -0.050 Br
HETATM   10  C10 UNL     1      19.146  23.405  19.325  1.00  0.00     0.062 A 
HETATM   11 BR2  UNL     1      20.651  24.413  19.929  1.00  0.00    -0.047 Br
HETATM   12  C11 UNL     1      18.422  23.785  18.235  1.00  0.00     0.095 A 
HETATM   13  C17 UNL     1      17.309  23.039  17.786  1.00  0.00    -0.015 A 
HETATM   14  C18 UNL     1      16.605  23.580  16.622  1.00  0.00     0.052 C 
HETATM   15  N5  UNL     1      15.203  20.997  16.917  1.00  0.00    -0.341 N 
ATOM     16  H5  UNL     1      15.653  21.452  16.123  1.00  0.00     0.167 HD
HETATM   17  C19 UNL     1      14.048  20.288  16.691  1.00  0.00     0.112 A 
HETATM   18  C24 UNL     1      13.396  19.651  17.725  1.00  0.00     0.021 A 
HETATM   19  C25 UNL     1      12.232  18.927  17.539  1.00  0.00     0.055 A 
HETATM   20  C26 UNL     1      11.589  18.292  18.583  1.00  0.00     0.102 A 
ENDROOT
BRANCH  17  21
HETATM   21  N6  UNL     1      13.547  20.200  15.519  1.00  0.00    -0.376 N 
ATOM     22  H6  UNL     1      12.611  19.814  15.389  1.00  0.00     0.161 HD
BRANCH  21  23
HETATM   23  C20 UNL     1      14.311  20.648  14.381  1.00  0.00     0.121 C 
BRANCH  23  24
HETATM   24  C21 UNL     1      13.432  21.342  13.357  1.00  0.00     0.021 C 
BRANCH  24  25
HETATM   25  C22 UNL     1      12.403  22.153  14.137  1.00  0.00     0.029 C 
BRANCH  25  26
HETATM   26  C23 UNL     1      12.972  23.480  14.574  1.00  0.00     0.229 C 
BRANCH  26  27
HETATM   27  N7  UNL     1      13.075  23.616  15.995  1.00  0.00    -0.079 N 
ATOM     28  H73 UNL     1      13.322  22.726  16.427  1.00  0.00     0.274 HD
ATOM     29  H72 UNL     1      13.900  24.161  16.247  1.00  0.00     0.274 HD
ATOM     30  H71 UNL     1      12.238  24.007  16.428  1.00  0.00     0.274 HD
ENDBRANCH  26  27
ENDBRANCH  25  26
ENDBRANCH  24  25
ENDBRANCH  23  24
ENDBRANCH  21  23
ENDBRANCH  17  21
BRANCH  12  31
HETATM   31  O2  UNL     1      18.840  24.942  17.596  1.00  0.00    -0.340 OA
BRANCH  31  32
HETATM   32  C12 UNL     1      19.882  24.990  16.633  1.00  0.00     0.279 C 
BRANCH  32  33
HETATM   33  C13 UNL     1      20.451  26.352  16.567  1.00  0.00     0.260 C 
HETATM   34  O3  UNL     1      20.475  27.094  17.572  1.00  0.00    -0.270 OA
HETATM   35  N1  UNL     1      20.979  26.828  15.347  1.00  0.00    -0.156 N 
ATOM     36  H1  UNL     1      20.412  26.828  14.499  1.00  0.00     0.187 HD
BRANCH  35  37
HETATM   37  C14 UNL     1      22.210  27.270  15.326  1.00  0.00     0.701 A 
HETATM   38  N2  UNL     1      23.257  26.562  15.784  1.00  0.00    -0.178 N 
HETATM   39  C15 UNL     1      24.389  27.284  15.626  1.00  0.00     0.108 A 
ATOM     40  H2  UNL     1      23.206  25.626  16.188  1.00  0.00     0.185 HD
HETATM   41  C16 UNL     1      25.758  26.867  16.002  1.00  0.00     0.091 C 
HETATM   42  N3  UNL     1      24.003  28.431  15.067  1.00  0.00    -0.275 N 
HETATM   43  N4  UNL     1      22.677  28.440  14.876  1.00  0.00    -0.130 N 
ATOM     44  H3  UNL     1      24.631  29.196  14.819  1.00  0.00     0.189 HD
ATOM     45  H4  UNL     1      22.129  29.196  14.466  1.00  0.00     0.205 HD
ENDBRANCH  35  37
ENDBRANCH  32  33
ENDBRANCH  31  32
ENDBRANCH  12  31
BRANCH   1  46
HETATM   46  O1  UNL     1      11.465  17.734  20.915  1.00  0.00    -0.353 OA
HETATM   47  C1  UNL     1      12.132  16.721  21.658  1.00  0.00     0.210 C 
ENDBRANCH   1  46
BRANCH  20  48
HETATM   48  O4  UNL     1      10.428  17.566  18.416  1.00  0.00    -0.353 OA
HETATM   49  C27 UNL     1      10.444  16.228  17.966  1.00  0.00     0.210 C 
ENDBRANCH  20  48
TORSDOF 12
ENDMDL
