MODEL 1
REMARK VINA RESULT: -9.465710056      0.000      0.000
REMARK  13 active torsions:
REMARK  status: ('A' for Active; 'I' for Inactive)
REMARK    1  A    between atoms: C4_4  and  N1_5 
REMARK       I    between atoms: N1_5  and  C5_7 
REMARK    2  A    between atoms: C5_7  and  C6_9 
REMARK    3  A    between atoms: C6_9  and  N2_10 
REMARK    4  A    between atoms: C6_9  and  C12_19 
REMARK       I    between atoms: N2_10  and  C7_12 
REMARK    5  A    between atoms: C7_12  and  O3_14 
REMARK    6  A    between atoms: O3_14  and  C8_15 
REMARK    7  A    between atoms: C15_22  and  N3_23 
REMARK       I    between atoms: N3_23  and  C16_25 
REMARK       I    between atoms: C16_25  and  N4_27 
REMARK    8  A    between atoms: N4_27  and  C17_29 
REMARK    9  A    between atoms: C17_29  and  C18_30 
REMARK   10  A    between atoms: N5_38  and  C24_39 
REMARK   11  A    between atoms: C24_39  and  C25_40 
REMARK   12  A    between atoms: C25_40  and  C26_41 
REMARK   13  A    between atoms: N6_44  and  S1_45 
ROOT
HETATM    1  C6  UNL     1      14.077  21.775  16.364  1.00  0.00     0.183 C 
ENDROOT
BRANCH   1   2
HETATM    2  C5  UNL     1      15.316  22.105  15.637  1.00  0.00     0.241 C 
HETATM    3  N1  UNL     1      16.017  23.282  15.951  1.00  0.00    -0.355 N 
ATOM      4  H1  UNL     1      15.650  23.891  16.683  1.00  0.00     0.162 HD
HETATM    5  O1  UNL     1      15.731  21.338  14.751  1.00  0.00    -0.271 OA
BRANCH   3   6
HETATM    6  C4  UNL     1      17.260  23.670  15.266  1.00  0.00     0.087 C 
HETATM    7  C3  UNL     1      17.276  25.175  15.231  1.00  0.00     0.049 C 
HETATM    8  C2  UNL     1      18.602  25.797  15.510  1.00  0.00     0.077 C 
HETATM    9  C1  UNL     1      19.506  25.661  14.321  1.00  0.00     0.032 C 
HETATM   10  N5  UNL     1      19.130  25.337  16.729  1.00  0.00    -0.408 N 
HETATM   11  C23 UNL     1      18.764  24.022  17.142  1.00  0.00     0.119 C 
HETATM   12  C22 UNL     1      18.395  23.082  16.045  1.00  0.00     0.044 C 
BRANCH  10  13
HETATM   13  C24 UNL     1      20.501  25.568  16.998  1.00  0.00     0.117 C 
BRANCH  13  14
HETATM   14  C25 UNL     1      20.784  26.830  17.767  1.00  0.00     0.024 C 
BRANCH  14  15
HETATM   15  C26 UNL     1      22.037  27.495  17.272  1.00  0.00    -0.011 C 
HETATM   16  C27 UNL     1      22.373  27.112  15.850  1.00  0.00     0.020 C 
HETATM   17  C28 UNL     1      23.807  27.463  15.534  1.00  0.00     0.107 C 
HETATM   18  N6  UNL     1      24.721  26.823  16.478  1.00  0.00    -0.211 NA
HETATM   19  C30 UNL     1      24.505  27.526  17.755  1.00  0.00     0.107 C 
HETATM   20  C31 UNL     1      23.145  27.143  18.237  1.00  0.00     0.020 C 
BRANCH  18  21
HETATM   21  S1  UNL     1      26.333  27.065  15.917  1.00  0.00     0.207 S 
HETATM   22  C29 UNL     1      27.368  27.706  17.235  1.00  0.00     0.180 C 
HETATM   23  O5  UNL     1      26.308  28.043  14.797  1.00  0.00    -0.212 OA
HETATM   24  O6  UNL     1      26.888  25.724  15.517  1.00  0.00    -0.212 OA
ENDBRANCH  18  21
ENDBRANCH  14  15
ENDBRANCH  13  14
ENDBRANCH  10  13
ENDBRANCH   3   6
ENDBRANCH   1   2
BRANCH   1  25
HETATM   25  N2  UNL     1      13.320  20.810  15.627  1.00  0.00    -0.323 N 
HETATM   26  C7  UNL     1      12.285  21.263  14.766  1.00  0.00     0.362 C 
HETATM   27  O2  UNL     1      11.999  22.483  14.616  1.00  0.00    -0.238 OA
ATOM     28  H2  UNL     1      13.520  19.814  15.718  1.00  0.00     0.165 HD
BRANCH  26  29
HETATM   29  O3  UNL     1      11.502  20.371  14.013  1.00  0.00    -0.294 OA
BRANCH  29  30
HETATM   30  C8  UNL     1      10.163  20.138  14.322  1.00  0.00     0.061 C 
HETATM   31  C9  UNL     1       9.252  21.314  14.071  1.00  0.00     0.046 C 
HETATM   32  C10 UNL     1       9.682  18.991  13.448  1.00  0.00     0.046 C 
HETATM   33  C11 UNL     1      10.004  19.717  15.767  1.00  0.00     0.046 C 
ENDBRANCH  29  30
ENDBRANCH  26  29
ENDBRANCH   1  25
BRANCH   1  34
HETATM   34  C12 UNL     1      14.400  21.309  17.769  1.00  0.00     0.018 C 
HETATM   35  C13 UNL     1      14.688  22.465  18.689  1.00  0.00     0.009 C 
HETATM   36  C14 UNL     1      15.193  21.875  20.001  1.00  0.00     0.026 C 
HETATM   37  C15 UNL     1      16.629  21.443  19.761  1.00  0.00     0.086 C 
HETATM   38  C20 UNL     1      16.845  21.010  18.332  1.00  0.00     0.026 C 
HETATM   39  C21 UNL     1      15.569  20.388  17.756  1.00  0.00     0.009 C 
BRANCH  37  40
HETATM   40  N3  UNL     1      17.574  22.460  20.098  1.00  0.00    -0.338 N 
HETATM   41  C16 UNL     1      18.971  22.163  20.306  1.00  0.00     0.320 C 
HETATM   42  O4  UNL     1      19.370  20.981  20.192  1.00  0.00    -0.247 OA
HETATM   43  N4  UNL     1      19.883  23.182  20.633  1.00  0.00    -0.317 N 
ATOM     44  H4  UNL     1      19.487  24.120  20.669  1.00  0.00     0.169 HD
ATOM     45  H3  UNL     1      17.253  23.424  20.194  1.00  0.00     0.164 HD
BRANCH  43  46
HETATM   46  C17 UNL     1      21.268  23.103  20.921  1.00  0.00     0.143 C 
BRANCH  46  47
HETATM   47  C18 UNL     1      22.116  24.292  20.989  1.00  0.00     0.272 C 
HETATM   48  C19 UNL     1      21.517  25.627  21.283  1.00  0.00     0.096 C 
HETATM   49  F1  UNL     1      22.903  24.402  19.818  1.00  0.00    -0.201 F 
HETATM   50  F2  UNL     1      23.055  24.080  22.036  1.00  0.00    -0.201 F 
ENDBRANCH  46  47
ENDBRANCH  43  46
ENDBRANCH  37  40
ENDBRANCH   1  34
TORSDOF 13
ENDMDL
MODEL 2
REMARK VINA RESULT: -9.339753629      4.188      7.595
REMARK  13 active torsions:
REMARK  status: ('A' for Active; 'I' for Inactive)
REMARK    1  A    between atoms: C4_4  and  N1_5 
REMARK       I    between atoms: N1_5  and  C5_7 
REMARK    2  A    between atoms: C5_7  and  C6_9 
REMARK    3  A    between atoms: C6_9  and  N2_10 
REMARK    4  A    between atoms: C6_9  and  C12_19 
REMARK       I    between atoms: N2_10  and  C7_12 
REMARK    5  A    between atoms: C7_12  and  O3_14 
REMARK    6  A    between atoms: O3_14  and  C8_15 
REMARK    7  A    between atoms: C15_22  and  N3_23 
REMARK       I    between atoms: N3_23  and  C16_25 
REMARK       I    between atoms: C16_25  and  N4_27 
REMARK    8  A    between atoms: N4_27  and  C17_29 
REMARK    9  A    between atoms: C17_29  and  C18_30 
REMARK   10  A    between atoms: N5_38  and  C24_39 
REMARK   11  A    between atoms: C24_39  and  C25_40 
REMARK   12  A    between atoms: C25_40  and  C26_41 
REMARK   13  A    between atoms: N6_44  and  S1_45 
ROOT
HETATM    1  C6  UNL     1      17.078  23.356  16.004  1.00  0.00     0.183 C 
ENDROOT
BRANCH   1   2
HETATM    2  C5  UNL     1      17.718  24.503  15.334  1.00  0.00     0.241 C 
HETATM    3  N1  UNL     1      19.116  24.537  15.195  1.00  0.00    -0.355 N 
ATOM      4  H1  UNL     1      19.665  23.760  15.564  1.00  0.00     0.162 HD
HETATM    5  O1  UNL     1      17.015  25.431  14.899  1.00  0.00    -0.271 OA
BRANCH   3   6
HETATM    6  C4  UNL     1      19.819  25.649  14.537  1.00  0.00     0.087 C 
HETATM    7  C3  UNL     1      19.786  26.805  15.501  1.00  0.00     0.049 C 
HETATM    8  C2  UNL     1      21.054  27.585  15.594  1.00  0.00     0.077 C 
HETATM    9  C1  UNL     1      21.217  28.465  14.390  1.00  0.00     0.032 C 
HETATM   10  N5  UNL     1      22.144  26.745  15.883  1.00  0.00    -0.408 N 
HETATM   11  C23 UNL     1      22.069  25.398  15.421  1.00  0.00     0.119 C 
HETATM   12  C22 UNL     1      21.205  25.173  14.227  1.00  0.00     0.044 C 
BRANCH  10  13
HETATM   13  C24 UNL     1      23.452  27.252  15.693  1.00  0.00     0.117 C 
BRANCH  13  14
HETATM   14  C25 UNL     1      24.118  27.753  16.947  1.00  0.00     0.024 C 
BRANCH  14  15
HETATM   15  C26 UNL     1      23.872  26.821  18.099  1.00  0.00    -0.011 C 
HETATM   16  C27 UNL     1      22.672  27.224  18.924  1.00  0.00     0.020 C 
HETATM   17  C28 UNL     1      22.696  26.528  20.263  1.00  0.00     0.107 C 
HETATM   18  N6  UNL     1      23.941  26.810  20.976  1.00  0.00    -0.211 NA
HETATM   19  C30 UNL     1      24.981  26.082  20.231  1.00  0.00     0.107 C 
HETATM   20  C31 UNL     1      25.141  26.773  18.918  1.00  0.00     0.020 C 
BRANCH  18  21
HETATM   21  S1  UNL     1      23.796  26.193  22.580  1.00  0.00     0.207 S 
HETATM   22  C29 UNL     1      25.266  26.576  23.535  1.00  0.00     0.180 C 
HETATM   23  O5  UNL     1      23.629  24.716  22.510  1.00  0.00    -0.212 OA
HETATM   24  O6  UNL     1      22.634  26.888  23.238  1.00  0.00    -0.212 OA
ENDBRANCH  18  21
ENDBRANCH  14  15
ENDBRANCH  13  14
ENDBRANCH  10  13
ENDBRANCH   3   6
ENDBRANCH   1   2
BRANCH   1  25
HETATM   25  N2  UNL     1      17.138  23.522  17.424  1.00  0.00    -0.323 N 
HETATM   26  C7  UNL     1      17.725  22.495  18.210  1.00  0.00     0.362 C 
HETATM   27  O2  UNL     1      18.201  21.436  17.715  1.00  0.00    -0.238 OA
ATOM     28  H2  UNL     1      16.767  24.364  17.865  1.00  0.00     0.165 HD
BRANCH  26  29
HETATM   29  O3  UNL     1      17.817  22.591  19.609  1.00  0.00    -0.294 OA
BRANCH  29  30
HETATM   30  C8  UNL     1      18.975  23.051  20.233  1.00  0.00     0.061 C 
HETATM   31  C9  UNL     1      19.930  23.778  19.318  1.00  0.00     0.046 C 
HETATM   32  C10 UNL     1      18.555  24.025  21.323  1.00  0.00     0.046 C 
HETATM   33  C11 UNL     1      19.725  21.914  20.892  1.00  0.00     0.046 C 
ENDBRANCH  29  30
ENDBRANCH  26  29
ENDBRANCH   1  25
BRANCH   1  34
HETATM   34  C12 UNL     1      15.659  23.179  15.501  1.00  0.00     0.018 C 
HETATM   35  C13 UNL     1      14.664  23.169  16.631  1.00  0.00     0.009 C 
HETATM   36  C14 UNL     1      13.315  22.785  16.033  1.00  0.00     0.026 C 
HETATM   37  C15 UNL     1      13.357  21.289  15.784  1.00  0.00     0.086 C 
HETATM   38  C20 UNL     1      14.755  20.821  15.458  1.00  0.00     0.026 C 
HETATM   39  C21 UNL     1      15.535  21.916  14.724  1.00  0.00     0.009 C 
BRANCH  37  40
HETATM   40  N3  UNL     1      12.848  20.533  16.884  1.00  0.00    -0.338 N 
HETATM   41  C16 UNL     1      11.821  19.533  16.711  1.00  0.00     0.320 C 
HETATM   42  O4  UNL     1      11.358  19.321  15.566  1.00  0.00    -0.247 OA
HETATM   43  N4  UNL     1      11.337  18.800  17.809  1.00  0.00    -0.317 N 
ATOM     44  H4  UNL     1      11.791  19.004  18.698  1.00  0.00     0.169 HD
ATOM     45  H3  UNL     1      13.220  20.704  17.818  1.00  0.00     0.164 HD
BRANCH  43  46
HETATM   46  C17 UNL     1      10.315  17.821  17.868  1.00  0.00     0.143 C 
BRANCH  46  47
HETATM   47  C18 UNL     1      10.450  16.604  18.667  1.00  0.00     0.272 C 
HETATM   48  C19 UNL     1       9.413  15.534  18.587  1.00  0.00     0.096 C 
HETATM   49  F1  UNL     1      10.655  16.929  20.029  1.00  0.00    -0.201 F 
HETATM   50  F2  UNL     1      11.657  15.967  18.263  1.00  0.00    -0.201 F 
ENDBRANCH  46  47
ENDBRANCH  43  46
ENDBRANCH  37  40
ENDBRANCH   1  34
TORSDOF 13
ENDMDL
MODEL 3
REMARK VINA RESULT: -9.315201567      4.601      7.310
REMARK  13 active torsions:
REMARK  status: ('A' for Active; 'I' for Inactive)
REMARK    1  A    between atoms: C4_4  and  N1_5 
REMARK       I    between atoms: N1_5  and  C5_7 
REMARK    2  A    between atoms: C5_7  and  C6_9 
REMARK    3  A    between atoms: C6_9  and  N2_10 
REMARK    4  A    between atoms: C6_9  and  C12_19 
REMARK       I    between atoms: N2_10  and  C7_12 
REMARK    5  A    between atoms: C7_12  and  O3_14 
REMARK    6  A    between atoms: O3_14  and  C8_15 
REMARK    7  A    between atoms: C15_22  and  N3_23 
REMARK       I    between atoms: N3_23  and  C16_25 
REMARK       I    between atoms: C16_25  and  N4_27 
REMARK    8  A    between atoms: N4_27  and  C17_29 
REMARK    9  A    between atoms: C17_29  and  C18_30 
REMARK   10  A    between atoms: N5_38  and  C24_39 
REMARK   11  A    between atoms: C24_39  and  C25_40 
REMARK   12  A    between atoms: C25_40  and  C26_41 
REMARK   13  A    between atoms: N6_44  and  S1_45 
ROOT
HETATM    1  C6  UNL     1      15.628  21.033  18.403  1.00  0.00     0.183 C 
ENDROOT
BRANCH   1   2
HETATM    2  C5  UNL     1      17.076  21.165  18.642  1.00  0.00     0.241 C 
HETATM    3  N1  UNL     1      17.536  21.834  19.789  1.00  0.00    -0.355 N 
ATOM      4  H1  UNL     1      16.851  22.220  20.439  1.00  0.00     0.162 HD
HETATM    5  O1  UNL     1      17.880  20.681  17.826  1.00  0.00    -0.271 OA
BRANCH   3   6
HETATM    6  C4  UNL     1      18.967  22.000  20.088  1.00  0.00     0.087 C 
HETATM    7  C3  UNL     1      19.509  22.959  19.063  1.00  0.00     0.049 C 
HETATM    8  C2  UNL     1      20.468  23.972  19.592  1.00  0.00     0.077 C 
HETATM    9  C1  UNL     1      21.804  23.342  19.855  1.00  0.00     0.032 C 
HETATM   10  N5  UNL     1      19.910  24.682  20.669  1.00  0.00    -0.408 N 
HETATM   11  C23 UNL     1      18.949  23.999  21.472  1.00  0.00     0.119 C 
HETATM   12  C22 UNL     1      19.067  22.513  21.492  1.00  0.00     0.044 C 
BRANCH  10  13
HETATM   13  C24 UNL     1      20.773  25.447  21.490  1.00  0.00     0.117 C 
BRANCH  13  14
HETATM   14  C25 UNL     1      20.858  26.904  21.124  1.00  0.00     0.024 C 
BRANCH  14  15
HETATM   15  C26 UNL     1      22.161  27.216  20.444  1.00  0.00    -0.011 C 
HETATM   16  C27 UNL     1      22.057  27.157  18.938  1.00  0.00     0.020 C 
HETATM   17  C28 UNL     1      23.431  27.076  18.318  1.00  0.00     0.107 C 
HETATM   18  N6  UNL     1      24.171  25.926  18.837  1.00  0.00    -0.211 NA
HETATM   19  C30 UNL     1      24.483  26.272  20.234  1.00  0.00     0.107 C 
HETATM   20  C31 UNL     1      23.193  26.253  20.985  1.00  0.00     0.020 C 
BRANCH  18  21
HETATM   21  S1  UNL     1      25.618  25.756  17.915  1.00  0.00     0.207 S 
HETATM   22  C29 UNL     1      26.847  26.949  18.449  1.00  0.00     0.180 C 
HETATM   23  O5  UNL     1      25.301  25.989  16.480  1.00  0.00    -0.212 OA
HETATM   24  O6  UNL     1      26.175  24.382  18.181  1.00  0.00    -0.212 OA
ENDBRANCH  18  21
ENDBRANCH  14  15
ENDBRANCH  13  14
ENDBRANCH  10  13
ENDBRANCH   3   6
ENDBRANCH   1   2
BRANCH   1  25
HETATM   25  N2  UNL     1      15.366  20.990  16.997  1.00  0.00    -0.323 N 
HETATM   26  C7  UNL     1      14.623  22.046  16.406  1.00  0.00     0.362 C 
HETATM   27  O2  UNL     1      14.180  23.029  17.063  1.00  0.00    -0.238 OA
ATOM     28  H2  UNL     1      15.707  20.214  16.428  1.00  0.00     0.165 HD
BRANCH  26  29
HETATM   29  O3  UNL     1      14.328  22.068  15.032  1.00  0.00    -0.294 OA
BRANCH  29  30
HETATM   30  C8  UNL     1      13.220  21.401  14.513  1.00  0.00     0.061 C 
HETATM   31  C9  UNL     1      12.479  20.552  15.516  1.00  0.00     0.046 C 
HETATM   32  C10 UNL     1      12.250  22.452  13.997  1.00  0.00     0.046 C 
HETATM   33  C11 UNL     1      13.613  20.520  13.347  1.00  0.00     0.046 C 
ENDBRANCH  29  30
ENDBRANCH  26  29
ENDBRANCH   1  25
BRANCH   1  34
HETATM   34  C12 UNL     1      15.083  19.820  19.132  1.00  0.00     0.018 C 
HETATM   35  C13 UNL     1      15.084  18.596  18.255  1.00  0.00     0.009 C 
HETATM   36  C14 UNL     1      14.336  17.506  19.013  1.00  0.00     0.026 C 
HETATM   37  C15 UNL     1      12.858  17.832  18.906  1.00  0.00     0.086 C 
HETATM   38  C20 UNL     1      12.625  19.322  18.827  1.00  0.00     0.026 C 
HETATM   39  C21 UNL     1      13.699  20.080  19.613  1.00  0.00     0.009 C 
BRANCH  37  40
HETATM   40  N3  UNL     1      12.232  17.194  17.792  1.00  0.00    -0.338 N 
HETATM   41  C16 UNL     1      11.085  16.333  17.952  1.00  0.00     0.320 C 
HETATM   42  O4  UNL     1      10.623  16.135  19.099  1.00  0.00    -0.247 OA
HETATM   43  N4  UNL     1      10.484  15.718  16.840  1.00  0.00    -0.317 N 
ATOM     44  H4  UNL     1      10.895  15.961  15.939  1.00  0.00     0.169 HD
ATOM     45  H3  UNL     1      12.606  17.351  16.855  1.00  0.00     0.164 HD
BRANCH  43  46
HETATM   46  C17 UNL     1       9.396  14.813  16.779  1.00  0.00     0.143 C 
BRANCH  46  47
HETATM   47  C18 UNL     1       9.562  13.381  17.019  1.00  0.00     0.272 C 
HETATM   48  C19 UNL     1       8.516  12.417  16.567  1.00  0.00     0.096 C 
HETATM   49  F1  UNL     1       9.831  13.140  18.388  1.00  0.00    -0.201 F 
HETATM   50  F2  UNL     1      10.744  12.974  16.342  1.00  0.00    -0.201 F 
ENDBRANCH  46  47
ENDBRANCH  43  46
ENDBRANCH  37  40
ENDBRANCH   1  34
TORSDOF 13
ENDMDL
MODEL 4
REMARK VINA RESULT: -9.302138028      2.637      3.560
REMARK  13 active torsions:
REMARK  status: ('A' for Active; 'I' for Inactive)
REMARK    1  A    between atoms: C4_4  and  N1_5 
REMARK       I    between atoms: N1_5  and  C5_7 
REMARK    2  A    between atoms: C5_7  and  C6_9 
REMARK    3  A    between atoms: C6_9  and  N2_10 
REMARK    4  A    between atoms: C6_9  and  C12_19 
REMARK       I    between atoms: N2_10  and  C7_12 
REMARK    5  A    between atoms: C7_12  and  O3_14 
REMARK    6  A    between atoms: O3_14  and  C8_15 
REMARK    7  A    between atoms: C15_22  and  N3_23 
REMARK       I    between atoms: N3_23  and  C16_25 
REMARK       I    between atoms: C16_25  and  N4_27 
REMARK    8  A    between atoms: N4_27  and  C17_29 
REMARK    9  A    between atoms: C17_29  and  C18_30 
REMARK   10  A    between atoms: N5_38  and  C24_39 
REMARK   11  A    between atoms: C24_39  and  C25_40 
REMARK   12  A    between atoms: C25_40  and  C26_41 
REMARK   13  A    between atoms: N6_44  and  S1_45 
ROOT
HETATM    1  C6  UNL     1      16.313  22.160  18.209  1.00  0.00     0.183 C 
ENDROOT
BRANCH   1   2
HETATM    2  C5  UNL     1      17.232  22.430  17.088  1.00  0.00     0.241 C 
HETATM    3  N1  UNL     1      17.518  23.757  16.726  1.00  0.00    -0.355 N 
ATOM      4  H1  UNL     1      17.079  24.514  17.250  1.00  0.00     0.162 HD
HETATM    5  O1  UNL     1      17.746  21.480  16.473  1.00  0.00    -0.271 OA
BRANCH   3   6
HETATM    6  C4  UNL     1      18.426  24.097  15.619  1.00  0.00     0.087 C 
HETATM    7  C3  UNL     1      17.995  25.446  15.112  1.00  0.00     0.049 C 
HETATM    8  C2  UNL     1      19.110  26.380  14.779  1.00  0.00     0.077 C 
HETATM    9  C1  UNL     1      19.752  25.987  13.481  1.00  0.00     0.032 C 
HETATM   10  N5  UNL     1      19.986  26.530  15.868  1.00  0.00    -0.408 N 
HETATM   11  C23 UNL     1      20.113  25.425  16.760  1.00  0.00     0.119 C 
HETATM   12  C22 UNL     1      19.818  24.086  16.172  1.00  0.00     0.044 C 
BRANCH  10  13
HETATM   13  C24 UNL     1      21.255  27.114  15.635  1.00  0.00     0.117 C 
BRANCH  13  14
HETATM   14  C25 UNL     1      22.152  27.167  16.842  1.00  0.00     0.024 C 
BRANCH  14  15
HETATM   15  C26 UNL     1      23.596  27.245  16.440  1.00  0.00    -0.011 C 
HETATM   16  C27 UNL     1      24.507  27.548  17.606  1.00  0.00     0.020 C 
HETATM   17  C28 UNL     1      25.858  28.009  17.114  1.00  0.00     0.107 C 
HETATM   18  N6  UNL     1      25.726  29.171  16.237  1.00  0.00    -0.211 NA
HETATM   19  C30 UNL     1      25.109  28.651  15.005  1.00  0.00     0.107 C 
HETATM   20  C31 UNL     1      23.704  28.280  15.345  1.00  0.00     0.020 C 
BRANCH  18  21
HETATM   21  S1  UNL     1      27.304  29.785  15.914  1.00  0.00     0.207 S 
HETATM   22  C29 UNL     1      28.209  28.662  14.847  1.00  0.00     0.180 C 
HETATM   23  O5  UNL     1      28.034  29.929  17.203  1.00  0.00    -0.212 OA
HETATM   24  O6  UNL     1      27.150  31.087  15.174  1.00  0.00    -0.212 OA
ENDBRANCH  18  21
ENDBRANCH  14  15
ENDBRANCH  13  14
ENDBRANCH  10  13
ENDBRANCH   3   6
ENDBRANCH   1   2
BRANCH   1  25
HETATM   25  N2  UNL     1      15.927  20.781  18.203  1.00  0.00    -0.323 N 
HETATM   26  C7  UNL     1      14.608  20.440  17.801  1.00  0.00     0.362 C 
HETATM   27  O2  UNL     1      13.753  21.298  17.444  1.00  0.00    -0.238 OA
ATOM     28  H2  UNL     1      16.588  20.056  18.483  1.00  0.00     0.165 HD
BRANCH  26  29
HETATM   29  O3  UNL     1      14.161  19.108  17.772  1.00  0.00    -0.294 OA
BRANCH  29  30
HETATM   30  C8  UNL     1      13.612  18.500  18.899  1.00  0.00     0.061 C 
HETATM   31  C9  UNL     1      13.865  19.237  20.191  1.00  0.00     0.046 C 
HETATM   32  C10 UNL     1      12.106  18.431  18.698  1.00  0.00     0.046 C 
HETATM   33  C11 UNL     1      14.123  17.084  19.055  1.00  0.00     0.046 C 
ENDBRANCH  29  30
ENDBRANCH  26  29
ENDBRANCH   1  25
BRANCH   1  34
HETATM   34  C12 UNL     1      16.946  22.579  19.520  1.00  0.00     0.018 C 
HETATM   35  C13 UNL     1      17.522  23.968  19.442  1.00  0.00     0.009 C 
HETATM   36  C14 UNL     1      18.301  24.199  20.732  1.00  0.00     0.026 C 
HETATM   37  C15 UNL     1      19.603  23.430  20.602  1.00  0.00     0.086 C 
HETATM   38  C20 UNL     1      19.431  22.191  19.757  1.00  0.00     0.026 C 
HETATM   39  C21 UNL     1      18.016  21.622  19.911  1.00  0.00     0.009 C 
BRANCH  37  40
HETATM   40  N3  UNL     1      20.662  24.225  20.067  1.00  0.00    -0.338 N 
HETATM   41  C16 UNL     1      22.035  24.033  20.466  1.00  0.00     0.320 C 
HETATM   42  O4  UNL     1      22.311  23.146  21.307  1.00  0.00    -0.247 OA
HETATM   43  N4  UNL     1      23.061  24.827  19.924  1.00  0.00    -0.317 N 
ATOM     44  H4  UNL     1      22.760  25.499  19.219  1.00  0.00     0.169 HD
ATOM     45  H3  UNL     1      20.441  24.951  19.384  1.00  0.00     0.164 HD
BRANCH  43  46
HETATM   46  C17 UNL     1      24.449  24.837  20.207  1.00  0.00     0.143 C 
BRANCH  46  47
HETATM   47  C18 UNL     1      25.374  23.883  19.596  1.00  0.00     0.272 C 
HETATM   48  C19 UNL     1      26.149  24.263  18.379  1.00  0.00     0.096 C 
HETATM   49  F1  UNL     1      24.718  22.655  19.345  1.00  0.00    -0.201 F 
HETATM   50  F2  UNL     1      26.362  23.572  20.571  1.00  0.00    -0.201 F 
ENDBRANCH  46  47
ENDBRANCH  43  46
ENDBRANCH  37  40
ENDBRANCH   1  34
TORSDOF 13
ENDMDL
MODEL 5
REMARK VINA RESULT: -9.226251839      4.437     11.250
REMARK  13 active torsions:
REMARK  status: ('A' for Active; 'I' for Inactive)
REMARK    1  A    between atoms: C4_4  and  N1_5 
REMARK       I    between atoms: N1_5  and  C5_7 
REMARK    2  A    between atoms: C5_7  and  C6_9 
REMARK    3  A    between atoms: C6_9  and  N2_10 
REMARK    4  A    between atoms: C6_9  and  C12_19 
REMARK       I    between atoms: N2_10  and  C7_12 
REMARK    5  A    between atoms: C7_12  and  O3_14 
REMARK    6  A    between atoms: O3_14  and  C8_15 
REMARK    7  A    between atoms: C15_22  and  N3_23 
REMARK       I    between atoms: N3_23  and  C16_25 
REMARK       I    between atoms: C16_25  and  N4_27 
REMARK    8  A    between atoms: N4_27  and  C17_29 
REMARK    9  A    between atoms: C17_29  and  C18_30 
REMARK   10  A    between atoms: N5_38  and  C24_39 
REMARK   11  A    between atoms: C24_39  and  C25_40 
REMARK   12  A    between atoms: C25_40  and  C26_41 
REMARK   13  A    between atoms: N6_44  and  S1_45 
ROOT
HETATM    1  C6  UNL     1      18.168  24.871  16.206  1.00  0.00     0.183 C 
ENDROOT
BRANCH   1   2
HETATM    2  C5  UNL     1      16.887  24.563  15.545  1.00  0.00     0.241 C 
HETATM    3  N1  UNL     1      16.242  23.342  15.807  1.00  0.00    -0.355 N 
ATOM      4  H1  UNL     1      16.678  22.687  16.456  1.00  0.00     0.162 HD
HETATM    5  O1  UNL     1      16.387  25.388  14.760  1.00  0.00    -0.271 OA
BRANCH   3   6
HETATM    6  C4  UNL     1      14.962  22.972  15.183  1.00  0.00     0.087 C 
HETATM    7  C3  UNL     1      15.179  21.638  14.522  1.00  0.00     0.049 C 
HETATM    8  C2  UNL     1      14.056  20.668  14.677  1.00  0.00     0.077 C 
HETATM    9  C1  UNL     1      12.915  21.040  13.778  1.00  0.00     0.032 C 
HETATM   10  N5  UNL     1      13.727  20.489  16.032  1.00  0.00    -0.408 N 
HETATM   11  C23 UNL     1      13.956  21.589  16.909  1.00  0.00     0.119 C 
HETATM   12  C22 UNL     1      13.935  22.937  16.272  1.00  0.00     0.044 C 
BRANCH  10  13
HETATM   13  C24 UNL     1      12.497  19.863  16.348  1.00  0.00     0.117 C 
BRANCH  13  14
HETATM   14  C25 UNL     1      12.366  19.426  17.782  1.00  0.00     0.024 C 
BRANCH  14  15
HETATM   15  C26 UNL     1      11.353  18.327  17.923  1.00  0.00    -0.011 C 
HETATM   16  C27 UNL     1      11.938  17.073  18.530  1.00  0.00     0.020 C 
HETATM   17  C28 UNL     1      11.026  15.895  18.287  1.00  0.00     0.107 C 
HETATM   18  N6  UNL     1      10.774  15.715  16.858  1.00  0.00    -0.211 NA
HETATM   19  C30 UNL     1       9.918  16.851  16.476  1.00  0.00     0.107 C 
HETATM   20  C31 UNL     1      10.765  18.078  16.553  1.00  0.00     0.020 C 
BRANCH  18  21
HETATM   21  S1  UNL     1       9.937  14.224  16.642  1.00  0.00     0.207 S 
HETATM   22  C29 UNL     1       9.413  13.562  18.225  1.00  0.00     0.180 C 
HETATM   23  O5  UNL     1      10.853  13.252  15.986  1.00  0.00    -0.212 OA
HETATM   24  O6  UNL     1       8.697  14.503  15.835  1.00  0.00    -0.212 OA
ENDBRANCH  18  21
ENDBRANCH  14  15
ENDBRANCH  13  14
ENDBRANCH  10  13
ENDBRANCH   3   6
ENDBRANCH   1   2
BRANCH   1  25
HETATM   25  N2  UNL     1      18.554  23.784  17.055  1.00  0.00    -0.323 N 
HETATM   26  C7  UNL     1      18.006  23.710  18.363  1.00  0.00     0.362 C 
HETATM   27  O2  UNL     1      17.190  24.559  18.819  1.00  0.00    -0.238 OA
ATOM     28  H2  UNL     1      19.210  23.076  16.726  1.00  0.00     0.165 HD
BRANCH  26  29
HETATM   29  O3  UNL     1      18.341  22.672  19.250  1.00  0.00    -0.294 OA
BRANCH  29  30
HETATM   30  C8  UNL     1      19.327  22.833  20.221  1.00  0.00     0.061 C 
HETATM   31  C9  UNL     1      20.497  23.681  19.786  1.00  0.00     0.046 C 
HETATM   32  C10 UNL     1      18.687  23.516  21.420  1.00  0.00     0.046 C 
HETATM   33  C11 UNL     1      19.860  21.493  20.682  1.00  0.00     0.046 C 
ENDBRANCH  29  30
ENDBRANCH  26  29
ENDBRANCH   1  25
BRANCH   1  34
HETATM   34  C12 UNL     1      19.226  25.203  15.174  1.00  0.00     0.018 C 
HETATM   35  C13 UNL     1      20.515  24.470  15.439  1.00  0.00     0.009 C 
HETATM   36  C14 UNL     1      21.552  25.031  14.473  1.00  0.00     0.026 C 
HETATM   37  C15 UNL     1      21.971  26.384  15.018  1.00  0.00     0.086 C 
HETATM   38  C20 UNL     1      20.839  27.057  15.757  1.00  0.00     0.026 C 
HETATM   39  C21 UNL     1      19.488  26.667  15.149  1.00  0.00     0.009 C 
BRANCH  37  40
HETATM   40  N3  UNL     1      23.114  26.306  15.871  1.00  0.00    -0.338 N 
HETATM   41  C16 UNL     1      24.126  27.335  15.886  1.00  0.00     0.320 C 
HETATM   42  O4  UNL     1      24.003  28.326  15.130  1.00  0.00    -0.247 OA
HETATM   43  N4  UNL     1      25.241  27.237  16.736  1.00  0.00    -0.317 N 
ATOM     44  H4  UNL     1      25.248  26.420  17.347  1.00  0.00     0.169 HD
ATOM     45  H3  UNL     1      23.219  25.499  16.486  1.00  0.00     0.164 HD
BRANCH  43  46
HETATM   46  C17 UNL     1      26.358  28.098  16.874  1.00  0.00     0.143 C 
BRANCH  46  47
HETATM   47  C18 UNL     1      27.520  28.011  15.991  1.00  0.00     0.272 C 
HETATM   48  C19 UNL     1      28.328  26.758  15.934  1.00  0.00     0.096 C 
HETATM   49  F1  UNL     1      28.395  29.098  16.222  1.00  0.00    -0.201 F 
HETATM   50  F2  UNL     1      27.053  28.200  14.661  1.00  0.00    -0.201 F 
ENDBRANCH  46  47
ENDBRANCH  43  46
ENDBRANCH  37  40
ENDBRANCH   1  34
TORSDOF 13
ENDMDL
