MODEL 1
REMARK VINA RESULT: -9.898917243      0.000      0.000
REMARK  13 active torsions:
REMARK  status: ('A' for Active; 'I' for Inactive)
REMARK    1  A    between atoms: C5_8  and  C6_9 
REMARK       I    between atoms: C6_9  and  N2_11 
REMARK    2  A    between atoms: N2_11  and  C7_13 
REMARK    3  A    between atoms: C7_13  and  C8_14 
REMARK    4  A    between atoms: C9_15  and  C10_16 
REMARK    5  A    between atoms: C12_20  and  N4_21 
REMARK    6  A    between atoms: N4_21  and  C13_23 
REMARK    7  A    between atoms: C17_30  and  C18_31 
REMARK    8  A    between atoms: C19_32  and  C20_33 
REMARK       I    between atoms: C20_33  and  N5_35 
REMARK    9  A    between atoms: N5_35  and  C21_37 
REMARK   10  A    between atoms: C21_37  and  C22_38 
REMARK   11  A    between atoms: C22_38  and  C23_39 
REMARK   12  A    between atoms: C23_39  and  C24_40 
REMARK   13  A    between atoms: C24_40  and  N6_41 
ROOT
HETATM    1  C10 UNL     1      16.290  23.062  16.797  1.00  0.00     0.034 A 
HETATM    2  C11 UNL     1      15.483  23.620  15.823  1.00  0.00     0.110 A 
HETATM    3  N3  UNL     1      14.305  23.090  15.492  1.00  0.00    -0.350 N 
ATOM      4  H3  UNL     1      13.747  23.539  14.765  1.00  0.00     0.166 HD
HETATM    5  C12 UNL     1      13.828  21.977  16.087  1.00  0.00     0.116 A 
HETATM    6  C17 UNL     1      14.560  21.362  17.058  1.00  0.00     0.010 A 
HETATM    7  C31 UNL     1      15.807  21.934  17.399  1.00  0.00     0.037 A 
ENDROOT
BRANCH   6   8
HETATM    8  C18 UNL     1      14.156  20.177  17.755  1.00  0.00     0.021 C 
HETATM    9  C19 UNL     1      14.858  19.288  18.360  1.00  0.00     0.075 C 
BRANCH   9  10
HETATM   10  C20 UNL     1      14.177  18.133  19.017  1.00  0.00     0.241 C 
HETATM   11  O4  UNL     1      14.574  16.979  18.781  1.00  0.00    -0.269 OA
HETATM   12  N5  UNL     1      13.100  18.349  19.895  1.00  0.00    -0.358 N 
ATOM     13  H5  UNL     1      12.813  19.313  20.061  1.00  0.00     0.162 HD
BRANCH  12  14
HETATM   14  C21 UNL     1      12.376  17.319  20.573  1.00  0.00     0.123 C 
BRANCH  14  15
HETATM   15  C22 UNL     1      10.935  17.263  20.153  1.00  0.00     0.021 C 
BRANCH  15  16
HETATM   16  C23 UNL     1      10.666  16.135  19.209  1.00  0.00     0.032 C 
BRANCH  16  17
HETATM   17  C24 UNL     1      10.991  16.440  17.766  1.00  0.00     0.273 C 
BRANCH  17  18
HETATM   18  N6  UNL     1       9.877  15.938  16.984  1.00  0.00     0.096 N 
HETATM   19  C25 UNL     1       8.841  15.372  17.795  1.00  0.00     0.297 C 
HETATM   20  C26 UNL     1       8.127  14.213  17.190  1.00  0.00     0.100 C 
HETATM   21  C27 UNL     1       7.234  13.615  18.287  1.00  0.00     0.033 C 
HETATM   22  N7  UNL     1       9.076  13.209  16.828  1.00  0.00    -0.414 N 
HETATM   23  C28 UNL     1      10.218  13.662  16.116  1.00  0.00     0.149 C 
ATOM     24  H7  UNL     1       8.941  12.226  17.066  1.00  0.00     0.153 HD
HETATM   25  C29 UNL     1      10.275  15.141  15.872  1.00  0.00     0.236 C 
HETATM   26  C30 UNL     1       9.484  15.558  14.653  1.00  0.00     0.044 C 
ENDBRANCH  17  18
ENDBRANCH  16  17
ENDBRANCH  15  16
ENDBRANCH  14  15
ENDBRANCH  12  14
ENDBRANCH   9  10
ENDBRANCH   6   8
BRANCH   5  27
HETATM   27  N4  UNL     1      12.657  21.517  15.705  1.00  0.00    -0.338 N 
ATOM     28  H4  UNL     1      11.813  21.905  16.124  1.00  0.00     0.167 HD
BRANCH  27  29
HETATM   29  C13 UNL     1      12.534  20.503  14.731  1.00  0.00     0.099 A 
HETATM   30  C14 UNL     1      11.479  19.620  14.664  1.00  0.00     0.063 A 
HETATM   31 BR1  UNL     1       9.964  19.532  15.819  1.00  0.00    -0.046 Br
HETATM   32  C15 UNL     1      11.697  18.780  13.594  1.00  0.00     0.165 A 
HETATM   33  O3  UNL     1      12.824  19.148  13.057  1.00  0.00    -0.307 OA
HETATM   34  C16 UNL     1      13.363  20.161  13.687  1.00  0.00     0.172 A 
HETATM   35 CL1  UNL     1      14.869  21.004  13.342  1.00  0.00    -0.054 Cl
ENDBRANCH  27  29
ENDBRANCH   5  27
BRANCH   1  36
HETATM   36  C9  UNL     1      17.562  23.647  17.143  1.00  0.00    -0.064 C 
HETATM   37  C8  UNL     1      18.622  24.152  17.422  1.00  0.00    -0.081 C 
BRANCH  37  38
HETATM   38  C7  UNL     1      19.919  24.792  17.746  1.00  0.00     0.217 C 
BRANCH  38  39
HETATM   39  N2  UNL     1      20.081  25.963  16.892  1.00  0.00    -0.346 N 
HETATM   40  C6  UNL     1      20.368  25.840  15.519  1.00  0.00     0.256 C 
HETATM   41  O2  UNL     1      20.468  24.623  15.110  1.00  0.00    -0.267 OA
ATOM     42  H2  UNL     1      19.986  26.893  17.299  1.00  0.00     0.163 HD
BRANCH  40  43
HETATM   43  C5  UNL     1      20.551  26.913  14.573  1.00  0.00     0.087 A 
HETATM   44  C2  UNL     1      19.603  27.257  13.604  1.00  0.00     0.047 A 
HETATM   45  C1  UNL     1      18.300  26.583  13.416  1.00  0.00     0.071 C 
HETATM   46  N1  UNL     1      20.117  28.277  12.925  1.00  0.00    -0.265 N 
HETATM   47  O1  UNL     1      21.281  28.596  13.377  1.00  0.00    -0.242 OA
ATOM     48  H1  UNL     1      19.650  28.747  12.149  1.00  0.00     0.194 HD
HETATM   49  C3  UNL     1      21.587  27.790  14.383  1.00  0.00     0.090 A 
HETATM   50  C4  UNL     1      22.845  27.873  15.132  1.00  0.00     0.080 C 
ENDBRANCH  40  43
ENDBRANCH  38  39
ENDBRANCH  37  38
ENDBRANCH   1  36
TORSDOF 13
ENDMDL
MODEL 2
REMARK VINA RESULT: -9.846721170      0.666      1.417
REMARK  13 active torsions:
REMARK  status: ('A' for Active; 'I' for Inactive)
REMARK    1  A    between atoms: C5_8  and  C6_9 
REMARK       I    between atoms: C6_9  and  N2_11 
REMARK    2  A    between atoms: N2_11  and  C7_13 
REMARK    3  A    between atoms: C7_13  and  C8_14 
REMARK    4  A    between atoms: C9_15  and  C10_16 
REMARK    5  A    between atoms: C12_20  and  N4_21 
REMARK    6  A    between atoms: N4_21  and  C13_23 
REMARK    7  A    between atoms: C17_30  and  C18_31 
REMARK    8  A    between atoms: C19_32  and  C20_33 
REMARK       I    between atoms: C20_33  and  N5_35 
REMARK    9  A    between atoms: N5_35  and  C21_37 
REMARK   10  A    between atoms: C21_37  and  C22_38 
REMARK   11  A    between atoms: C22_38  and  C23_39 
REMARK   12  A    between atoms: C23_39  and  C24_40 
REMARK   13  A    between atoms: C24_40  and  N6_41 
ROOT
HETATM    1  C10 UNL     1      16.222  22.966  16.762  1.00  0.00     0.034 A 
HETATM    2  C11 UNL     1      15.398  23.547  15.817  1.00  0.00     0.110 A 
HETATM    3  N3  UNL     1      14.204  23.038  15.510  1.00  0.00    -0.350 N 
ATOM      4  H3  UNL     1      13.634  23.504  14.804  1.00  0.00     0.166 HD
HETATM    5  C12 UNL     1      13.727  21.924  16.105  1.00  0.00     0.116 A 
HETATM    6  C17 UNL     1      14.475  21.287  17.048  1.00  0.00     0.010 A 
HETATM    7  C31 UNL     1      15.738  21.837  17.364  1.00  0.00     0.037 A 
ENDROOT
BRANCH   6   8
HETATM    8  C18 UNL     1      14.072  20.100  17.742  1.00  0.00     0.021 C 
HETATM    9  C19 UNL     1      14.752  19.295  18.476  1.00  0.00     0.075 C 
BRANCH   9  10
HETATM   10  C20 UNL     1      14.079  18.113  19.092  1.00  0.00     0.241 C 
HETATM   11  O4  UNL     1      14.461  16.970  18.788  1.00  0.00    -0.269 OA
HETATM   12  N5  UNL     1      13.026  18.291  20.007  1.00  0.00    -0.358 N 
ATOM     13  H5  UNL     1      12.751  19.248  20.228  1.00  0.00     0.162 HD
BRANCH  12  14
HETATM   14  C21 UNL     1      12.312  17.232  20.650  1.00  0.00     0.123 C 
BRANCH  14  15
HETATM   15  C22 UNL     1      10.898  17.117  20.157  1.00  0.00     0.021 C 
BRANCH  15  16
HETATM   16  C23 UNL     1      10.807  16.341  18.882  1.00  0.00     0.032 C 
BRANCH  16  17
HETATM   17  C24 UNL     1       9.433  15.788  18.588  1.00  0.00     0.273 C 
BRANCH  17  18
HETATM   18  N6  UNL     1       9.629  14.680  17.672  1.00  0.00     0.096 N 
HETATM   19  C25 UNL     1      10.448  15.028  16.549  1.00  0.00     0.297 C 
HETATM   20  C26 UNL     1      10.089  14.351  15.271  1.00  0.00     0.100 C 
HETATM   21  C27 UNL     1      10.917  15.020  14.164  1.00  0.00     0.033 C 
HETATM   22  N7  UNL     1       8.714  14.598  14.975  1.00  0.00    -0.414 N 
HETATM   23  C28 UNL     1       7.803  14.402  16.046  1.00  0.00     0.149 C 
ATOM     24  H7  UNL     1       8.405  14.897  14.050  1.00  0.00     0.153 HD
HETATM   25  C29 UNL     1       8.425  13.989  17.347  1.00  0.00     0.236 C 
HETATM   26  C30 UNL     1       8.670  12.500  17.427  1.00  0.00     0.044 C 
ENDBRANCH  17  18
ENDBRANCH  16  17
ENDBRANCH  15  16
ENDBRANCH  14  15
ENDBRANCH  12  14
ENDBRANCH   9  10
ENDBRANCH   6   8
BRANCH   5  27
HETATM   27  N4  UNL     1      12.540  21.486  15.748  1.00  0.00    -0.338 N 
ATOM     28  H4  UNL     1      11.712  21.894  16.181  1.00  0.00     0.167 HD
BRANCH  27  29
HETATM   29  C13 UNL     1      12.378  20.468  14.785  1.00  0.00     0.099 A 
HETATM   30  C14 UNL     1      11.445  19.458  14.877  1.00  0.00     0.063 A 
HETATM   31 BR1  UNL     1      10.175  19.175  16.272  1.00  0.00    -0.046 Br
HETATM   32  C15 UNL     1      11.578  18.656  13.765  1.00  0.00     0.165 A 
HETATM   33  O3  UNL     1      12.540  19.166  13.053  1.00  0.00    -0.307 OA
HETATM   34  C16 UNL     1      13.050  20.237  13.606  1.00  0.00     0.172 A 
HETATM   35 CL1  UNL     1      14.357  21.265  13.029  1.00  0.00    -0.054 Cl
ENDBRANCH  27  29
ENDBRANCH   5  27
BRANCH   1  36
HETATM   36  C9  UNL     1      17.511  23.529  17.082  1.00  0.00    -0.064 C 
HETATM   37  C8  UNL     1      18.588  24.010  17.333  1.00  0.00    -0.081 C 
BRANCH  37  38
HETATM   38  C7  UNL     1      19.912  24.614  17.618  1.00  0.00     0.217 C 
BRANCH  38  39
HETATM   39  N2  UNL     1      20.040  25.835  16.830  1.00  0.00    -0.346 N 
HETATM   40  C6  UNL     1      20.391  25.800  15.467  1.00  0.00     0.256 C 
HETATM   41  O2  UNL     1      20.580  24.614  15.004  1.00  0.00    -0.267 OA
ATOM     42  H2  UNL     1      19.871  26.736  17.277  1.00  0.00     0.163 HD
BRANCH  40  43
HETATM   43  C5  UNL     1      20.550  26.929  14.584  1.00  0.00     0.087 A 
HETATM   44  C2  UNL     1      19.607  27.289  13.615  1.00  0.00     0.047 A 
HETATM   45  C1  UNL     1      18.336  26.576  13.364  1.00  0.00     0.071 C 
HETATM   46  N1  UNL     1      20.093  28.364  13.003  1.00  0.00    -0.265 N 
HETATM   47  O1  UNL     1      21.234  28.701  13.495  1.00  0.00    -0.242 OA
ATOM     48  H1  UNL     1      19.623  28.856  12.244  1.00  0.00     0.194 HD
HETATM   49  C3  UNL     1      21.553  27.854  14.463  1.00  0.00     0.090 A 
HETATM   50  C4  UNL     1      22.793  27.944  15.242  1.00  0.00     0.080 C 
ENDBRANCH  40  43
ENDBRANCH  38  39
ENDBRANCH  37  38
ENDBRANCH   1  36
TORSDOF 13
ENDMDL
MODEL 3
REMARK VINA RESULT: -9.719759701      0.746      1.389
REMARK  13 active torsions:
REMARK  status: ('A' for Active; 'I' for Inactive)
REMARK    1  A    between atoms: C5_8  and  C6_9 
REMARK       I    between atoms: C6_9  and  N2_11 
REMARK    2  A    between atoms: N2_11  and  C7_13 
REMARK    3  A    between atoms: C7_13  and  C8_14 
REMARK    4  A    between atoms: C9_15  and  C10_16 
REMARK    5  A    between atoms: C12_20  and  N4_21 
REMARK    6  A    between atoms: N4_21  and  C13_23 
REMARK    7  A    between atoms: C17_30  and  C18_31 
REMARK    8  A    between atoms: C19_32  and  C20_33 
REMARK       I    between atoms: C20_33  and  N5_35 
REMARK    9  A    between atoms: N5_35  and  C21_37 
REMARK   10  A    between atoms: C21_37  and  C22_38 
REMARK   11  A    between atoms: C22_38  and  C23_39 
REMARK   12  A    between atoms: C23_39  and  C24_40 
REMARK   13  A    between atoms: C24_40  and  N6_41 
ROOT
HETATM    1  C10 UNL     1      16.432  22.892  16.657  1.00  0.00     0.034 A 
HETATM    2  C11 UNL     1      15.623  23.492  15.710  1.00  0.00     0.110 A 
HETATM    3  N3  UNL     1      14.411  23.018  15.413  1.00  0.00    -0.350 N 
ATOM      4  H3  UNL     1      13.853  23.497  14.705  1.00  0.00     0.166 HD
HETATM    5  C12 UNL     1      13.902  21.926  16.019  1.00  0.00     0.116 A 
HETATM    6  C17 UNL     1      14.633  21.273  16.965  1.00  0.00     0.010 A 
HETATM    7  C31 UNL     1      15.915  21.784  17.270  1.00  0.00     0.037 A 
ENDROOT
BRANCH   6   8
HETATM    8  C18 UNL     1      14.195  20.105  17.670  1.00  0.00     0.021 C 
HETATM    9  C19 UNL     1      14.859  19.263  18.377  1.00  0.00     0.075 C 
BRANCH   9  10
HETATM   10  C20 UNL     1      14.149  18.115  19.014  1.00  0.00     0.241 C 
HETATM   11  O4  UNL     1      14.492  16.954  18.729  1.00  0.00    -0.269 OA
HETATM   12  N5  UNL     1      13.106  18.343  19.929  1.00  0.00    -0.358 N 
ATOM     13  H5  UNL     1      12.863  19.312  20.134  1.00  0.00     0.162 HD
BRANCH  12  14
HETATM   14  C21 UNL     1      12.359  17.320  20.592  1.00  0.00     0.123 C 
BRANCH  14  15
HETATM   15  C22 UNL     1      10.933  17.261  20.124  1.00  0.00     0.021 C 
BRANCH  15  16
HETATM   16  C23 UNL     1      10.704  16.151  19.150  1.00  0.00     0.032 C 
BRANCH  16  17
HETATM   17  C24 UNL     1      10.976  16.521  17.710  1.00  0.00     0.273 C 
BRANCH  17  18
HETATM   18  N6  UNL     1       9.871  15.985  16.938  1.00  0.00     0.096 N 
HETATM   19  C25 UNL     1       8.846  15.414  17.759  1.00  0.00     0.297 C 
HETATM   20  C26 UNL     1       8.153  14.232  17.174  1.00  0.00     0.100 C 
HETATM   21  C27 UNL     1       7.271  13.638  18.282  1.00  0.00     0.033 C 
HETATM   22  N7  UNL     1       9.120  13.239  16.830  1.00  0.00    -0.414 N 
HETATM   23  C28 UNL     1      10.254  13.700  16.110  1.00  0.00     0.149 C 
ATOM     24  H7  UNL     1       9.003  12.259  17.085  1.00  0.00     0.153 HD
HETATM   25  C29 UNL     1      10.284  15.175  15.840  1.00  0.00     0.236 C 
HETATM   26  C30 UNL     1       9.486  15.557  14.613  1.00  0.00     0.044 C 
ENDBRANCH  17  18
ENDBRANCH  16  17
ENDBRANCH  15  16
ENDBRANCH  14  15
ENDBRANCH  12  14
ENDBRANCH   9  10
ENDBRANCH   6   8
BRANCH   5  27
HETATM   27  N4  UNL     1      12.699  21.523  15.671  1.00  0.00    -0.338 N 
ATOM     28  H4  UNL     1      11.886  21.977  16.086  1.00  0.00     0.167 HD
BRANCH  27  29
HETATM   29  C13 UNL     1      12.501  20.482  14.740  1.00  0.00     0.099 A 
HETATM   30  C14 UNL     1      11.401  19.651  14.732  1.00  0.00     0.063 A 
HETATM   31 BR1  UNL     1       9.915  19.682  15.927  1.00  0.00    -0.046 Br
HETATM   32  C15 UNL     1      11.549  18.762  13.690  1.00  0.00     0.165 A 
HETATM   33  O3  UNL     1      12.678  19.053  13.113  1.00  0.00    -0.307 OA
HETATM   34  C16 UNL     1      13.283  20.060  13.690  1.00  0.00     0.172 A 
HETATM   35 CL1  UNL     1      14.820  20.812  13.276  1.00  0.00    -0.054 Cl
ENDBRANCH  27  29
ENDBRANCH   5  27
BRANCH   1  36
HETATM   36  C9  UNL     1      17.740  23.416  16.966  1.00  0.00    -0.064 C 
HETATM   37  C8  UNL     1      18.828  23.871  17.219  1.00  0.00    -0.081 C 
BRANCH  37  38
HETATM   38  C7  UNL     1      20.156  24.455  17.520  1.00  0.00     0.217 C 
BRANCH  38  39
HETATM   39  N2  UNL     1      20.636  25.147  16.330  1.00  0.00    -0.346 N 
HETATM   40  C6  UNL     1      20.644  26.552  16.246  1.00  0.00     0.256 C 
HETATM   41  O2  UNL     1      20.197  27.143  17.300  1.00  0.00    -0.267 OA
ATOM     42  H2  UNL     1      20.973  24.601  15.538  1.00  0.00     0.163 HD
BRANCH  40  43
HETATM   43  C5  UNL     1      21.089  27.352  15.132  1.00  0.00     0.087 A 
HETATM   44  C2  UNL     1      22.317  28.021  15.104  1.00  0.00     0.047 A 
HETATM   45  C1  UNL     1      23.317  28.002  16.194  1.00  0.00     0.071 C 
HETATM   46  N1  UNL     1      22.376  28.645  13.933  1.00  0.00    -0.265 N 
HETATM   47  O1  UNL     1      21.312  28.429  13.239  1.00  0.00    -0.242 OA
ATOM     48  H1  UNL     1      23.160  29.220  13.624  1.00  0.00     0.194 HD
HETATM   49  C3  UNL     1      20.499  27.644  13.930  1.00  0.00     0.090 A 
HETATM   50  C4  UNL     1      19.192  27.197  13.436  1.00  0.00     0.080 C 
ENDBRANCH  40  43
ENDBRANCH  38  39
ENDBRANCH  37  38
ENDBRANCH   1  36
TORSDOF 13
ENDMDL
MODEL 4
REMARK VINA RESULT: -9.706841525      1.492      2.081
REMARK  13 active torsions:
REMARK  status: ('A' for Active; 'I' for Inactive)
REMARK    1  A    between atoms: C5_8  and  C6_9 
REMARK       I    between atoms: C6_9  and  N2_11 
REMARK    2  A    between atoms: N2_11  and  C7_13 
REMARK    3  A    between atoms: C7_13  and  C8_14 
REMARK    4  A    between atoms: C9_15  and  C10_16 
REMARK    5  A    between atoms: C12_20  and  N4_21 
REMARK    6  A    between atoms: N4_21  and  C13_23 
REMARK    7  A    between atoms: C17_30  and  C18_31 
REMARK    8  A    between atoms: C19_32  and  C20_33 
REMARK       I    between atoms: C20_33  and  N5_35 
REMARK    9  A    between atoms: N5_35  and  C21_37 
REMARK   10  A    between atoms: C21_37  and  C22_38 
REMARK   11  A    between atoms: C22_38  and  C23_39 
REMARK   12  A    between atoms: C23_39  and  C24_40 
REMARK   13  A    between atoms: C24_40  and  N6_41 
ROOT
HETATM    1  C10 UNL     1      16.312  22.042  16.246  1.00  0.00     0.034 A 
HETATM    2  C11 UNL     1      15.896  21.969  14.930  1.00  0.00     0.110 A 
HETATM    3  N3  UNL     1      14.838  21.244  14.562  1.00  0.00    -0.350 N 
ATOM      4  H3  UNL     1      14.572  21.222  13.577  1.00  0.00     0.166 HD
HETATM    5  C12 UNL     1      14.109  20.539  15.452  1.00  0.00     0.116 A 
HETATM    6  C17 UNL     1      14.450  20.556  16.771  1.00  0.00     0.010 A 
HETATM    7  C31 UNL     1      15.573  21.327  17.147  1.00  0.00     0.037 A 
ENDROOT
BRANCH   6   8
HETATM    8  C18 UNL     1      13.752  19.846  17.801  1.00  0.00     0.021 C 
HETATM    9  C19 UNL     1      14.190  19.035  18.695  1.00  0.00     0.075 C 
BRANCH   9  10
HETATM   10  C20 UNL     1      13.235  18.423  19.666  1.00  0.00     0.241 C 
HETATM   11  O4  UNL     1      13.427  18.575  20.885  1.00  0.00    -0.269 OA
HETATM   12  N5  UNL     1      12.131  17.683  19.207  1.00  0.00    -0.358 N 
ATOM     13  H5  UNL     1      12.014  17.589  18.198  1.00  0.00     0.162 HD
BRANCH  12  14
HETATM   14  C21 UNL     1      11.160  17.052  20.046  1.00  0.00     0.123 C 
BRANCH  14  15
HETATM   15  C22 UNL     1       9.975  16.552  19.270  1.00  0.00     0.021 C 
BRANCH  15  16
HETATM   16  C23 UNL     1      10.305  15.345  18.453  1.00  0.00     0.032 C 
BRANCH  16  17
HETATM   17  C24 UNL     1       9.319  14.210  18.593  1.00  0.00     0.273 C 
BRANCH  17  18
HETATM   18  N6  UNL     1       9.498  13.368  17.425  1.00  0.00     0.096 N 
HETATM   19  C25 UNL     1      10.326  13.975  16.427  1.00  0.00     0.297 C 
HETATM   20  C26 UNL     1       9.960  13.652  15.019  1.00  0.00     0.100 C 
HETATM   21  C27 UNL     1      10.803  14.565  14.117  1.00  0.00     0.033 C 
HETATM   22  N7  UNL     1       8.591  13.991  14.798  1.00  0.00    -0.414 N 
HETATM   23  C28 UNL     1       7.672  13.545  15.785  1.00  0.00     0.149 C 
ATOM     24  H7  UNL     1       8.290  14.520  13.979  1.00  0.00     0.153 HD
HETATM   25  C29 UNL     1       8.283  12.804  16.938  1.00  0.00     0.236 C 
HETATM   26  C30 UNL     1       8.501  11.339  16.636  1.00  0.00     0.044 C 
ENDBRANCH  17  18
ENDBRANCH  16  17
ENDBRANCH  15  16
ENDBRANCH  14  15
ENDBRANCH  12  14
ENDBRANCH   9  10
ENDBRANCH   6   8
BRANCH   5  27
HETATM   27  N4  UNL     1      13.079  19.851  15.010  1.00  0.00    -0.338 N 
ATOM     28  H4  UNL     1      13.214  18.877  14.739  1.00  0.00     0.167 HD
BRANCH  27  29
HETATM   29  C13 UNL     1      11.793  20.420  14.899  1.00  0.00     0.099 A 
HETATM   30  C14 UNL     1      10.627  19.768  15.236  1.00  0.00     0.063 A 
HETATM   31 BR1  UNL     1      10.444  17.995  15.915  1.00  0.00    -0.046 Br
HETATM   32  C15 UNL     1       9.577  20.627  14.997  1.00  0.00     0.165 A 
HETATM   33  O3  UNL     1      10.096  21.729  14.543  1.00  0.00    -0.307 OA
HETATM   34  C16 UNL     1      11.401  21.665  14.463  1.00  0.00     0.172 A 
HETATM   35 CL1  UNL     1      12.537  22.891  13.912  1.00  0.00    -0.054 Cl
ENDBRANCH  27  29
ENDBRANCH   5  27
BRANCH   1  36
HETATM   36  C9  UNL     1      17.458  22.829  16.627  1.00  0.00    -0.064 C 
HETATM   37  C8  UNL     1      18.428  23.476  16.938  1.00  0.00    -0.081 C 
BRANCH  37  38
HETATM   38  C7  UNL     1      19.637  24.251  17.308  1.00  0.00     0.217 C 
BRANCH  38  39
HETATM   39  N2  UNL     1      19.626  25.504  16.563  1.00  0.00    -0.346 N 
HETATM   40  C6  UNL     1      20.276  25.630  15.320  1.00  0.00     0.256 C 
HETATM   41  O2  UNL     1      20.862  24.554  14.924  1.00  0.00    -0.267 OA
ATOM     42  H2  UNL     1      19.136  26.310  16.951  1.00  0.00     0.163 HD
BRANCH  40  43
HETATM   43  C5  UNL     1      20.339  26.807  14.490  1.00  0.00     0.087 A 
HETATM   44  C2  UNL     1      19.327  27.178  13.599  1.00  0.00     0.047 A 
HETATM   45  C1  UNL     1      18.069  26.430  13.387  1.00  0.00     0.071 C 
HETATM   46  N1  UNL     1      19.734  28.301  13.017  1.00  0.00    -0.265 N 
HETATM   47  O1  UNL     1      20.891  28.657  13.458  1.00  0.00    -0.242 OA
ATOM     48  H1  UNL     1      19.201  28.812  12.314  1.00  0.00     0.194 HD
HETATM   49  C3  UNL     1      21.299  27.776  14.359  1.00  0.00     0.090 A 
HETATM   50  C4  UNL     1      22.581  27.875  15.066  1.00  0.00     0.080 C 
ENDBRANCH  40  43
ENDBRANCH  38  39
ENDBRANCH  37  38
ENDBRANCH   1  36
TORSDOF 13
ENDMDL
MODEL 5
REMARK VINA RESULT: -9.655357256      3.488     13.494
REMARK  13 active torsions:
REMARK  status: ('A' for Active; 'I' for Inactive)
REMARK    1  A    between atoms: C5_8  and  C6_9 
REMARK       I    between atoms: C6_9  and  N2_11 
REMARK    2  A    between atoms: N2_11  and  C7_13 
REMARK    3  A    between atoms: C7_13  and  C8_14 
REMARK    4  A    between atoms: C9_15  and  C10_16 
REMARK    5  A    between atoms: C12_20  and  N4_21 
REMARK    6  A    between atoms: N4_21  and  C13_23 
REMARK    7  A    between atoms: C17_30  and  C18_31 
REMARK    8  A    between atoms: C19_32  and  C20_33 
REMARK       I    between atoms: C20_33  and  N5_35 
REMARK    9  A    between atoms: N5_35  and  C21_37 
REMARK   10  A    between atoms: C21_37  and  C22_38 
REMARK   11  A    between atoms: C22_38  and  C23_39 
REMARK   12  A    between atoms: C23_39  and  C24_40 
REMARK   13  A    between atoms: C24_40  and  N6_41 
ROOT
HETATM    1  C10 UNL     1      14.768  22.784  16.552  1.00  0.00     0.034 A 
HETATM    2  C11 UNL     1      14.699  22.908  17.927  1.00  0.00     0.110 A 
HETATM    3  N3  UNL     1      15.631  23.558  18.627  1.00  0.00    -0.350 N 
ATOM      4  H3  UNL     1      15.535  23.620  19.640  1.00  0.00     0.166 HD
HETATM    5  C12 UNL     1      16.698  24.134  18.035  1.00  0.00     0.116 A 
HETATM    6  C17 UNL     1      16.844  24.059  16.682  1.00  0.00     0.010 A 
HETATM    7  C31 UNL     1      15.850  23.368  15.953  1.00  0.00     0.037 A 
ENDROOT
BRANCH   6   8
HETATM    8  C18 UNL     1      17.934  24.630  15.948  1.00  0.00     0.021 C 
HETATM    9  C19 UNL     1      17.931  25.434  14.947  1.00  0.00     0.075 C 
BRANCH   9  10
HETATM   10  C20 UNL     1      19.228  25.884  14.360  1.00  0.00     0.241 C 
HETATM   11  O4  UNL     1      20.134  25.053  14.177  1.00  0.00    -0.269 OA
HETATM   12  N5  UNL     1      19.422  27.234  14.016  1.00  0.00    -0.358 N 
ATOM     13  H5  UNL     1      18.648  27.878  14.181  1.00  0.00     0.162 HD
BRANCH  12  14
HETATM   14  C21 UNL     1      20.621  27.772  13.453  1.00  0.00     0.123 C 
BRANCH  14  15
HETATM   15  C22 UNL     1      21.467  28.472  14.478  1.00  0.00     0.021 C 
BRANCH  15  16
HETATM   16  C23 UNL     1      22.490  27.563  15.080  1.00  0.00     0.032 C 
BRANCH  16  17
HETATM   17  C24 UNL     1      23.827  28.217  15.341  1.00  0.00     0.273 C 
BRANCH  17  18
HETATM   18  N6  UNL     1      24.653  27.211  15.983  1.00  0.00     0.096 N 
HETATM   19  C25 UNL     1      24.053  26.676  17.168  1.00  0.00     0.297 C 
HETATM   20  C26 UNL     1      25.010  26.312  18.251  1.00  0.00     0.100 C 
HETATM   21  C27 UNL     1      24.172  25.984  19.495  1.00  0.00     0.033 C 
HETATM   22  N7  UNL     1      25.813  27.448  18.573  1.00  0.00    -0.414 N 
HETATM   23  C28 UNL     1      26.376  28.144  17.471  1.00  0.00     0.149 C 
ATOM     24  H7  UNL     1      25.974  27.741  19.537  1.00  0.00     0.153 HD
HETATM   25  C29 UNL     1      26.018  27.599  16.120  1.00  0.00     0.236 C 
HETATM   26  C30 UNL     1      26.905  26.447  15.705  1.00  0.00     0.044 C 
ENDBRANCH  17  18
ENDBRANCH  16  17
ENDBRANCH  15  16
ENDBRANCH  14  15
ENDBRANCH  12  14
ENDBRANCH   9  10
ENDBRANCH   6   8
BRANCH   5  27
HETATM   27  N4  UNL     1      17.572  24.757  18.794  1.00  0.00    -0.338 N 
ATOM     28  H4  UNL     1      17.401  25.729  19.048  1.00  0.00     0.167 HD
BRANCH  27  29
HETATM   29  C13 UNL     1      18.739  24.120  19.266  1.00  0.00     0.099 A 
HETATM   30  C14 UNL     1      20.019  24.560  19.006  1.00  0.00     0.063 A 
HETATM   31 BR1  UNL     1      20.537  26.082  17.980  1.00  0.00    -0.046 Br
HETATM   32  C15 UNL     1      20.897  23.697  19.624  1.00  0.00     0.165 A 
HETATM   33  O3  UNL     1      20.173  22.794  20.218  1.00  0.00    -0.307 OA
HETATM   34  C16 UNL     1      18.892  22.994  20.041  1.00  0.00     0.172 A 
HETATM   35 CL1  UNL     1      17.532  22.051  20.642  1.00  0.00    -0.054 Cl
ENDBRANCH  27  29
ENDBRANCH   5  27
BRANCH   1  36
HETATM   36  C9  UNL     1      13.752  22.078  15.811  1.00  0.00    -0.064 C 
HETATM   37  C8  UNL     1      12.910  21.471  15.197  1.00  0.00    -0.081 C 
BRANCH  37  38
HETATM   38  C7  UNL     1      11.887  20.701  14.449  1.00  0.00     0.217 C 
BRANCH  38  39
HETATM   39  N2  UNL     1      11.942  19.312  14.891  1.00  0.00    -0.346 N 
HETATM   40  C6  UNL     1      10.791  18.631  15.328  1.00  0.00     0.256 C 
HETATM   41  O2  UNL     1       9.717  19.342  15.299  1.00  0.00    -0.267 OA
ATOM     42  H2  UNL     1      12.836  18.822  14.882  1.00  0.00     0.163 HD
BRANCH  40  43
HETATM   43  C5  UNL     1      10.713  17.266  15.788  1.00  0.00     0.087 A 
HETATM   44  C2  UNL     1      10.667  16.909  17.140  1.00  0.00     0.047 A 
HETATM   45  C1  UNL     1      10.690  17.863  18.269  1.00  0.00     0.071 C 
HETATM   46  N1  UNL     1      10.602  15.582  17.173  1.00  0.00    -0.265 N 
HETATM   47  O1  UNL     1      10.603  15.088  15.983  1.00  0.00    -0.242 OA
ATOM     48  H1  UNL     1      10.557  15.029  18.028  1.00  0.00     0.194 HD
HETATM   49  C3  UNL     1      10.669  16.079  15.105  1.00  0.00     0.090 A 
HETATM   50  C4  UNL     1      10.689  15.874  13.653  1.00  0.00     0.080 C 
ENDBRANCH  40  43
ENDBRANCH  38  39
ENDBRANCH  37  38
ENDBRANCH   1  36
TORSDOF 13
ENDMDL
