MODEL 1
REMARK VINA RESULT: -10.667080784      0.000      0.000
REMARK  14 active torsions:
REMARK  status: ('A' for Active; 'I' for Inactive)
REMARK    1  A    between atoms: C7_7  and  C8_8 
REMARK    2  A    between atoms: C8_8  and  N1_9 
REMARK    3  A    between atoms: N1_9  and  C9_10 
REMARK    4  A    between atoms: N1_9  and  C11_16 
REMARK    5  A    between atoms: C9_10  and  C10_11 
REMARK    6  A    between atoms: C10_11  and  N2_12 
REMARK    7  A    between atoms: C11_16  and  C12_17 
REMARK    8  A    between atoms: C11_16  and  C17_26 
REMARK    9  A    between atoms: C12_17  and  N3_18 
REMARK       I    between atoms: C17_26  and  N5_28 
REMARK   10  A    between atoms: N5_28  and  C18_30 
REMARK   11  A    between atoms: C18_30  and  C19_31 
REMARK   12  A    between atoms: C20_32  and  C21_33 
REMARK   13  A    between atoms: C26_42  and  N8_43 
REMARK   14  A    between atoms: N8_43  and  C27_45 
ROOT
HETATM    1  C17 UNL     1      17.208  21.795  17.062  1.00  0.00     0.266 C 
HETATM    2  O1  UNL     1      17.988  20.792  16.982  1.00  0.00    -0.266 OA
HETATM    3  N5  UNL     1      16.422  21.874  18.236  1.00  0.00    -0.345 N 
ATOM      4  H5  UNL     1      15.796  22.671  18.357  1.00  0.00     0.163 HD
ENDROOT
BRANCH   1   5
HETATM    5  C11 UNL     1      17.210  22.752  15.940  1.00  0.00     0.108 C 
BRANCH   5   6
HETATM    6  N1  UNL     1      17.947  23.967  16.290  1.00  0.00    -0.356 N 
BRANCH   6   7
HETATM    7  C8  UNL     1      18.943  24.293  15.375  1.00  0.00     0.069 C 
BRANCH   7   8
HETATM    8  C7  UNL     1      19.202  25.701  14.997  1.00  0.00     0.028 C 
HETATM    9  C2  UNL     1      20.653  26.094  14.888  1.00  0.00    -0.010 C 
HETATM   10  C1  UNL     1      21.554  24.914  14.583  1.00  0.00     0.010 C 
HETATM   11  C3  UNL     1      20.901  27.119  13.827  1.00  0.00     0.005 C 
HETATM   12  C4  UNL     1      19.749  28.023  13.539  1.00  0.00     0.000 C 
HETATM   13  C5  UNL     1      18.422  27.367  13.397  1.00  0.00     0.001 C 
HETATM   14  C6  UNL     1      18.589  25.876  13.565  1.00  0.00     0.010 C 
ENDBRANCH   7   8
ENDBRANCH   6   7
BRANCH   6  15
HETATM   15  C9  UNL     1      17.063  24.948  16.797  1.00  0.00     0.155 C 
BRANCH  15  16
HETATM   16  C10 UNL     1      16.883  25.104  18.259  1.00  0.00     0.249 C 
BRANCH  16  17
HETATM   17  N2  UNL     1      15.455  24.871  18.624  1.00  0.00    -0.078 N 
ATOM     18  H23 UNL     1      15.000  24.214  17.989  1.00  0.00     0.274 HD
ATOM     19  H22 UNL     1      15.362  24.333  19.486  1.00  0.00     0.274 HD
ATOM     20  H21 UNL     1      14.959  25.761  18.675  1.00  0.00     0.274 HD
ENDBRANCH  16  17
ENDBRANCH  15  16
ENDBRANCH   6  15
ENDBRANCH   5   6
BRANCH   5  21
HETATM   21  C12 UNL     1      15.938  22.907  15.224  1.00  0.00     0.335 C 
BRANCH  21  22
HETATM   22  N3  UNL     1      15.078  21.792  15.133  1.00  0.00     0.097 N 
HETATM   23  C13 UNL     1      13.797  21.933  15.765  1.00  0.00     0.300 C 
HETATM   24  C14 UNL     1      12.791  22.631  14.877  1.00  0.00     0.262 C 
HETATM   25  N4  UNL     1      12.591  21.771  13.730  1.00  0.00    -0.072 N 
HETATM   26  C15 UNL     1      13.820  21.647  13.023  1.00  0.00     0.262 C 
ATOM     27  H42 UNL     1      12.199  20.865  13.988  1.00  0.00     0.277 HD
ATOM     28  H41 UNL     1      11.830  22.092  13.132  1.00  0.00     0.277 HD
HETATM   29  C16 UNL     1      15.000  21.192  13.828  1.00  0.00     0.300 C 
ENDBRANCH  21  22
ENDBRANCH   5  21
ENDBRANCH   1   5
BRANCH   3  30
HETATM   30  C18 UNL     1      16.475  20.860  19.272  1.00  0.00     0.217 C 
BRANCH  30  31
HETATM   31  C19 UNL     1      15.276  20.067  19.331  1.00  0.00    -0.081 C 
HETATM   32  C20 UNL     1      14.297  19.367  19.390  1.00  0.00    -0.065 C 
BRANCH  32  33
HETATM   33  C21 UNL     1      13.163  18.495  19.472  1.00  0.00     0.018 A 
HETATM   34  C22 UNL     1      12.890  17.807  20.617  1.00  0.00     0.023 A 
HETATM   35  C23 UNL     1      11.820  16.951  20.681  1.00  0.00     0.032 A 
HETATM   36  C24 UNL     1      11.006  16.786  19.568  1.00  0.00     0.047 A 
HETATM   37  N6  UNL     1       9.959  15.946  19.616  1.00  0.00    -0.352 N 
HETATM   38  C33 UNL     1      11.280  17.474  18.423  1.00  0.00     0.036 A 
HETATM   39  C25 UNL     1       9.205  15.809  18.528  1.00  0.00     0.182 A 
ATOM     40  H6  UNL     1       9.746  15.426  20.468  1.00  0.00     0.166 HD
HETATM   41  N7  UNL     1       9.462  16.478  17.400  1.00  0.00    -0.338 N 
HETATM   42  C26 UNL     1      10.486  17.334  17.268  1.00  0.00     0.119 A 
ATOM     43  H7  UNL     1       8.847  16.331  16.599  1.00  0.00     0.168 HD
HETATM   44  C34 UNL     1      12.343  18.324  18.361  1.00  0.00     0.038 A 
BRANCH  42  45
HETATM   45  N8  UNL     1      10.818  18.008  16.277  1.00  0.00    -0.339 N 
ATOM     46  H8  UNL     1      11.732  17.741  15.913  1.00  0.00     0.167 HD
BRANCH  45  47
HETATM   47  C27 UNL     1      10.242  19.027  15.560  1.00  0.00     0.072 A 
HETATM   48  C28 UNL     1       9.908  20.239  16.106  1.00  0.00     0.034 A 
HETATM   49  C29 UNL     1       9.321  21.237  15.314  1.00  0.00     0.021 A 
HETATM   50  C30 UNL     1       9.082  20.992  13.983  1.00  0.00     0.014 A 
HETATM   51 BR1  UNL     1       8.287  22.344  12.908  1.00  0.00    -0.051 Br
HETATM   52  C31 UNL     1       9.408  19.782  13.407  1.00  0.00     0.063 A 
HETATM   53  C32 UNL     1       9.972  18.836  14.187  1.00  0.00     0.144 A 
HETATM   54  F1  UNL     1      10.299  17.641  13.648  1.00  0.00    -0.204 F 
ENDBRANCH  45  47
ENDBRANCH  42  45
ENDBRANCH  32  33
ENDBRANCH  30  31
ENDBRANCH   3  30
TORSDOF 14
ENDMDL
MODEL 2
REMARK VINA RESULT: -10.255960649      1.249      1.512
REMARK  14 active torsions:
REMARK  status: ('A' for Active; 'I' for Inactive)
REMARK    1  A    between atoms: C7_7  and  C8_8 
REMARK    2  A    between atoms: C8_8  and  N1_9 
REMARK    3  A    between atoms: N1_9  and  C9_10 
REMARK    4  A    between atoms: N1_9  and  C11_16 
REMARK    5  A    between atoms: C9_10  and  C10_11 
REMARK    6  A    between atoms: C10_11  and  N2_12 
REMARK    7  A    between atoms: C11_16  and  C12_17 
REMARK    8  A    between atoms: C11_16  and  C17_26 
REMARK    9  A    between atoms: C12_17  and  N3_18 
REMARK       I    between atoms: C17_26  and  N5_28 
REMARK   10  A    between atoms: N5_28  and  C18_30 
REMARK   11  A    between atoms: C18_30  and  C19_31 
REMARK   12  A    between atoms: C20_32  and  C21_33 
REMARK   13  A    between atoms: C26_42  and  N8_43 
REMARK   14  A    between atoms: N8_43  and  C27_45 
ROOT
HETATM    1  C17 UNL     1      17.214  21.730  16.964  1.00  0.00     0.266 C 
HETATM    2  O1  UNL     1      18.100  20.817  16.893  1.00  0.00    -0.266 OA
HETATM    3  N5  UNL     1      16.309  21.629  18.047  1.00  0.00    -0.345 N 
ATOM      4  H5  UNL     1      15.594  22.348  18.161  1.00  0.00     0.163 HD
ENDROOT
BRANCH   1   5
HETATM    5  C11 UNL     1      17.229  22.778  15.927  1.00  0.00     0.108 C 
BRANCH   5   6
HETATM    6  N1  UNL     1      17.989  23.947  16.374  1.00  0.00    -0.356 N 
BRANCH   6   7
HETATM    7  C8  UNL     1      19.033  24.287  15.520  1.00  0.00     0.069 C 
BRANCH   7   8
HETATM    8  C7  UNL     1      19.223  25.683  15.065  1.00  0.00     0.028 C 
HETATM    9  C2  UNL     1      20.651  26.113  14.848  1.00  0.00    -0.010 C 
HETATM   10  C1  UNL     1      21.569  24.947  14.539  1.00  0.00     0.010 C 
HETATM   11  C3  UNL     1      20.801  27.095  13.730  1.00  0.00     0.005 C 
HETATM   12  C4  UNL     1      19.604  27.951  13.475  1.00  0.00     0.000 C 
HETATM   13  C5  UNL     1      18.293  27.251  13.446  1.00  0.00     0.001 C 
HETATM   14  C6  UNL     1      18.518  25.774  13.669  1.00  0.00     0.010 C 
ENDBRANCH   7   8
ENDBRANCH   6   7
BRANCH   6  15
HETATM   15  C9  UNL     1      17.114  24.928  16.897  1.00  0.00     0.155 C 
BRANCH  15  16
HETATM   16  C10 UNL     1      16.804  24.952  18.345  1.00  0.00     0.249 C 
BRANCH  16  17
HETATM   17  N2  UNL     1      15.342  24.739  18.556  1.00  0.00    -0.078 N 
ATOM     18  H23 UNL     1      14.897  24.308  17.745  1.00  0.00     0.274 HD
ATOM     19  H22 UNL     1      15.157  24.001  19.236  1.00  0.00     0.274 HD
ATOM     20  H21 UNL     1      14.896  25.618  18.816  1.00  0.00     0.274 HD
ENDBRANCH  16  17
ENDBRANCH  15  16
ENDBRANCH   6  15
ENDBRANCH   5   6
BRANCH   5  21
HETATM   21  C12 UNL     1      15.957  23.014  15.233  1.00  0.00     0.335 C 
BRANCH  21  22
HETATM   22  N3  UNL     1      14.972  22.004  15.271  1.00  0.00     0.097 N 
HETATM   23  C13 UNL     1      13.695  22.392  15.798  1.00  0.00     0.300 C 
HETATM   24  C14 UNL     1      12.815  23.043  14.752  1.00  0.00     0.262 C 
HETATM   25  N4  UNL     1      12.558  22.032  13.748  1.00  0.00    -0.072 N 
HETATM   26  C15 UNL     1      13.789  21.654  13.143  1.00  0.00     0.262 C 
ATOM     27  H42 UNL     1      12.049  21.232  14.124  1.00  0.00     0.277 HD
ATOM     28  H41 UNL     1      11.865  22.334  13.064  1.00  0.00     0.277 HD
HETATM   29  C16 UNL     1      14.873  21.209  14.078  1.00  0.00     0.300 C 
ENDBRANCH  21  22
ENDBRANCH   5  21
ENDBRANCH   1   5
BRANCH   3  30
HETATM   30  C18 UNL     1      16.364  20.538  19.001  1.00  0.00     0.217 C 
BRANCH  30  31
HETATM   31  C19 UNL     1      15.144  19.776  19.039  1.00  0.00    -0.081 C 
HETATM   32  C20 UNL     1      14.140  19.112  19.104  1.00  0.00    -0.065 C 
BRANCH  32  33
HETATM   33  C21 UNL     1      12.968  18.295  19.217  1.00  0.00     0.018 A 
HETATM   34  C22 UNL     1      12.508  17.897  20.437  1.00  0.00     0.023 A 
HETATM   35  C23 UNL     1      11.403  17.090  20.538  1.00  0.00     0.032 A 
HETATM   36  C24 UNL     1      10.746  16.678  19.386  1.00  0.00     0.047 A 
HETATM   37  N6  UNL     1       9.666  15.884  19.472  1.00  0.00    -0.352 N 
HETATM   38  C33 UNL     1      11.207  17.077  18.167  1.00  0.00     0.036 A 
HETATM   39  C25 UNL     1       9.067  15.505  18.347  1.00  0.00     0.182 A 
ATOM     40  H6  UNL     1       9.314  15.579  20.380  1.00  0.00     0.166 HD
HETATM   41  N7  UNL     1       9.508  15.889  17.145  1.00  0.00    -0.338 N 
HETATM   42  C26 UNL     1      10.577  16.680  16.971  1.00  0.00     0.119 A 
ATOM     43  H7  UNL     1       9.006  15.566  16.319  1.00  0.00     0.168 HD
HETATM   44  C34 UNL     1      12.305  17.878  18.068  1.00  0.00     0.038 A 
BRANCH  42  45
HETATM   45  N8  UNL     1      11.074  17.101  15.912  1.00  0.00    -0.339 N 
ATOM     46  H8  UNL     1      12.053  17.364  16.018  1.00  0.00     0.167 HD
BRANCH  45  47
HETATM   47  C27 UNL     1      10.613  17.294  14.634  1.00  0.00     0.072 A 
HETATM   48  C28 UNL     1       9.963  18.432  14.231  1.00  0.00     0.034 A 
HETATM   49  C29 UNL     1       9.517  18.564  12.908  1.00  0.00     0.021 A 
HETATM   50  C30 UNL     1       9.735  17.543  12.014  1.00  0.00     0.014 A 
HETATM   51 BR1  UNL     1       9.132  17.720  10.220  1.00  0.00    -0.051 Br
HETATM   52  C31 UNL     1      10.386  16.387  12.392  1.00  0.00     0.063 A 
HETATM   53  C32 UNL     1      10.807  16.281  13.670  1.00  0.00     0.144 A 
HETATM   54  F1  UNL     1      11.445  15.158  14.066  1.00  0.00    -0.204 F 
ENDBRANCH  45  47
ENDBRANCH  42  45
ENDBRANCH  32  33
ENDBRANCH  30  31
ENDBRANCH   3  30
TORSDOF 14
ENDMDL
MODEL 3
REMARK VINA RESULT: -9.830507770      4.965     12.165
REMARK  14 active torsions:
REMARK  status: ('A' for Active; 'I' for Inactive)
REMARK    1  A    between atoms: C7_7  and  C8_8 
REMARK    2  A    between atoms: C8_8  and  N1_9 
REMARK    3  A    between atoms: N1_9  and  C9_10 
REMARK    4  A    between atoms: N1_9  and  C11_16 
REMARK    5  A    between atoms: C9_10  and  C10_11 
REMARK    6  A    between atoms: C10_11  and  N2_12 
REMARK    7  A    between atoms: C11_16  and  C12_17 
REMARK    8  A    between atoms: C11_16  and  C17_26 
REMARK    9  A    between atoms: C12_17  and  N3_18 
REMARK       I    between atoms: C17_26  and  N5_28 
REMARK   10  A    between atoms: N5_28  and  C18_30 
REMARK   11  A    between atoms: C18_30  and  C19_31 
REMARK   12  A    between atoms: C20_32  and  C21_33 
REMARK   13  A    between atoms: C26_42  and  N8_43 
REMARK   14  A    between atoms: N8_43  and  C27_45 
ROOT
HETATM    1  C17 UNL     1      16.525  22.081  16.937  1.00  0.00     0.266 C 
HETATM    2  O1  UNL     1      16.867  21.408  15.912  1.00  0.00    -0.266 OA
HETATM    3  N5  UNL     1      16.342  23.469  16.732  1.00  0.00    -0.345 N 
ATOM      4  H5  UNL     1      16.047  24.049  17.518  1.00  0.00     0.163 HD
ENDROOT
BRANCH   1   5
HETATM    5  C11 UNL     1      16.359  21.352  18.208  1.00  0.00     0.108 C 
BRANCH   5   6
HETATM    6  N1  UNL     1      15.140  20.542  18.191  1.00  0.00    -0.356 N 
BRANCH   6   7
HETATM    7  C8  UNL     1      14.981  19.758  19.330  1.00  0.00     0.069 C 
BRANCH   7   8
HETATM    8  C7  UNL     1      13.698  19.076  19.615  1.00  0.00     0.028 C 
HETATM    9  C2  UNL     1      13.480  17.768  18.899  1.00  0.00    -0.010 C 
HETATM   10  C1  UNL     1      14.779  17.089  18.518  1.00  0.00     0.010 C 
HETATM   11  C3  UNL     1      12.694  16.785  19.708  1.00  0.00     0.005 C 
HETATM   12  C4  UNL     1      11.746  17.389  20.691  1.00  0.00     0.000 C 
HETATM   13  C5  UNL     1      12.280  18.506  21.514  1.00  0.00     0.001 C 
HETATM   14  C6  UNL     1      13.725  18.742  21.146  1.00  0.00     0.010 C 
ENDBRANCH   7   8
ENDBRANCH   6   7
BRANCH   6  15
HETATM   15  C9  UNL     1      14.065  21.286  17.653  1.00  0.00     0.155 C 
BRANCH  15  16
HETATM   16  C10 UNL     1      13.390  20.831  16.416  1.00  0.00     0.249 C 
BRANCH  16  17
HETATM   17  N2  UNL     1      12.963  22.010  15.606  1.00  0.00    -0.078 N 
ATOM     18  H23 UNL     1      13.755  22.595  15.335  1.00  0.00     0.274 HD
ATOM     19  H22 UNL     1      12.652  21.741  14.672  1.00  0.00     0.274 HD
ATOM     20  H21 UNL     1      12.251  22.538  16.109  1.00  0.00     0.274 HD
ENDBRANCH  16  17
ENDBRANCH  15  16
ENDBRANCH   6  15
ENDBRANCH   5   6
BRANCH   5  21
HETATM   21  C12 UNL     1      16.659  22.111  19.429  1.00  0.00     0.335 C 
BRANCH  21  22
HETATM   22  N3  UNL     1      17.997  22.170  19.872  1.00  0.00     0.097 N 
HETATM   23  C13 UNL     1      18.947  22.694  18.934  1.00  0.00     0.300 C 
HETATM   24  C14 UNL     1      19.000  24.207  18.954  1.00  0.00     0.262 C 
HETATM   25  N4  UNL     1      19.471  24.582  20.270  1.00  0.00    -0.072 N 
HETATM   26  C15 UNL     1      18.530  24.142  21.243  1.00  0.00     0.262 C 
ATOM     27  H42 UNL     1      20.413  24.238  20.458  1.00  0.00     0.277 HD
ATOM     28  H41 UNL     1      19.665  25.580  20.342  1.00  0.00     0.277 HD
HETATM   29  C16 UNL     1      18.173  22.686  21.202  1.00  0.00     0.300 C 
ENDBRANCH  21  22
ENDBRANCH   5  21
ENDBRANCH   1   5
BRANCH   3  30
HETATM   30  C18 UNL     1      16.559  24.095  15.442  1.00  0.00     0.217 C 
BRANCH  30  31
HETATM   31  C19 UNL     1      17.710  24.957  15.432  1.00  0.00    -0.081 C 
HETATM   32  C20 UNL     1      18.682  25.669  15.381  1.00  0.00    -0.065 C 
BRANCH  32  33
HETATM   33  C21 UNL     1      19.841  26.504  15.271  1.00  0.00     0.018 A 
HETATM   34  C22 UNL     1      20.011  27.327  14.197  1.00  0.00     0.023 A 
HETATM   35  C23 UNL     1      21.137  28.103  14.082  1.00  0.00     0.032 A 
HETATM   36  C24 UNL     1      22.111  28.049  15.071  1.00  0.00     0.047 A 
HETATM   37  N6  UNL     1      23.220  28.800  14.967  1.00  0.00    -0.352 N 
HETATM   38  C33 UNL     1      21.939  27.227  16.144  1.00  0.00     0.036 A 
HETATM   39  C25 UNL     1      24.134  28.718  15.930  1.00  0.00     0.182 A 
ATOM     40  H6  UNL     1      23.358  29.419  14.167  1.00  0.00     0.166 HD
HETATM   41  N7  UNL     1      23.978  27.916  16.988  1.00  0.00    -0.338 N 
HETATM   42  C26 UNL     1      22.903  27.135  17.168  1.00  0.00     0.119 A 
ATOM     43  H7  UNL     1      24.714  27.897  17.694  1.00  0.00     0.168 HD
HETATM   44  C34 UNL     1      20.821  26.456  16.257  1.00  0.00     0.038 A 
BRANCH  42  45
HETATM   45  N8  UNL     1      22.650  26.358  18.104  1.00  0.00    -0.339 N 
ATOM     46  H8  UNL     1      22.570  25.389  17.796  1.00  0.00     0.167 HD
BRANCH  45  47
HETATM   47  C27 UNL     1      22.452  26.498  19.456  1.00  0.00     0.072 A 
HETATM   48  C28 UNL     1      21.566  27.391  19.999  1.00  0.00     0.034 A 
HETATM   49  C29 UNL     1      21.414  27.483  21.391  1.00  0.00     0.021 A 
HETATM   50  C30 UNL     1      22.161  26.669  22.209  1.00  0.00     0.014 A 
HETATM   51 BR1  UNL     1      21.956  26.792  24.095  1.00  0.00    -0.051 Br
HETATM   52  C31 UNL     1      23.060  25.761  21.689  1.00  0.00     0.063 A 
HETATM   53  C32 UNL     1      23.190  25.690  20.347  1.00  0.00     0.144 A 
HETATM   54  F1  UNL     1      24.065  24.810  19.813  1.00  0.00    -0.204 F 
ENDBRANCH  45  47
ENDBRANCH  42  45
ENDBRANCH  32  33
ENDBRANCH  30  31
ENDBRANCH   3  30
TORSDOF 14
ENDMDL
MODEL 4
REMARK VINA RESULT: -9.756196845      5.023     12.233
REMARK  14 active torsions:
REMARK  status: ('A' for Active; 'I' for Inactive)
REMARK    1  A    between atoms: C7_7  and  C8_8 
REMARK    2  A    between atoms: C8_8  and  N1_9 
REMARK    3  A    between atoms: N1_9  and  C9_10 
REMARK    4  A    between atoms: N1_9  and  C11_16 
REMARK    5  A    between atoms: C9_10  and  C10_11 
REMARK    6  A    between atoms: C10_11  and  N2_12 
REMARK    7  A    between atoms: C11_16  and  C12_17 
REMARK    8  A    between atoms: C11_16  and  C17_26 
REMARK    9  A    between atoms: C12_17  and  N3_18 
REMARK       I    between atoms: C17_26  and  N5_28 
REMARK   10  A    between atoms: N5_28  and  C18_30 
REMARK   11  A    between atoms: C18_30  and  C19_31 
REMARK   12  A    between atoms: C20_32  and  C21_33 
REMARK   13  A    between atoms: C26_42  and  N8_43 
REMARK   14  A    between atoms: N8_43  and  C27_45 
ROOT
HETATM    1  C17 UNL     1      16.784  22.156  16.174  1.00  0.00     0.266 C 
HETATM    2  O1  UNL     1      16.352  21.782  15.036  1.00  0.00    -0.266 OA
HETATM    3  N5  UNL     1      17.208  23.503  16.261  1.00  0.00    -0.345 N 
ATOM      4  H5  UNL     1      17.543  23.858  17.158  1.00  0.00     0.163 HD
ENDROOT
BRANCH   1   5
HETATM    5  C11 UNL     1      16.795  21.160  17.261  1.00  0.00     0.108 C 
BRANCH   5   6
HETATM    6  N1  UNL     1      15.456  20.988  17.827  1.00  0.00    -0.356 N 
BRANCH   6   7
HETATM    7  C8  UNL     1      15.149  19.665  18.130  1.00  0.00     0.069 C 
BRANCH   7   8
HETATM    8  C7  UNL     1      14.021  19.330  19.028  1.00  0.00     0.028 C 
HETATM    9  C2  UNL     1      12.644  19.605  18.481  1.00  0.00    -0.010 C 
HETATM   10  C1  UNL     1      12.606  19.590  16.967  1.00  0.00     0.010 C 
HETATM   11  C3  UNL     1      11.621  18.621  18.955  1.00  0.00     0.005 C 
HETATM   12  C4  UNL     1      11.904  18.006  20.285  1.00  0.00     0.000 C 
HETATM   13  C5  UNL     1      13.296  17.531  20.505  1.00  0.00     0.001 C 
HETATM   14  C6  UNL     1      14.104  17.781  19.255  1.00  0.00     0.010 C 
ENDBRANCH   7   8
ENDBRANCH   6   7
BRANCH   6  15
HETATM   15  C9  UNL     1      15.169  22.037  18.731  1.00  0.00     0.155 C 
BRANCH  15  16
HETATM   16  C10 UNL     1      14.367  23.202  18.290  1.00  0.00     0.249 C 
BRANCH  16  17
HETATM   17  N2  UNL     1      15.117  24.466  18.554  1.00  0.00    -0.078 N 
ATOM     18  H23 UNL     1      14.894  24.858  19.470  1.00  0.00     0.274 HD
ATOM     19  H22 UNL     1      16.112  24.297  18.703  1.00  0.00     0.274 HD
ATOM     20  H21 UNL     1      14.951  25.133  17.801  1.00  0.00     0.274 HD
ENDBRANCH  16  17
ENDBRANCH  15  16
ENDBRANCH   6  15
ENDBRANCH   5   6
BRANCH   5  21
HETATM   21  C12 UNL     1      17.927  21.237  18.193  1.00  0.00     0.335 C 
BRANCH  21  22
HETATM   22  N3  UNL     1      17.882  22.196  19.227  1.00  0.00     0.097 N 
HETATM   23  C13 UNL     1      18.112  21.700  20.554  1.00  0.00     0.300 C 
HETATM   24  C14 UNL     1      19.586  21.593  20.880  1.00  0.00     0.262 C 
HETATM   25  N4  UNL     1      20.111  22.941  20.848  1.00  0.00    -0.072 N 
HETATM   26  C15 UNL     1      19.968  23.464  19.531  1.00  0.00     0.262 C 
ATOM     27  H42 UNL     1      19.682  23.542  21.552  1.00  0.00     0.277 HD
ATOM     28  H41 UNL     1      21.073  22.991  21.183  1.00  0.00     0.277 HD
HETATM   29  C16 UNL     1      18.587  23.418  18.951  1.00  0.00     0.300 C 
ENDBRANCH  21  22
ENDBRANCH   5  21
ENDBRANCH   1   5
BRANCH   3  30
HETATM   30  C18 UNL     1      17.183  24.397  15.120  1.00  0.00     0.217 C 
BRANCH  30  31
HETATM   31  C19 UNL     1      18.346  25.241  15.052  1.00  0.00    -0.081 C 
HETATM   32  C20 UNL     1      19.332  25.935  15.037  1.00  0.00    -0.065 C 
BRANCH  32  33
HETATM   33  C21 UNL     1      20.515  26.742  15.065  1.00  0.00     0.018 A 
HETATM   34  C22 UNL     1      20.796  27.607  14.050  1.00  0.00     0.023 A 
HETATM   35  C23 UNL     1      21.945  28.356  14.066  1.00  0.00     0.032 A 
HETATM   36  C24 UNL     1      22.830  28.232  15.130  1.00  0.00     0.047 A 
HETATM   37  N6  UNL     1      23.961  28.956  15.156  1.00  0.00    -0.352 N 
HETATM   38  C33 UNL     1      22.548  27.367  16.145  1.00  0.00     0.036 A 
HETATM   39  C25 UNL     1      24.786  28.806  16.188  1.00  0.00     0.182 A 
ATOM     40  H6  UNL     1      24.181  29.606  14.400  1.00  0.00     0.166 HD
HETATM   41  N7  UNL     1      24.522  27.962  17.190  1.00  0.00    -0.338 N 
HETATM   42  C26 UNL     1      23.417  27.204  17.242  1.00  0.00     0.119 A 
ATOM     43  H7  UNL     1      25.194  27.892  17.954  1.00  0.00     0.168 HD
HETATM   44  C34 UNL     1      21.406  26.623  16.127  1.00  0.00     0.038 A 
BRANCH  42  45
HETATM   45  N8  UNL     1      23.067  26.392  18.116  1.00  0.00    -0.339 N 
ATOM     46  H8  UNL     1      22.853  25.472  17.731  1.00  0.00     0.167 HD
BRANCH  45  47
HETATM   47  C27 UNL     1      22.900  26.444  19.478  1.00  0.00     0.072 A 
HETATM   48  C28 UNL     1      23.740  25.821  20.364  1.00  0.00     0.034 A 
HETATM   49  C29 UNL     1      23.510  25.915  21.745  1.00  0.00     0.021 A 
HETATM   50  C30 UNL     1      22.435  26.638  22.206  1.00  0.00     0.014 A 
HETATM   51 BR1  UNL     1      22.123  26.767  24.076  1.00  0.00    -0.051 Br
HETATM   52  C31 UNL     1      21.575  27.275  21.336  1.00  0.00     0.063 A 
HETATM   53  C32 UNL     1      21.814  27.172  20.011  1.00  0.00     0.144 A 
HETATM   54  F1  UNL     1      20.986  27.785  19.139  1.00  0.00    -0.204 F 
ENDBRANCH  45  47
ENDBRANCH  42  45
ENDBRANCH  32  33
ENDBRANCH  30  31
ENDBRANCH   3  30
TORSDOF 14
ENDMDL
MODEL 5
REMARK VINA RESULT: -9.669913104      5.039     11.825
REMARK  14 active torsions:
REMARK  status: ('A' for Active; 'I' for Inactive)
REMARK    1  A    between atoms: C7_7  and  C8_8 
REMARK    2  A    between atoms: C8_8  and  N1_9 
REMARK    3  A    between atoms: N1_9  and  C9_10 
REMARK    4  A    between atoms: N1_9  and  C11_16 
REMARK    5  A    between atoms: C9_10  and  C10_11 
REMARK    6  A    between atoms: C10_11  and  N2_12 
REMARK    7  A    between atoms: C11_16  and  C12_17 
REMARK    8  A    between atoms: C11_16  and  C17_26 
REMARK    9  A    between atoms: C12_17  and  N3_18 
REMARK       I    between atoms: C17_26  and  N5_28 
REMARK   10  A    between atoms: N5_28  and  C18_30 
REMARK   11  A    between atoms: C18_30  and  C19_31 
REMARK   12  A    between atoms: C20_32  and  C21_33 
REMARK   13  A    between atoms: C26_42  and  N8_43 
REMARK   14  A    between atoms: N8_43  and  C27_45 
ROOT
HETATM    1  C17 UNL     1      16.254  22.965  17.266  1.00  0.00     0.266 C 
HETATM    2  O1  UNL     1      15.419  23.853  17.634  1.00  0.00    -0.266 OA
HETATM    3  N5  UNL     1      17.004  23.267  16.105  1.00  0.00    -0.345 N 
ATOM      4  H5  UNL     1      17.702  22.597  15.780  1.00  0.00     0.163 HD
ENDROOT
BRANCH   1   5
HETATM    5  C11 UNL     1      16.348  21.737  18.077  1.00  0.00     0.108 C 
BRANCH   5   6
HETATM    6  N1  UNL     1      15.195  20.866  17.843  1.00  0.00    -0.356 N 
BRANCH   6   7
HETATM    7  C8  UNL     1      14.886  20.706  16.496  1.00  0.00     0.069 C 
BRANCH   7   8
HETATM    8  C7  UNL     1      13.638  21.265  15.927  1.00  0.00     0.028 C 
HETATM    9  C2  UNL     1      13.788  22.010  14.626  1.00  0.00    -0.010 C 
HETATM   10  C1  UNL     1      15.000  21.563  13.835  1.00  0.00     0.010 C 
HETATM   11  C3  UNL     1      12.600  21.862  13.729  1.00  0.00     0.005 C 
HETATM   12  C4  UNL     1      11.305  21.620  14.430  1.00  0.00     0.000 C 
HETATM   13  C5  UNL     1      11.327  20.605  15.517  1.00  0.00     0.001 C 
HETATM   14  C6  UNL     1      12.720  20.031  15.625  1.00  0.00     0.010 C 
ENDBRANCH   7   8
ENDBRANCH   6   7
BRANCH   6  15
HETATM   15  C9  UNL     1      15.229  19.762  18.727  1.00  0.00     0.155 C 
BRANCH  15  16
HETATM   16  C10 UNL     1      14.017  18.935  18.932  1.00  0.00     0.249 C 
BRANCH  16  17
HETATM   17  N2  UNL     1      14.336  17.497  18.690  1.00  0.00    -0.078 N 
ATOM     18  H23 UNL     1      14.560  17.003  19.555  1.00  0.00     0.274 HD
ATOM     19  H22 UNL     1      13.510  16.961  18.423  1.00  0.00     0.274 HD
ATOM     20  H21 UNL     1      15.082  17.417  17.999  1.00  0.00     0.274 HD
ENDBRANCH  16  17
ENDBRANCH  15  16
ENDBRANCH   6  15
ENDBRANCH   5   6
BRANCH   5  21
HETATM   21  C12 UNL     1      16.801  21.914  19.462  1.00  0.00     0.335 C 
BRANCH  21  22
HETATM   22  N3  UNL     1      18.187  21.887  19.725  1.00  0.00     0.097 N 
HETATM   23  C13 UNL     1      19.016  22.610  18.804  1.00  0.00     0.300 C 
HETATM   24  C14 UNL     1      19.102  24.083  19.143  1.00  0.00     0.262 C 
HETATM   25  N4  UNL     1      19.751  24.167  20.435  1.00  0.00    -0.072 N 
HETATM   26  C15 UNL     1      18.937  23.519  21.406  1.00  0.00     0.262 C 
ATOM     27  H42 UNL     1      20.702  23.798  20.417  1.00  0.00     0.277 HD
ATOM     28  H41 UNL     1      19.974  25.127  20.695  1.00  0.00     0.277 HD
HETATM   29  C16 UNL     1      18.547  22.104  21.100  1.00  0.00     0.300 C 
ENDBRANCH  21  22
ENDBRANCH   5  21
ENDBRANCH   1   5
BRANCH   3  30
HETATM   30  C18 UNL     1      16.814  24.497  15.360  1.00  0.00     0.217 C 
BRANCH  30  31
HETATM   31  C19 UNL     1      18.025  25.265  15.245  1.00  0.00    -0.081 C 
HETATM   32  C20 UNL     1      19.037  25.918  15.192  1.00  0.00    -0.065 C 
BRANCH  32  33
HETATM   33  C21 UNL     1      20.235  26.704  15.179  1.00  0.00     0.018 A 
HETATM   34  C22 UNL     1      20.500  27.558  14.150  1.00  0.00     0.023 A 
HETATM   35  C23 UNL     1      21.663  28.286  14.127  1.00  0.00     0.032 A 
HETATM   36  C24 UNL     1      22.577  28.151  15.163  1.00  0.00     0.047 A 
HETATM   37  N6  UNL     1      23.722  28.854  15.149  1.00  0.00    -0.352 N 
HETATM   38  C33 UNL     1      22.312  27.296  16.191  1.00  0.00     0.036 A 
HETATM   39  C25 UNL     1      24.577  28.694  16.156  1.00  0.00     0.182 A 
ATOM     40  H6  UNL     1      23.931  29.496  14.384  1.00  0.00     0.166 HD
HETATM   41  N7  UNL     1      24.328  27.860  17.170  1.00  0.00    -0.338 N 
HETATM   42  C26 UNL     1      23.212  27.122  17.261  1.00  0.00     0.119 A 
ATOM     43  H7  UNL     1      25.023  27.780  17.913  1.00  0.00     0.168 HD
HETATM   44  C34 UNL     1      21.157  26.574  16.213  1.00  0.00     0.038 A 
BRANCH  42  45
HETATM   45  N8  UNL     1      22.874  26.322  18.150  1.00  0.00    -0.339 N 
ATOM     46  H8  UNL     1      22.676  25.391  17.782  1.00  0.00     0.167 HD
BRANCH  45  47
HETATM   47  C27 UNL     1      22.706  26.396  19.510  1.00  0.00     0.072 A 
HETATM   48  C28 UNL     1      23.471  25.692  20.404  1.00  0.00     0.034 A 
HETATM   49  C29 UNL     1      23.244  25.815  21.783  1.00  0.00     0.021 A 
HETATM   50  C30 UNL     1      22.248  26.649  22.235  1.00  0.00     0.014 A 
HETATM   51 BR1  UNL     1      21.941  26.817  24.103  1.00  0.00    -0.051 Br
HETATM   52  C31 UNL     1      21.465  27.369  21.358  1.00  0.00     0.063 A 
HETATM   53  C32 UNL     1      21.700  27.236  20.035  1.00  0.00     0.144 A 
HETATM   54  F1  UNL     1      20.945  27.929  19.155  1.00  0.00    -0.204 F 
ENDBRANCH  45  47
ENDBRANCH  42  45
ENDBRANCH  32  33
ENDBRANCH  30  31
ENDBRANCH   3  30
TORSDOF 14
ENDMDL
