MODEL 1
REMARK VINA RESULT: -7.450832407      0.000      0.000
REMARK  0 active torsions:
REMARK  status: ('A' for Active; 'I' for Inactive)
ROOT
HETATM    1  C1  UNL     1       0.418  -0.110  21.894  1.00  0.00     0.018 C 
HETATM    2  C2  UNL     1      -0.493  -0.105  21.099  1.00  0.00    -0.078 C 
HETATM    3  C3  UNL     1      -1.581  -0.110  20.157  1.00  0.00     0.017 A 
HETATM    4  C4  UNL     1      -1.307  -0.005  18.825  1.00  0.00     0.021 A 
HETATM    5  C5  UNL     1      -2.332  -0.005  17.869  1.00  0.00     0.014 A 
HETATM    6  C6  UNL     1      -3.643  -0.111  18.256  1.00  0.00    -0.012 A 
HETATM    7  C7  UNL     1      -4.627  -0.106  17.270  1.00  0.00    -0.014 A 
HETATM    8  C8  UNL     1      -4.341  -0.000  15.930  1.00  0.00     0.013 A 
HETATM    9  C9  UNL     1      -5.331   0.001  14.976  1.00  0.00     0.001 A 
HETATM   10  C10 UNL     1      -6.621  -0.107  15.418  1.00  0.00     0.001 A 
HETATM   11  C11 UNL     1      -6.949  -0.216  16.761  1.00  0.00     0.013 A 
HETATM   12  C12 UNL     1      -5.947  -0.217  17.713  1.00  0.00    -0.010 A 
HETATM   13  C13 UNL     1      -6.265  -0.324  19.050  1.00  0.00     0.033 A 
HETATM   14  C14 UNL     1      -7.504  -0.443  19.675  1.00  0.00     0.089 A 
HETATM   15  N1  UNL     1      -8.843  -0.517  19.556  1.00  0.00    -0.298 N 
ATOM     16  H1  UNL     1      -9.367  -0.491  18.682  1.00  0.00     0.187 HD
HETATM   17  N2  UNL     1      -9.363  -0.630  20.771  1.00  0.00    -0.309 N 
ATOM     18  H2  UNL     1     -10.358  -0.704  20.981  1.00  0.00     0.186 HD
HETATM   19  C15 UNL     1      -8.384  -0.629  21.674  1.00  0.00     0.139 A 
HETATM   20  C16 UNL     1      -7.189  -0.512  21.010  1.00  0.00     0.081 A 
HETATM   21  N3  UNL     1      -5.837  -0.441  21.201  1.00  0.00    -0.347 N 
HETATM   22  C17 UNL     1      -5.232  -0.488  22.497  1.00  0.00     0.156 C 
HETATM   23  C18 UNL     1      -5.240  -0.325  20.006  1.00  0.00     0.059 A 
HETATM   24  C19 UNL     1      -3.915  -0.217  19.610  1.00  0.00     0.004 A 
HETATM   25  C20 UNL     1      -2.910  -0.217  20.551  1.00  0.00     0.035 A 
ENDROOT
TORSDOF 0
ENDMDL
MODEL 2
REMARK VINA RESULT: -7.031624487      1.295      1.295
REMARK  0 active torsions:
REMARK  status: ('A' for Active; 'I' for Inactive)
ROOT
HETATM    1  C1  UNL     1       0.329  -0.850  21.509  1.00  0.00     0.018 C 
HETATM    2  C2  UNL     1      -0.624  -0.762  20.769  1.00  0.00    -0.078 C 
HETATM    3  C3  UNL     1      -1.759  -0.669  19.890  1.00  0.00     0.017 A 
HETATM    4  C4  UNL     1      -1.612  -0.062  18.676  1.00  0.00     0.021 A 
HETATM    5  C5  UNL     1      -2.688   0.052  17.785  1.00  0.00     0.014 A 
HETATM    6  C6  UNL     1      -3.921  -0.446  18.117  1.00  0.00    -0.012 A 
HETATM    7  C7  UNL     1      -4.959  -0.307  17.200  1.00  0.00    -0.014 A 
HETATM    8  C8  UNL     1      -4.801   0.305  15.979  1.00  0.00     0.013 A 
HETATM    9  C9  UNL     1      -5.843   0.427  15.091  1.00  0.00     0.001 A 
HETATM   10  C10 UNL     1      -7.051  -0.086  15.473  1.00  0.00     0.001 A 
HETATM   11  C11 UNL     1      -7.250  -0.710  16.695  1.00  0.00     0.013 A 
HETATM   12  C12 UNL     1      -6.197  -0.830  17.583  1.00  0.00    -0.010 A 
HETATM   13  C13 UNL     1      -6.387  -1.449  18.799  1.00  0.00     0.033 A 
HETATM   14  C14 UNL     1      -7.530  -2.024  19.350  1.00  0.00     0.089 A 
HETATM   15  N1  UNL     1      -8.834  -2.326  19.219  1.00  0.00    -0.298 N 
ATOM     16  H1  UNL     1      -9.419  -2.112  18.411  1.00  0.00     0.187 HD
HETATM   17  N2  UNL     1      -9.230  -2.949  20.321  1.00  0.00    -0.309 N 
ATOM     18  H2  UNL     1     -10.174  -3.293  20.496  1.00  0.00     0.186 HD
HETATM   19  C15 UNL     1      -8.203  -3.056  21.163  1.00  0.00     0.139 A 
HETATM   20  C16 UNL     1      -7.107  -2.477  20.576  1.00  0.00     0.081 A 
HETATM   21  N3  UNL     1      -5.783  -2.200  20.773  1.00  0.00    -0.347 N 
HETATM   22  C17 UNL     1      -5.083  -2.560  21.968  1.00  0.00     0.156 C 
HETATM   23  C18 UNL     1      -5.310  -1.565  19.691  1.00  0.00     0.059 A 
HETATM   24  C19 UNL     1      -4.064  -1.059  19.351  1.00  0.00     0.004 A 
HETATM   25  C20 UNL     1      -3.009  -1.173  20.228  1.00  0.00     0.035 A 
ENDROOT
TORSDOF 0
ENDMDL
MODEL 3
REMARK VINA RESULT: -6.943842230      2.810      6.160
REMARK  0 active torsions:
REMARK  status: ('A' for Active; 'I' for Inactive)
ROOT
HETATM    1  C1  UNL     1      -4.319   0.630  12.656  1.00  0.00     0.018 C 
HETATM    2  C2  UNL     1      -4.430   0.400  13.838  1.00  0.00    -0.078 C 
HETATM    3  C3  UNL     1      -4.553   0.119  15.245  1.00  0.00     0.017 A 
HETATM    4  C4  UNL     1      -5.780  -0.189  15.755  1.00  0.00     0.021 A 
HETATM    5  C5  UNL     1      -5.951  -0.471  17.118  1.00  0.00     0.014 A 
HETATM    6  C6  UNL     1      -4.880  -0.444  17.973  1.00  0.00    -0.012 A 
HETATM    7  C7  UNL     1      -5.099  -0.730  19.317  1.00  0.00    -0.014 A 
HETATM    8  C8  UNL     1      -6.339  -1.039  19.823  1.00  0.00     0.013 A 
HETATM    9  C9  UNL     1      -6.528  -1.319  21.156  1.00  0.00     0.001 A 
HETATM   10  C10 UNL     1      -5.425  -1.277  21.964  1.00  0.00     0.001 A 
HETATM   11  C11 UNL     1      -4.158  -0.970  21.491  1.00  0.00     0.013 A 
HETATM   12  C12 UNL     1      -3.977  -0.690  20.150  1.00  0.00    -0.010 A 
HETATM   13  C13 UNL     1      -2.721  -0.383  19.672  1.00  0.00     0.033 A 
HETATM   14  C14 UNL     1      -1.500  -0.296  20.337  1.00  0.00     0.089 A 
HETATM   15  N1  UNL     1      -0.818  -0.391  21.493  1.00  0.00    -0.298 N 
ATOM     16  H1  UNL     1      -1.214  -0.628  22.402  1.00  0.00     0.187 HD
HETATM   17  N2  UNL     1       0.458  -0.125  21.248  1.00  0.00    -0.309 N 
ATOM     18  H2  UNL     1       1.203  -0.124  21.943  1.00  0.00     0.186 HD
HETATM   19  C15 UNL     1       0.613   0.142  19.952  1.00  0.00     0.139 A 
HETATM   20  C16 UNL     1      -0.613   0.042  19.344  1.00  0.00     0.081 A 
HETATM   21  N3  UNL     1      -1.245   0.156  18.138  1.00  0.00    -0.347 N 
HETATM   22  C17 UNL     1      -0.558   0.500  16.930  1.00  0.00     0.156 C 
HETATM   23  C18 UNL     1      -2.549  -0.102  18.309  1.00  0.00     0.059 A 
HETATM   24  C19 UNL     1      -3.637  -0.130  17.448  1.00  0.00     0.004 A 
HETATM   25  C20 UNL     1      -3.466   0.147  16.110  1.00  0.00     0.035 A 
ENDROOT
TORSDOF 0
ENDMDL
MODEL 4
REMARK VINA RESULT: -6.885654109      2.466      5.231
REMARK  0 active torsions:
REMARK  status: ('A' for Active; 'I' for Inactive)
ROOT
HETATM    1  C1  UNL     1      -9.400   2.592  18.907  1.00  0.00     0.018 C 
HETATM    2  C2  UNL     1      -8.301   2.103  19.031  1.00  0.00    -0.078 C 
HETATM    3  C3  UNL     1      -6.995   1.519  19.190  1.00  0.00     0.017 A 
HETATM    4  C4  UNL     1      -5.908   2.180  18.698  1.00  0.00     0.021 A 
HETATM    5  C5  UNL     1      -4.616   1.653  18.829  1.00  0.00     0.014 A 
HETATM    6  C6  UNL     1      -4.415   0.452  19.459  1.00  0.00    -0.012 A 
HETATM    7  C7  UNL     1      -3.114  -0.031  19.564  1.00  0.00    -0.014 A 
HETATM    8  C8  UNL     1      -2.024   0.642  19.065  1.00  0.00     0.013 A 
HETATM    9  C9  UNL     1      -0.749   0.142  19.183  1.00  0.00     0.001 A 
HETATM   10  C10 UNL     1      -0.607  -1.059  19.819  1.00  0.00     0.001 A 
HETATM   11  C11 UNL     1      -1.681  -1.768  20.336  1.00  0.00     0.013 A 
HETATM   12  C12 UNL     1      -2.960  -1.259  20.214  1.00  0.00    -0.010 A 
HETATM   13  C13 UNL     1      -4.033  -1.957  20.724  1.00  0.00     0.033 A 
HETATM   14  C14 UNL     1      -4.078  -3.177  21.396  1.00  0.00     0.089 A 
HETATM   15  N1  UNL     1      -3.410  -4.235  21.890  1.00  0.00    -0.298 N 
ATOM     16  H1  UNL     1      -2.401  -4.379  21.846  1.00  0.00     0.187 HD
HETATM   17  N2  UNL     1      -4.287  -5.059  22.446  1.00  0.00    -0.309 N 
ATOM     18  H2  UNL     1      -4.060  -5.943  22.900  1.00  0.00     0.186 HD
HETATM   19  C15 UNL     1      -5.513  -4.552  22.319  1.00  0.00     0.139 A 
HETATM   20  C16 UNL     1      -5.415  -3.356  21.655  1.00  0.00     0.081 A 
HETATM   21  N3  UNL     1      -6.153  -2.310  21.175  1.00  0.00    -0.347 N 
HETATM   22  C17 UNL     1      -7.577  -2.239  21.308  1.00  0.00     0.156 C 
HETATM   23  C18 UNL     1      -5.326  -1.430  20.595  1.00  0.00     0.059 A 
HETATM   24  C19 UNL     1      -5.524  -0.214  19.956  1.00  0.00     0.004 A 
HETATM   25  C20 UNL     1      -6.794   0.302  19.829  1.00  0.00     0.035 A 
ENDROOT
TORSDOF 0
ENDMDL
MODEL 5
REMARK VINA RESULT: -6.839751978      2.001      4.131
REMARK  0 active torsions:
REMARK  status: ('A' for Active; 'I' for Inactive)
ROOT
HETATM    1  C1  UNL     1       0.093   1.285  17.613  1.00  0.00     0.018 C 
HETATM    2  C2  UNL     1      -0.794   0.646  18.130  1.00  0.00    -0.078 C 
HETATM    3  C3  UNL     1      -1.856  -0.105  18.747  1.00  0.00     0.017 A 
HETATM    4  C4  UNL     1      -1.585  -0.850  19.857  1.00  0.00     0.021 A 
HETATM    5  C5  UNL     1      -2.585  -1.598  20.493  1.00  0.00     0.014 A 
HETATM    6  C6  UNL     1      -3.868  -1.596  20.009  1.00  0.00    -0.012 A 
HETATM    7  C7  UNL     1      -4.827  -2.355  20.674  1.00  0.00    -0.014 A 
HETATM    8  C8  UNL     1      -4.545  -3.103  21.792  1.00  0.00     0.013 A 
HETATM    9  C9  UNL     1      -5.511  -3.843  22.431  1.00  0.00     0.001 A 
HETATM   10  C10 UNL     1      -6.773  -3.806  21.905  1.00  0.00     0.001 A 
HETATM   11  C11 UNL     1      -7.097  -3.064  20.779  1.00  0.00     0.013 A 
HETATM   12  C12 UNL     1      -6.119  -2.322  20.143  1.00  0.00    -0.010 A 
HETATM   13  C13 UNL     1      -6.433  -1.582  19.024  1.00  0.00     0.033 A 
HETATM   14  C14 UNL     1      -7.646  -1.425  18.357  1.00  0.00     0.089 A 
HETATM   15  N1  UNL     1      -8.954  -1.730  18.277  1.00  0.00    -0.298 N 
ATOM     16  H1  UNL     1      -9.465  -2.343  18.912  1.00  0.00     0.187 HD
HETATM   17  N2  UNL     1      -9.466  -1.098  17.229  1.00  0.00    -0.309 N 
ATOM     18  H2  UNL     1     -10.439  -1.147  16.929  1.00  0.00     0.186 HD
HETATM   19  C15 UNL     1      -8.510  -0.389  16.630  1.00  0.00     0.139 A 
HETATM   20  C16 UNL     1      -7.340  -0.576  17.322  1.00  0.00     0.081 A 
HETATM   21  N3  UNL     1      -6.019  -0.226  17.346  1.00  0.00    -0.347 N 
HETATM   22  C17 UNL     1      -5.430   0.650  16.380  1.00  0.00     0.156 C 
HETATM   23  C18 UNL     1      -5.432  -0.833  18.387  1.00  0.00     0.059 A 
HETATM   24  C19 UNL     1      -4.136  -0.838  18.881  1.00  0.00     0.004 A 
HETATM   25  C20 UNL     1      -3.155  -0.103  18.254  1.00  0.00     0.035 A 
ENDROOT
TORSDOF 0
ENDMDL
