MODEL 1
REMARK VINA RESULT: -10.073757193      0.000      0.000
REMARK  2 active torsions:
REMARK  status: ('A' for Active; 'I' for Inactive)
REMARK    1  A    between atoms: C3_3  and  C4_4 
REMARK    2  A    between atoms: C5_5  and  C6_6 
ROOT
HETATM    1  C1  UNL     1      -1.620   0.238  17.837  1.00  0.00     0.050 C 
HETATM    2  C2  UNL     1      -1.166   0.591  19.201  1.00  0.00    -0.029 A 
HETATM    3  C3  UNL     1      -1.842   0.175  20.330  1.00  0.00     0.040 A 
HETATM    4  C9  UNL     1      -1.373   0.534  21.584  1.00  0.00     0.109 A 
HETATM    5  N3  UNL     1      -0.267   1.282  21.692  1.00  0.00    -0.363 N 
ATOM      6  H3  UNL     1       0.076   1.545  22.616  1.00  0.00     0.165 HD
HETATM    7  C10 UNL     1       0.401   1.692  20.583  1.00  0.00     0.054 A 
HETATM    8  C11 UNL     1      -0.025   1.361  19.312  1.00  0.00    -0.001 A 
HETATM    9  C12 UNL     1       0.695   1.807  18.223  1.00  0.00     0.015 A 
HETATM   10  C13 UNL     1       1.829   2.576  18.423  1.00  0.00     0.013 A 
HETATM   11  C14 UNL     1       2.249   2.902  19.697  1.00  0.00    -0.024 A 
HETATM   12  C15 UNL     1       3.376   3.668  19.927  1.00  0.00     0.012 A 
HETATM   13  C16 UNL     1       3.760   3.971  21.215  1.00  0.00     0.001 A 
HETATM   14  C17 UNL     1       3.051   3.533  22.323  1.00  0.00     0.001 A 
HETATM   15  C18 UNL     1       1.927   2.769  22.094  1.00  0.00     0.014 A 
HETATM   16  C19 UNL     1       1.539   2.464  20.801  1.00  0.00     0.002 A 
ENDROOT
BRANCH   3  17
HETATM   17  C4  UNL     1      -3.021  -0.623  20.155  1.00  0.00    -0.058 C 
HETATM   18  C5  UNL     1      -4.006  -1.297  19.989  1.00  0.00    -0.042 C 
BRANCH  18  19
HETATM   19  C6  UNL     1      -5.176  -2.090  19.768  1.00  0.00     0.102 A 
HETATM   20  C7  UNL     1      -6.235  -1.845  18.923  1.00  0.00     0.059 A 
HETATM   21  C8  UNL     1      -7.139  -2.879  19.034  1.00  0.00     0.110 A 
HETATM   22  N1  UNL     1      -6.617  -3.729  19.939  1.00  0.00    -0.311 N 
HETATM   23  N2  UNL     1      -5.440  -3.252  20.376  1.00  0.00    -0.293 N 
ATOM     24  H1  UNL     1      -7.049  -4.600  20.247  1.00  0.00     0.186 HD
ATOM     25  H2  UNL     1      -4.840  -3.706  21.065  1.00  0.00     0.187 HD
ENDBRANCH  18  19
ENDBRANCH   3  17
TORSDOF 2
ENDMDL
MODEL 2
REMARK VINA RESULT: -9.512552601      1.599      2.532
REMARK  2 active torsions:
REMARK  status: ('A' for Active; 'I' for Inactive)
REMARK    1  A    between atoms: C3_3  and  C4_4 
REMARK    2  A    between atoms: C5_5  and  C6_6 
ROOT
HETATM    1  C1  UNL     1      -2.603   0.158  21.353  1.00  0.00     0.050 C 
HETATM    2  C2  UNL     1      -1.652   0.699  20.355  1.00  0.00    -0.029 A 
HETATM    3  C3  UNL     1      -1.901   0.642  18.999  1.00  0.00     0.040 A 
HETATM    4  C9  UNL     1      -0.977   1.165  18.108  1.00  0.00     0.109 A 
HETATM    5  N3  UNL     1       0.150   1.722  18.568  1.00  0.00    -0.363 N 
ATOM      6  H3  UNL     1       0.829   2.106  17.910  1.00  0.00     0.165 HD
HETATM    7  C10 UNL     1       0.397   1.781  19.902  1.00  0.00     0.054 A 
HETATM    8  C11 UNL     1      -0.492   1.275  20.830  1.00  0.00    -0.001 A 
HETATM    9  C12 UNL     1      -0.185   1.363  22.173  1.00  0.00     0.015 A 
HETATM   10  C13 UNL     1       1.002   1.956  22.565  1.00  0.00     0.013 A 
HETATM   11  C14 UNL     1       1.886   2.461  21.630  1.00  0.00    -0.024 A 
HETATM   12  C15 UNL     1       3.078   3.057  21.992  1.00  0.00     0.012 A 
HETATM   13  C16 UNL     1       3.931   3.547  21.027  1.00  0.00     0.001 A 
HETATM   14  C17 UNL     1       3.643   3.468  19.674  1.00  0.00     0.001 A 
HETATM   15  C18 UNL     1       2.454   2.874  19.313  1.00  0.00     0.014 A 
HETATM   16  C19 UNL     1       1.595   2.381  20.280  1.00  0.00     0.002 A 
ENDROOT
BRANCH   3  17
HETATM   17  C4  UNL     1      -3.125   0.033  18.562  1.00  0.00    -0.058 C 
HETATM   18  C5  UNL     1      -4.162  -0.462  18.198  1.00  0.00    -0.042 C 
BRANCH  18  19
HETATM   19  C6  UNL     1      -5.404  -1.034  17.783  1.00  0.00     0.102 A 
HETATM   20  C7  UNL     1      -6.075  -0.864  16.593  1.00  0.00     0.059 A 
HETATM   21  C8  UNL     1      -7.235  -1.608  16.626  1.00  0.00     0.110 A 
HETATM   22  N1  UNL     1      -7.249  -2.212  17.830  1.00  0.00    -0.311 N 
HETATM   23  N2  UNL     1      -6.150  -1.866  18.520  1.00  0.00    -0.293 N 
ATOM     24  H1  UNL     1      -7.982  -2.837  18.167  1.00  0.00     0.186 HD
ATOM     25  H2  UNL     1      -5.919  -2.188  19.459  1.00  0.00     0.187 HD
ENDBRANCH  18  19
ENDBRANCH   3  17
TORSDOF 2
ENDMDL
MODEL 3
REMARK VINA RESULT: -9.057749429      1.066      1.184
REMARK  2 active torsions:
REMARK  status: ('A' for Active; 'I' for Inactive)
REMARK    1  A    between atoms: C3_3  and  C4_4 
REMARK    2  A    between atoms: C5_5  and  C6_6 
ROOT
HETATM    1  C1  UNL     1      -2.303   0.097  17.429  1.00  0.00     0.050 C 
HETATM    2  C2  UNL     1      -1.901   0.389  18.824  1.00  0.00    -0.029 A 
HETATM    3  C3  UNL     1      -2.637  -0.051  19.906  1.00  0.00     0.040 A 
HETATM    4  C9  UNL     1      -2.215   0.249  21.191  1.00  0.00     0.109 A 
HETATM    5  N3  UNL     1      -1.098   0.964  21.376  1.00  0.00    -0.363 N 
ATOM      6  H3  UNL     1      -0.790   1.185  22.322  1.00  0.00     0.165 HD
HETATM    7  C10 UNL     1      -0.372   1.398  20.312  1.00  0.00     0.054 A 
HETATM    8  C11 UNL     1      -0.749   1.124  19.013  1.00  0.00    -0.001 A 
HETATM    9  C12 UNL     1       0.029   1.592  17.974  1.00  0.00     0.015 A 
HETATM   10  C13 UNL     1       1.171   2.324  18.251  1.00  0.00     0.013 A 
HETATM   11  C14 UNL     1       1.542   2.593  19.555  1.00  0.00    -0.024 A 
HETATM   12  C15 UNL     1       2.675   3.320  19.861  1.00  0.00     0.012 A 
HETATM   13  C16 UNL     1       3.008   3.566  21.175  1.00  0.00     0.001 A 
HETATM   14  C17 UNL     1       2.241   3.107  22.234  1.00  0.00     0.001 A 
HETATM   15  C18 UNL     1       1.111   2.380  21.928  1.00  0.00     0.014 A 
HETATM   16  C19 UNL     1       0.773   2.132  20.609  1.00  0.00     0.002 A 
ENDROOT
BRANCH   3  17
HETATM   17  C4  UNL     1      -3.826  -0.812  19.650  1.00  0.00    -0.058 C 
HETATM   18  C5  UNL     1      -4.824  -1.458  19.454  1.00  0.00    -0.042 C 
BRANCH  18  19
HETATM   19  C6  UNL     1      -6.001  -2.241  19.238  1.00  0.00     0.102 A 
HETATM   20  C7  UNL     1      -6.543  -3.220  20.041  1.00  0.00     0.059 A 
HETATM   21  C8  UNL     1      -7.683  -3.707  19.438  1.00  0.00     0.110 A 
HETATM   22  N1  UNL     1      -7.811  -3.021  18.286  1.00  0.00    -0.311 N 
HETATM   23  N2  UNL     1      -6.802  -2.143  18.170  1.00  0.00    -0.293 N 
ATOM     24  H1  UNL     1      -8.560  -3.149  17.605  1.00  0.00     0.186 HD
ATOM     25  H2  UNL     1      -6.667  -1.501  17.390  1.00  0.00     0.187 HD
ENDBRANCH  18  19
ENDBRANCH   3  17
TORSDOF 2
ENDMDL
MODEL 4
REMARK VINA RESULT: -8.661935213      2.304      2.628
REMARK  2 active torsions:
REMARK  status: ('A' for Active; 'I' for Inactive)
REMARK    1  A    between atoms: C3_3  and  C4_4 
REMARK    2  A    between atoms: C5_5  and  C6_6 
ROOT
HETATM    1  C1  UNL     1      -1.575   2.642  19.184  1.00  0.00     0.050 C 
HETATM    2  C2  UNL     1      -0.673   1.505  19.474  1.00  0.00    -0.029 A 
HETATM    3  C3  UNL     1      -1.036   0.198  19.217  1.00  0.00     0.040 A 
HETATM    4  C9  UNL     1      -0.153  -0.830  19.506  1.00  0.00     0.109 A 
HETATM    5  N3  UNL     1       1.045  -0.550  20.034  1.00  0.00    -0.363 N 
ATOM      6  H3  UNL     1       1.693  -1.308  20.247  1.00  0.00     0.165 HD
HETATM    7  C10 UNL     1       1.405   0.735  20.288  1.00  0.00     0.054 A 
HETATM    8  C11 UNL     1       0.562   1.794  20.017  1.00  0.00    -0.001 A 
HETATM    9  C12 UNL     1       0.984   3.078  20.297  1.00  0.00     0.015 A 
HETATM   10  C13 UNL     1       2.240   3.281  20.841  1.00  0.00     0.013 A 
HETATM   11  C14 UNL     1       3.077   2.216  21.109  1.00  0.00    -0.024 A 
HETATM   12  C15 UNL     1       4.335   2.389  21.653  1.00  0.00     0.012 A 
HETATM   13  C16 UNL     1       5.139   1.298  21.905  1.00  0.00     0.001 A 
HETATM   14  C17 UNL     1       4.736   0.000  21.632  1.00  0.00     0.001 A 
HETATM   15  C18 UNL     1       3.481  -0.171  21.089  1.00  0.00     0.014 A 
HETATM   16  C19 UNL     1       2.672   0.922  20.835  1.00  0.00     0.002 A 
ENDROOT
BRANCH   3  17
HETATM   17  C4  UNL     1      -2.332  -0.044  18.652  1.00  0.00    -0.058 C 
HETATM   18  C5  UNL     1      -3.429  -0.233  18.188  1.00  0.00    -0.042 C 
BRANCH  18  19
HETATM   19  C6  UNL     1      -4.740  -0.449  17.660  1.00  0.00     0.102 A 
HETATM   20  C7  UNL     1      -5.252  -0.061  16.442  1.00  0.00     0.059 A 
HETATM   21  C8  UNL     1      -6.561  -0.483  16.355  1.00  0.00     0.110 A 
HETATM   22  N1  UNL     1      -6.820  -1.116  17.516  1.00  0.00    -0.311 N 
HETATM   23  N2  UNL     1      -5.725  -1.094  18.294  1.00  0.00    -0.293 N 
ATOM     24  H1  UNL     1      -7.710  -1.546  17.766  1.00  0.00     0.186 HD
ATOM     25  H2  UNL     1      -5.657  -1.505  19.225  1.00  0.00     0.187 HD
ENDBRANCH  18  19
ENDBRANCH   3  17
TORSDOF 2
ENDMDL
MODEL 5
REMARK VINA RESULT: -8.363179912      1.437      2.015
REMARK  2 active torsions:
REMARK  status: ('A' for Active; 'I' for Inactive)
REMARK    1  A    between atoms: C3_3  and  C4_4 
REMARK    2  A    between atoms: C5_5  and  C6_6 
ROOT
HETATM    1  C1  UNL     1      -2.994  -0.030  17.244  1.00  0.00     0.050 C 
HETATM    2  C2  UNL     1      -2.660   0.107  18.679  1.00  0.00    -0.029 A 
HETATM    3  C3  UNL     1      -3.456  -0.430  19.671  1.00  0.00     0.040 A 
HETATM    4  C9  UNL     1      -3.096  -0.274  21.001  1.00  0.00     0.109 A 
HETATM    5  N3  UNL     1      -1.980   0.396  21.314  1.00  0.00    -0.363 N 
ATOM      6  H3  UNL     1      -1.717   0.511  22.293  1.00  0.00     0.165 HD
HETATM    7  C10 UNL     1      -1.195   0.925  20.339  1.00  0.00     0.054 A 
HETATM    8  C11 UNL     1      -1.509   0.796  19.001  1.00  0.00    -0.001 A 
HETATM    9  C12 UNL     1      -0.672   1.355  18.058  1.00  0.00     0.015 A 
HETATM   10  C13 UNL     1       0.464   2.032  18.466  1.00  0.00     0.013 A 
HETATM   11  C14 UNL     1       0.772   2.156  19.807  1.00  0.00    -0.024 A 
HETATM   12  C15 UNL     1       1.898   2.825  20.244  1.00  0.00     0.012 A 
HETATM   13  C16 UNL     1       2.167   2.926  21.592  1.00  0.00     0.001 A 
HETATM   14  C17 UNL     1       1.341   2.372  22.557  1.00  0.00     0.001 A 
HETATM   15  C18 UNL     1       0.218   1.704  22.121  1.00  0.00     0.014 A 
HETATM   16  C19 UNL     1      -0.056   1.602  20.768  1.00  0.00     0.002 A 
ENDROOT
BRANCH   3  17
HETATM   17  C4  UNL     1      -4.641  -1.137  19.278  1.00  0.00    -0.058 C 
HETATM   18  C5  UNL     1      -5.634  -1.743  18.964  1.00  0.00    -0.042 C 
BRANCH  18  19
HETATM   19  C6  UNL     1      -6.803  -2.482  18.601  1.00  0.00     0.102 A 
HETATM   20  C7  UNL     1      -6.945  -3.842  18.438  1.00  0.00     0.059 A 
HETATM   21  C8  UNL     1      -8.249  -4.113  18.086  1.00  0.00     0.110 A 
HETATM   22  N1  UNL     1      -8.873  -2.920  18.040  1.00  0.00    -0.311 N 
HETATM   23  N2  UNL     1      -8.002  -1.946  18.350  1.00  0.00    -0.293 N 
ATOM     24  H1  UNL     1      -9.855  -2.778  17.805  1.00  0.00     0.186 HD
ATOM     25  H2  UNL     1      -8.222  -0.951  18.389  1.00  0.00     0.187 HD
ENDBRANCH  18  19
ENDBRANCH   3  17
TORSDOF 2
ENDMDL
