MODEL 1
REMARK VINA RESULT: -7.486542769      0.000      0.000
REMARK  0 active torsions:
REMARK  status: ('A' for Active; 'I' for Inactive)
ROOT
HETATM    1  N1  UNL     1      -6.433   0.129  25.235  1.00  0.00    -0.191 NA
HETATM    2  C1  UNL     1      -6.279   0.077  24.086  1.00  0.00     0.099 C 
HETATM    3  C2  UNL     1      -6.113   0.009  22.664  1.00  0.00     0.047 A 
HETATM    4  C3  UNL     1      -6.925   0.670  21.762  1.00  0.00     0.040 A 
HETATM    5  C4  UNL     1      -6.752   0.594  20.397  1.00  0.00     0.099 A 
HETATM    6  N2  UNL     1      -5.744  -0.168  19.982  1.00  0.00    -0.324 N 
HETATM    7  C5  UNL     1      -4.896  -0.850  20.808  1.00  0.00     0.022 A 
HETATM    8  C6  UNL     1      -5.066  -0.774  22.165  1.00  0.00     0.048 A 
HETATM    9  C7  UNL     1      -3.713  -1.707  20.638  1.00  0.00     0.098 C 
HETATM   10  C8  UNL     1      -2.644  -1.121  19.834  1.00  0.00    -0.026 A 
HETATM   11  C9  UNL     1      -1.476  -1.344  20.562  1.00  0.00     0.010 A 
HETATM   12  C10 UNL     1      -0.238  -0.935  20.131  1.00  0.00     0.001 A 
HETATM   13  C11 UNL     1      -0.151  -0.277  18.927  1.00  0.00     0.002 A 
HETATM   14  C12 UNL     1      -1.261  -0.033  18.177  1.00  0.00     0.030 A 
HETATM   15  C13 UNL     1      -2.518  -0.460  18.636  1.00  0.00     0.039 A 
HETATM   16  N3  UNL     1      -3.415  -0.038  17.609  1.00  0.00    -0.354 N 
ATOM     17  H3  UNL     1      -2.954   0.298  16.763  1.00  0.00     0.166 HD
HETATM   18  C14 UNL     1      -4.838  -0.001  17.551  1.00  0.00     0.060 A 
HETATM   19  C15 UNL     1      -5.231   0.100  16.267  1.00  0.00     0.032 A 
HETATM   20  C16 UNL     1      -6.568   0.115  15.970  1.00  0.00     0.002 A 
HETATM   21  C17 UNL     1      -7.532   0.028  16.985  1.00  0.00     0.002 A 
HETATM   22  C18 UNL     1      -7.154  -0.076  18.299  1.00  0.00     0.032 A 
HETATM   23  C19 UNL     1      -5.819  -0.085  18.564  1.00  0.00     0.065 A 
ENDROOT
TORSDOF 0
ENDMDL
MODEL 2
REMARK VINA RESULT: -6.859496063      2.195      5.036
REMARK  0 active torsions:
REMARK  status: ('A' for Active; 'I' for Inactive)
ROOT
HETATM    1  N1  UNL     1      -6.315  -0.135  13.390  1.00  0.00    -0.191 NA
HETATM    2  C1  UNL     1      -6.182  -0.427  14.505  1.00  0.00     0.099 C 
HETATM    3  C2  UNL     1      -6.044  -0.788  15.886  1.00  0.00     0.047 A 
HETATM    4  C3  UNL     1      -6.797  -1.767  16.504  1.00  0.00     0.040 A 
HETATM    5  C4  UNL     1      -6.652  -2.102  17.833  1.00  0.00     0.099 A 
HETATM    6  N2  UNL     1      -5.733  -1.417  18.506  1.00  0.00    -0.324 N 
HETATM    7  C5  UNL     1      -4.947  -0.437  17.968  1.00  0.00     0.022 A 
HETATM    8  C6  UNL     1      -5.090  -0.104  16.647  1.00  0.00     0.048 A 
HETATM    9  C7  UNL     1      -3.860   0.431  18.445  1.00  0.00     0.098 C 
HETATM   10  C8  UNL     1      -2.748  -0.274  19.078  1.00  0.00    -0.026 A 
HETATM   11  C9  UNL     1      -1.599   0.271  18.506  1.00  0.00     0.010 A 
HETATM   12  C10 UNL     1      -0.332  -0.135  18.846  1.00  0.00     0.001 A 
HETATM   13  C11 UNL     1      -0.195  -1.123  19.793  1.00  0.00     0.002 A 
HETATM   14  C12 UNL     1      -1.285  -1.689  20.381  1.00  0.00     0.030 A 
HETATM   15  C13 UNL     1      -2.573  -1.258  20.020  1.00  0.00     0.039 A 
HETATM   16  N3  UNL     1      -3.436  -2.059  20.827  1.00  0.00    -0.354 N 
ATOM     17  H3  UNL     1      -2.955  -2.596  21.549  1.00  0.00     0.166 HD
HETATM   18  C14 UNL     1      -4.848  -2.244  20.806  1.00  0.00     0.060 A 
HETATM   19  C15 UNL     1      -5.247  -2.773  21.980  1.00  0.00     0.032 A 
HETATM   20  C16 UNL     1      -6.580  -3.003  22.197  1.00  0.00     0.002 A 
HETATM   21  C17 UNL     1      -7.533  -2.695  21.216  1.00  0.00     0.002 A 
HETATM   22  C18 UNL     1      -7.149  -2.155  20.015  1.00  0.00     0.032 A 
HETATM   23  C19 UNL     1      -5.818  -1.941  19.826  1.00  0.00     0.065 A 
ENDROOT
TORSDOF 0
ENDMDL
MODEL 3
REMARK VINA RESULT: -6.730307485      1.881      3.197
REMARK  0 active torsions:
REMARK  status: ('A' for Active; 'I' for Inactive)
ROOT
HETATM    1  N1  UNL     1      -4.547   1.257  27.181  1.00  0.00    -0.191 NA
HETATM    2  C1  UNL     1      -5.032   1.267  26.127  1.00  0.00     0.099 C 
HETATM    3  C2  UNL     1      -5.654   1.285  24.835  1.00  0.00     0.047 A 
HETATM    4  C3  UNL     1      -6.566   2.241  24.434  1.00  0.00     0.040 A 
HETATM    5  C4  UNL     1      -7.156   2.244  23.188  1.00  0.00     0.099 A 
HETATM    6  N2  UNL     1      -6.796   1.254  22.375  1.00  0.00    -0.324 N 
HETATM    7  C5  UNL     1      -5.901   0.274  22.695  1.00  0.00     0.022 A 
HETATM    8  C6  UNL     1      -5.313   0.271  23.933  1.00  0.00     0.048 A 
HETATM    9  C7  UNL     1      -5.304  -0.882  22.008  1.00  0.00     0.098 C 
HETATM   10  C8  UNL     1      -4.685  -0.575  20.722  1.00  0.00    -0.026 A 
HETATM   11  C9  UNL     1      -3.443  -1.208  20.756  1.00  0.00     0.010 A 
HETATM   12  C10 UNL     1      -2.549  -1.155  19.714  1.00  0.00     0.001 A 
HETATM   13  C11 UNL     1      -2.900  -0.445  18.590  1.00  0.00     0.002 A 
HETATM   14  C12 UNL     1      -4.100   0.192  18.506  1.00  0.00     0.030 A 
HETATM   15  C13 UNL     1      -5.000   0.125  19.583  1.00  0.00     0.039 A 
HETATM   16  N3  UNL     1      -6.118   0.893  19.138  1.00  0.00    -0.354 N 
ATOM     17  H3  UNL     1      -6.083   1.150  18.151  1.00  0.00     0.166 HD
HETATM   18  C14 UNL     1      -7.275   1.364  19.822  1.00  0.00     0.060 A 
HETATM   19  C15 UNL     1      -8.222   1.698  18.924  1.00  0.00     0.032 A 
HETATM   20  C16 UNL     1      -9.439   2.146  19.362  1.00  0.00     0.002 A 
HETATM   21  C17 UNL     1      -9.714   2.260  20.733  1.00  0.00     0.002 A 
HETATM   22  C18 UNL     1      -8.765   1.925  21.665  1.00  0.00     0.032 A 
HETATM   23  C19 UNL     1      -7.563   1.487  21.199  1.00  0.00     0.065 A 
ENDROOT
TORSDOF 0
ENDMDL
MODEL 4
REMARK VINA RESULT: -6.690233603      1.475      1.842
REMARK  0 active torsions:
REMARK  status: ('A' for Active; 'I' for Inactive)
ROOT
HETATM    1  N1  UNL     1      -8.330   2.336  23.257  1.00  0.00    -0.191 NA
HETATM    2  C1  UNL     1      -7.898   1.999  22.235  1.00  0.00     0.099 C 
HETATM    3  C2  UNL     1      -7.387   1.582  20.962  1.00  0.00     0.047 A 
HETATM    4  C3  UNL     1      -7.798   2.115  19.756  1.00  0.00     0.040 A 
HETATM    5  C4  UNL     1      -7.297   1.702  18.540  1.00  0.00     0.099 A 
HETATM    6  N2  UNL     1      -6.379   0.741  18.588  1.00  0.00    -0.324 N 
HETATM    7  C5  UNL     1      -5.918   0.165  19.737  1.00  0.00     0.022 A 
HETATM    8  C6  UNL     1      -6.415   0.575  20.946  1.00  0.00     0.048 A 
HETATM    9  C7  UNL     1      -4.916  -0.854  20.084  1.00  0.00     0.098 C 
HETATM   10  C8  UNL     1      -3.585  -0.615  19.533  1.00  0.00    -0.026 A 
HETATM   11  C9  UNL     1      -2.709  -0.812  20.600  1.00  0.00     0.010 A 
HETATM   12  C10 UNL     1      -1.347  -0.678  20.481  1.00  0.00     0.001 A 
HETATM   13  C11 UNL     1      -0.829  -0.334  19.255  1.00  0.00     0.002 A 
HETATM   14  C12 UNL     1      -1.641  -0.129  18.181  1.00  0.00     0.030 A 
HETATM   15  C13 UNL     1      -3.031  -0.272  18.323  1.00  0.00     0.039 A 
HETATM   16  N3  UNL     1      -3.536   0.013  17.019  1.00  0.00    -0.354 N 
ATOM     17  H3  UNL     1      -2.817   0.081  16.298  1.00  0.00     0.166 HD
HETATM   18  C14 UNL     1      -4.862   0.221  16.542  1.00  0.00     0.060 A 
HETATM   19  C15 UNL     1      -4.884   0.070  15.203  1.00  0.00     0.032 A 
HETATM   20  C16 UNL     1      -6.071   0.190  14.530  1.00  0.00     0.002 A 
HETATM   21  C17 UNL     1      -7.263   0.466  15.217  1.00  0.00     0.002 A 
HETATM   22  C18 UNL     1      -7.264   0.622  16.580  1.00  0.00     0.032 A 
HETATM   23  C19 UNL     1      -6.068   0.501  17.220  1.00  0.00     0.065 A 
ENDROOT
TORSDOF 0
ENDMDL
MODEL 5
REMARK VINA RESULT: -6.537183091      1.723      1.981
REMARK  0 active torsions:
REMARK  status: ('A' for Active; 'I' for Inactive)
ROOT
HETATM    1  N1  UNL     1      -6.027  -2.157  26.209  1.00  0.00    -0.191 NA
HETATM    2  C1  UNL     1      -6.052  -1.634  25.174  1.00  0.00     0.099 C 
HETATM    3  C2  UNL     1      -6.108  -0.985  23.896  1.00  0.00     0.047 A 
HETATM    4  C3  UNL     1      -6.867   0.138  23.636  1.00  0.00     0.040 A 
HETATM    5  C4  UNL     1      -6.910   0.750  22.402  1.00  0.00     0.099 A 
HETATM    6  N2  UNL     1      -6.169   0.188  21.451  1.00  0.00    -0.324 N 
HETATM    7  C5  UNL     1      -5.390  -0.920  21.628  1.00  0.00     0.022 A 
HETATM    8  C6  UNL     1      -5.346  -1.528  22.855  1.00  0.00     0.048 A 
HETATM    9  C7  UNL     1      -4.467  -1.710  20.799  1.00  0.00     0.098 C 
HETATM   10  C8  UNL     1      -3.417  -0.935  20.143  1.00  0.00    -0.026 A 
HETATM   11  C9  UNL     1      -2.240  -1.643  20.381  1.00  0.00     0.010 A 
HETATM   12  C10 UNL     1      -1.014  -1.229  19.919  1.00  0.00     0.001 A 
HETATM   13  C11 UNL     1      -0.951  -0.065  19.190  1.00  0.00     0.002 A 
HETATM   14  C12 UNL     1      -2.071   0.665  18.931  1.00  0.00     0.030 A 
HETATM   15  C13 UNL     1      -3.315   0.224  19.412  1.00  0.00     0.039 A 
HETATM   16  N3  UNL     1      -4.228   1.220  18.953  1.00  0.00    -0.354 N 
ATOM     17  H3  UNL     1      -3.827   1.880  18.286  1.00  0.00     0.166 HD
HETATM   18  C14 UNL     1      -5.599   1.459  19.256  1.00  0.00     0.060 A 
HETATM   19  C15 UNL     1      -6.136   2.250  18.307  1.00  0.00     0.032 A 
HETATM   20  C16 UNL     1      -7.463   2.582  18.377  1.00  0.00     0.002 A 
HETATM   21  C17 UNL     1      -8.269   2.110  19.423  1.00  0.00     0.002 A 
HETATM   22  C18 UNL     1      -7.744   1.302  20.399  1.00  0.00     0.032 A 
HETATM   23  C19 UNL     1      -6.421   0.992  20.305  1.00  0.00     0.065 A 
ENDROOT
TORSDOF 0
ENDMDL
