MODEL 1
REMARK VINA RESULT: -7.332751022      0.000      0.000
REMARK  8 active torsions:
REMARK  status: ('A' for Active; 'I' for Inactive)
REMARK    1  A    between atoms: C2_2  and  N1_3 
REMARK    2  A    between atoms: N1_3  and  C3_4 
REMARK    3  A    between atoms: N1_3  and  C9_14 
REMARK    4  A    between atoms: C3_4  and  C4_5 
REMARK    5  A    between atoms: C4_5  and  N2_6 
REMARK    6  A    between atoms: C9_14  and  C10_15 
REMARK    7  A    between atoms: C14_21  and  C15_22 
REMARK    8  A    between atoms: C21_29  and  O3_30 
ROOT
HETATM    1  C10 UNL     1      42.552  21.390  20.360  1.00  0.00     0.119 A 
HETATM    2  O1  UNL     1      43.804  21.209  20.041  1.00  0.00    -0.308 OA
HETATM    3  C11 UNL     1      44.218  20.246  19.276  1.00  0.00     0.107 A 
HETATM    4  C12 UNL     1      45.545  20.073  18.949  1.00  0.00     0.046 A 
HETATM    5 BR1  UNL     1      46.900  21.250  19.626  1.00  0.00    -0.048 Br
HETATM    6  C13 UNL     1      45.914  19.016  18.122  1.00  0.00     0.029 A 
HETATM    7  C14 UNL     1      45.006  18.128  17.610  1.00  0.00    -0.052 A 
HETATM    8  C18 UNL     1      43.686  18.335  17.960  1.00  0.00     0.026 A 
HETATM    9  C19 UNL     1      43.272  19.351  18.764  1.00  0.00     0.053 A 
HETATM   10  C20 UNL     1      41.943  19.504  19.076  1.00  0.00     0.220 A 
HETATM   11  O2  UNL     1      41.053  18.724  18.641  1.00  0.00    -0.284 OA
HETATM   12  C21 UNL     1      41.555  20.533  19.885  1.00  0.00     0.149 A 
ENDROOT
BRANCH   1  13
HETATM   13  C9  UNL     1      42.163  22.503  21.239  1.00  0.00     0.340 C 
BRANCH  13  14
HETATM   14  N1  UNL     1      43.254  23.448  21.392  1.00  0.00     0.096 N 
BRANCH  14  15
HETATM   15  C2  UNL     1      43.275  23.943  22.761  1.00  0.00     0.268 C 
HETATM   16  C1  UNL     1      42.307  23.139  23.630  1.00  0.00     0.037 C 
ENDBRANCH  14  15
BRANCH  14  17
HETATM   17  C3  UNL     1      43.166  24.562  20.499  1.00  0.00     0.303 C 
BRANCH  17  18
HETATM   18  C4  UNL     1      44.329  24.877  19.663  1.00  0.00     0.302 C 
BRANCH  18  19
HETATM   19  N2  UNL     1      45.605  25.087  20.247  1.00  0.00     0.093 N 
HETATM   20  C5  UNL     1      45.451  26.308  21.071  1.00  0.00     0.300 C 
HETATM   21  C6  UNL     1      45.105  27.499  20.231  1.00  0.00     0.262 C 
HETATM   22  N3  UNL     1      45.974  27.710  19.117  1.00  0.00    -0.072 N 
HETATM   23  C7  UNL     1      46.268  26.537  18.356  1.00  0.00     0.262 C 
ATOM     24  H32 UNL     1      45.600  28.440  18.510  1.00  0.00     0.277 HD
ATOM     25  H31 UNL     1      46.837  28.159  19.423  1.00  0.00     0.277 HD
HETATM   26  C8  UNL     1      46.633  25.392  19.250  1.00  0.00     0.300 C 
ENDBRANCH  18  19
ENDBRANCH  17  18
ENDBRANCH  14  17
ENDBRANCH  13  14
ENDBRANCH   1  13
BRANCH  12  27
HETATM   27  O3  UNL     1      40.259  20.779  20.259  1.00  0.00    -0.355 OA
ATOM     28  H3  UNL     1      39.569  20.588  19.635  1.00  0.00     0.218 HD
ENDBRANCH  12  27
BRANCH   7  29
HETATM   29  C15 UNL     1      45.375  17.003  16.721  1.00  0.00     0.010 C 
HETATM   30  C16 UNL     1      46.115  17.610  15.515  1.00  0.00     0.015 C 
HETATM   31  C17 UNL     1      46.203  15.953  17.379  1.00  0.00     0.015 C 
ENDBRANCH   7  29
TORSDOF 8
ENDMDL
MODEL 2
REMARK VINA RESULT: -7.228123390      4.091      6.204
REMARK  8 active torsions:
REMARK  status: ('A' for Active; 'I' for Inactive)
REMARK    1  A    between atoms: C2_2  and  N1_3 
REMARK    2  A    between atoms: N1_3  and  C3_4 
REMARK    3  A    between atoms: N1_3  and  C9_14 
REMARK    4  A    between atoms: C3_4  and  C4_5 
REMARK    5  A    between atoms: C4_5  and  N2_6 
REMARK    6  A    between atoms: C9_14  and  C10_15 
REMARK    7  A    between atoms: C14_21  and  C15_22 
REMARK    8  A    between atoms: C21_29  and  O3_30 
ROOT
HETATM    1  C10 UNL     1      40.228  21.099  20.555  1.00  0.00     0.119 A 
HETATM    2  O1  UNL     1      41.362  21.734  20.673  1.00  0.00    -0.308 OA
HETATM    3  C11 UNL     1      42.467  21.336  20.121  1.00  0.00     0.107 A 
HETATM    4  C12 UNL     1      43.655  22.020  20.256  1.00  0.00     0.046 A 
HETATM    5 BR1  UNL     1      43.766  23.626  21.300  1.00  0.00    -0.048 Br
HETATM    6  C13 UNL     1      44.801  21.533  19.635  1.00  0.00     0.029 A 
HETATM    7  C14 UNL     1      44.802  20.388  18.884  1.00  0.00    -0.052 A 
HETATM    8  C18 UNL     1      43.593  19.730  18.772  1.00  0.00     0.026 A 
HETATM    9  C19 UNL     1      42.445  20.163  19.358  1.00  0.00     0.053 A 
HETATM   10  C20 UNL     1      41.272  19.464  19.209  1.00  0.00     0.220 A 
HETATM   11  O2  UNL     1      41.200  18.402  18.532  1.00  0.00    -0.284 OA
HETATM   12  C21 UNL     1      40.134  19.921  19.808  1.00  0.00     0.149 A 
ENDROOT
BRANCH   1  13
HETATM   13  C9  UNL     1      39.018  21.612  21.216  1.00  0.00     0.340 C 
BRANCH  13  14
HETATM   14  N1  UNL     1      38.984  21.217  22.612  1.00  0.00     0.096 N 
BRANCH  14  15
HETATM   15  C2  UNL     1      37.928  20.233  22.810  1.00  0.00     0.268 C 
HETATM   16  C1  UNL     1      38.129  19.503  24.137  1.00  0.00     0.037 C 
ENDBRANCH  14  15
BRANCH  14  17
HETATM   17  C3  UNL     1      38.767  22.313  23.504  1.00  0.00     0.303 C 
BRANCH  17  18
HETATM   18  C4  UNL     1      37.604  23.177  23.275  1.00  0.00     0.302 C 
BRANCH  18  19
HETATM   19  N2  UNL     1      36.324  22.816  23.771  1.00  0.00     0.093 N 
HETATM   20  C5  UNL     1      35.366  23.600  22.959  1.00  0.00     0.300 C 
HETATM   21  C6  UNL     1      35.557  25.073  23.153  1.00  0.00     0.262 C 
HETATM   22  N3  UNL     1      35.574  25.494  24.517  1.00  0.00    -0.072 N 
HETATM   23  C7  UNL     1      36.382  24.693  25.381  1.00  0.00     0.262 C 
ATOM     24  H32 UNL     1      35.853  26.474  24.582  1.00  0.00     0.277 HD
ATOM     25  H31 UNL     1      34.623  25.556  24.880  1.00  0.00     0.277 HD
HETATM   26  C8  UNL     1      36.125  23.234  25.160  1.00  0.00     0.300 C 
ENDBRANCH  18  19
ENDBRANCH  17  18
ENDBRANCH  14  17
ENDBRANCH  13  14
ENDBRANCH   1  13
BRANCH  12  27
HETATM   27  O3  UNL     1      38.912  19.304  19.726  1.00  0.00    -0.355 OA
ATOM     28  H3  UNL     1      38.864  18.377  19.925  1.00  0.00     0.218 HD
ENDBRANCH  12  27
BRANCH   7  29
HETATM   29  C15 UNL     1      46.007  19.856  18.206  1.00  0.00     0.010 C 
HETATM   30  C16 UNL     1      46.600  18.776  19.129  1.00  0.00     0.015 C 
HETATM   31  C17 UNL     1      45.746  19.308  16.845  1.00  0.00     0.015 C 
ENDBRANCH   7  29
TORSDOF 8
ENDMDL
MODEL 3
REMARK VINA RESULT: -7.186139486      3.781      5.856
REMARK  8 active torsions:
REMARK  status: ('A' for Active; 'I' for Inactive)
REMARK    1  A    between atoms: C2_2  and  N1_3 
REMARK    2  A    between atoms: N1_3  and  C3_4 
REMARK    3  A    between atoms: N1_3  and  C9_14 
REMARK    4  A    between atoms: C3_4  and  C4_5 
REMARK    5  A    between atoms: C4_5  and  N2_6 
REMARK    6  A    between atoms: C9_14  and  C10_15 
REMARK    7  A    between atoms: C14_21  and  C15_22 
REMARK    8  A    between atoms: C21_29  and  O3_30 
ROOT
HETATM    1  C10 UNL     1      40.122  21.126  20.443  1.00  0.00     0.119 A 
HETATM    2  O1  UNL     1      41.255  21.754  20.595  1.00  0.00    -0.308 OA
HETATM    3  C11 UNL     1      42.383  21.324  20.119  1.00  0.00     0.107 A 
HETATM    4  C12 UNL     1      43.570  22.002  20.290  1.00  0.00     0.046 A 
HETATM    5 BR1  UNL     1      43.644  23.648  21.273  1.00  0.00    -0.048 Br
HETATM    6  C13 UNL     1      44.741  21.479  19.750  1.00  0.00     0.029 A 
HETATM    7  C14 UNL     1      44.769  20.305  19.047  1.00  0.00    -0.052 A 
HETATM    8  C18 UNL     1      43.560  19.654  18.897  1.00  0.00     0.026 A 
HETATM    9  C19 UNL     1      42.387  20.121  19.404  1.00  0.00     0.053 A 
HETATM   10  C20 UNL     1      41.216  19.428  19.221  1.00  0.00     0.220 A 
HETATM   11  O2  UNL     1      41.168  18.339  18.585  1.00  0.00    -0.284 OA
HETATM   12  C21 UNL     1      40.054  19.919  19.741  1.00  0.00     0.149 A 
ENDROOT
BRANCH   1  13
HETATM   13  C9  UNL     1      38.885  21.676  21.019  1.00  0.00     0.340 C 
BRANCH  13  14
HETATM   14  N1  UNL     1      38.685  21.195  22.373  1.00  0.00     0.096 N 
BRANCH  14  15
HETATM   15  C2  UNL     1      37.266  20.955  22.596  1.00  0.00     0.268 C 
HETATM   16  C1  UNL     1      36.460  21.371  21.365  1.00  0.00     0.037 C 
ENDBRANCH  14  15
BRANCH  14  17
HETATM   17  C3  UNL     1      39.162  22.102  23.370  1.00  0.00     0.303 C 
BRANCH  17  18
HETATM   18  C4  UNL     1      40.052  21.584  24.414  1.00  0.00     0.302 C 
BRANCH  18  19
HETATM   19  N2  UNL     1      39.527  20.874  25.526  1.00  0.00     0.093 N 
HETATM   20  C5  UNL     1      40.299  21.365  26.691  1.00  0.00     0.300 C 
HETATM   21  C6  UNL     1      41.756  21.045  26.560  1.00  0.00     0.262 C 
HETATM   22  N3  UNL     1      42.037  19.675  26.270  1.00  0.00    -0.072 N 
HETATM   23  C7  UNL     1      41.230  19.103  25.240  1.00  0.00     0.262 C 
ATOM     24  H32 UNL     1      43.027  19.555  26.051  1.00  0.00     0.277 HD
ATOM     25  H31 UNL     1      41.976  19.114  27.120  1.00  0.00     0.277 HD
HETATM   26  C8  UNL     1      39.784  19.435  25.442  1.00  0.00     0.300 C 
ENDBRANCH  18  19
ENDBRANCH  17  18
ENDBRANCH  14  17
ENDBRANCH  13  14
ENDBRANCH   1  13
BRANCH  12  27
HETATM   27  O3  UNL     1      38.831  19.311  19.618  1.00  0.00    -0.355 OA
ATOM     28  H3  UNL     1      38.734  18.628  18.964  1.00  0.00     0.218 HD
ENDBRANCH  12  27
BRANCH   7  29
HETATM   29  C15 UNL     1      46.001  19.735  18.455  1.00  0.00     0.010 C 
HETATM   30  C16 UNL     1      46.398  18.528  19.325  1.00  0.00     0.015 C 
HETATM   31  C17 UNL     1      45.862  19.337  17.026  1.00  0.00     0.015 C 
ENDBRANCH   7  29
TORSDOF 8
ENDMDL
MODEL 4
REMARK VINA RESULT: -7.009055451      4.290      7.203
REMARK  8 active torsions:
REMARK  status: ('A' for Active; 'I' for Inactive)
REMARK    1  A    between atoms: C2_2  and  N1_3 
REMARK    2  A    between atoms: N1_3  and  C3_4 
REMARK    3  A    between atoms: N1_3  and  C9_14 
REMARK    4  A    between atoms: C3_4  and  C4_5 
REMARK    5  A    between atoms: C4_5  and  N2_6 
REMARK    6  A    between atoms: C9_14  and  C10_15 
REMARK    7  A    between atoms: C14_21  and  C15_22 
REMARK    8  A    between atoms: C21_29  and  O3_30 
ROOT
HETATM    1  C10 UNL     1      41.425  21.834  20.986  1.00  0.00     0.119 A 
HETATM    2  O1  UNL     1      42.181  22.642  21.678  1.00  0.00    -0.308 OA
HETATM    3  C11 UNL     1      42.985  23.508  21.141  1.00  0.00     0.107 A 
HETATM    4  C12 UNL     1      43.775  24.353  21.888  1.00  0.00     0.046 A 
HETATM    5 BR1  UNL     1      43.757  24.298  23.806  1.00  0.00    -0.048 Br
HETATM    6  C13 UNL     1      44.613  25.257  21.242  1.00  0.00     0.029 A 
HETATM    7  C14 UNL     1      44.689  25.346  19.878  1.00  0.00    -0.052 A 
HETATM    8  C18 UNL     1      43.882  24.483  19.163  1.00  0.00     0.026 A 
HETATM    9  C19 UNL     1      43.046  23.581  19.745  1.00  0.00     0.053 A 
HETATM   10  C20 UNL     1      42.267  22.749  18.979  1.00  0.00     0.220 A 
HETATM   11  O2  UNL     1      42.287  22.776  17.718  1.00  0.00    -0.284 OA
HETATM   12  C21 UNL     1      41.437  21.853  19.589  1.00  0.00     0.149 A 
ENDROOT
BRANCH   1  13
HETATM   13  C9  UNL     1      40.544  20.875  21.670  1.00  0.00     0.340 C 
BRANCH  13  14
HETATM   14  N1  UNL     1      39.687  21.549  22.627  1.00  0.00     0.096 N 
BRANCH  14  15
HETATM   15  C2  UNL     1      39.886  20.968  23.947  1.00  0.00     0.268 C 
HETATM   16  C1  UNL     1      40.619  21.955  24.855  1.00  0.00     0.037 C 
ENDBRANCH  14  15
BRANCH  14  17
HETATM   17  C3  UNL     1      38.298  21.473  22.294  1.00  0.00     0.303 C 
BRANCH  17  18
HETATM   18  C4  UNL     1      37.468  22.665  22.495  1.00  0.00     0.302 C 
BRANCH  18  19
HETATM   19  N2  UNL     1      36.260  22.589  23.237  1.00  0.00     0.093 N 
HETATM   20  C5  UNL     1      35.429  23.704  22.727  1.00  0.00     0.300 C 
HETATM   21  C6  UNL     1      36.070  25.032  22.989  1.00  0.00     0.262 C 
HETATM   22  N3  UNL     1      36.472  25.239  24.343  1.00  0.00    -0.072 N 
HETATM   23  C7  UNL     1      37.167  24.140  24.936  1.00  0.00     0.262 C 
ATOM     24  H32 UNL     1      37.028  26.091  24.421  1.00  0.00     0.277 HD
ATOM     25  H31 UNL     1      35.669  25.499  24.915  1.00  0.00     0.277 HD
HETATM   26  C8  UNL     1      36.463  22.847  24.664  1.00  0.00     0.300 C 
ENDBRANCH  18  19
ENDBRANCH  17  18
ENDBRANCH  14  17
ENDBRANCH  13  14
ENDBRANCH   1  13
BRANCH  12  27
HETATM   27  O3  UNL     1      40.618  20.978  18.923  1.00  0.00    -0.355 OA
ATOM     28  H3  UNL     1      39.788  20.748  19.325  1.00  0.00     0.218 HD
ENDBRANCH  12  27
BRANCH   7  29
HETATM   29  C15 UNL     1      45.566  26.307  19.170  1.00  0.00     0.010 C 
HETATM   30  C16 UNL     1      45.642  27.572  20.045  1.00  0.00     0.015 C 
HETATM   31  C17 UNL     1      46.929  25.783  18.874  1.00  0.00     0.015 C 
ENDBRANCH   7  29
TORSDOF 8
ENDMDL
MODEL 5
REMARK VINA RESULT: -6.953566459      3.946      6.374
REMARK  8 active torsions:
REMARK  status: ('A' for Active; 'I' for Inactive)
REMARK    1  A    between atoms: C2_2  and  N1_3 
REMARK    2  A    between atoms: N1_3  and  C3_4 
REMARK    3  A    between atoms: N1_3  and  C9_14 
REMARK    4  A    between atoms: C3_4  and  C4_5 
REMARK    5  A    between atoms: C4_5  and  N2_6 
REMARK    6  A    between atoms: C9_14  and  C10_15 
REMARK    7  A    between atoms: C14_21  and  C15_22 
REMARK    8  A    between atoms: C21_29  and  O3_30 
ROOT
HETATM    1  C10 UNL     1      40.090  21.198  20.571  1.00  0.00     0.119 A 
HETATM    2  O1  UNL     1      41.225  21.827  20.712  1.00  0.00    -0.308 OA
HETATM    3  C11 UNL     1      42.346  21.405  20.212  1.00  0.00     0.107 A 
HETATM    4  C12 UNL     1      43.534  22.084  20.370  1.00  0.00     0.046 A 
HETATM    5 BR1  UNL     1      43.621  23.718  21.373  1.00  0.00    -0.048 Br
HETATM    6  C13 UNL     1      44.696  21.570  19.804  1.00  0.00     0.029 A 
HETATM    7  C14 UNL     1      44.714  20.405  19.086  1.00  0.00    -0.052 A 
HETATM    8  C18 UNL     1      43.504  19.753  18.949  1.00  0.00     0.026 A 
HETATM    9  C19 UNL     1      42.340  20.211  19.482  1.00  0.00     0.053 A 
HETATM   10  C20 UNL     1      41.167  19.518  19.310  1.00  0.00     0.220 A 
HETATM   11  O2  UNL     1      41.110  18.437  18.661  1.00  0.00    -0.284 OA
HETATM   12  C21 UNL     1      40.013  20.000  19.855  1.00  0.00     0.149 A 
ENDROOT
BRANCH   1  13
HETATM   13  C9  UNL     1      38.862  21.738  21.175  1.00  0.00     0.340 C 
BRANCH  13  14
HETATM   14  N1  UNL     1      38.656  21.197  22.504  1.00  0.00     0.096 N 
BRANCH  14  15
HETATM   15  C2  UNL     1      37.236  20.946  22.709  1.00  0.00     0.268 C 
HETATM   16  C1  UNL     1      36.436  21.420  21.496  1.00  0.00     0.037 C 
ENDBRANCH  14  15
BRANCH  14  17
HETATM   17  C3  UNL     1      39.128  22.057  23.545  1.00  0.00     0.303 C 
BRANCH  17  18
HETATM   18  C4  UNL     1      38.143  22.668  24.443  1.00  0.00     0.302 C 
BRANCH  18  19
HETATM   19  N2  UNL     1      38.289  22.571  25.851  1.00  0.00     0.093 N 
HETATM   20  C5  UNL     1      37.064  21.880  26.314  1.00  0.00     0.300 C 
HETATM   21  C6  UNL     1      35.834  22.680  26.013  1.00  0.00     0.262 C 
HETATM   22  N3  UNL     1      35.886  24.036  26.459  1.00  0.00    -0.072 N 
HETATM   23  C7  UNL     1      37.103  24.720  26.156  1.00  0.00     0.262 C 
ATOM     24  H32 UNL     1      35.088  24.558  26.096  1.00  0.00     0.277 HD
ATOM     25  H31 UNL     1      35.690  24.087  27.458  1.00  0.00     0.277 HD
HETATM   26  C8  UNL     1      38.293  23.881  26.505  1.00  0.00     0.300 C 
ENDBRANCH  18  19
ENDBRANCH  17  18
ENDBRANCH  14  17
ENDBRANCH  13  14
ENDBRANCH   1  13
BRANCH  12  27
HETATM   27  O3  UNL     1      38.789  19.391  19.746  1.00  0.00    -0.355 OA
ATOM     28  H3  UNL     1      38.557  18.733  20.390  1.00  0.00     0.218 HD
ENDBRANCH  12  27
BRANCH   7  29
HETATM   29  C15 UNL     1      45.938  19.845  18.467  1.00  0.00     0.010 C 
HETATM   30  C16 UNL     1      46.412  18.694  19.373  1.00  0.00     0.015 C 
HETATM   31  C17 UNL     1      45.749  19.374  17.065  1.00  0.00     0.015 C 
ENDBRANCH   7  29
TORSDOF 8
ENDMDL
