MODEL 1
REMARK VINA RESULT: -10.392554821      0.000      0.000
REMARK  8 active torsions:
REMARK  status: ('A' for Active; 'I' for Inactive)
REMARK    1  A    between atoms: C2_2  and  N1_3 
REMARK    2  A    between atoms: C3_4  and  N2_5 
REMARK    3  A    between atoms: N2_5  and  N3_7 
REMARK       I    between atoms: N3_7  and  C4_9 
REMARK    4  A    between atoms: C4_9  and  C5_11 
REMARK    5  A    between atoms: C5_11  and  O2_12 
REMARK    6  A    between atoms: O2_12  and  C6_13 
REMARK    7  A    between atoms: C10_17  and  C11_18 
REMARK    8  A    between atoms: C15_23  and  O3_24 
ROOT
HETATM    1  C11 UNL     1      45.595  25.568  19.133  1.00  0.00     0.022 C 
HETATM    2  C12 UNL     1      45.891  26.185  18.035  1.00  0.00     0.094 C 
HETATM    3  C13 UNL     1      46.686  27.410  18.077  1.00  0.00     0.087 C 
HETATM    4  N4  UNL     1      47.302  28.388  18.101  1.00  0.00    -0.192 NA
ENDROOT
BRANCH   1   5
HETATM    5  C10 UNL     1      44.813  24.346  19.208  1.00  0.00    -0.032 A 
HETATM    6  C9  UNL     1      43.525  24.297  18.777  1.00  0.00     0.021 A 
HETATM    7  C7  UNL     1      42.803  23.100  18.865  1.00  0.00    -0.025 A 
HETATM    8  C6  UNL     1      43.381  21.966  19.385  1.00  0.00     0.108 A 
HETATM    9  C8  UNL     1      41.400  23.134  18.372  1.00  0.00     0.051 C 
HETATM   10  C15 UNL     1      44.667  21.990  19.822  1.00  0.00     0.102 A 
HETATM   11  C14 UNL     1      45.357  23.175  19.726  1.00  0.00     0.051 A 
BRANCH   8  12
HETATM   12  O2  UNL     1      42.652  20.796  19.464  1.00  0.00    -0.339 OA
BRANCH  12  13
HETATM   13  C5  UNL     1      42.552  19.881  18.386  1.00  0.00     0.280 C 
BRANCH  13  14
HETATM   14  C4  UNL     1      43.286  18.610  18.712  1.00  0.00     0.260 C 
HETATM   15  N3  UNL     1      44.047  17.907  17.750  1.00  0.00    -0.254 N 
ATOM     16  H3  UNL     1      44.112  18.261  16.796  1.00  0.00     0.190 HD
HETATM   17  O1  UNL     1      43.227  18.147  19.877  1.00  0.00    -0.269 OA
BRANCH  15  18
HETATM   18  N2  UNL     1      44.699  16.750  18.095  1.00  0.00    -0.129 N 
ATOM     19  H2  UNL     1      44.442  16.281  18.963  1.00  0.00     0.205 HD
BRANCH  18  20
HETATM   20  C3  UNL     1      45.641  16.224  17.348  1.00  0.00     0.700 A 
HETATM   21  N1  UNL     1      46.226  16.796  16.283  1.00  0.00    -0.180 N 
HETATM   22  C23 UNL     1      47.148  15.991  15.747  1.00  0.00     0.081 A 
HETATM   23  C17 UNL     1      47.149  14.844  16.513  1.00  0.00     0.098 A 
HETATM   24  C22 UNL     1      48.023  16.096  14.657  1.00  0.00     0.039 A 
HETATM   25  N5  UNL     1      46.222  15.019  17.477  1.00  0.00    -0.186 N 
HETATM   26  C18 UNL     1      48.021  13.833  16.172  1.00  0.00     0.064 A 
ATOM     27  H5  UNL     1      45.994  14.335  18.199  1.00  0.00     0.184 HD
HETATM   28 CL1  UNL     1      47.994  12.386  17.173  1.00  0.00    -0.082 Cl
HETATM   29  C19 UNL     1      48.886  13.934  15.098  1.00  0.00     0.033 A 
HETATM   30  C20 UNL     1      48.891  15.077  14.328  1.00  0.00    -0.058 A 
HETATM   31  C21 UNL     1      49.828  15.176  13.168  1.00  0.00     0.048 C 
BRANCH  21  32
HETATM   32  C2  UNL     1      45.909  18.111  15.773  1.00  0.00     0.143 C 
HETATM   33  C1  UNL     1      47.064  19.030  16.138  1.00  0.00     0.027 C 
ENDBRANCH  21  32
ENDBRANCH  18  20
ENDBRANCH  15  18
ENDBRANCH  13  14
ENDBRANCH  12  13
ENDBRANCH   8  12
BRANCH  10  34
HETATM   34  O3  UNL     1      45.316  20.877  20.361  1.00  0.00    -0.353 OA
HETATM   35  C16 UNL     1      46.276  20.173  19.608  1.00  0.00     0.210 C 
ENDBRANCH  10  34
ENDBRANCH   1   5
TORSDOF 8
ENDMDL
MODEL 2
REMARK VINA RESULT: -10.324000620      1.098      1.140
REMARK  8 active torsions:
REMARK  status: ('A' for Active; 'I' for Inactive)
REMARK    1  A    between atoms: C2_2  and  N1_3 
REMARK    2  A    between atoms: C3_4  and  N2_5 
REMARK    3  A    between atoms: N2_5  and  N3_7 
REMARK       I    between atoms: N3_7  and  C4_9 
REMARK    4  A    between atoms: C4_9  and  C5_11 
REMARK    5  A    between atoms: C5_11  and  O2_12 
REMARK    6  A    between atoms: O2_12  and  C6_13 
REMARK    7  A    between atoms: C10_17  and  C11_18 
REMARK    8  A    between atoms: C15_23  and  O3_24 
ROOT
HETATM    1  C11 UNL     1      44.806  25.340  18.892  1.00  0.00     0.022 C 
HETATM    2  C12 UNL     1      46.061  25.640  18.815  1.00  0.00     0.094 C 
HETATM    3  C13 UNL     1      46.469  27.023  18.579  1.00  0.00     0.087 C 
HETATM    4  N4  UNL     1      46.801  28.112  18.377  1.00  0.00    -0.192 NA
ENDROOT
BRANCH   1   5
HETATM    5  C10 UNL     1      44.289  24.002  19.123  1.00  0.00    -0.032 A 
HETATM    6  C9  UNL     1      42.993  23.684  18.863  1.00  0.00     0.021 A 
HETATM    7  C7  UNL     1      42.532  22.383  19.098  1.00  0.00    -0.025 A 
HETATM    8  C6  UNL     1      43.374  21.416  19.593  1.00  0.00     0.108 A 
HETATM    9  C8  UNL     1      41.101  22.121  18.787  1.00  0.00     0.051 C 
HETATM   10  C15 UNL     1      44.673  21.709  19.860  1.00  0.00     0.102 A 
HETATM   11  C14 UNL     1      45.105  22.992  19.621  1.00  0.00     0.051 A 
BRANCH   8  12
HETATM   12  O2  UNL     1      42.900  20.139  19.818  1.00  0.00    -0.339 OA
BRANCH  12  13
HETATM   13  C5  UNL     1      42.677  19.208  18.773  1.00  0.00     0.280 C 
BRANCH  13  14
HETATM   14  C4  UNL     1      43.688  18.098  18.840  1.00  0.00     0.260 C 
HETATM   15  N3  UNL     1      44.260  17.523  17.681  1.00  0.00    -0.254 N 
ATOM     16  H3  UNL     1      43.989  17.863  16.758  1.00  0.00     0.190 HD
HETATM   17  O1  UNL     1      44.045  17.656  19.959  1.00  0.00    -0.269 OA
BRANCH  15  18
HETATM   18  N2  UNL     1      45.179  16.510  17.792  1.00  0.00    -0.129 N 
ATOM     19  H2  UNL     1      45.286  16.040  18.691  1.00  0.00     0.205 HD
BRANCH  18  20
HETATM   20  C3  UNL     1      45.927  16.126  16.785  1.00  0.00     0.700 A 
HETATM   21  N1  UNL     1      46.927  16.823  16.222  1.00  0.00    -0.180 N 
HETATM   22  C23 UNL     1      47.484  16.142  15.215  1.00  0.00     0.081 A 
HETATM   23  C17 UNL     1      46.800  14.948  15.134  1.00  0.00     0.098 A 
HETATM   24  C22 UNL     1      48.532  16.402  14.323  1.00  0.00     0.039 A 
HETATM   25  N5  UNL     1      45.860  14.970  16.101  1.00  0.00    -0.186 N 
HETATM   26  C18 UNL     1      47.178  14.045  14.164  1.00  0.00     0.064 A 
ATOM     27  H5  UNL     1      45.196  14.219  16.287  1.00  0.00     0.184 HD
HETATM   28 CL1  UNL     1      46.282  12.532  14.091  1.00  0.00    -0.082 Cl
HETATM   29  C19 UNL     1      48.212  14.298  13.281  1.00  0.00     0.033 A 
HETATM   30  C20 UNL     1      48.900  15.490  13.357  1.00  0.00    -0.058 A 
HETATM   31  C21 UNL     1      50.015  15.754  12.398  1.00  0.00     0.048 C 
BRANCH  21  32
HETATM   32  C2  UNL     1      47.356  18.138  16.642  1.00  0.00     0.143 C 
HETATM   33  C1  UNL     1      46.595  19.152  15.803  1.00  0.00     0.027 C 
ENDBRANCH  21  32
ENDBRANCH  18  20
ENDBRANCH  15  18
ENDBRANCH  13  14
ENDBRANCH  12  13
ENDBRANCH   8  12
BRANCH  10  34
HETATM   34  O3  UNL     1      45.584  20.777  20.362  1.00  0.00    -0.353 OA
HETATM   35  C16 UNL     1      46.493  20.128  19.504  1.00  0.00     0.210 C 
ENDBRANCH  10  34
ENDBRANCH   1   5
TORSDOF 8
ENDMDL
MODEL 3
REMARK VINA RESULT: -9.787223297      1.204      2.133
REMARK  8 active torsions:
REMARK  status: ('A' for Active; 'I' for Inactive)
REMARK    1  A    between atoms: C2_2  and  N1_3 
REMARK    2  A    between atoms: C3_4  and  N2_5 
REMARK    3  A    between atoms: N2_5  and  N3_7 
REMARK       I    between atoms: N3_7  and  C4_9 
REMARK    4  A    between atoms: C4_9  and  C5_11 
REMARK    5  A    between atoms: C5_11  and  O2_12 
REMARK    6  A    between atoms: O2_12  and  C6_13 
REMARK    7  A    between atoms: C10_17  and  C11_18 
REMARK    8  A    between atoms: C15_23  and  O3_24 
ROOT
HETATM    1  C11 UNL     1      44.831  25.464  19.044  1.00  0.00     0.022 C 
HETATM    2  C12 UNL     1      46.053  25.817  18.809  1.00  0.00     0.094 C 
HETATM    3  C13 UNL     1      46.384  27.229  18.632  1.00  0.00     0.087 C 
HETATM    4  N4  UNL     1      46.653  28.343  18.475  1.00  0.00    -0.192 NA
ENDROOT
BRANCH   1   5
HETATM    5  C10 UNL     1      44.390  24.094  19.236  1.00  0.00    -0.032 A 
HETATM    6  C9  UNL     1      45.270  23.093  19.502  1.00  0.00     0.021 A 
HETATM    7  C7  UNL     1      44.808  21.784  19.682  1.00  0.00    -0.025 A 
HETATM    8  C6  UNL     1      43.467  21.493  19.593  1.00  0.00     0.108 A 
HETATM    9  C8  UNL     1      45.838  20.749  19.969  1.00  0.00     0.051 C 
HETATM   10  C15 UNL     1      42.567  22.475  19.329  1.00  0.00     0.102 A 
HETATM   11  C14 UNL     1      43.044  23.753  19.156  1.00  0.00     0.051 A 
BRANCH   8  12
HETATM   12  O2  UNL     1      43.030  20.195  19.774  1.00  0.00    -0.339 OA
BRANCH  12  13
HETATM   13  C5  UNL     1      42.799  19.307  18.695  1.00  0.00     0.280 C 
BRANCH  13  14
HETATM   14  C4  UNL     1      43.753  18.146  18.761  1.00  0.00     0.260 C 
HETATM   15  N3  UNL     1      44.267  17.521  17.602  1.00  0.00    -0.254 N 
ATOM     16  H3  UNL     1      43.992  17.857  16.679  1.00  0.00     0.190 HD
HETATM   17  O1  UNL     1      44.111  17.708  19.881  1.00  0.00    -0.269 OA
BRANCH  15  18
HETATM   18  N2  UNL     1      45.135  16.464  17.714  1.00  0.00    -0.129 N 
ATOM     19  H2  UNL     1      45.182  15.958  18.598  1.00  0.00     0.205 HD
BRANCH  18  20
HETATM   20  C3  UNL     1      45.907  16.081  16.724  1.00  0.00     0.700 A 
HETATM   21  N1  UNL     1      46.915  16.783  16.181  1.00  0.00    -0.180 N 
HETATM   22  C23 UNL     1      47.499  16.103  15.190  1.00  0.00     0.081 A 
HETATM   23  C17 UNL     1      46.825  14.903  15.098  1.00  0.00     0.098 A 
HETATM   24  C22 UNL     1      48.564  16.367  14.319  1.00  0.00     0.039 A 
HETATM   25  N5  UNL     1      45.864  14.922  16.044  1.00  0.00    -0.186 N 
HETATM   26  C18 UNL     1      47.231  13.999  14.140  1.00  0.00     0.064 A 
ATOM     27  H5  UNL     1      45.201  14.167  16.218  1.00  0.00     0.184 HD
HETATM   28 CL1  UNL     1      46.348  12.480  14.053  1.00  0.00    -0.082 Cl
HETATM   29  C19 UNL     1      48.282  14.257  13.279  1.00  0.00     0.033 A 
HETATM   30  C20 UNL     1      48.960  15.454  13.365  1.00  0.00    -0.058 A 
HETATM   31  C21 UNL     1      50.094  15.723  12.430  1.00  0.00     0.048 C 
BRANCH  21  32
HETATM   32  C2  UNL     1      47.325  18.103  16.605  1.00  0.00     0.143 C 
HETATM   33  C1  UNL     1      46.587  19.108  15.736  1.00  0.00     0.027 C 
ENDBRANCH  21  32
ENDBRANCH  18  20
ENDBRANCH  15  18
ENDBRANCH  13  14
ENDBRANCH  12  13
ENDBRANCH   8  12
BRANCH  10  34
HETATM   34  O3  UNL     1      41.193  22.252  19.225  1.00  0.00    -0.353 OA
HETATM   35  C16 UNL     1      40.460  21.762  20.324  1.00  0.00     0.210 C 
ENDBRANCH  10  34
ENDBRANCH   1   5
TORSDOF 8
ENDMDL
MODEL 4
REMARK VINA RESULT: -9.254237069      2.231      3.296
REMARK  8 active torsions:
REMARK  status: ('A' for Active; 'I' for Inactive)
REMARK    1  A    between atoms: C2_2  and  N1_3 
REMARK    2  A    between atoms: C3_4  and  N2_5 
REMARK    3  A    between atoms: N2_5  and  N3_7 
REMARK       I    between atoms: N3_7  and  C4_9 
REMARK    4  A    between atoms: C4_9  and  C5_11 
REMARK    5  A    between atoms: C5_11  and  O2_12 
REMARK    6  A    between atoms: O2_12  and  C6_13 
REMARK    7  A    between atoms: C10_17  and  C11_18 
REMARK    8  A    between atoms: C15_23  and  O3_24 
ROOT
HETATM    1  C11 UNL     1      45.776  25.456  19.103  1.00  0.00     0.022 C 
HETATM    2  C12 UNL     1      45.867  26.210  18.056  1.00  0.00     0.094 C 
HETATM    3  C13 UNL     1      47.136  26.856  17.730  1.00  0.00     0.087 C 
HETATM    4  N4  UNL     1      48.132  27.384  17.472  1.00  0.00    -0.192 NA
ENDROOT
BRANCH   1   5
HETATM    5  C10 UNL     1      44.568  24.766  19.521  1.00  0.00    -0.032 A 
HETATM    6  C9  UNL     1      43.633  24.359  18.622  1.00  0.00     0.021 A 
HETATM    7  C7  UNL     1      42.481  23.696  19.063  1.00  0.00    -0.025 A 
HETATM    8  C6  UNL     1      42.280  23.448  20.400  1.00  0.00     0.108 A 
HETATM    9  C8  UNL     1      41.509  23.286  18.014  1.00  0.00     0.051 C 
HETATM   10  C15 UNL     1      43.200  23.844  21.318  1.00  0.00     0.102 A 
HETATM   11  C14 UNL     1      44.323  24.493  20.863  1.00  0.00     0.051 A 
BRANCH   8  12
HETATM   12  O2  UNL     1      41.137  22.793  20.815  1.00  0.00    -0.339 OA
BRANCH  12  13
HETATM   13  C5  UNL     1      41.171  21.555  21.504  1.00  0.00     0.280 C 
BRANCH  13  14
HETATM   14  C4  UNL     1      41.301  20.419  20.529  1.00  0.00     0.260 C 
HETATM   15  N3  UNL     1      42.418  19.551  20.521  1.00  0.00    -0.254 N 
ATOM     16  H3  UNL     1      43.172  19.687  21.195  1.00  0.00     0.190 HD
HETATM   17  O1  UNL     1      40.392  20.223  19.687  1.00  0.00    -0.269 OA
BRANCH  15  18
HETATM   18  N2  UNL     1      42.492  18.527  19.611  1.00  0.00    -0.129 N 
ATOM     19  H2  UNL     1      41.717  17.868  19.549  1.00  0.00     0.205 HD
BRANCH  18  20
HETATM   20  C3  UNL     1      43.525  18.367  18.817  1.00  0.00     0.700 A 
HETATM   21  N1  UNL     1      44.308  19.338  18.321  1.00  0.00    -0.180 N 
HETATM   22  C23 UNL     1      45.273  18.833  17.545  1.00  0.00     0.081 A 
HETATM   23  C17 UNL     1      45.091  17.466  17.549  1.00  0.00     0.098 A 
HETATM   24  C22 UNL     1      46.325  19.390  16.807  1.00  0.00     0.039 A 
HETATM   25  N5  UNL     1      44.021  17.216  18.331  1.00  0.00    -0.186 N 
HETATM   26  C18 UNL     1      45.964  16.691  16.815  1.00  0.00     0.064 A 
ATOM     27  H5  UNL     1      43.643  16.289  18.525  1.00  0.00     0.184 HD
HETATM   28 CL1  UNL     1      45.702  14.951  16.844  1.00  0.00    -0.082 Cl
HETATM   29  C19 UNL     1      47.004  17.237  16.086  1.00  0.00     0.033 A 
HETATM   30  C20 UNL     1      47.191  18.603  16.078  1.00  0.00    -0.058 A 
HETATM   31  C21 UNL     1      48.316  19.184  15.286  1.00  0.00     0.048 C 
BRANCH  21  32
HETATM   32  C2  UNL     1      44.141  20.750  18.585  1.00  0.00     0.143 C 
HETATM   33  C1  UNL     1      45.227  21.159  19.566  1.00  0.00     0.027 C 
ENDBRANCH  21  32
ENDBRANCH  18  20
ENDBRANCH  15  18
ENDBRANCH  13  14
ENDBRANCH  12  13
ENDBRANCH   8  12
BRANCH  10  34
HETATM   34  O3  UNL     1      43.060  23.625  22.689  1.00  0.00    -0.353 OA
HETATM   35  C16 UNL     1      43.768  24.415  23.617  1.00  0.00     0.210 C 
ENDBRANCH  10  34
ENDBRANCH   1   5
TORSDOF 8
ENDMDL
MODEL 5
REMARK VINA RESULT: -9.046133487      1.724      2.353
REMARK  8 active torsions:
REMARK  status: ('A' for Active; 'I' for Inactive)
REMARK    1  A    between atoms: C2_2  and  N1_3 
REMARK    2  A    between atoms: C3_4  and  N2_5 
REMARK    3  A    between atoms: N2_5  and  N3_7 
REMARK       I    between atoms: N3_7  and  C4_9 
REMARK    4  A    between atoms: C4_9  and  C5_11 
REMARK    5  A    between atoms: C5_11  and  O2_12 
REMARK    6  A    between atoms: O2_12  and  C6_13 
REMARK    7  A    between atoms: C10_17  and  C11_18 
REMARK    8  A    between atoms: C15_23  and  O3_24 
ROOT
HETATM    1  C11 UNL     1      44.808  25.080  18.942  1.00  0.00     0.022 C 
HETATM    2  C12 UNL     1      45.910  25.559  19.421  1.00  0.00     0.094 C 
HETATM    3  C13 UNL     1      46.292  26.940  19.135  1.00  0.00     0.087 C 
HETATM    4  N4  UNL     1      46.610  28.027  18.902  1.00  0.00    -0.192 NA
ENDROOT
BRANCH   1   5
HETATM    5  C10 UNL     1      44.332  23.726  19.162  1.00  0.00    -0.032 A 
HETATM    6  C9  UNL     1      43.039  23.378  18.927  1.00  0.00     0.021 A 
HETATM    7  C7  UNL     1      42.617  22.062  19.150  1.00  0.00    -0.025 A 
HETATM    8  C6  UNL     1      43.497  21.109  19.607  1.00  0.00     0.108 A 
HETATM    9  C8  UNL     1      41.187  21.767  18.868  1.00  0.00     0.051 C 
HETATM   10  C15 UNL     1      44.794  21.431  19.849  1.00  0.00     0.102 A 
HETATM   11  C14 UNL     1      45.186  22.729  19.623  1.00  0.00     0.051 A 
BRANCH   8  12
HETATM   12  O2  UNL     1      43.061  19.816  19.821  1.00  0.00    -0.339 OA
BRANCH  12  13
HETATM   13  C5  UNL     1      42.886  18.882  18.771  1.00  0.00     0.280 C 
BRANCH  13  14
HETATM   14  C4  UNL     1      43.922  17.796  18.860  1.00  0.00     0.260 C 
HETATM   15  N3  UNL     1      44.419  17.128  17.717  1.00  0.00    -0.254 N 
ATOM     16  H3  UNL     1      44.074  17.379  16.790  1.00  0.00     0.190 HD
HETATM   17  O1  UNL     1      44.368  17.462  19.984  1.00  0.00    -0.269 OA
BRANCH  15  18
HETATM   18  N2  UNL     1      45.365  16.142  17.849  1.00  0.00    -0.129 N 
ATOM     19  H2  UNL     1      45.593  15.802  18.783  1.00  0.00     0.205 HD
BRANCH  18  20
HETATM   20  C3  UNL     1      45.986  15.622  16.817  1.00  0.00     0.700 A 
HETATM   21  N1  UNL     1      47.008  14.752  16.857  1.00  0.00    -0.180 N 
HETATM   22  C23 UNL     1      47.409  14.420  15.625  1.00  0.00     0.081 A 
HETATM   23  C17 UNL     1      46.596  15.117  14.756  1.00  0.00     0.098 A 
HETATM   24  C22 UNL     1      48.405  13.576  15.117  1.00  0.00     0.039 A 
HETATM   25  N5  UNL     1      45.744  15.837  15.512  1.00  0.00    -0.186 N 
HETATM   26  C18 UNL     1      46.799  14.954  13.403  1.00  0.00     0.064 A 
ATOM     27  H5  UNL     1      45.019  16.456  15.147  1.00  0.00     0.184 HD
HETATM   28 CL1  UNL     1      45.744  15.859  12.324  1.00  0.00    -0.082 Cl
HETATM   29  C19 UNL     1      47.781  14.122  12.897  1.00  0.00     0.033 A 
HETATM   30  C20 UNL     1      48.597  13.422  13.760  1.00  0.00    -0.058 A 
HETATM   31  C21 UNL     1      49.655  12.526  13.204  1.00  0.00     0.048 C 
BRANCH  21  32
HETATM   32  C2  UNL     1      47.606  14.234  18.067  1.00  0.00     0.143 C 
HETATM   33  C1  UNL     1      47.668  12.721  17.931  1.00  0.00     0.027 C 
ENDBRANCH  21  32
ENDBRANCH  18  20
ENDBRANCH  15  18
ENDBRANCH  13  14
ENDBRANCH  12  13
ENDBRANCH   8  12
BRANCH  10  34
HETATM   34  O3  UNL     1      45.739  20.515  20.313  1.00  0.00    -0.353 OA
HETATM   35  C16 UNL     1      46.664  19.927  19.428  1.00  0.00     0.210 C 
ENDBRANCH  10  34
ENDBRANCH   1   5
TORSDOF 8
ENDMDL
