MODEL 1
REMARK VINA RESULT: -8.419476415      0.000      0.000
REMARK  4 active torsions:
REMARK  status: ('A' for Active; 'I' for Inactive)
REMARK    1  A    between atoms: C6_8  and  C7_9 
REMARK    2  A    between atoms: N2_19  and  C13_20 
REMARK    3  A    between atoms: C13_20  and  C14_21 
REMARK    4  A    between atoms: C14_21  and  N3_22 
ROOT
HETATM    1  C1  UNL     1      18.950  49.596  29.677  1.00  0.00     0.034 C 
HETATM    2  C2  UNL     1      18.995  51.017  29.090  1.00  0.00     0.046 C 
HETATM    3 CL1  UNL     1      19.941  50.841  27.565  1.00  0.00    -0.118 Cl
HETATM    4  C3  UNL     1      19.821  51.829  30.015  1.00  0.00     0.106 C 
HETATM    5  S1  UNL     1      19.942  53.493  29.234  1.00  0.00    -0.108 SA
HETATM    6  C4  UNL     1      18.256  53.937  28.954  1.00  0.00     0.096 A 
HETATM    7  C5  UNL     1      17.380  52.922  28.751  1.00  0.00     0.008 A 
HETATM    8  C6  UNL     1      16.146  53.540  28.565  1.00  0.00     0.069 A 
HETATM    9  N1  UNL     1      16.364  54.845  28.667  1.00  0.00    -0.296 N 
ATOM     10  H1  UNL     1      15.640  55.558  28.574  1.00  0.00     0.187 HD
HETATM   11  N2  UNL     1      17.639  55.103  28.903  1.00  0.00    -0.283 N 
HETATM   12  C20 UNL     1      17.658  51.489  28.731  1.00  0.00     0.070 C 
ENDROOT
BRANCH   8  13
HETATM   13  C7  UNL     1      14.849  52.944  28.316  1.00  0.00     0.014 A 
HETATM   14  C8  UNL     1      14.232  52.106  29.206  1.00  0.00     0.017 A 
HETATM   15  C9  UNL     1      12.989  51.536  28.952  1.00  0.00     0.025 A 
HETATM   16  C10 UNL     1      12.366  51.828  27.769  1.00  0.00     0.035 A 
HETATM   17 CL2  UNL     1      10.800  51.144  27.388  1.00  0.00    -0.084 Cl
HETATM   18  C11 UNL     1      12.986  52.677  26.860  1.00  0.00     0.048 A 
HETATM   19  C12 UNL     1      14.224  53.239  27.124  1.00  0.00     0.048 A 
HETATM   20 CL3  UNL     1      14.934  54.300  25.924  1.00  0.00    -0.083 Cl
ENDBRANCH   8  13
BRANCH  11  21
HETATM   21  C13 UNL     1      18.086  56.447  29.052  1.00  0.00     0.169 C 
BRANCH  21  22
HETATM   22  C14 UNL     1      18.398  56.947  30.380  1.00  0.00     0.138 C 
BRANCH  22  23
HETATM   23  N3  UNL     1      19.750  56.692  30.794  1.00  0.00    -0.411 N 
HETATM   24  C15 UNL     1      20.595  57.815  30.956  1.00  0.00     0.117 C 
HETATM   25  C16 UNL     1      22.021  57.362  30.605  1.00  0.00     0.019 C 
HETATM   26  C17 UNL     1      22.328  56.192  31.484  1.00  0.00     0.003 C 
HETATM   27  C18 UNL     1      21.261  55.939  32.528  1.00  0.00     0.019 C 
HETATM   28  C19 UNL     1      19.910  55.757  31.859  1.00  0.00     0.117 C 
ENDBRANCH  22  23
ENDBRANCH  21  22
ENDBRANCH  11  21
TORSDOF 4
ENDMDL
MODEL 2
REMARK VINA RESULT: -7.298541370      1.464      1.970
REMARK  4 active torsions:
REMARK  status: ('A' for Active; 'I' for Inactive)
REMARK    1  A    between atoms: C6_8  and  C7_9 
REMARK    2  A    between atoms: N2_19  and  C13_20 
REMARK    3  A    between atoms: C13_20  and  C14_21 
REMARK    4  A    between atoms: C14_21  and  N3_22 
ROOT
HETATM    1  C1  UNL     1      17.926  48.921  27.967  1.00  0.00     0.034 C 
HETATM    2  C2  UNL     1      18.047  50.427  27.675  1.00  0.00     0.046 C 
HETATM    3 CL1  UNL     1      18.807  50.505  26.042  1.00  0.00    -0.118 Cl
HETATM    4  C3  UNL     1      19.040  50.964  28.635  1.00  0.00     0.106 C 
HETATM    5  S1  UNL     1      19.240  52.740  28.193  1.00  0.00    -0.108 SA
HETATM    6  C4  UNL     1      17.585  53.356  28.217  1.00  0.00     0.096 A 
HETATM    7  C5  UNL     1      16.598  52.474  27.924  1.00  0.00     0.008 A 
HETATM    8  C6  UNL     1      15.418  53.207  28.017  1.00  0.00     0.069 A 
HETATM    9  N1  UNL     1      15.770  54.441  28.350  1.00  0.00    -0.296 N 
ATOM     10  H1  UNL     1      15.114  55.209  28.491  1.00  0.00     0.187 HD
HETATM   11  N2  UNL     1      17.083  54.549  28.475  1.00  0.00    -0.283 N 
HETATM   12  C20 UNL     1      16.731  51.061  27.584  1.00  0.00     0.070 C 
ENDROOT
BRANCH   8  13
HETATM   13  C7  UNL     1      14.049  52.772  27.814  1.00  0.00     0.014 A 
HETATM   14  C8  UNL     1      13.275  53.215  26.775  1.00  0.00     0.017 A 
HETATM   15  C9  UNL     1      11.962  52.793  26.595  1.00  0.00     0.025 A 
HETATM   16  C10 UNL     1      11.431  51.905  27.491  1.00  0.00     0.035 A 
HETATM   17 CL2  UNL     1       9.785  51.336  27.321  1.00  0.00    -0.084 Cl
HETATM   18  C11 UNL     1      12.211  51.452  28.549  1.00  0.00     0.048 A 
HETATM   19  C12 UNL     1      13.518  51.879  28.718  1.00  0.00     0.048 A 
HETATM   20 CL3  UNL     1      14.431  51.257  30.078  1.00  0.00    -0.083 Cl
ENDBRANCH   8  13
BRANCH  11  21
HETATM   21  C13 UNL     1      17.671  55.796  28.834  1.00  0.00     0.169 C 
BRANCH  21  22
HETATM   22  C14 UNL     1      17.743  56.167  30.236  1.00  0.00     0.138 C 
BRANCH  22  23
HETATM   23  N3  UNL     1      19.082  56.225  30.755  1.00  0.00    -0.411 N 
HETATM   24  C15 UNL     1      20.063  55.456  30.086  1.00  0.00     0.117 C 
HETATM   25  C16 UNL     1      21.091  55.019  31.142  1.00  0.00     0.019 C 
HETATM   26  C17 UNL     1      21.587  56.267  31.800  1.00  0.00     0.003 C 
HETATM   27  C18 UNL     1      21.085  57.529  31.131  1.00  0.00     0.019 C 
HETATM   28  C19 UNL     1      19.568  57.524  31.082  1.00  0.00     0.117 C 
ENDBRANCH  22  23
ENDBRANCH  21  22
ENDBRANCH  11  21
TORSDOF 4
ENDMDL
MODEL 3
REMARK VINA RESULT: -7.158846578      0.780      1.193
REMARK  4 active torsions:
REMARK  status: ('A' for Active; 'I' for Inactive)
REMARK    1  A    between atoms: C6_8  and  C7_9 
REMARK    2  A    between atoms: N2_19  and  C13_20 
REMARK    3  A    between atoms: C13_20  and  C14_21 
REMARK    4  A    between atoms: C14_21  and  N3_22 
ROOT
HETATM    1  C1  UNL     1      18.595  49.249  28.040  1.00  0.00     0.034 C 
HETATM    2  C2  UNL     1      18.624  50.781  27.912  1.00  0.00     0.046 C 
HETATM    3 CL1  UNL     1      19.421  51.081  26.323  1.00  0.00    -0.118 Cl
HETATM    4  C3  UNL     1      19.552  51.274  28.957  1.00  0.00     0.106 C 
HETATM    5  S1  UNL     1      19.645  53.097  28.711  1.00  0.00    -0.108 SA
HETATM    6  C4  UNL     1      17.953  53.601  28.742  1.00  0.00     0.096 A 
HETATM    7  C5  UNL     1      17.035  52.694  28.324  1.00  0.00     0.008 A 
HETATM    8  C6  UNL     1      15.807  53.336  28.453  1.00  0.00     0.069 A 
HETATM    9  N1  UNL     1      16.067  54.548  28.925  1.00  0.00    -0.296 N 
ATOM     10  H1  UNL     1      15.357  55.254  29.124  1.00  0.00     0.187 HD
HETATM   11  N2  UNL     1      17.365  54.725  29.106  1.00  0.00    -0.283 N 
HETATM   12  C20 UNL     1      17.272  51.337  27.843  1.00  0.00     0.070 C 
ENDROOT
BRANCH   8  13
HETATM   13  C7  UNL     1      14.476  52.841  28.159  1.00  0.00     0.014 A 
HETATM   14  C8  UNL     1      13.802  51.983  28.987  1.00  0.00     0.017 A 
HETATM   15  C9  UNL     1      12.528  51.512  28.689  1.00  0.00     0.025 A 
HETATM   16  C10 UNL     1      11.933  51.924  27.528  1.00  0.00     0.035 A 
HETATM   17 CL2  UNL     1      10.331  51.366  27.095  1.00  0.00    -0.084 Cl
HETATM   18  C11 UNL     1      12.611  52.793  26.682  1.00  0.00     0.048 A 
HETATM   19  C12 UNL     1      13.880  53.257  26.989  1.00  0.00     0.048 A 
HETATM   20 CL3  UNL     1      14.664  54.351  25.867  1.00  0.00    -0.083 Cl
ENDBRANCH   8  13
BRANCH  11  21
HETATM   21  C13 UNL     1      17.859  55.961  29.614  1.00  0.00     0.169 C 
BRANCH  21  22
HETATM   22  C14 UNL     1      18.103  56.094  31.040  1.00  0.00     0.138 C 
BRANCH  22  23
HETATM   23  N3  UNL     1      19.474  56.368  31.372  1.00  0.00    -0.411 N 
HETATM   24  C15 UNL     1      20.398  55.307  31.215  1.00  0.00     0.117 C 
HETATM   25  C16 UNL     1      21.486  55.494  32.284  1.00  0.00     0.019 C 
HETATM   26  C17 UNL     1      22.044  56.868  32.093  1.00  0.00     0.003 C 
HETATM   27  C18 UNL     1      21.518  57.552  30.849  1.00  0.00     0.019 C 
HETATM   28  C19 UNL     1      20.001  57.598  30.881  1.00  0.00     0.117 C 
ENDBRANCH  22  23
ENDBRANCH  21  22
ENDBRANCH  11  21
TORSDOF 4
ENDMDL
MODEL 4
REMARK VINA RESULT: -7.133477268      2.791      7.568
REMARK  4 active torsions:
REMARK  status: ('A' for Active; 'I' for Inactive)
REMARK    1  A    between atoms: C6_8  and  C7_9 
REMARK    2  A    between atoms: N2_19  and  C13_20 
REMARK    3  A    between atoms: C13_20  and  C14_21 
REMARK    4  A    between atoms: C14_21  and  N3_22 
ROOT
HETATM    1  C1  UNL     1      20.635  51.501  26.161  1.00  0.00     0.034 C 
HETATM    2  C2  UNL     1      19.325  51.477  26.967  1.00  0.00     0.046 C 
HETATM    3 CL1  UNL     1      19.453  49.992  27.982  1.00  0.00    -0.118 Cl
HETATM    4  C3  UNL     1      18.234  51.238  25.994  1.00  0.00     0.106 C 
HETATM    5  S1  UNL     1      16.697  51.112  26.999  1.00  0.00    -0.108 SA
HETATM    6  C4  UNL     1      16.705  52.601  27.948  1.00  0.00     0.096 A 
HETATM    7  C5  UNL     1      17.917  53.135  28.241  1.00  0.00     0.008 A 
HETATM    8  C6  UNL     1      17.638  54.282  28.978  1.00  0.00     0.069 A 
HETATM    9  N1  UNL     1      16.317  54.354  29.072  1.00  0.00    -0.296 N 
ATOM     10  H1  UNL     1      15.814  55.096  29.560  1.00  0.00     0.187 HD
HETATM   11  N2  UNL     1      15.735  53.341  28.452  1.00  0.00    -0.283 N 
HETATM   12  C20 UNL     1      19.233  52.626  27.870  1.00  0.00     0.070 C 
ENDROOT
BRANCH   8  13
HETATM   13  C7  UNL     1      18.553  55.251  29.549  1.00  0.00     0.014 A 
HETATM   14  C8  UNL     1      18.568  56.570  29.178  1.00  0.00     0.017 A 
HETATM   15  C9  UNL     1      19.455  57.487  29.731  1.00  0.00     0.025 A 
HETATM   16  C10 UNL     1      20.341  57.051  30.678  1.00  0.00     0.035 A 
HETATM   17 CL2  UNL     1      21.483  58.156  31.412  1.00  0.00    -0.084 Cl
HETATM   18  C11 UNL     1      20.332  55.715  31.059  1.00  0.00     0.048 A 
HETATM   19  C12 UNL     1      19.444  54.809  30.502  1.00  0.00     0.048 A 
HETATM   20 CL3  UNL     1      19.501  53.143  31.040  1.00  0.00    -0.083 Cl
ENDBRANCH   8  13
BRANCH  11  21
HETATM   21  C13 UNL     1      14.315  53.231  28.429  1.00  0.00     0.169 C 
BRANCH  21  22
HETATM   22  C14 UNL     1      13.663  52.739  27.228  1.00  0.00     0.138 C 
BRANCH  22  23
HETATM   23  N3  UNL     1      12.838  51.583  27.447  1.00  0.00    -0.411 N 
HETATM   24  C15 UNL     1      13.211  50.718  28.502  1.00  0.00     0.117 C 
HETATM   25  C16 UNL     1      12.792  49.297  28.092  1.00  0.00     0.019 C 
HETATM   26  C17 UNL     1      11.329  49.352  27.790  1.00  0.00     0.003 C 
HETATM   27  C18 UNL     1      10.701  50.684  28.142  1.00  0.00     0.019 C 
HETATM   28  C19 UNL     1      11.431  51.808  27.427  1.00  0.00     0.117 C 
ENDBRANCH  22  23
ENDBRANCH  21  22
ENDBRANCH  11  21
TORSDOF 4
ENDMDL
MODEL 5
REMARK VINA RESULT: -7.119854984      2.859      7.585
REMARK  4 active torsions:
REMARK  status: ('A' for Active; 'I' for Inactive)
REMARK    1  A    between atoms: C6_8  and  C7_9 
REMARK    2  A    between atoms: N2_19  and  C13_20 
REMARK    3  A    between atoms: C13_20  and  C14_21 
REMARK    4  A    between atoms: C14_21  and  N3_22 
ROOT
HETATM    1  C1  UNL     1      20.705  51.575  26.017  1.00  0.00     0.034 C 
HETATM    2  C2  UNL     1      19.431  51.449  26.870  1.00  0.00     0.046 C 
HETATM    3 CL1  UNL     1      19.689  49.951  27.840  1.00  0.00    -0.118 Cl
HETATM    4  C3  UNL     1      18.321  51.165  25.930  1.00  0.00     0.106 C 
HETATM    5  S1  UNL     1      16.833  50.918  26.987  1.00  0.00    -0.108 SA
HETATM    6  C4  UNL     1      16.785  52.381  27.973  1.00  0.00     0.096 A 
HETATM    7  C5  UNL     1      17.971  52.983  28.237  1.00  0.00     0.008 A 
HETATM    8  C6  UNL     1      17.650  54.093  29.013  1.00  0.00     0.069 A 
HETATM    9  N1  UNL     1      16.332  54.078  29.157  1.00  0.00    -0.296 N 
ATOM     10  H1  UNL     1      15.802  54.775  29.682  1.00  0.00     0.187 HD
HETATM   11  N2  UNL     1      15.791  53.046  28.532  1.00  0.00    -0.283 N 
HETATM   12  C20 UNL     1      19.302  52.567  27.805  1.00  0.00     0.070 C 
ENDROOT
BRANCH   8  13
HETATM   13  C7  UNL     1      18.524  55.103  29.577  1.00  0.00     0.014 A 
HETATM   14  C8  UNL     1      18.475  56.420  29.205  1.00  0.00     0.017 A 
HETATM   15  C9  UNL     1      19.323  57.378  29.750  1.00  0.00     0.025 A 
HETATM   16  C10 UNL     1      20.235  56.984  30.691  1.00  0.00     0.035 A 
HETATM   17 CL2  UNL     1      21.331  58.141  31.416  1.00  0.00    -0.084 Cl
HETATM   18  C11 UNL     1      20.292  55.649  31.073  1.00  0.00     0.048 A 
HETATM   19  C12 UNL     1      19.442  54.703  30.523  1.00  0.00     0.048 A 
HETATM   20 CL3  UNL     1      19.579  53.042  31.061  1.00  0.00    -0.083 Cl
ENDBRANCH   8  13
BRANCH  11  21
HETATM   21  C13 UNL     1      14.380  52.848  28.557  1.00  0.00     0.169 C 
BRANCH  21  22
HETATM   22  C14 UNL     1      13.824  51.829  29.429  1.00  0.00     0.138 C 
BRANCH  22  23
HETATM   23  N3  UNL     1      12.909  50.937  28.772  1.00  0.00    -0.411 N 
HETATM   24  C15 UNL     1      12.184  51.455  27.673  1.00  0.00     0.117 C 
HETATM   25  C16 UNL     1      10.825  50.739  27.649  1.00  0.00     0.019 C 
HETATM   26  C17 UNL     1      11.113  49.273  27.598  1.00  0.00     0.003 C 
HETATM   27  C18 UNL     1      12.583  48.965  27.408  1.00  0.00     0.019 C 
HETATM   28  C19 UNL     1      13.399  49.626  28.504  1.00  0.00     0.117 C 
ENDBRANCH  22  23
ENDBRANCH  21  22
ENDBRANCH  11  21
TORSDOF 4
ENDMDL
