MODEL 1
REMARK VINA RESULT: -9.720634053      0.000      0.000
REMARK  6 active torsions:
REMARK  status: ('A' for Active; 'I' for Inactive)
REMARK    1  A    between atoms: O1_2  and  C2_3 
REMARK    2  A    between atoms: C2_3  and  C3_4 
REMARK    3  A    between atoms: C7_8  and  O2_9 
REMARK    4  A    between atoms: C9_11  and  O3_12 
REMARK    5  A    between atoms: O3_12  and  C10_13 
REMARK    6  A    between atoms: C10_13  and  C11_15 
ROOT
HETATM    1  C3  UNL     1      18.193  52.499  28.432  1.00  0.00     0.009 A 
HETATM    2  C4  UNL     1      18.918  53.611  28.975  1.00  0.00    -0.040 A 
HETATM    3  C5  UNL     1      18.383  54.863  29.034  1.00  0.00    -0.044 A 
HETATM    4  C6  UNL     1      17.110  55.052  28.556  1.00  0.00     0.047 A 
HETATM    5  C7  UNL     1      16.400  54.003  28.036  1.00  0.00     0.103 A 
HETATM    6  C9  UNL     1      16.938  52.696  27.966  1.00  0.00     0.121 A 
HETATM    7  C12 UNL     1      19.222  55.934  29.610  1.00  0.00     0.024 C 
HETATM    8  C13 UNL     1      18.489  57.126  30.107  1.00  0.00     0.010 C 
HETATM    9  C14 UNL     1      19.543  58.207  30.389  1.00  0.00     0.001 C 
HETATM   10  C15 UNL     1      20.822  57.557  30.914  1.00  0.00     0.005 C 
HETATM   11  C16 UNL     1      20.453  56.359  31.722  1.00  0.00    -0.014 C 
HETATM   12  C17 UNL     1      21.572  55.910  32.599  1.00  0.00     0.010 C 
HETATM   13  C18 UNL     1      19.902  55.293  30.830  1.00  0.00    -0.002 C 
HETATM   14  C19 UNL     1      20.910  54.345  30.286  1.00  0.00     0.010 C 
HETATM   15  C20 UNL     1      20.282  53.281  29.459  1.00  0.00     0.040 C 
ENDROOT
BRANCH   6  16
HETATM   16  O3  UNL     1      16.078  51.797  27.427  1.00  0.00    -0.272 OA
BRANCH  16  17
HETATM   17  C10 UNL     1      15.368  50.789  28.023  1.00  0.00     0.319 C 
HETATM   18  O4  UNL     1      15.948  49.670  28.143  1.00  0.00    -0.260 OA
BRANCH  17  19
HETATM   19  C11 UNL     1      13.996  51.027  28.485  1.00  0.00     0.276 C 
HETATM   20 CL1  UNL     1      13.992  51.757  30.110  1.00  0.00    -0.073 Cl
HETATM   21 CL2  UNL     1      13.224  49.402  28.668  1.00  0.00    -0.073 Cl
HETATM   22 CL3  UNL     1      12.974  51.924  27.360  1.00  0.00    -0.073 Cl
ENDBRANCH  17  19
ENDBRANCH  16  17
ENDBRANCH   6  16
BRANCH   1  23
HETATM   23  C2  UNL     1      18.823  51.183  28.578  1.00  0.00     0.209 C 
BRANCH  23  24
HETATM   24  O1  UNL     1      19.635  50.799  27.557  1.00  0.00    -0.391 OA
HETATM   25  C1  UNL     1      18.851  50.360  26.455  1.00  0.00     0.201 C 
ENDBRANCH  23  24
ENDBRANCH   1  23
BRANCH   5  26
HETATM   26  O2  UNL     1      15.127  54.197  27.565  1.00  0.00    -0.353 OA
HETATM   27  C8  UNL     1      14.927  54.534  26.207  1.00  0.00     0.210 C 
ENDBRANCH   5  26
TORSDOF 6
ENDMDL
MODEL 2
REMARK VINA RESULT: -7.638754190      3.129      7.935
REMARK  6 active torsions:
REMARK  status: ('A' for Active; 'I' for Inactive)
REMARK    1  A    between atoms: O1_2  and  C2_3 
REMARK    2  A    between atoms: C2_3  and  C3_4 
REMARK    3  A    between atoms: C7_8  and  O2_9 
REMARK    4  A    between atoms: C9_11  and  O3_12 
REMARK    5  A    between atoms: O3_12  and  C10_13 
REMARK    6  A    between atoms: C10_13  and  C11_15 
ROOT
HETATM    1  C3  UNL     1      15.126  52.781  28.187  1.00  0.00     0.009 A 
HETATM    2  C4  UNL     1      13.964  52.019  27.834  1.00  0.00    -0.040 A 
HETATM    3  C5  UNL     1      13.915  50.665  27.982  1.00  0.00    -0.044 A 
HETATM    4  C6  UNL     1      15.018  50.023  28.488  1.00  0.00     0.047 A 
HETATM    5  C7  UNL     1      16.137  50.733  28.834  1.00  0.00     0.103 A 
HETATM    6  C9  UNL     1      16.208  52.139  28.686  1.00  0.00     0.121 A 
HETATM    7  C12 UNL     1      12.668  49.982  27.582  1.00  0.00     0.024 C 
HETATM    8  C13 UNL     1      12.448  48.643  28.184  1.00  0.00     0.010 C 
HETATM    9  C14 UNL     1      11.271  48.006  27.429  1.00  0.00     0.001 C 
HETATM   10  C15 UNL     1      10.259  49.085  27.048  1.00  0.00     0.005 C 
HETATM   11  C16 UNL     1      10.249  50.130  28.113  1.00  0.00    -0.014 C 
HETATM   12  C17 UNL     1       9.029  50.985  28.045  1.00  0.00     0.010 C 
HETATM   13  C18 UNL     1      11.537  50.888  28.094  1.00  0.00    -0.002 C 
HETATM   14  C19 UNL     1      11.547  52.090  27.220  1.00  0.00     0.010 C 
HETATM   15  C20 UNL     1      12.837  52.823  27.299  1.00  0.00     0.040 C 
ENDROOT
BRANCH   6  16
HETATM   16  O3  UNL     1      17.394  52.656  29.092  1.00  0.00    -0.272 OA
BRANCH  16  17
HETATM   17  C10 UNL     1      18.287  53.447  28.420  1.00  0.00     0.319 C 
HETATM   18  O4  UNL     1      18.457  53.205  27.188  1.00  0.00    -0.260 OA
BRANCH  17  19
HETATM   19  C11 UNL     1      19.003  54.515  29.127  1.00  0.00     0.276 C 
HETATM   20 CL1  UNL     1      20.670  54.017  29.507  1.00  0.00    -0.073 Cl
HETATM   21 CL2  UNL     1      18.172  54.726  30.719  1.00  0.00    -0.073 Cl
HETATM   22 CL3  UNL     1      18.953  56.095  28.342  1.00  0.00    -0.073 Cl
ENDBRANCH  17  19
ENDBRANCH  16  17
ENDBRANCH   6  16
BRANCH   1  23
HETATM   23  C2  UNL     1      14.985  54.240  28.128  1.00  0.00     0.209 C 
BRANCH  23  24
HETATM   24  O1  UNL     1      15.631  54.855  27.102  1.00  0.00    -0.391 OA
HETATM   25  C1  UNL     1      15.214  54.299  25.863  1.00  0.00     0.201 C 
ENDBRANCH  23  24
ENDBRANCH   1  23
BRANCH   5  26
HETATM   26  O2  UNL     1      17.234  50.088  29.343  1.00  0.00    -0.353 OA
HETATM   27  C8  UNL     1      18.331  49.800  28.499  1.00  0.00     0.210 C 
ENDBRANCH   5  26
TORSDOF 6
ENDMDL
MODEL 3
REMARK VINA RESULT: -7.601976435      1.084      1.254
REMARK  6 active torsions:
REMARK  status: ('A' for Active; 'I' for Inactive)
REMARK    1  A    between atoms: O1_2  and  C2_3 
REMARK    2  A    between atoms: C2_3  and  C3_4 
REMARK    3  A    between atoms: C7_8  and  O2_9 
REMARK    4  A    between atoms: C9_11  and  O3_12 
REMARK    5  A    between atoms: O3_12  and  C10_13 
REMARK    6  A    between atoms: C10_13  and  C11_15 
ROOT
HETATM    1  C3  UNL     1      17.657  52.216  29.156  1.00  0.00     0.009 A 
HETATM    2  C4  UNL     1      18.503  53.338  29.443  1.00  0.00    -0.040 A 
HETATM    3  C5  UNL     1      18.126  54.617  29.165  1.00  0.00    -0.044 A 
HETATM    4  C6  UNL     1      16.895  54.825  28.594  1.00  0.00     0.047 A 
HETATM    5  C7  UNL     1      16.072  53.768  28.314  1.00  0.00     0.103 A 
HETATM    6  C9  UNL     1      16.446  52.432  28.594  1.00  0.00     0.121 A 
HETATM    7  C12 UNL     1      19.079  55.695  29.500  1.00  0.00     0.024 C 
HETATM    8  C13 UNL     1      18.490  57.049  29.652  1.00  0.00     0.010 C 
HETATM    9  C14 UNL     1      19.664  58.039  29.709  1.00  0.00     0.001 C 
HETATM   10  C15 UNL     1      20.842  57.398  30.440  1.00  0.00     0.005 C 
HETATM   11  C16 UNL     1      20.313  56.491  31.500  1.00  0.00    -0.014 C 
HETATM   12  C17 UNL     1      21.351  56.152  32.515  1.00  0.00     0.010 C 
HETATM   13  C18 UNL     1      19.652  55.306  30.872  1.00  0.00    -0.002 C 
HETATM   14  C19 UNL     1      20.545  54.143  30.630  1.00  0.00     0.010 C 
HETATM   15  C20 UNL     1      19.807  52.986  30.061  1.00  0.00     0.040 C 
ENDROOT
BRANCH   6  16
HETATM   16  O3  UNL     1      15.491  51.532  28.252  1.00  0.00    -0.272 OA
BRANCH  16  17
HETATM   17  C10 UNL     1      14.352  51.159  28.915  1.00  0.00     0.319 C 
HETATM   18  O4  UNL     1      14.241  51.529  30.121  1.00  0.00    -0.260 OA
BRANCH  17  19
HETATM   19  C11 UNL     1      13.329  50.361  28.230  1.00  0.00     0.276 C 
HETATM   20 CL1  UNL     1      12.812  48.989  29.242  1.00  0.00    -0.073 Cl
HETATM   21 CL2  UNL     1      14.127  49.635  26.778  1.00  0.00    -0.073 Cl
HETATM   22 CL3  UNL     1      11.952  51.279  27.617  1.00  0.00    -0.073 Cl
ENDBRANCH  17  19
ENDBRANCH  16  17
ENDBRANCH   6  16
BRANCH   1  23
HETATM   23  C2  UNL     1      18.118  50.915  29.653  1.00  0.00     0.209 C 
BRANCH  23  24
HETATM   24  O1  UNL     1      18.197  49.923  28.727  1.00  0.00    -0.391 OA
HETATM   25  C1  UNL     1      18.868  50.395  27.567  1.00  0.00     0.201 C 
ENDBRANCH  23  24
ENDBRANCH   1  23
BRANCH   5  26
HETATM   26  O2  UNL     1      14.841  53.983  27.747  1.00  0.00    -0.353 OA
HETATM   27  C8  UNL     1      14.728  54.095  26.343  1.00  0.00     0.210 C 
ENDBRANCH   5  26
TORSDOF 6
ENDMDL
MODEL 4
REMARK VINA RESULT: -7.450939955      3.277      8.133
REMARK  6 active torsions:
REMARK  status: ('A' for Active; 'I' for Inactive)
REMARK    1  A    between atoms: O1_2  and  C2_3 
REMARK    2  A    between atoms: C2_3  and  C3_4 
REMARK    3  A    between atoms: C7_8  and  O2_9 
REMARK    4  A    between atoms: C9_11  and  O3_12 
REMARK    5  A    between atoms: O3_12  and  C10_13 
REMARK    6  A    between atoms: C10_13  and  C11_15 
ROOT
HETATM    1  C3  UNL     1      14.681  52.487  27.843  1.00  0.00     0.009 A 
HETATM    2  C4  UNL     1      13.408  51.856  27.650  1.00  0.00    -0.040 A 
HETATM    3  C5  UNL     1      13.229  50.518  27.832  1.00  0.00    -0.044 A 
HETATM    4  C6  UNL     1      14.310  49.761  28.213  1.00  0.00     0.047 A 
HETATM    5  C7  UNL     1      15.533  50.345  28.405  1.00  0.00     0.103 A 
HETATM    6  C9  UNL     1      15.738  51.733  28.220  1.00  0.00     0.121 A 
HETATM    7  C12 UNL     1      11.875  49.975  27.600  1.00  0.00     0.024 C 
HETATM    8  C13 UNL     1      11.585  48.673  28.253  1.00  0.00     0.010 C 
HETATM    9  C14 UNL     1      10.262  48.166  27.660  1.00  0.00     0.001 C 
HETATM   10  C15 UNL     1       9.334  49.348  27.383  1.00  0.00     0.005 C 
HETATM   11  C16 UNL     1       9.571  50.395  28.419  1.00  0.00    -0.014 C 
HETATM   12  C17 UNL     1       8.453  51.380  28.482  1.00  0.00     0.010 C 
HETATM   13  C18 UNL     1      10.922  51.005  28.228  1.00  0.00    -0.002 C 
HETATM   14  C19 UNL     1      10.955  52.192  27.334  1.00  0.00     0.010 C 
HETATM   15  C20 UNL     1      12.318  52.778  27.240  1.00  0.00     0.040 C 
ENDROOT
BRANCH   6  16
HETATM   16  O3  UNL     1      17.015  52.117  28.467  1.00  0.00    -0.272 OA
BRANCH  16  17
HETATM   17  C10 UNL     1      17.521  52.907  29.465  1.00  0.00     0.319 C 
HETATM   18  O4  UNL     1      16.934  52.864  30.586  1.00  0.00    -0.260 OA
BRANCH  17  19
HETATM   19  C11 UNL     1      18.689  53.758  29.210  1.00  0.00     0.276 C 
HETATM   20 CL1  UNL     1      19.778  53.002  28.022  1.00  0.00    -0.073 Cl
HETATM   21 CL2  UNL     1      19.619  53.835  30.759  1.00  0.00    -0.073 Cl
HETATM   22 CL3  UNL     1      18.315  55.431  28.786  1.00  0.00    -0.073 Cl
ENDBRANCH  17  19
ENDBRANCH  16  17
ENDBRANCH   6  16
BRANCH   1  23
HETATM   23  C2  UNL     1      14.694  53.952  27.771  1.00  0.00     0.209 C 
BRANCH  23  24
HETATM   24  O1  UNL     1      15.576  54.493  26.889  1.00  0.00    -0.391 OA
HETATM   25  C1  UNL     1      15.126  54.275  25.558  1.00  0.00     0.201 C 
ENDBRANCH  23  24
ENDBRANCH   1  23
BRANCH   5  26
HETATM   26  O2  UNL     1      16.608  49.584  28.790  1.00  0.00    -0.353 OA
HETATM   27  C8  UNL     1      17.742  49.500  27.950  1.00  0.00     0.210 C 
ENDBRANCH   5  26
TORSDOF 6
ENDMDL
MODEL 5
REMARK VINA RESULT: -7.402052975      2.985      7.340
REMARK  6 active torsions:
REMARK  status: ('A' for Active; 'I' for Inactive)
REMARK    1  A    between atoms: O1_2  and  C2_3 
REMARK    2  A    between atoms: C2_3  and  C3_4 
REMARK    3  A    between atoms: C7_8  and  O2_9 
REMARK    4  A    between atoms: C9_11  and  O3_12 
REMARK    5  A    between atoms: O3_12  and  C10_13 
REMARK    6  A    between atoms: C10_13  and  C11_15 
ROOT
HETATM    1  C3  UNL     1      15.705  51.176  27.852  1.00  0.00     0.009 A 
HETATM    2  C4  UNL     1      14.315  50.896  28.066  1.00  0.00    -0.040 A 
HETATM    3  C5  UNL     1      13.340  51.796  27.755  1.00  0.00    -0.044 A 
HETATM    4  C6  UNL     1      13.713  53.005  27.222  1.00  0.00     0.047 A 
HETATM    5  C7  UNL     1      15.035  53.291  27.008  1.00  0.00     0.103 A 
HETATM    6  C9  UNL     1      16.062  52.370  27.325  1.00  0.00     0.121 A 
HETATM    7  C12 UNL     1      11.942  51.402  28.021  1.00  0.00     0.024 C 
HETATM    8  C13 UNL     1      10.909  52.145  27.256  1.00  0.00     0.010 C 
HETATM    9  C14 UNL     1       9.552  51.788  27.882  1.00  0.00     0.001 C 
HETATM   10  C15 UNL     1       9.565  50.333  28.348  1.00  0.00     0.005 C 
HETATM   11  C16 UNL     1      10.418  49.540  27.415  1.00  0.00    -0.014 C 
HETATM   12  C17 UNL     1      10.164  48.076  27.534  1.00  0.00     0.010 C 
HETATM   13  C18 UNL     1      11.851  49.934  27.575  1.00  0.00    -0.002 C 
HETATM   14  C19 UNL     1      12.609  49.150  28.585  1.00  0.00     0.010 C 
HETATM   15  C20 UNL     1      14.037  49.558  28.646  1.00  0.00     0.040 C 
ENDROOT
BRANCH   6  16
HETATM   16  O3  UNL     1      17.301  52.836  27.031  1.00  0.00    -0.272 OA
BRANCH  16  17
HETATM   17  C10 UNL     1      18.392  53.013  27.841  1.00  0.00     0.319 C 
HETATM   18  O4  UNL     1      19.462  52.430  27.499  1.00  0.00    -0.260 OA
BRANCH  17  19
HETATM   19  C11 UNL     1      18.287  53.842  29.047  1.00  0.00     0.276 C 
HETATM   20 CL1  UNL     1      17.600  55.439  28.661  1.00  0.00    -0.073 Cl
HETATM   21 CL2  UNL     1      19.978  54.151  29.609  1.00  0.00    -0.073 Cl
HETATM   22 CL3  UNL     1      17.456  53.082  30.407  1.00  0.00    -0.073 Cl
ENDBRANCH  17  19
ENDBRANCH  16  17
ENDBRANCH   6  16
BRANCH   1  23
HETATM   23  C2  UNL     1      16.631  50.062  28.078  1.00  0.00     0.209 C 
BRANCH  23  24
HETATM   24  O1  UNL     1      17.116  49.943  29.343  1.00  0.00    -0.391 OA
HETATM   25  C1  UNL     1      18.537  49.915  29.317  1.00  0.00     0.201 C 
ENDBRANCH  23  24
ENDBRANCH   1  23
BRANCH   5  26
HETATM   26  O2  UNL     1      15.402  54.498  26.471  1.00  0.00    -0.353 OA
HETATM   27  C8  UNL     1      14.673  55.030  25.383  1.00  0.00     0.210 C 
ENDBRANCH   5  26
TORSDOF 6
ENDMDL
