MODEL 1
REMARK VINA RESULT: -10.486918984      0.000      0.000
REMARK  4 active torsions:
REMARK  status: ('A' for Active; 'I' for Inactive)
REMARK    1  A    between atoms: C5_5  and  C6_6 
REMARK    2  A    between atoms: C6_6  and  N1_7 
REMARK    3  A    between atoms: C13_14  and  O1_15 
REMARK    4  A    between atoms: O1_15  and  C14_16 
ROOT
HETATM    1  N1  UNL     1      19.588  53.282  29.798  1.00  0.00     0.117 N 
HETATM    2  C7  UNL     1      19.592  51.883  30.124  1.00  0.00     0.278 C 
HETATM    3  C8  UNL     1      18.132  51.488  30.266  1.00  0.00     0.068 C 
HETATM    4  C9  UNL     1      17.360  51.864  29.005  1.00  0.00     0.067 C 
HETATM    5  C10 UNL     1      17.740  50.840  27.948  1.00  0.00     0.038 C 
HETATM    6  C11 UNL     1      16.963  51.287  26.701  1.00  0.00     0.006 C 
HETATM    7  C12 UNL     1      15.535  50.981  26.995  1.00  0.00     0.033 C 
HETATM    8  C13 UNL     1      14.976  51.758  28.167  1.00  0.00     0.132 C 
HETATM    9  C20 UNL     1      15.910  51.809  29.346  1.00  0.00     0.070 C 
HETATM   10  O2  UNL     1      17.664  53.106  28.518  1.00  0.00    -0.351 OA
HETATM   11  C21 UNL     1      19.006  53.441  28.507  1.00  0.00     0.441 C 
ENDROOT
BRANCH   8  12
HETATM   12  O1  UNL     1      13.768  51.231  28.470  1.00  0.00    -0.344 OA
BRANCH  12  13
HETATM   13  C14 UNL     1      12.542  51.008  28.066  1.00  0.00     0.092 A 
HETATM   14  C15 UNL     1      11.790  52.118  27.602  1.00  0.00     0.064 A 
HETATM   15  C16 UNL     1      10.514  52.026  27.157  1.00  0.00     0.058 A 
HETATM   16 CL1  UNL     1       9.582  53.394  26.582  1.00  0.00    -0.082 Cl
HETATM   17  C17 UNL     1       9.904  50.798  27.151  1.00  0.00     0.057 A 
HETATM   18 CL2  UNL     1       8.269  50.620  26.592  1.00  0.00    -0.082 Cl
HETATM   19  C18 UNL     1      10.604  49.703  27.595  1.00  0.00     0.052 A 
HETATM   20  C19 UNL     1      11.915  49.786  28.053  1.00  0.00     0.069 A 
HETATM   21 CL3  UNL     1      12.700  48.292  28.596  1.00  0.00    -0.081 Cl
ENDBRANCH  12  13
ENDBRANCH   8  12
BRANCH   1  22
HETATM   22  C6  UNL     1      20.782  53.992  30.062  1.00  0.00     0.339 C 
BRANCH  22  23
HETATM   23  C5  UNL     1      20.477  55.422  30.299  1.00  0.00     0.081 A 
HETATM   24  C4  UNL     1      20.951  56.207  31.320  1.00  0.00     0.037 A 
HETATM   25  C3  UNL     1      20.410  57.457  31.144  1.00  0.00     0.035 A 
HETATM   26  C2  UNL     1      19.615  57.386  30.003  1.00  0.00     0.049 A 
HETATM   27  C1  UNL     1      18.829  58.499  29.423  1.00  0.00     0.076 C 
HETATM   28  O3  UNL     1      19.699  56.172  29.560  1.00  0.00    -0.318 OA
ENDBRANCH  22  23
ENDBRANCH   1  22
TORSDOF 4
ENDMDL
MODEL 2
REMARK VINA RESULT: -10.468303479      0.890      1.052
REMARK  4 active torsions:
REMARK  status: ('A' for Active; 'I' for Inactive)
REMARK    1  A    between atoms: C5_5  and  C6_6 
REMARK    2  A    between atoms: C6_6  and  N1_7 
REMARK    3  A    between atoms: C13_14  and  O1_15 
REMARK    4  A    between atoms: O1_15  and  C14_16 
ROOT
HETATM    1  N1  UNL     1      19.247  53.285  29.771  1.00  0.00     0.117 N 
HETATM    2  C7  UNL     1      19.481  52.372  28.687  1.00  0.00     0.278 C 
HETATM    3  C8  UNL     1      18.220  51.531  28.575  1.00  0.00     0.068 C 
HETATM    4  C9  UNL     1      16.999  52.432  28.421  1.00  0.00     0.067 C 
HETATM    5  C10 UNL     1      17.021  52.944  26.991  1.00  0.00     0.038 C 
HETATM    6  C11 UNL     1      15.795  53.864  26.906  1.00  0.00     0.006 C 
HETATM    7  C12 UNL     1      14.616  52.955  26.938  1.00  0.00     0.033 C 
HETATM    8  C13 UNL     1      14.491  52.169  28.225  1.00  0.00     0.132 C 
HETATM    9  C20 UNL     1      15.798  51.593  28.699  1.00  0.00     0.070 C 
HETATM   10  O2  UNL     1      16.998  53.515  29.257  1.00  0.00    -0.351 OA
HETATM   11  C21 UNL     1      18.205  54.180  29.389  1.00  0.00     0.441 C 
ENDROOT
BRANCH   8  12
HETATM   12  O1  UNL     1      13.534  51.231  28.041  1.00  0.00    -0.344 OA
BRANCH  12  13
HETATM   13  C14 UNL     1      12.262  50.995  27.836  1.00  0.00     0.092 A 
HETATM   14  C15 UNL     1      11.458  52.071  27.382  1.00  0.00     0.064 A 
HETATM   15  C16 UNL     1      10.131  51.963  27.131  1.00  0.00     0.058 A 
HETATM   16 CL1  UNL     1       9.135  53.290  26.569  1.00  0.00    -0.082 Cl
HETATM   17  C17 UNL     1       9.520  50.750  27.324  1.00  0.00     0.057 A 
HETATM   18 CL2  UNL     1       7.822  50.553  27.019  1.00  0.00    -0.082 Cl
HETATM   19  C18 UNL     1      10.270  49.688  27.764  1.00  0.00     0.052 A 
HETATM   20  C19 UNL     1      11.633  49.788  28.024  1.00  0.00     0.069 A 
HETATM   21 CL3  UNL     1      12.479  48.335  28.587  1.00  0.00    -0.081 Cl
ENDBRANCH  12  13
ENDBRANCH   8  12
BRANCH   1  22
HETATM   22  C6  UNL     1      20.393  53.848  30.377  1.00  0.00     0.339 C 
BRANCH  22  23
HETATM   23  C5  UNL     1      20.256  55.321  30.448  1.00  0.00     0.081 A 
HETATM   24  C4  UNL     1      20.838  56.159  31.365  1.00  0.00     0.037 A 
HETATM   25  C3  UNL     1      20.436  57.434  31.049  1.00  0.00     0.035 A 
HETATM   26  C2  UNL     1      19.612  57.322  29.932  1.00  0.00     0.049 A 
HETATM   27  C1  UNL     1      18.942  58.443  29.234  1.00  0.00     0.076 C 
HETATM   28  O3  UNL     1      19.549  56.064  29.634  1.00  0.00    -0.318 OA
ENDBRANCH  22  23
ENDBRANCH   1  22
TORSDOF 4
ENDMDL
MODEL 3
REMARK VINA RESULT: -10.334853318      1.631      2.339
REMARK  4 active torsions:
REMARK  status: ('A' for Active; 'I' for Inactive)
REMARK    1  A    between atoms: C5_5  and  C6_6 
REMARK    2  A    between atoms: C6_6  and  N1_7 
REMARK    3  A    between atoms: C13_14  and  O1_15 
REMARK    4  A    between atoms: O1_15  and  C14_16 
ROOT
HETATM    1  N1  UNL     1      18.362  51.877  29.613  1.00  0.00     0.117 N 
HETATM    2  C7  UNL     1      18.515  51.400  28.267  1.00  0.00     0.278 C 
HETATM    3  C8  UNL     1      17.150  50.875  27.856  1.00  0.00     0.068 C 
HETATM    4  C9  UNL     1      16.090  51.954  28.051  1.00  0.00     0.067 C 
HETATM    5  C10 UNL     1      16.271  52.944  26.912  1.00  0.00     0.038 C 
HETATM    6  C11 UNL     1      15.205  54.016  27.179  1.00  0.00     0.006 C 
HETATM    7  C12 UNL     1      13.902  53.362  26.876  1.00  0.00     0.033 C 
HETATM    8  C13 UNL     1      13.587  52.190  27.780  1.00  0.00     0.132 C 
HETATM    9  C20 UNL     1      14.763  51.278  28.003  1.00  0.00     0.070 C 
HETATM   10  O2  UNL     1      16.207  52.640  29.229  1.00  0.00    -0.351 OA
HETATM   11  C21 UNL     1      17.490  53.005  29.594  1.00  0.00     0.441 C 
ENDROOT
BRANCH   8  12
HETATM   12  O1  UNL     1      12.511  51.553  27.266  1.00  0.00    -0.344 OA
BRANCH  12  13
HETATM   13  C14 UNL     1      11.492  50.764  27.503  1.00  0.00     0.092 A 
HETATM   14  C15 UNL     1      10.218  51.366  27.665  1.00  0.00     0.064 A 
HETATM   15  C16 UNL     1       9.084  50.666  27.914  1.00  0.00     0.058 A 
HETATM   16 CL1  UNL     1       7.508  51.406  28.114  1.00  0.00    -0.082 Cl
HETATM   17  C17 UNL     1       9.161  49.301  28.020  1.00  0.00     0.057 A 
HETATM   18 CL2  UNL     1       7.741  48.354  28.338  1.00  0.00    -0.082 Cl
HETATM   19  C18 UNL     1      10.380  48.689  27.869  1.00  0.00     0.052 A 
HETATM   20  C19 UNL     1      11.550  49.396  27.612  1.00  0.00     0.069 A 
HETATM   21 CL3  UNL     1      13.055  48.476  27.439  1.00  0.00    -0.081 Cl
ENDBRANCH  12  13
ENDBRANCH   8  12
BRANCH   1  22
HETATM   22  C6  UNL     1      19.543  51.985  30.380  1.00  0.00     0.339 C 
BRANCH  22  23
HETATM   23  C5  UNL     1      19.994  53.395  30.418  1.00  0.00     0.081 A 
HETATM   24  C4  UNL     1      20.065  54.266  29.359  1.00  0.00     0.037 A 
HETATM   25  C3  UNL     1      20.534  55.458  29.855  1.00  0.00     0.035 A 
HETATM   26  C2  UNL     1      20.735  55.265  31.220  1.00  0.00     0.049 A 
HETATM   27  C1  UNL     1      21.237  56.280  32.174  1.00  0.00     0.076 C 
HETATM   28  O3  UNL     1      20.400  54.041  31.481  1.00  0.00    -0.318 OA
ENDBRANCH  22  23
ENDBRANCH   1  22
TORSDOF 4
ENDMDL
MODEL 4
REMARK VINA RESULT: -10.208929289      1.175      1.365
REMARK  4 active torsions:
REMARK  status: ('A' for Active; 'I' for Inactive)
REMARK    1  A    between atoms: C5_5  and  C6_6 
REMARK    2  A    between atoms: C6_6  and  N1_7 
REMARK    3  A    between atoms: C13_14  and  O1_15 
REMARK    4  A    between atoms: O1_15  and  C14_16 
ROOT
HETATM    1  N1  UNL     1      19.637  53.274  29.850  1.00  0.00     0.117 N 
HETATM    2  C7  UNL     1      19.417  51.865  29.681  1.00  0.00     0.278 C 
HETATM    3  C8  UNL     1      17.909  51.677  29.691  1.00  0.00     0.068 C 
HETATM    4  C9  UNL     1      17.260  52.571  28.640  1.00  0.00     0.067 C 
HETATM    5  C10 UNL     1      17.531  51.919  27.295  1.00  0.00     0.038 C 
HETATM    6  C11 UNL     1      16.886  52.875  26.280  1.00  0.00     0.006 C 
HETATM    7  C12 UNL     1      15.417  52.713  26.464  1.00  0.00     0.033 C 
HETATM    8  C13 UNL     1      14.928  53.126  27.835  1.00  0.00     0.132 C 
HETATM    9  C20 UNL     1      15.804  52.631  28.954  1.00  0.00     0.070 C 
HETATM   10  O2  UNL     1      17.767  53.842  28.601  1.00  0.00    -0.351 OA
HETATM   11  C21 UNL     1      19.144  53.948  28.694  1.00  0.00     0.441 C 
ENDROOT
BRANCH   8  12
HETATM   12  O1  UNL     1      13.642  52.723  27.950  1.00  0.00    -0.344 OA
BRANCH  12  13
HETATM   13  C14 UNL     1      12.804  51.717  27.902  1.00  0.00     0.092 A 
HETATM   14  C15 UNL     1      11.455  52.000  27.565  1.00  0.00     0.064 A 
HETATM   15  C16 UNL     1      10.490  51.053  27.480  1.00  0.00     0.058 A 
HETATM   16 CL1  UNL     1       8.823  51.398  27.064  1.00  0.00    -0.082 Cl
HETATM   17  C17 UNL     1      10.822  49.747  27.732  1.00  0.00     0.057 A 
HETATM   18 CL2  UNL     1       9.625  48.492  27.638  1.00  0.00    -0.082 Cl
HETATM   19  C18 UNL     1      12.119  49.440  28.061  1.00  0.00     0.052 A 
HETATM   20  C19 UNL     1      13.119  50.404  28.151  1.00  0.00     0.069 A 
HETATM   21 CL3  UNL     1      14.752  49.867  28.585  1.00  0.00    -0.081 Cl
ENDBRANCH  12  13
ENDBRANCH   8  12
BRANCH   1  22
HETATM   22  C6  UNL     1      20.909  53.659  30.330  1.00  0.00     0.339 C 
BRANCH  22  23
HETATM   23  C5  UNL     1      20.884  55.081  30.744  1.00  0.00     0.081 A 
HETATM   24  C4  UNL     1      21.935  55.813  31.236  1.00  0.00     0.037 A 
HETATM   25  C3  UNL     1      21.457  57.077  31.485  1.00  0.00     0.035 A 
HETATM   26  C2  UNL     1      20.111  57.066  31.129  1.00  0.00     0.049 A 
HETATM   27  C1  UNL     1      19.179  58.213  31.224  1.00  0.00     0.076 C 
HETATM   28  O3  UNL     1      19.842  55.872  30.705  1.00  0.00    -0.318 OA
ENDBRANCH  22  23
ENDBRANCH   1  22
TORSDOF 4
ENDMDL
MODEL 5
REMARK VINA RESULT: -10.192663277      4.155      9.080
REMARK  4 active torsions:
REMARK  status: ('A' for Active; 'I' for Inactive)
REMARK    1  A    between atoms: C5_5  and  C6_6 
REMARK    2  A    between atoms: C6_6  and  N1_7 
REMARK    3  A    between atoms: C13_14  and  O1_15 
REMARK    4  A    between atoms: O1_15  and  C14_16 
ROOT
HETATM    1  N1  UNL     1      13.607  50.119  28.560  1.00  0.00     0.117 N 
HETATM    2  C7  UNL     1      13.357  51.534  28.561  1.00  0.00     0.278 C 
HETATM    3  C8  UNL     1      14.614  52.175  29.125  1.00  0.00     0.068 C 
HETATM    4  C9  UNL     1      15.836  51.727  28.331  1.00  0.00     0.067 C 
HETATM    5  C10 UNL     1      15.798  52.490  27.017  1.00  0.00     0.038 C 
HETATM    6  C11 UNL     1      17.026  51.975  26.253  1.00  0.00     0.006 C 
HETATM    7  C12 UNL     1      18.203  52.549  26.963  1.00  0.00     0.033 C 
HETATM    8  C13 UNL     1      18.340  52.074  28.393  1.00  0.00     0.132 C 
HETATM    9  C20 UNL     1      17.037  52.068  29.145  1.00  0.00     0.070 C 
HETATM   10  O2  UNL     1      15.850  50.389  28.041  1.00  0.00    -0.351 OA
HETATM   11  C21 UNL     1      14.647  49.846  27.625  1.00  0.00     0.441 C 
ENDROOT
BRANCH   8  12
HETATM   12  O1  UNL     1      19.292  52.829  28.987  1.00  0.00    -0.344 OA
BRANCH  12  13
HETATM   13  C14 UNL     1      19.589  53.985  29.528  1.00  0.00     0.092 A 
HETATM   14  C15 UNL     1      20.817  54.085  30.231  1.00  0.00     0.064 A 
HETATM   15  C16 UNL     1      21.244  55.220  30.836  1.00  0.00     0.058 A 
HETATM   16 CL1  UNL     1      22.760  55.349  31.705  1.00  0.00    -0.082 Cl
HETATM   17  C17 UNL     1      20.453  56.339  30.774  1.00  0.00     0.057 A 
HETATM   18 CL2  UNL     1      20.949  57.821  31.532  1.00  0.00    -0.082 Cl
HETATM   19  C18 UNL     1      19.258  56.274  30.102  1.00  0.00     0.052 A 
HETATM   20  C19 UNL     1      18.810  55.114  29.476  1.00  0.00     0.069 A 
HETATM   21 CL3  UNL     1      17.247  55.173  28.643  1.00  0.00    -0.081 Cl
ENDBRANCH  12  13
ENDBRANCH   8  12
BRANCH   1  22
HETATM   22  C6  UNL     1      12.470  49.280  28.527  1.00  0.00     0.339 C 
BRANCH  22  23
HETATM   23  C5  UNL     1      11.370  49.949  27.794  1.00  0.00     0.081 A 
HETATM   24  C4  UNL     1      10.432  49.349  26.992  1.00  0.00     0.037 A 
HETATM   25  C3  UNL     1       9.613  50.348  26.523  1.00  0.00     0.035 A 
HETATM   26  C2  UNL     1      10.091  51.537  27.068  1.00  0.00     0.049 A 
HETATM   27  C1  UNL     1       9.521  52.886  26.841  1.00  0.00     0.076 C 
HETATM   28  O3  UNL     1      11.116  51.232  27.798  1.00  0.00    -0.318 OA
ENDBRANCH  22  23
ENDBRANCH   1  22
TORSDOF 4
ENDMDL
