MODEL 1
REMARK VINA RESULT: -5.092135413      0.000      0.000
REMARK  2 active torsions:
REMARK  status: ('A' for Active; 'I' for Inactive)
REMARK    1  A    between atoms: N2_4  and  C2_6 
REMARK    2  A    between atoms: C2_6  and  C3_7 
ROOT
HETATM    1  C3  UNL     1     -30.383  88.069 -11.039  1.00  0.00     0.005 C 
HETATM    2  C4  UNL     1     -29.617  88.283 -12.330  1.00  0.00     0.006 C 
HETATM    3  C5  UNL     1     -28.309  87.575 -12.355  1.00  0.00     0.000 C 
HETATM    4  C6  UNL     1     -27.898  86.905 -11.110  1.00  0.00     0.000 C 
HETATM    5  C7  UNL     1     -28.357  87.490  -9.836  1.00  0.00     0.000 C 
HETATM    6  C8  UNL     1     -29.441  88.503  -9.933  1.00  0.00     0.006 C 
ENDROOT
BRANCH   1   7
HETATM    7  C2  UNL     1     -31.632  88.929 -11.089  1.00  0.00     0.143 C 
BRANCH   7   8
HETATM    8  N2  UNL     1     -31.291  90.125 -11.788  1.00  0.00    -0.341 N 
HETATM    9  N1  UNL     1     -32.078  90.680 -12.564  1.00  0.00    -0.345 N 
HETATM   10  C1  UNL     1     -33.400  90.201 -12.850  1.00  0.00     0.167 C 
ATOM     11  H1  UNL     1     -31.768  91.533 -13.030  1.00  0.00     0.179 HD
ATOM     12  H2  UNL     1     -30.368  90.536 -11.644  1.00  0.00     0.179 HD
ENDBRANCH   7   8
ENDBRANCH   1   7
TORSDOF 2
ENDMDL
MODEL 2
REMARK VINA RESULT: -5.058250206      1.729      2.308
REMARK  2 active torsions:
REMARK  status: ('A' for Active; 'I' for Inactive)
REMARK    1  A    between atoms: N2_4  and  C2_6 
REMARK    2  A    between atoms: C2_6  and  C3_7 
ROOT
HETATM    1  C3  UNL     1     -29.199  87.100 -10.794  1.00  0.00     0.005 C 
HETATM    2  C4  UNL     1     -29.690  86.813 -12.200  1.00  0.00     0.006 C 
HETATM    3  C5  UNL     1     -29.252  85.485 -12.708  1.00  0.00     0.000 C 
HETATM    4  C6  UNL     1     -28.321  84.727 -11.856  1.00  0.00     0.000 C 
HETATM    5  C7  UNL     1     -27.391  85.497 -11.008  1.00  0.00     0.000 C 
HETATM    6  C8  UNL     1     -27.692  86.944 -10.852  1.00  0.00     0.006 C 
ENDROOT
BRANCH   1   7
HETATM    7  C2  UNL     1     -29.608  88.518 -10.437  1.00  0.00     0.143 C 
BRANCH   7   8
HETATM    8  N2  UNL     1     -30.844  88.433  -9.729  1.00  0.00    -0.341 N 
HETATM    9  N1  UNL     1     -31.890  88.919 -10.175  1.00  0.00    -0.345 N 
HETATM   10  C1  UNL     1     -31.988  89.612 -11.427  1.00  0.00     0.167 C 
ATOM     11  H1  UNL     1     -32.738  88.821  -9.616  1.00  0.00     0.179 HD
ATOM     12  H2  UNL     1     -30.866  87.956  -8.828  1.00  0.00     0.179 HD
ENDBRANCH   7   8
ENDBRANCH   1   7
TORSDOF 2
ENDMDL
MODEL 3
REMARK VINA RESULT: -5.009050555      0.564      1.631
REMARK  2 active torsions:
REMARK  status: ('A' for Active; 'I' for Inactive)
REMARK    1  A    between atoms: N2_4  and  C2_6 
REMARK    2  A    between atoms: C2_6  and  C3_7 
ROOT
HETATM    1  C3  UNL     1     -30.142  88.522 -11.177  1.00  0.00     0.005 C 
HETATM    2  C4  UNL     1     -30.101  87.494 -10.064  1.00  0.00     0.006 C 
HETATM    3  C5  UNL     1     -28.805  86.768  -9.990  1.00  0.00     0.000 C 
HETATM    4  C6  UNL     1     -27.833  87.045 -11.061  1.00  0.00     0.000 C 
HETATM    5  C7  UNL     1     -28.363  87.404 -12.389  1.00  0.00     0.000 C 
HETATM    6  C8  UNL     1     -29.806  87.761 -12.444  1.00  0.00     0.006 C 
ENDROOT
BRANCH   1   7
HETATM    7  C2  UNL     1     -31.543  89.105 -11.223  1.00  0.00     0.143 C 
BRANCH   7   8
HETATM    8  N2  UNL     1     -31.451  90.369 -11.880  1.00  0.00    -0.341 N 
HETATM    9  N1  UNL     1     -32.317  90.764 -12.669  1.00  0.00    -0.345 N 
HETATM   10  C1  UNL     1     -33.494  90.018 -13.013  1.00  0.00     0.167 C 
ATOM     11  H1  UNL     1     -32.187  91.678 -13.103  1.00  0.00     0.179 HD
ATOM     12  H2  UNL     1     -30.644  90.966 -11.694  1.00  0.00     0.179 HD
ENDBRANCH   7   8
ENDBRANCH   1   7
TORSDOF 2
ENDMDL
MODEL 4
REMARK VINA RESULT: -4.983240842      3.487      5.097
REMARK  2 active torsions:
REMARK  status: ('A' for Active; 'I' for Inactive)
REMARK    1  A    between atoms: N2_4  and  C2_6 
REMARK    2  A    between atoms: C2_6  and  C3_7 
ROOT
HETATM    1  C3  UNL     1     -29.159  86.512 -11.256  1.00  0.00     0.005 C 
HETATM    2  C4  UNL     1     -29.414  86.936  -9.822  1.00  0.00     0.006 C 
HETATM    3  C5  UNL     1     -30.396  88.046  -9.709  1.00  0.00     0.000 C 
HETATM    4  C6  UNL     1     -30.859  88.648 -10.971  1.00  0.00     0.000 C 
HETATM    5  C7  UNL     1     -29.922  88.650 -12.110  1.00  0.00     0.000 C 
HETATM    6  C8  UNL     1     -28.729  87.773 -11.980  1.00  0.00     0.006 C 
ENDROOT
BRANCH   1   7
HETATM    7  C2  UNL     1     -28.062  85.463 -11.246  1.00  0.00     0.143 C 
BRANCH   7   8
HETATM    8  N2  UNL     1     -28.475  84.433 -10.348  1.00  0.00    -0.341 N 
HETATM    9  N1  UNL     1     -28.808  83.310 -10.745  1.00  0.00    -0.345 N 
HETATM   10  C1  UNL     1     -28.820  82.914 -12.124  1.00  0.00     0.167 C 
ATOM     11  H1  UNL     1     -29.092  82.622 -10.048  1.00  0.00     0.179 HD
ATOM     12  H2  UNL     1     -28.496  84.628  -9.347  1.00  0.00     0.179 HD
ENDBRANCH   7   8
ENDBRANCH   1   7
TORSDOF 2
ENDMDL
MODEL 5
REMARK VINA RESULT: -4.980526465      3.461      4.889
REMARK  2 active torsions:
REMARK  status: ('A' for Active; 'I' for Inactive)
REMARK    1  A    between atoms: N2_4  and  C2_6 
REMARK    2  A    between atoms: C2_6  and  C3_7 
ROOT
HETATM    1  C3  UNL     1     -28.371  86.774 -11.132  1.00  0.00     0.005 C 
HETATM    2  C4  UNL     1     -29.369  86.770 -12.274  1.00  0.00     0.006 C 
HETATM    3  C5  UNL     1     -30.220  87.989 -12.307  1.00  0.00     0.000 C 
HETATM    4  C6  UNL     1     -30.070  88.928 -11.183  1.00  0.00     0.000 C 
HETATM    5  C7  UNL     1     -29.694  88.369  -9.871  1.00  0.00     0.000 C 
HETATM    6  C8  UNL     1     -29.195  86.968  -9.875  1.00  0.00     0.006 C 
ENDROOT
BRANCH   1   7
HETATM    7  C2  UNL     1     -27.651  85.438 -11.136  1.00  0.00     0.143 C 
BRANCH   7   8
HETATM    8  N2  UNL     1     -28.408  84.550 -10.314  1.00  0.00    -0.341 N 
HETATM    9  N1  UNL     1     -28.792  83.447 -10.720  1.00  0.00    -0.345 N 
HETATM   10  C1  UNL     1     -28.529  82.935 -12.034  1.00  0.00     0.167 C 
ATOM     11  H1  UNL     1     -29.329  82.863 -10.079  1.00  0.00     0.179 HD
ATOM     12  H2  UNL     1     -28.641  84.835  -9.363  1.00  0.00     0.179 HD
ENDBRANCH   7   8
ENDBRANCH   1   7
TORSDOF 2
ENDMDL
