MODEL 1
REMARK VINA RESULT: -5.665550892      0.000      0.000
REMARK  2 active torsions:
REMARK  status: ('A' for Active; 'I' for Inactive)
REMARK    1  A    between atoms: C1_4  and  N2_5 
REMARK    2  A    between atoms: N2_5  and  C2_7 
ROOT
HETATM    1  C2  UNL     1     -29.689  88.654 -11.473  1.00  0.00     0.085 C 
HETATM    2  C3  UNL     1     -30.043  87.894 -10.241  1.00  0.00     0.053 C 
HETATM    3  C4  UNL     1     -29.228  86.698  -9.957  1.00  0.00     0.239 C 
HETATM    4  N3  UNL     1     -28.795  85.940 -11.079  1.00  0.00    -0.064 N 
HETATM    5  C5  UNL     1     -29.323  86.430 -12.332  1.00  0.00     0.239 C 
HETATM    6  C6  UNL     1     -28.813  87.875 -12.421  1.00  0.00     0.053 C 
HETATM    7  C7  UNL     1     -27.384  85.558 -11.168  1.00  0.00     0.265 A 
HETATM    8  C8  UNL     1     -28.452  84.555 -10.945  1.00  0.00     0.265 A 
ENDROOT
BRANCH   1   9
HETATM    9  N2  UNL     1     -30.877  89.042 -12.207  1.00  0.00    -0.382 N 
ATOM     10  H2  UNL     1     -30.857  89.033 -13.227  1.00  0.00     0.160 HD
BRANCH   9  11
HETATM   11  C1  UNL     1     -32.073  89.437 -11.540  1.00  0.00     0.169 C 
HETATM   12  N1  UNL     1     -32.149  90.667 -11.155  1.00  0.00    -0.396 N 
ATOM     13  H12 UNL     1     -31.380  91.314 -11.328  1.00  0.00     0.156 HD
ATOM     14  H11 UNL     1     -33.005  90.949 -10.677  1.00  0.00     0.156 HD
ENDBRANCH   9  11
ENDBRANCH   1   9
TORSDOF 2
ENDMDL
MODEL 2
REMARK VINA RESULT: -5.480825039      1.082      1.183
REMARK  2 active torsions:
REMARK  status: ('A' for Active; 'I' for Inactive)
REMARK    1  A    between atoms: C1_4  and  N2_5 
REMARK    2  A    between atoms: N2_5  and  C2_7 
ROOT
HETATM    1  C2  UNL     1     -29.920  88.416 -10.384  1.00  0.00     0.085 C 
HETATM    2  C3  UNL     1     -29.609  87.111  -9.736  1.00  0.00     0.053 C 
HETATM    3  C4  UNL     1     -28.612  86.266 -10.419  1.00  0.00     0.239 C 
HETATM    4  N3  UNL     1     -28.617  86.294 -11.840  1.00  0.00    -0.064 N 
HETATM    5  C5  UNL     1     -29.691  87.092 -12.388  1.00  0.00     0.239 C 
HETATM    6  C6  UNL     1     -29.452  88.496 -11.815  1.00  0.00     0.053 C 
HETATM    7  C7  UNL     1     -27.348  86.490 -12.545  1.00  0.00     0.265 A 
HETATM    8  C8  UNL     1     -28.083  85.204 -12.602  1.00  0.00     0.265 A 
ENDROOT
BRANCH   1   9
HETATM    9  N2  UNL     1     -31.346  88.674 -10.384  1.00  0.00    -0.382 N 
ATOM     10  H2  UNL     1     -31.924  88.272  -9.645  1.00  0.00     0.160 HD
BRANCH   9  11
HETATM   11  C1  UNL     1     -31.962  89.474 -11.389  1.00  0.00     0.169 C 
HETATM   12  N1  UNL     1     -32.208  90.705 -11.086  1.00  0.00    -0.396 N 
ATOM     13  H12 UNL     1     -31.967  91.072 -10.166  1.00  0.00     0.156 HD
ATOM     14  H11 UNL     1     -32.649  91.278 -11.806  1.00  0.00     0.156 HD
ENDBRANCH   9  11
ENDBRANCH   1   9
TORSDOF 2
ENDMDL
MODEL 3
REMARK VINA RESULT: -5.161556141      1.063      1.942
REMARK  2 active torsions:
REMARK  status: ('A' for Active; 'I' for Inactive)
REMARK    1  A    between atoms: C1_4  and  N2_5 
REMARK    2  A    between atoms: N2_5  and  C2_7 
ROOT
HETATM    1  C2  UNL     1     -29.900  87.880 -12.019  1.00  0.00     0.085 C 
HETATM    2  C3  UNL     1     -28.704  87.992 -12.900  1.00  0.00     0.053 C 
HETATM    3  C4  UNL     1     -27.658  86.969 -12.711  1.00  0.00     0.239 C 
HETATM    4  N3  UNL     1     -27.437  86.520 -11.381  1.00  0.00    -0.064 N 
HETATM    5  C5  UNL     1     -28.230  87.232 -10.403  1.00  0.00     0.239 C 
HETATM    6  C6  UNL     1     -29.682  86.977 -10.832  1.00  0.00     0.053 C 
HETATM    7  C7  UNL     1     -27.381  85.079 -11.125  1.00  0.00     0.265 A 
HETATM    8  C8  UNL     1     -26.183  85.944 -10.995  1.00  0.00     0.265 A 
ENDROOT
BRANCH   1   9
HETATM    9  N2  UNL     1     -30.294  89.177 -11.505  1.00  0.00    -0.382 N 
ATOM     10  H2  UNL     1     -29.580  89.803 -11.134  1.00  0.00     0.160 HD
BRANCH   9  11
HETATM   11  C1  UNL     1     -31.655  89.600 -11.506  1.00  0.00     0.169 C 
HETATM   12  N1  UNL     1     -31.957  90.596 -12.269  1.00  0.00    -0.396 N 
ATOM     13  H12 UNL     1     -31.243  91.049 -12.839  1.00  0.00     0.156 HD
ATOM     14  H11 UNL     1     -32.932  90.899 -12.269  1.00  0.00     0.156 HD
ENDBRANCH   9  11
ENDBRANCH   1   9
TORSDOF 2
ENDMDL
MODEL 4
REMARK VINA RESULT: -4.963488717      1.800      2.110
REMARK  2 active torsions:
REMARK  status: ('A' for Active; 'I' for Inactive)
REMARK    1  A    between atoms: C1_4  and  N2_5 
REMARK    2  A    between atoms: N2_5  and  C2_7 
ROOT
HETATM    1  C2  UNL     1     -29.851  88.771 -10.498  1.00  0.00     0.085 C 
HETATM    2  C3  UNL     1     -28.975  87.763  -9.837  1.00  0.00     0.053 C 
HETATM    3  C4  UNL     1     -27.997  87.080 -10.704  1.00  0.00     0.239 C 
HETATM    4  N3  UNL     1     -28.411  86.799 -12.034  1.00  0.00    -0.064 N 
HETATM    5  C5  UNL     1     -29.791  87.152 -12.286  1.00  0.00     0.239 C 
HETATM    6  C6  UNL     1     -29.855  88.660 -12.001  1.00  0.00     0.053 C 
HETATM    7  C7  UNL     1     -27.522  87.162 -13.140  1.00  0.00     0.265 A 
HETATM    8  C8  UNL     1     -27.798  85.748 -12.791  1.00  0.00     0.265 A 
ENDROOT
BRANCH   1   9
HETATM    9  N2  UNL     1     -31.225  88.642 -10.054  1.00  0.00    -0.382 N 
ATOM     10  H2  UNL     1     -31.976  88.986 -10.653  1.00  0.00     0.160 HD
BRANCH   9  11
HETATM   11  C1  UNL     1     -31.553  88.047  -8.802  1.00  0.00     0.169 C 
HETATM   12  N1  UNL     1     -32.615  88.481  -8.209  1.00  0.00    -0.396 N 
ATOM     13  H12 UNL     1     -33.181  89.217  -8.630  1.00  0.00     0.156 HD
ATOM     14  H11 UNL     1     -32.850  88.055  -7.312  1.00  0.00     0.156 HD
ENDBRANCH   9  11
ENDBRANCH   1   9
TORSDOF 2
ENDMDL
MODEL 5
REMARK VINA RESULT: -4.605172859      1.531      1.894
REMARK  2 active torsions:
REMARK  status: ('A' for Active; 'I' for Inactive)
REMARK    1  A    between atoms: C1_4  and  N2_5 
REMARK    2  A    between atoms: N2_5  and  C2_7 
ROOT
HETATM    1  C2  UNL     1     -28.604  87.640 -10.697  1.00  0.00     0.085 C 
HETATM    2  C3  UNL     1     -29.001  86.314 -10.146  1.00  0.00     0.053 C 
HETATM    3  C4  UNL     1     -28.804  85.154 -11.034  1.00  0.00     0.239 C 
HETATM    4  N3  UNL     1     -29.028  85.367 -12.422  1.00  0.00    -0.064 N 
HETATM    5  C5  UNL     1     -29.518  86.694 -12.720  1.00  0.00     0.239 C 
HETATM    6  C6  UNL     1     -28.421  87.631 -12.193  1.00  0.00     0.053 C 
HETATM    7  C7  UNL     1     -28.017  84.908 -13.377  1.00  0.00     0.265 A 
HETATM    8  C8  UNL     1     -29.355  84.277 -13.292  1.00  0.00     0.265 A 
ENDROOT
BRANCH   1   9
HETATM    9  N2  UNL     1     -29.596  88.652 -10.392  1.00  0.00    -0.382 N 
ATOM     10  H2  UNL     1     -29.385  89.631 -10.585  1.00  0.00     0.160 HD
BRANCH   9  11
HETATM   11  C1  UNL     1     -30.860  88.314  -9.827  1.00  0.00     0.169 C 
HETATM   12  N1  UNL     1     -31.887  88.965 -10.261  1.00  0.00    -0.396 N 
ATOM     13  H12 UNL     1     -31.782  89.686 -10.974  1.00  0.00     0.156 HD
ATOM     14  H11 UNL     1     -32.792  88.723  -9.857  1.00  0.00     0.156 HD
ENDBRANCH   9  11
ENDBRANCH   1   9
TORSDOF 2
ENDMDL
