MODEL 1
REMARK VINA RESULT: -6.251493480      0.000      0.000
REMARK  7 active torsions:
REMARK  status: ('A' for Active; 'I' for Inactive)
REMARK    1  A    between atoms: N1_2  and  C2_5 
REMARK    2  A    between atoms: C2_5  and  C3_6 
REMARK    3  A    between atoms: C3_6  and  C4_7 
REMARK    4  A    between atoms: C4_7  and  C5_8 
REMARK    5  A    between atoms: C5_8  and  N2_9 
REMARK    6  A    between atoms: N2_9  and  C6_11 
REMARK    7  A    between atoms: C8_15  and  N4_16 
ROOT
HETATM    1  C6  UNL     1       3.487  -0.034   5.876  1.00  0.00     0.692 A 
HETATM    2  N3  UNL     1       3.481  -1.328   6.245  1.00  0.00    -0.197 N 
ATOM      3  H3  UNL     1       4.350  -1.756   6.562  1.00  0.00     0.183 HD
HETATM    4  C7  UNL     1       2.361  -2.074   6.209  1.00  0.00     0.155 A 
HETATM    5  C8  UNL     1       1.164  -1.519   5.785  1.00  0.00     0.130 A 
HETATM    6  N5  UNL     1       1.194  -0.225   5.422  1.00  0.00    -0.270 N 
ATOM      7  H5  UNL     1       0.336   0.224   5.103  1.00  0.00     0.189 HD
HETATM    8  N6  UNL     1       2.317   0.483   5.470  1.00  0.00    -0.131 N 
ATOM      9  H6  UNL     1       2.289   1.462   5.184  1.00  0.00     0.205 HD
ENDROOT
BRANCH   1  10
HETATM   10  N2  UNL     1       4.589   0.626   5.933  1.00  0.00    -0.225 N 
ATOM     11  H2  UNL     1       4.773   1.193   6.761  1.00  0.00     0.177 HD
BRANCH  10  12
HETATM   12  C5  UNL     1       5.581   0.604   4.879  1.00  0.00     0.138 C 
BRANCH  12  13
HETATM   13  C4  UNL     1       6.974   0.401   5.404  1.00  0.00     0.022 C 
BRANCH  13  14
HETATM   14  C3  UNL     1       7.003  -0.913   6.150  1.00  0.00     0.029 C 
BRANCH  14  15
HETATM   15  C2  UNL     1       8.107  -0.970   7.163  1.00  0.00     0.231 C 
BRANCH  15  16
HETATM   16  N1  UNL     1       8.085   0.200   8.031  1.00  0.00    -0.079 N 
HETATM   17  C1  UNL     1       9.438   0.748   8.049  1.00  0.00     0.266 C 
ATOM     18  H12 UNL     1       7.723  -0.001   8.963  1.00  0.00     0.276 HD
ATOM     19  H11 UNL     1       7.379   0.885   7.761  1.00  0.00     0.276 HD
ENDBRANCH  15  16
ENDBRANCH  14  15
ENDBRANCH  13  14
ENDBRANCH  12  13
ENDBRANCH  10  12
ENDBRANCH   1  10
BRANCH   5  20
HETATM   20  N4  UNL     1       0.060  -2.203   5.735  1.00  0.00    -0.383 N 
ATOM     21  H42 UNL     1       0.029  -3.176   6.042  1.00  0.00     0.157 HD
ATOM     22  H41 UNL     1      -0.814  -1.804   5.392  1.00  0.00     0.157 HD
ENDBRANCH   5  20
TORSDOF 7
ENDMDL
MODEL 2
REMARK VINA RESULT: -6.041674472      1.163      1.163
REMARK  7 active torsions:
REMARK  status: ('A' for Active; 'I' for Inactive)
REMARK    1  A    between atoms: N1_2  and  C2_5 
REMARK    2  A    between atoms: C2_5  and  C3_6 
REMARK    3  A    between atoms: C3_6  and  C4_7 
REMARK    4  A    between atoms: C4_7  and  C5_8 
REMARK    5  A    between atoms: C5_8  and  N2_9 
REMARK    6  A    between atoms: N2_9  and  C6_11 
REMARK    7  A    between atoms: C8_15  and  N4_16 
ROOT
HETATM    1  C6  UNL     1       3.738   0.067   5.961  1.00  0.00     0.692 A 
HETATM    2  N3  UNL     1       3.703  -1.258   6.196  1.00  0.00    -0.197 N 
ATOM      3  H3  UNL     1       4.559  -1.734   6.479  1.00  0.00     0.183 HD
HETATM    4  C7  UNL     1       2.569  -1.973   6.069  1.00  0.00     0.155 A 
HETATM    5  C8  UNL     1       1.390  -1.354   5.688  1.00  0.00     0.130 A 
HETATM    6  N5  UNL     1       1.450  -0.030   5.460  1.00  0.00    -0.270 N 
ATOM      7  H5  UNL     1       0.605   0.466   5.177  1.00  0.00     0.189 HD
HETATM    8  N6  UNL     1       2.585   0.645   5.594  1.00  0.00    -0.131 N 
ATOM      9  H6  UNL     1       2.580   1.649   5.410  1.00  0.00     0.205 HD
ENDROOT
BRANCH   1  10
HETATM   10  N2  UNL     1       4.852   0.695   6.099  1.00  0.00    -0.225 N 
ATOM     11  H2  UNL     1       5.049   1.141   6.994  1.00  0.00     0.177 HD
BRANCH  10  12
HETATM   12  C5  UNL     1       5.839   0.800   5.045  1.00  0.00     0.138 C 
BRANCH  12  13
HETATM   13  C4  UNL     1       7.036  -0.074   5.289  1.00  0.00     0.022 C 
BRANCH  13  14
HETATM   14  C3  UNL     1       7.472   0.123   6.722  1.00  0.00     0.029 C 
BRANCH  14  15
HETATM   15  C2  UNL     1       8.951  -0.046   6.898  1.00  0.00     0.231 C 
BRANCH  15  16
HETATM   16  N1  UNL     1       9.662   0.212   5.652  1.00  0.00    -0.079 N 
HETATM   17  C1  UNL     1      10.922   0.860   6.001  1.00  0.00     0.266 C 
ATOM     18  H12 UNL     1       9.110   0.746   4.980  1.00  0.00     0.276 HD
ATOM     19  H11 UNL     1       9.786  -0.625   5.082  1.00  0.00     0.276 HD
ENDBRANCH  15  16
ENDBRANCH  14  15
ENDBRANCH  13  14
ENDBRANCH  12  13
ENDBRANCH  10  12
ENDBRANCH   1  10
BRANCH   5  20
HETATM   20  N4  UNL     1       0.273  -2.007   5.555  1.00  0.00    -0.383 N 
ATOM     21  H42 UNL     1       0.244  -3.023   5.650  1.00  0.00     0.157 HD
ATOM     22  H41 UNL     1      -0.610  -1.540   5.352  1.00  0.00     0.157 HD
ENDBRANCH   5  20
TORSDOF 7
ENDMDL
MODEL 3
REMARK VINA RESULT: -6.014302319      1.055      1.235
REMARK  7 active torsions:
REMARK  status: ('A' for Active; 'I' for Inactive)
REMARK    1  A    between atoms: N1_2  and  C2_5 
REMARK    2  A    between atoms: C2_5  and  C3_6 
REMARK    3  A    between atoms: C3_6  and  C4_7 
REMARK    4  A    between atoms: C4_7  and  C5_8 
REMARK    5  A    between atoms: C5_8  and  N2_9 
REMARK    6  A    between atoms: N2_9  and  C6_11 
REMARK    7  A    between atoms: C8_15  and  N4_16 
ROOT
HETATM    1  C6  UNL     1       3.182  -0.634   5.112  1.00  0.00     0.692 A 
HETATM    2  N3  UNL     1       2.432  -1.174   4.134  1.00  0.00    -0.197 N 
ATOM      3  H3  UNL     1       2.720  -1.050   3.164  1.00  0.00     0.183 HD
HETATM    4  C7  UNL     1       1.312  -1.872   4.399  1.00  0.00     0.155 A 
HETATM    5  C8  UNL     1       0.896  -2.058   5.707  1.00  0.00     0.130 A 
HETATM    6  N5  UNL     1       1.662  -1.511   6.667  1.00  0.00    -0.270 N 
ATOM      7  H5  UNL     1       1.393  -1.623   7.645  1.00  0.00     0.189 HD
HETATM    8  N6  UNL     1       2.761  -0.827   6.371  1.00  0.00    -0.131 N 
ATOM      9  H6  UNL     1       3.310  -0.430   7.135  1.00  0.00     0.205 HD
ENDROOT
BRANCH   1  10
HETATM   10  N2  UNL     1       4.241   0.023   4.796  1.00  0.00    -0.225 N 
ATOM     11  H2  UNL     1       4.549   0.008   3.824  1.00  0.00     0.177 HD
BRANCH  10  12
HETATM   12  C5  UNL     1       5.018   0.783   5.752  1.00  0.00     0.138 C 
BRANCH  12  13
HETATM   13  C4  UNL     1       6.485   0.469   5.681  1.00  0.00     0.022 C 
BRANCH  13  14
HETATM   14  C3  UNL     1       6.692  -0.919   6.241  1.00  0.00     0.029 C 
BRANCH  14  15
HETATM   15  C2  UNL     1       7.886  -0.998   7.144  1.00  0.00     0.231 C 
BRANCH  15  16
HETATM   16  N1  UNL     1       7.982   0.182   7.994  1.00  0.00    -0.079 N 
HETATM   17  C1  UNL     1       9.388   0.573   8.030  1.00  0.00     0.266 C 
ATOM     18  H12 UNL     1       7.582   0.040   8.922  1.00  0.00     0.276 HD
ATOM     19  H11 UNL     1       7.364   0.938   7.700  1.00  0.00     0.276 HD
ENDBRANCH  15  16
ENDBRANCH  14  15
ENDBRANCH  13  14
ENDBRANCH  12  13
ENDBRANCH  10  12
ENDBRANCH   1  10
BRANCH   5  20
HETATM   20  N4  UNL     1      -0.178  -2.727   6.007  1.00  0.00    -0.383 N 
ATOM     21  H42 UNL     1      -1.068  -2.251   6.158  1.00  0.00     0.157 HD
ATOM     22  H41 UNL     1      -0.179  -3.742   6.103  1.00  0.00     0.157 HD
ENDBRANCH   5  20
TORSDOF 7
ENDMDL
MODEL 4
REMARK VINA RESULT: -5.962530865      1.831      3.388
REMARK  7 active torsions:
REMARK  status: ('A' for Active; 'I' for Inactive)
REMARK    1  A    between atoms: N1_2  and  C2_5 
REMARK    2  A    between atoms: C2_5  and  C3_6 
REMARK    3  A    between atoms: C3_6  and  C4_7 
REMARK    4  A    between atoms: C4_7  and  C5_8 
REMARK    5  A    between atoms: C5_8  and  N2_9 
REMARK    6  A    between atoms: N2_9  and  C6_11 
REMARK    7  A    between atoms: C8_15  and  N4_16 
ROOT
HETATM    1  C6  UNL     1       6.472  -0.173   5.526  1.00  0.00     0.692 A 
HETATM    2  N3  UNL     1       5.805   0.864   4.988  1.00  0.00    -0.197 N 
ATOM      3  H3  UNL     1       6.318   1.550   4.436  1.00  0.00     0.183 HD
HETATM    4  C7  UNL     1       4.478   1.022   5.157  1.00  0.00     0.155 A 
HETATM    5  C8  UNL     1       3.754   0.105   5.900  1.00  0.00     0.130 A 
HETATM    6  N5  UNL     1       4.442  -0.923   6.428  1.00  0.00    -0.270 N 
ATOM      7  H5  UNL     1       3.948  -1.622   6.983  1.00  0.00     0.189 HD
HETATM    8  N6  UNL     1       5.751  -1.049   6.242  1.00  0.00    -0.131 N 
ATOM      9  H6  UNL     1       6.229  -1.847   6.662  1.00  0.00     0.205 HD
ENDROOT
BRANCH   1  10
HETATM   10  N2  UNL     1       7.739  -0.269   5.330  1.00  0.00    -0.225 N 
ATOM     11  H2  UNL     1       8.143   0.211   4.526  1.00  0.00     0.177 HD
BRANCH  10  12
HETATM   12  C5  UNL     1       8.620  -1.026   6.194  1.00  0.00     0.138 C 
BRANCH  12  13
HETATM   13  C4  UNL     1       8.670  -0.474   7.590  1.00  0.00     0.022 C 
BRANCH  13  14
HETATM   14  C3  UNL     1       9.569   0.741   7.579  1.00  0.00     0.029 C 
BRANCH  14  15
HETATM   15  C2  UNL     1      10.594   0.683   6.486  1.00  0.00     0.231 C 
BRANCH  15  16
HETATM   16  N1  UNL     1      11.552   1.773   6.604  1.00  0.00    -0.079 N 
HETATM   17  C1  UNL     1      11.168   2.559   7.773  1.00  0.00     0.266 C 
ATOM     18  H12 UNL     1      11.629   2.332   5.755  1.00  0.00     0.276 HD
ATOM     19  H11 UNL     1      12.520   1.453   6.638  1.00  0.00     0.276 HD
ENDBRANCH  15  16
ENDBRANCH  14  15
ENDBRANCH  13  14
ENDBRANCH  12  13
ENDBRANCH  10  12
ENDBRANCH   1  10
BRANCH   5  20
HETATM   20  N4  UNL     1       2.472   0.219   6.087  1.00  0.00    -0.383 N 
ATOM     21  H42 UNL     1       1.817   0.129   5.310  1.00  0.00     0.157 HD
ATOM     22  H41 UNL     1       2.070   0.402   7.007  1.00  0.00     0.157 HD
ENDBRANCH   5  20
TORSDOF 7
ENDMDL
MODEL 5
REMARK VINA RESULT: -5.904543362      1.792      6.120
REMARK  7 active torsions:
REMARK  status: ('A' for Active; 'I' for Inactive)
REMARK    1  A    between atoms: N1_2  and  C2_5 
REMARK    2  A    between atoms: C2_5  and  C3_6 
REMARK    3  A    between atoms: C3_6  and  C4_7 
REMARK    4  A    between atoms: C4_7  and  C5_8 
REMARK    5  A    between atoms: C5_8  and  N2_9 
REMARK    6  A    between atoms: N2_9  and  C6_11 
REMARK    7  A    between atoms: C8_15  and  N4_16 
ROOT
HETATM    1  C6  UNL     1       4.029   0.099   5.833  1.00  0.00     0.692 A 
HETATM    2  N3  UNL     1       4.706   0.945   5.034  1.00  0.00    -0.197 N 
ATOM      3  H3  UNL     1       4.195   1.682   4.548  1.00  0.00     0.183 HD
HETATM    4  C7  UNL     1       6.037   0.847   4.858  1.00  0.00     0.155 A 
HETATM    5  C8  UNL     1       6.757  -0.143   5.507  1.00  0.00     0.130 A 
HETATM    6  N5  UNL     1       6.060  -0.975   6.300  1.00  0.00    -0.270 N 
ATOM      7  H5  UNL     1       6.551  -1.718   6.797  1.00  0.00     0.189 HD
HETATM    8  N6  UNL     1       4.747  -0.850   6.451  1.00  0.00    -0.131 N 
ATOM      9  H6  UNL     1       4.262  -1.506   7.065  1.00  0.00     0.205 HD
ENDROOT
BRANCH   1  10
HETATM   10  N2  UNL     1       2.758   0.244   5.960  1.00  0.00    -0.225 N 
ATOM     11  H2  UNL     1       2.412   0.985   6.569  1.00  0.00     0.177 HD
BRANCH  10  12
HETATM   12  C5  UNL     1       1.793  -0.595   5.281  1.00  0.00     0.138 C 
BRANCH  12  13
HETATM   13  C4  UNL     1       1.369  -1.773   6.111  1.00  0.00     0.022 C 
BRANCH  13  14
HETATM   14  C3  UNL     1       0.107  -2.340   5.505  1.00  0.00     0.029 C 
BRANCH  14  15
HETATM   15  C2  UNL     1      -0.009  -3.821   5.707  1.00  0.00     0.231 C 
BRANCH  15  16
HETATM   16  N1  UNL     1       1.127  -4.340   6.458  1.00  0.00    -0.079 N 
HETATM   17  C1  UNL     1       1.694  -5.436   5.679  1.00  0.00     0.266 C 
ATOM     18  H12 UNL     1       0.885  -4.610   7.412  1.00  0.00     0.276 HD
ATOM     19  H11 UNL     1       1.811  -3.621   6.695  1.00  0.00     0.276 HD
ENDBRANCH  15  16
ENDBRANCH  14  15
ENDBRANCH  13  14
ENDBRANCH  12  13
ENDBRANCH  10  12
ENDBRANCH   1  10
BRANCH   5  20
HETATM   20  N4  UNL     1       8.043  -0.272   5.365  1.00  0.00    -0.383 N 
ATOM     21  H42 UNL     1       8.585   0.410   4.833  1.00  0.00     0.157 HD
ATOM     22  H41 UNL     1       8.561  -1.050   5.774  1.00  0.00     0.157 HD
ENDBRANCH   5  20
TORSDOF 7
ENDMDL
