MODEL 1
REMARK VINA RESULT: -5.509115460      0.000      0.000
REMARK  7 active torsions:
REMARK  status: ('A' for Active; 'I' for Inactive)
REMARK    1  A    between atoms: N1_1  and  C1_5 
REMARK    2  A    between atoms: C1_5  and  C2_6 
REMARK    3  A    between atoms: C2_6  and  N2_7 
REMARK    4  A    between atoms: N2_7  and  C3_10 
REMARK    5  A    between atoms: N3_13  and  C6_14 
REMARK    6  A    between atoms: C6_14  and  C7_15 
REMARK    7  A    between atoms: C7_15  and  N4_16 
ROOT
HETATM    1  C3  UNL     1       7.111   0.491   5.338  1.00  0.00     0.189 C 
HETATM    2  C4  UNL     1       7.134   1.143   6.705  1.00  0.00     0.063 C 
HETATM    3  C5  UNL     1       7.850   0.263   7.710  1.00  0.00     0.274 C 
HETATM    4  N3  UNL     1       9.234   0.117   7.433  1.00  0.00     0.090 N 
HETATM    5  C8  UNL     1       9.466   0.241   6.016  1.00  0.00     0.274 C 
HETATM    6  C9  UNL     1       8.340  -0.389   5.240  1.00  0.00     0.063 C 
ENDROOT
BRANCH   1   7
HETATM    7  N2  UNL     1       5.898  -0.303   5.270  1.00  0.00    -0.069 N 
ATOM      8  H22 UNL     1       5.860  -0.974   6.038  1.00  0.00     0.277 HD
ATOM      9  H21 UNL     1       5.932  -0.951   4.483  1.00  0.00     0.277 HD
BRANCH   7  10
HETATM   10  C2  UNL     1       4.700   0.491   5.226  1.00  0.00     0.260 C 
BRANCH  10  11
HETATM   11  C1  UNL     1       3.494  -0.286   5.707  1.00  0.00     0.257 C 
BRANCH  11  12
HETATM   12  N1  UNL     1       2.601   0.562   6.484  1.00  0.00    -0.078 N 
ATOM     13  H13 UNL     1       3.056   1.432   6.762  1.00  0.00     0.274 HD
ATOM     14  H12 UNL     1       1.857   0.954   5.906  1.00  0.00     0.274 HD
ATOM     15  H11 UNL     1       2.226   0.059   7.288  1.00  0.00     0.274 HD
ENDBRANCH  11  12
ENDBRANCH  10  11
ENDBRANCH   7  10
ENDBRANCH   1   7
BRANCH   4  16
HETATM   16  C6  UNL     1      10.070   0.938   8.246  1.00  0.00     0.299 C 
BRANCH  16  17
HETATM   17  C7  UNL     1      10.752   2.000   7.424  1.00  0.00     0.259 C 
BRANCH  17  18
HETATM   18  N4  UNL     1      10.865   3.220   8.214  1.00  0.00    -0.078 N 
ATOM     19  H43 UNL     1      10.437   4.022   7.751  1.00  0.00     0.274 HD
ATOM     20  H42 UNL     1      10.272   3.199   9.044  1.00  0.00     0.274 HD
ATOM     21  H41 UNL     1      11.845   3.384   8.442  1.00  0.00     0.274 HD
ENDBRANCH  17  18
ENDBRANCH  16  17
ENDBRANCH   4  16
TORSDOF 7
ENDMDL
MODEL 2
REMARK VINA RESULT: -5.403372527      1.775      2.270
REMARK  7 active torsions:
REMARK  status: ('A' for Active; 'I' for Inactive)
REMARK    1  A    between atoms: N1_1  and  C1_5 
REMARK    2  A    between atoms: C1_5  and  C2_6 
REMARK    3  A    between atoms: C2_6  and  N2_7 
REMARK    4  A    between atoms: N2_7  and  C3_10 
REMARK    5  A    between atoms: N3_13  and  C6_14 
REMARK    6  A    between atoms: C6_14  and  C7_15 
REMARK    7  A    between atoms: C7_15  and  N4_16 
ROOT
HETATM    1  C3  UNL     1       7.279  -0.797   6.820  1.00  0.00     0.189 C 
HETATM    2  C4  UNL     1       8.483  -1.250   6.021  1.00  0.00     0.063 C 
HETATM    3  C5  UNL     1       9.222  -0.062   5.438  1.00  0.00     0.274 C 
HETATM    4  N3  UNL     1       9.821   0.759   6.428  1.00  0.00     0.090 N 
HETATM    5  C8  UNL     1       9.066   0.678   7.654  1.00  0.00     0.274 C 
HETATM    6  C9  UNL     1       7.592   0.582   7.360  1.00  0.00     0.063 C 
ENDROOT
BRANCH   1   7
HETATM    7  N2  UNL     1       6.156  -0.751   5.900  1.00  0.00    -0.069 N 
ATOM      8  H22 UNL     1       5.492  -1.499   6.101  1.00  0.00     0.277 HD
ATOM      9  H21 UNL     1       6.444  -1.030   4.962  1.00  0.00     0.277 HD
BRANCH   7  10
HETATM   10  C2  UNL     1       5.496   0.526   5.873  1.00  0.00     0.260 C 
BRANCH  10  11
HETATM   11  C1  UNL     1       4.051   0.402   5.442  1.00  0.00     0.257 C 
BRANCH  11  12
HETATM   12  N1  UNL     1       3.149   0.711   6.543  1.00  0.00    -0.078 N 
ATOM     13  H13 UNL     1       2.710  -0.130   6.917  1.00  0.00     0.274 HD
ATOM     14  H12 UNL     1       3.659   1.004   7.376  1.00  0.00     0.274 HD
ATOM     15  H11 UNL     1       2.455   1.405   6.263  1.00  0.00     0.274 HD
ENDBRANCH  11  12
ENDBRANCH  10  11
ENDBRANCH   7  10
ENDBRANCH   1   7
BRANCH   4  16
HETATM   16  C6  UNL     1      11.223   0.545   6.578  1.00  0.00     0.299 C 
BRANCH  16  17
HETATM   17  C7  UNL     1      11.939   0.695   5.262  1.00  0.00     0.259 C 
BRANCH  17  18
HETATM   18  N4  UNL     1      13.341   0.338   5.434  1.00  0.00    -0.078 N 
ATOM     19  H43 UNL     1      13.472  -0.391   6.136  1.00  0.00     0.274 HD
ATOM     20  H42 UNL     1      13.713  -0.168   4.630  1.00  0.00     0.274 HD
ATOM     21  H41 UNL     1      13.879   1.178   5.645  1.00  0.00     0.274 HD
ENDBRANCH  17  18
ENDBRANCH  16  17
ENDBRANCH   4  16
TORSDOF 7
ENDMDL
MODEL 3
REMARK VINA RESULT: -5.223895762      1.632      1.753
REMARK  7 active torsions:
REMARK  status: ('A' for Active; 'I' for Inactive)
REMARK    1  A    between atoms: N1_1  and  C1_5 
REMARK    2  A    between atoms: C1_5  and  C2_6 
REMARK    3  A    between atoms: C2_6  and  N2_7 
REMARK    4  A    between atoms: N2_7  and  C3_10 
REMARK    5  A    between atoms: N3_13  and  C6_14 
REMARK    6  A    between atoms: C6_14  and  C7_15 
REMARK    7  A    between atoms: C7_15  and  N4_16 
ROOT
HETATM    1  C3  UNL     1       6.757   0.160   6.050  1.00  0.00     0.189 C 
HETATM    2  C4  UNL     1       7.569   0.701   7.209  1.00  0.00     0.063 C 
HETATM    3  C5  UNL     1       8.806  -0.143   7.441  1.00  0.00     0.274 C 
HETATM    4  N3  UNL     1       9.737  -0.069   6.374  1.00  0.00     0.090 N 
HETATM    5  C8  UNL     1       9.044   0.196   5.137  1.00  0.00     0.274 C 
HETATM    6  C9  UNL     1       7.724  -0.527   5.108  1.00  0.00     0.063 C 
ENDROOT
BRANCH   1   7
HETATM    7  N2  UNL     1       5.811  -0.791   6.606  1.00  0.00    -0.069 N 
ATOM      8  H22 UNL     1       5.692  -0.641   7.608  1.00  0.00     0.277 HD
ATOM      9  H21 UNL     1       6.210  -1.731   6.624  1.00  0.00     0.277 HD
BRANCH   7  10
HETATM   10  C2  UNL     1       4.540  -0.787   5.934  1.00  0.00     0.260 C 
BRANCH  10  11
HETATM   11  C1  UNL     1       3.949   0.604   5.862  1.00  0.00     0.257 C 
BRANCH  11  12
HETATM   12  N1  UNL     1       2.642   0.651   6.504  1.00  0.00    -0.078 N 
ATOM     13  H13 UNL     1       2.321  -0.280   6.770  1.00  0.00     0.274 HD
ATOM     14  H12 UNL     1       2.695   1.068   7.433  1.00  0.00     0.274 HD
ATOM     15  H11 UNL     1       1.962   1.130   5.914  1.00  0.00     0.274 HD
ENDBRANCH  11  12
ENDBRANCH  10  11
ENDBRANCH   7  10
ENDBRANCH   1   7
BRANCH   4  16
HETATM   16  C6  UNL     1      10.839   0.797   6.634  1.00  0.00     0.299 C 
BRANCH  16  17
HETATM   17  C7  UNL     1      11.664   1.013   5.393  1.00  0.00     0.259 C 
BRANCH  17  18
HETATM   18  N4  UNL     1      12.905   0.257   5.503  1.00  0.00    -0.078 N 
ATOM     19  H43 UNL     1      13.433   0.499   6.342  1.00  0.00     0.274 HD
ATOM     20  H42 UNL     1      12.741  -0.727   5.715  1.00  0.00     0.274 HD
ATOM     21  H41 UNL     1      13.453   0.383   4.653  1.00  0.00     0.274 HD
ENDBRANCH  17  18
ENDBRANCH  16  17
ENDBRANCH   4  16
TORSDOF 7
ENDMDL
MODEL 4
REMARK VINA RESULT: -5.199461851      1.797      5.845
REMARK  7 active torsions:
REMARK  status: ('A' for Active; 'I' for Inactive)
REMARK    1  A    between atoms: N1_1  and  C1_5 
REMARK    2  A    between atoms: C1_5  and  C2_6 
REMARK    3  A    between atoms: C2_6  and  N2_7 
REMARK    4  A    between atoms: N2_7  and  C3_10 
REMARK    5  A    between atoms: N3_13  and  C6_14 
REMARK    6  A    between atoms: C6_14  and  C7_15 
REMARK    7  A    between atoms: C7_15  and  N4_16 
ROOT
HETATM    1  C3  UNL     1       9.420  -0.105   6.631  1.00  0.00     0.189 C 
HETATM    2  C4  UNL     1       8.255   0.024   7.591  1.00  0.00     0.063 C 
HETATM    3  C5  UNL     1       7.181   0.925   7.016  1.00  0.00     0.274 C 
HETATM    4  N3  UNL     1       6.553   0.377   5.869  1.00  0.00     0.090 N 
HETATM    5  C8  UNL     1       7.472  -0.487   5.172  1.00  0.00     0.274 C 
HETATM    6  C9  UNL     1       8.869   0.072   5.232  1.00  0.00     0.063 C 
ENDROOT
BRANCH   1   7
HETATM    7  N2  UNL     1      10.356   0.956   6.958  1.00  0.00    -0.069 N 
ATOM      8  H22 UNL     1      10.820   0.768   7.847  1.00  0.00     0.277 HD
ATOM      9  H21 UNL     1       9.860   1.813   7.206  1.00  0.00     0.277 HD
BRANCH   7  10
HETATM   10  C2  UNL     1      11.319   1.203   5.920  1.00  0.00     0.260 C 
BRANCH  10  11
HETATM   11  C1  UNL     1      12.276   0.043   5.755  1.00  0.00     0.257 C 
BRANCH  11  12
HETATM   12  N1  UNL     1      13.604   0.510   5.379  1.00  0.00    -0.078 N 
ATOM     13  H13 UNL     1      13.686   0.635   4.370  1.00  0.00     0.274 HD
ATOM     14  H12 UNL     1      13.759   1.476   5.668  1.00  0.00     0.274 HD
ATOM     15  H11 UNL     1      14.327  -0.112   5.741  1.00  0.00     0.274 HD
ENDBRANCH  11  12
ENDBRANCH  10  11
ENDBRANCH   7  10
ENDBRANCH   1   7
BRANCH   4  16
HETATM   16  C6  UNL     1       5.278  -0.204   6.136  1.00  0.00     0.299 C 
BRANCH  16  17
HETATM   17  C7  UNL     1       4.166   0.648   5.582  1.00  0.00     0.259 C 
BRANCH  17  18
HETATM   18  N4  UNL     1       3.046   0.642   6.514  1.00  0.00    -0.078 N 
ATOM     19  H43 UNL     1       3.317   0.952   7.447  1.00  0.00     0.274 HD
ATOM     20  H42 UNL     1       2.368   1.376   6.309  1.00  0.00     0.274 HD
ATOM     21  H41 UNL     1       2.621  -0.285   6.524  1.00  0.00     0.274 HD
ENDBRANCH  17  18
ENDBRANCH  16  17
ENDBRANCH   4  16
TORSDOF 7
ENDMDL
MODEL 5
REMARK VINA RESULT: -5.174386855      0.805      5.692
REMARK  7 active torsions:
REMARK  status: ('A' for Active; 'I' for Inactive)
REMARK    1  A    between atoms: N1_1  and  C1_5 
REMARK    2  A    between atoms: C1_5  and  C2_6 
REMARK    3  A    between atoms: C2_6  and  N2_7 
REMARK    4  A    between atoms: N2_7  and  C3_10 
REMARK    5  A    between atoms: N3_13  and  C6_14 
REMARK    6  A    between atoms: C6_14  and  C7_15 
REMARK    7  A    between atoms: C7_15  and  N4_16 
ROOT
HETATM    1  C3  UNL     1       7.968   0.017   7.369  1.00  0.00     0.189 C 
HETATM    2  C4  UNL     1       7.189   1.255   6.978  1.00  0.00     0.063 C 
HETATM    3  C5  UNL     1       6.800   1.207   5.513  1.00  0.00     0.274 C 
HETATM    4  N3  UNL     1       5.874   0.175   5.218  1.00  0.00     0.090 N 
HETATM    5  C8  UNL     1       6.048  -0.919   6.142  1.00  0.00     0.274 C 
HETATM    6  C9  UNL     1       7.506  -1.108   6.465  1.00  0.00     0.063 C 
ENDROOT
BRANCH   1   7
HETATM    7  N2  UNL     1       9.372   0.315   7.150  1.00  0.00    -0.069 N 
ATOM      8  H22 UNL     1       9.517   0.718   6.223  1.00  0.00     0.277 HD
ATOM      9  H21 UNL     1       9.913  -0.544   7.045  1.00  0.00     0.277 HD
BRANCH   7  10
HETATM   10  C2  UNL     1       9.940   1.156   8.168  1.00  0.00     0.260 C 
BRANCH  10  11
HETATM   11  C1  UNL     1      10.908   2.163   7.587  1.00  0.00     0.257 C 
BRANCH  11  12
HETATM   12  N1  UNL     1      10.853   3.423   8.316  1.00  0.00    -0.078 N 
ATOM     13  H13 UNL     1      10.765   3.273   9.321  1.00  0.00     0.274 HD
ATOM     14  H12 UNL     1      11.754   3.901   8.308  1.00  0.00     0.274 HD
ATOM     15  H11 UNL     1      10.108   4.020   7.958  1.00  0.00     0.274 HD
ENDBRANCH  11  12
ENDBRANCH  10  11
ENDBRANCH   7  10
ENDBRANCH   1   7
BRANCH   4  16
HETATM   16  C6  UNL     1       4.529   0.632   5.086  1.00  0.00     0.299 C 
BRANCH  16  17
HETATM   17  C7  UNL     1       3.569  -0.303   5.773  1.00  0.00     0.259 C 
BRANCH  17  18
HETATM   18  N4  UNL     1       2.530   0.477   6.435  1.00  0.00    -0.078 N 
ATOM     19  H43 UNL     1       1.603   0.291   6.054  1.00  0.00     0.274 HD
ATOM     20  H42 UNL     1       2.359   0.162   7.390  1.00  0.00     0.274 HD
ATOM     21  H41 UNL     1       2.774   1.466   6.392  1.00  0.00     0.274 HD
ENDBRANCH  17  18
ENDBRANCH  16  17
ENDBRANCH   4  16
TORSDOF 7
ENDMDL
