MODEL 1
REMARK VINA RESULT: -6.229292200      0.000      0.000
REMARK  5 active torsions:
REMARK  status: ('A' for Active; 'I' for Inactive)
REMARK    1  A    between atoms: C3_5  and  O1_6 
REMARK    2  A    between atoms: O1_6  and  C4_7 
REMARK    3  A    between atoms: C4_7  and  C5_8 
REMARK    4  A    between atoms: C5_8  and  N2_9 
REMARK    5  A    between atoms: N2_9  and  C6_12 
ROOT
HETATM    1  C1  UNL     1      12.324   0.432   5.369  1.00  0.00     0.064 C 
HETATM    2  C2  UNL     1      11.395   0.789   6.249  1.00  0.00     0.114 A 
HETATM    3  N1  UNL     1      10.256  -0.014   6.512  1.00  0.00    -0.308 N 
ATOM      4  H1  UNL     1      10.117  -0.899   6.024  1.00  0.00     0.171 HD
HETATM    5  C3  UNL     1       9.400   0.400   7.379  1.00  0.00     0.239 A 
HETATM    6  N3  UNL     1       9.530   1.630   8.100  1.00  0.00    -0.155 N 
ATOM      7  H3  UNL     1       8.813   1.898   8.775  1.00  0.00     0.188 HD
HETATM    8  C8  UNL     1      10.648   2.482   7.884  1.00  0.00     0.680 A 
HETATM    9  N4  UNL     1      10.786   3.597   8.523  1.00  0.00    -0.234 N 
ATOM     10  H41 UNL     1      11.587   4.208   8.368  1.00  0.00     0.174 HD
ATOM     11  H42 UNL     1      10.106   3.923   9.210  1.00  0.00     0.174 HD
HETATM   12  N5  UNL     1      11.594   2.028   6.927  1.00  0.00    -0.178 N 
ATOM     13  H5  UNL     1      12.419   2.591   6.723  1.00  0.00     0.185 HD
ENDROOT
BRANCH   5  14
HETATM   14  O1  UNL     1       8.303  -0.453   7.579  1.00  0.00    -0.320 OA
BRANCH  14  15
HETATM   15  C4  UNL     1       7.707  -1.180   6.519  1.00  0.00     0.206 C 
BRANCH  15  16
HETATM   16  C5  UNL     1       6.710  -0.284   5.861  1.00  0.00     0.259 C 
BRANCH  16  17
HETATM   17  N2  UNL     1       5.356  -0.579   6.153  1.00  0.00    -0.073 N 
ATOM     18  H22 UNL     1       5.084  -1.462   5.720  1.00  0.00     0.277 HD
ATOM     19  H21 UNL     1       5.251  -0.826   7.136  1.00  0.00     0.277 HD
BRANCH  17  20
HETATM   20  C6  UNL     1       4.425   0.461   5.795  1.00  0.00     0.228 C 
HETATM   21  C7  UNL     1       3.009  -0.013   5.720  1.00  0.00     0.034 C 
ENDBRANCH  17  20
ENDBRANCH  16  17
ENDBRANCH  15  16
ENDBRANCH  14  15
ENDBRANCH   5  14
TORSDOF 5
ENDMDL
MODEL 2
REMARK VINA RESULT: -5.789786855      3.708      8.570
REMARK  5 active torsions:
REMARK  status: ('A' for Active; 'I' for Inactive)
REMARK    1  A    between atoms: C3_5  and  O1_6 
REMARK    2  A    between atoms: O1_6  and  C4_7 
REMARK    3  A    between atoms: C4_7  and  C5_8 
REMARK    4  A    between atoms: C5_8  and  N2_9 
REMARK    5  A    between atoms: N2_9  and  C6_12 
ROOT
HETATM    1  C1  UNL     1       0.895  -1.920   2.330  1.00  0.00     0.064 C 
HETATM    2  C2  UNL     1       1.203  -2.111   3.608  1.00  0.00     0.114 A 
HETATM    3  N1  UNL     1       2.297  -1.456   4.228  1.00  0.00    -0.308 N 
ATOM      4  H1  UNL     1       2.886  -0.811   3.700  1.00  0.00     0.171 HD
HETATM    5  C3  UNL     1       2.531  -1.693   5.470  1.00  0.00     0.239 A 
HETATM    6  N3  UNL     1       1.748  -2.585   6.271  1.00  0.00    -0.155 N 
ATOM      7  H3  UNL     1       1.990  -2.727   7.252  1.00  0.00     0.188 HD
HETATM    8  C8  UNL     1       0.637  -3.275   5.712  1.00  0.00     0.680 A 
HETATM    9  N4  UNL     1      -0.083  -4.084   6.416  1.00  0.00    -0.234 N 
ATOM     10  H41 UNL     1      -0.879  -4.580   6.015  1.00  0.00     0.174 HD
ATOM     11  H42 UNL     1       0.104  -4.272   7.401  1.00  0.00     0.174 HD
HETATM   12  N5  UNL     1       0.377  -3.015   4.340  1.00  0.00    -0.178 N 
ATOM     13  H5  UNL     1      -0.405  -3.478   3.876  1.00  0.00     0.185 HD
ENDROOT
BRANCH   5  14
HETATM   14  O1  UNL     1       3.631  -1.004   6.005  1.00  0.00    -0.320 OA
BRANCH  14  15
HETATM   15  C4  UNL     1       3.803   0.392   5.839  1.00  0.00     0.206 C 
BRANCH  15  16
HETATM   16  C5  UNL     1       5.226   0.629   5.447  1.00  0.00     0.259 C 
BRANCH  16  17
HETATM   17  N2  UNL     1       6.096   0.947   6.518  1.00  0.00    -0.073 N 
ATOM     18  H22 UNL     1       6.226   1.957   6.582  1.00  0.00     0.277 HD
ATOM     19  H21 UNL     1       5.638   0.772   7.412  1.00  0.00     0.277 HD
BRANCH  17  20
HETATM   20  C6  UNL     1       7.373   0.281   6.471  1.00  0.00     0.228 C 
HETATM   21  C7  UNL     1       7.263  -1.210   6.507  1.00  0.00     0.034 C 
ENDBRANCH  17  20
ENDBRANCH  16  17
ENDBRANCH  15  16
ENDBRANCH  14  15
ENDBRANCH   5  14
TORSDOF 5
ENDMDL
MODEL 3
REMARK VINA RESULT: -5.661737806      4.195      8.373
REMARK  5 active torsions:
REMARK  status: ('A' for Active; 'I' for Inactive)
REMARK    1  A    between atoms: C3_5  and  O1_6 
REMARK    2  A    between atoms: O1_6  and  C4_7 
REMARK    3  A    between atoms: C4_7  and  C5_8 
REMARK    4  A    between atoms: C5_8  and  N2_9 
REMARK    5  A    between atoms: N2_9  and  C6_12 
ROOT
HETATM    1  C1  UNL     1       2.104  -3.025   2.186  1.00  0.00     0.064 C 
HETATM    2  C2  UNL     1       1.874  -2.416   3.344  1.00  0.00     0.114 A 
HETATM    3  N1  UNL     1       2.550  -1.227   3.720  1.00  0.00    -0.308 N 
ATOM      4  H1  UNL     1       3.241  -0.802   3.102  1.00  0.00     0.171 HD
HETATM    5  C3  UNL     1       2.271  -0.697   4.859  1.00  0.00     0.239 A 
HETATM    6  N3  UNL     1       1.314  -1.238   5.775  1.00  0.00    -0.155 N 
ATOM      7  H3  UNL     1       1.142  -0.765   6.663  1.00  0.00     0.188 HD
HETATM    8  C8  UNL     1       0.601  -2.428   5.461  1.00  0.00     0.680 A 
HETATM    9  N4  UNL     1      -0.267  -2.933   6.273  1.00  0.00    -0.234 N 
ATOM     10  H41 UNL     1      -0.778  -3.787   6.048  1.00  0.00     0.174 HD
ATOM     11  H42 UNL     1      -0.487  -2.511   7.175  1.00  0.00     0.174 HD
HETATM   12  N5  UNL     1       0.907  -3.016   4.205  1.00  0.00    -0.178 N 
ATOM     13  H5  UNL     1       0.432  -3.871   3.916  1.00  0.00     0.185 HD
ENDROOT
BRANCH   5  14
HETATM   14  O1  UNL     1       2.984   0.476   5.153  1.00  0.00    -0.320 OA
BRANCH  14  15
HETATM   15  C4  UNL     1       4.167   0.468   5.932  1.00  0.00     0.206 C 
BRANCH  15  16
HETATM   16  C5  UNL     1       5.290   0.917   5.054  1.00  0.00     0.259 C 
BRANCH  16  17
HETATM   17  N2  UNL     1       6.196  -0.102   4.672  1.00  0.00    -0.073 N 
ATOM     18  H22 UNL     1       5.746  -1.016   4.728  1.00  0.00     0.277 HD
ATOM     19  H21 UNL     1       6.378  -0.057   3.670  1.00  0.00     0.277 HD
BRANCH  17  20
HETATM   20  C6  UNL     1       7.435  -0.109   5.407  1.00  0.00     0.228 C 
HETATM   21  C7  UNL     1       7.520  -1.212   6.413  1.00  0.00     0.034 C 
ENDBRANCH  17  20
ENDBRANCH  16  17
ENDBRANCH  15  16
ENDBRANCH  14  15
ENDBRANCH   5  14
TORSDOF 5
ENDMDL
MODEL 4
REMARK VINA RESULT: -5.596615483      0.775      2.216
REMARK  5 active torsions:
REMARK  status: ('A' for Active; 'I' for Inactive)
REMARK    1  A    between atoms: C3_5  and  O1_6 
REMARK    2  A    between atoms: O1_6  and  C4_7 
REMARK    3  A    between atoms: C4_7  and  C5_8 
REMARK    4  A    between atoms: C5_8  and  N2_9 
REMARK    5  A    between atoms: N2_9  and  C6_12 
ROOT
HETATM    1  C1  UNL     1      10.864   3.306   8.459  1.00  0.00     0.064 C 
HETATM    2  C2  UNL     1      10.669   2.195   7.757  1.00  0.00     0.114 A 
HETATM    3  N1  UNL     1       9.576   1.326   8.006  1.00  0.00    -0.308 N 
ATOM      4  H1  UNL     1       8.901   1.535   8.742  1.00  0.00     0.171 HD
HETATM    5  C3  UNL     1       9.456   0.269   7.282  1.00  0.00     0.239 A 
HETATM    6  N3  UNL     1      10.364  -0.086   6.235  1.00  0.00    -0.155 N 
ATOM      7  H3  UNL     1      10.209  -0.940   5.699  1.00  0.00     0.188 HD
HETATM    8  C8  UNL     1      11.482   0.741   5.934  1.00  0.00     0.680 A 
HETATM    9  N4  UNL     1      12.315   0.440   4.993  1.00  0.00    -0.234 N 
ATOM     10  H41 UNL     1      13.116   1.033   4.777  1.00  0.00     0.174 HD
ATOM     11  H42 UNL     1      12.218  -0.399   4.420  1.00  0.00     0.174 HD
HETATM   12  N5  UNL     1      11.618   1.909   6.731  1.00  0.00    -0.178 N 
ATOM     13  H5  UNL     1      12.398   2.545   6.568  1.00  0.00     0.185 HD
ENDROOT
BRANCH   5  14
HETATM   14  O1  UNL     1       8.348  -0.535   7.594  1.00  0.00    -0.320 OA
BRANCH  14  15
HETATM   15  C4  UNL     1       7.632  -1.254   6.606  1.00  0.00     0.206 C 
BRANCH  15  16
HETATM   16  C5  UNL     1       6.688  -0.300   5.948  1.00  0.00     0.259 C 
BRANCH  16  17
HETATM   17  N2  UNL     1       5.316  -0.551   6.192  1.00  0.00    -0.073 N 
ATOM     18  H22 UNL     1       5.040  -1.441   5.777  1.00  0.00     0.277 HD
ATOM     19  H21 UNL     1       5.164  -0.763   7.178  1.00  0.00     0.277 HD
BRANCH  17  20
HETATM   20  C6  UNL     1       4.428   0.499   5.762  1.00  0.00     0.228 C 
HETATM   21  C7  UNL     1       2.999   0.069   5.683  1.00  0.00     0.034 C 
ENDBRANCH  17  20
ENDBRANCH  16  17
ENDBRANCH  15  16
ENDBRANCH  14  15
ENDBRANCH   5  14
TORSDOF 5
ENDMDL
MODEL 5
REMARK VINA RESULT: -5.426779096      2.054      3.185
REMARK  5 active torsions:
REMARK  status: ('A' for Active; 'I' for Inactive)
REMARK    1  A    between atoms: C3_5  and  O1_6 
REMARK    2  A    between atoms: O1_6  and  C4_7 
REMARK    3  A    between atoms: C4_7  and  C5_8 
REMARK    4  A    between atoms: C5_8  and  N2_9 
REMARK    5  A    between atoms: N2_9  and  C6_12 
ROOT
HETATM    1  C1  UNL     1       9.080  -0.161   8.970  1.00  0.00     0.064 C 
HETATM    2  C2  UNL     1       8.830  -0.015   7.673  1.00  0.00     0.114 A 
HETATM    3  N1  UNL     1       7.550  -0.268   7.118  1.00  0.00    -0.308 N 
ATOM      4  H1  UNL     1       6.775  -0.573   7.709  1.00  0.00     0.171 HD
HETATM    5  C3  UNL     1       7.387  -0.104   5.852  1.00  0.00     0.239 A 
HETATM    6  N3  UNL     1       8.426   0.320   4.965  1.00  0.00    -0.155 N 
ATOM      7  H3  UNL     1       8.227   0.430   3.970  1.00  0.00     0.188 HD
HETATM    8  C8  UNL     1       9.733   0.590   5.456  1.00  0.00     0.680 A 
HETATM    9  N4  UNL     1      10.686   0.975   4.673  1.00  0.00    -0.234 N 
ATOM     10  H41 UNL     1      11.624   1.168   5.025  1.00  0.00     0.174 HD
ATOM     11  H42 UNL     1      10.555   1.104   3.670  1.00  0.00     0.174 HD
HETATM   12  N5  UNL     1       9.916   0.410   6.853  1.00  0.00    -0.178 N 
ATOM     13  H5  UNL     1      10.830   0.586   7.271  1.00  0.00     0.185 HD
ENDROOT
BRANCH   5  14
HETATM   14  O1  UNL     1       6.090  -0.376   5.386  1.00  0.00    -0.320 OA
BRANCH  14  15
HETATM   15  C4  UNL     1       5.162   0.652   5.088  1.00  0.00     0.206 C 
BRANCH  15  16
HETATM   16  C5  UNL     1       3.883   0.322   5.787  1.00  0.00     0.259 C 
BRANCH  16  17
HETATM   17  N2  UNL     1       3.720  -1.045   6.123  1.00  0.00    -0.073 N 
ATOM     18  H22 UNL     1       4.361  -1.622   5.578  1.00  0.00     0.277 HD
ATOM     19  H21 UNL     1       4.077  -1.224   7.061  1.00  0.00     0.277 HD
BRANCH  17  20
HETATM   20  C6  UNL     1       2.372  -1.537   5.996  1.00  0.00     0.228 C 
HETATM   21  C7  UNL     1       1.558  -0.779   4.998  1.00  0.00     0.034 C 
ENDBRANCH  17  20
ENDBRANCH  16  17
ENDBRANCH  15  16
ENDBRANCH  14  15
ENDBRANCH   5  14
TORSDOF 5
ENDMDL
