MODEL 1
REMARK VINA RESULT: -4.690313777      0.000      0.000
REMARK  8 active torsions:
REMARK  status: ('A' for Active; 'I' for Inactive)
REMARK    1  A    between atoms: N1_1  and  C1_5 
REMARK    2  A    between atoms: C1_5  and  C2_6 
REMARK    3  A    between atoms: C2_6  and  C3_7 
REMARK    4  A    between atoms: C3_7  and  C4_8 
REMARK    5  A    between atoms: C4_8  and  N2_9 
REMARK    6  A    between atoms: C6_11  and  N3_12 
REMARK    7  A    between atoms: C8_17  and  C9_18 
REMARK    8  A    between atoms: C9_18  and  N4_19 
ROOT
HETATM    1  N2  UNL     1      10.178   0.418   6.913  1.00  0.00     0.096 N 
HETATM    2  C5  UNL     1       9.697   1.597   7.605  1.00  0.00     0.305 C 
HETATM    3  C6  UNL     1      10.772   2.648   7.433  1.00  0.00     0.213 C 
HETATM    4  C7  UNL     1      12.039   1.818   7.399  1.00  0.00     0.072 C 
HETATM    5  C8  UNL     1      11.567   0.560   6.660  1.00  0.00     0.250 C 
ENDROOT
BRANCH   1   6
HETATM    6  C4  UNL     1       9.357   0.093   5.777  1.00  0.00     0.273 C 
BRANCH   6   7
HETATM    7  C3  UNL     1       8.703  -1.225   5.994  1.00  0.00     0.032 C 
BRANCH   7   8
HETATM    8  C2  UNL     1       7.336  -1.204   6.589  1.00  0.00     0.029 C 
BRANCH   8   9
HETATM    9  C1  UNL     1       6.362  -0.222   6.054  1.00  0.00     0.229 C 
BRANCH   9  10
HETATM   10  N1  UNL     1       4.981  -0.605   6.129  1.00  0.00    -0.079 N 
ATOM     11  H13 UNL     1       4.892  -1.484   6.638  1.00  0.00     0.274 HD
ATOM     12  H12 UNL     1       4.481   0.022   6.758  1.00  0.00     0.274 HD
ATOM     13  H11 UNL     1       4.488  -0.669   5.238  1.00  0.00     0.274 HD
ENDBRANCH   9  10
ENDBRANCH   8   9
ENDBRANCH   7   8
ENDBRANCH   6   7
ENDBRANCH   1   6
BRANCH   5  14
HETATM   14  C9  UNL     1      11.971   0.727   5.235  1.00  0.00     0.265 C 
BRANCH  14  15
HETATM   15  N4  UNL     1      13.408   0.456   5.164  1.00  0.00    -0.077 N 
ATOM     16  H43 UNL     1      13.970   1.299   5.040  1.00  0.00     0.274 HD
ATOM     17  H42 UNL     1      13.806   0.166   6.057  1.00  0.00     0.274 HD
ATOM     18  H41 UNL     1      13.546  -0.231   4.423  1.00  0.00     0.274 HD
ENDBRANCH  14  15
ENDBRANCH   5  14
BRANCH   3  19
HETATM   19  N3  UNL     1      10.791   3.594   8.530  1.00  0.00    -0.073 N 
ATOM     20  H33 UNL     1      10.470   3.162   9.396  1.00  0.00     0.274 HD
ATOM     21  H32 UNL     1      11.747   3.819   8.807  1.00  0.00     0.274 HD
ATOM     22  H31 UNL     1      10.259   4.438   8.318  1.00  0.00     0.274 HD
ENDBRANCH   3  19
TORSDOF 8
ENDMDL
MODEL 2
REMARK VINA RESULT: -4.471651595      4.614      9.130
REMARK  8 active torsions:
REMARK  status: ('A' for Active; 'I' for Inactive)
REMARK    1  A    between atoms: N1_1  and  C1_5 
REMARK    2  A    between atoms: C1_5  and  C2_6 
REMARK    3  A    between atoms: C2_6  and  C3_7 
REMARK    4  A    between atoms: C3_7  and  C4_8 
REMARK    5  A    between atoms: C4_8  and  N2_9 
REMARK    6  A    between atoms: C6_11  and  N3_12 
REMARK    7  A    between atoms: C8_17  and  C9_18 
REMARK    8  A    between atoms: C9_18  and  N4_19 
ROOT
HETATM    1  N2  UNL     1       1.876  -0.875   5.499  1.00  0.00     0.096 N 
HETATM    2  C5  UNL     1       2.301  -1.968   6.351  1.00  0.00     0.305 C 
HETATM    3  C6  UNL     1       1.763  -3.229   5.710  1.00  0.00     0.213 C 
HETATM    4  C7  UNL     1       0.472  -2.749   5.077  1.00  0.00     0.072 C 
HETATM    5  C8  UNL     1       0.855  -1.334   4.628  1.00  0.00     0.250 C 
ENDROOT
BRANCH   1   6
HETATM    6  C4  UNL     1       2.994  -0.220   4.874  1.00  0.00     0.273 C 
BRANCH   6   7
HETATM    7  C3  UNL     1       3.934   0.270   5.917  1.00  0.00     0.032 C 
BRANCH   7   8
HETATM    8  C2  UNL     1       5.205   0.886   5.439  1.00  0.00     0.029 C 
BRANCH   8   9
HETATM    9  C1  UNL     1       6.466   0.144   5.675  1.00  0.00     0.229 C 
BRANCH   9  10
HETATM   10  N1  UNL     1       6.349  -1.061   6.444  1.00  0.00    -0.079 N 
ATOM     11  H13 UNL     1       5.775  -0.892   7.269  1.00  0.00     0.274 HD
ATOM     12  H12 UNL     1       5.764  -1.733   5.949  1.00  0.00     0.274 HD
ATOM     13  H11 UNL     1       7.228  -1.502   6.717  1.00  0.00     0.274 HD
ENDBRANCH   9  10
ENDBRANCH   8   9
ENDBRANCH   7   8
ENDBRANCH   6   7
ENDBRANCH   1   6
BRANCH   5  14
HETATM   14  C9  UNL     1       1.203  -1.426   3.182  1.00  0.00     0.265 C 
BRANCH  14  15
HETATM   15  N4  UNL     1       0.344  -2.460   2.600  1.00  0.00    -0.077 N 
ATOM     16  H43 UNL     1       0.174  -3.243   3.232  1.00  0.00     0.274 HD
ATOM     17  H42 UNL     1      -0.627  -2.163   2.499  1.00  0.00     0.274 HD
ATOM     18  H41 UNL     1       0.771  -2.741   1.718  1.00  0.00     0.274 HD
ENDBRANCH  14  15
ENDBRANCH   5  14
BRANCH   3  19
HETATM   19  N3  UNL     1       1.516  -4.272   6.684  1.00  0.00    -0.073 N 
ATOM     20  H33 UNL     1       1.768  -3.968   7.624  1.00  0.00     0.274 HD
ATOM     21  H32 UNL     1       0.515  -4.417   6.824  1.00  0.00     0.274 HD
ATOM     22  H31 UNL     1       1.985  -5.145   6.440  1.00  0.00     0.274 HD
ENDBRANCH   3  19
TORSDOF 8
ENDMDL
MODEL 3
REMARK VINA RESULT: -4.396116975      8.376     10.031
REMARK  8 active torsions:
REMARK  status: ('A' for Active; 'I' for Inactive)
REMARK    1  A    between atoms: N1_1  and  C1_5 
REMARK    2  A    between atoms: C1_5  and  C2_6 
REMARK    3  A    between atoms: C2_6  and  C3_7 
REMARK    4  A    between atoms: C3_7  and  C4_8 
REMARK    5  A    between atoms: C4_8  and  N2_9 
REMARK    6  A    between atoms: C6_11  and  N3_12 
REMARK    7  A    between atoms: C8_17  and  C9_18 
REMARK    8  A    between atoms: C9_18  and  N4_19 
ROOT
HETATM    1  N2  UNL     1       1.552  -2.389   3.669  1.00  0.00     0.096 N 
HETATM    2  C5  UNL     1       0.609  -3.384   4.139  1.00  0.00     0.305 C 
HETATM    3  C6  UNL     1       0.293  -3.013   5.572  1.00  0.00     0.213 C 
HETATM    4  C7  UNL     1       1.596  -2.404   6.047  1.00  0.00     0.072 C 
HETATM    5  C8  UNL     1       2.085  -1.688   4.782  1.00  0.00     0.250 C 
ENDROOT
BRANCH   1   6
HETATM    6  C4  UNL     1       0.994  -1.578   2.619  1.00  0.00     0.273 C 
BRANCH   6   7
HETATM    7  C3  UNL     1       0.750  -2.418   1.416  1.00  0.00     0.032 C 
BRANCH   7   8
HETATM    8  C2  UNL     1       1.936  -2.738   0.571  1.00  0.00     0.029 C 
BRANCH   8   9
HETATM    9  C1  UNL     1       2.949  -1.676   0.367  1.00  0.00     0.229 C 
BRANCH   9  10
HETATM   10  N1  UNL     1       4.222  -1.898   0.990  1.00  0.00    -0.079 N 
ATOM     11  H13 UNL     1       4.091  -2.338   1.901  1.00  0.00     0.274 HD
ATOM     12  H12 UNL     1       4.724  -2.638   0.501  1.00  0.00     0.274 HD
ATOM     13  H11 UNL     1       4.820  -1.077   1.085  1.00  0.00     0.274 HD
ENDBRANCH   9  10
ENDBRANCH   8   9
ENDBRANCH   7   8
ENDBRANCH   6   7
ENDBRANCH   1   6
BRANCH   5  14
HETATM   14  C9  UNL     1       1.688  -0.258   4.921  1.00  0.00     0.265 C 
BRANCH  14  15
HETATM   15  N4  UNL     1       2.370   0.259   6.110  1.00  0.00    -0.077 N 
ATOM     16  H43 UNL     1       2.108  -0.229   6.967  1.00  0.00     0.274 HD
ATOM     17  H42 UNL     1       3.364   0.035   6.131  1.00  0.00     0.274 HD
ATOM     18  H41 UNL     1       2.184   1.262   6.146  1.00  0.00     0.274 HD
ENDBRANCH  14  15
ENDBRANCH   5  14
BRANCH   3  19
HETATM   19  N3  UNL     1      -0.069  -4.169   6.367  1.00  0.00    -0.073 N 
ATOM     20  H33 UNL     1      -0.874  -4.652   5.970  1.00  0.00     0.274 HD
ATOM     21  H32 UNL     1       0.625  -4.911   6.277  1.00  0.00     0.274 HD
ATOM     22  H31 UNL     1      -0.227  -3.927   7.345  1.00  0.00     0.274 HD
ENDBRANCH   3  19
TORSDOF 8
ENDMDL
MODEL 4
REMARK VINA RESULT: -4.387603442      5.654     10.311
REMARK  8 active torsions:
REMARK  status: ('A' for Active; 'I' for Inactive)
REMARK    1  A    between atoms: N1_1  and  C1_5 
REMARK    2  A    between atoms: C1_5  and  C2_6 
REMARK    3  A    between atoms: C2_6  and  C3_7 
REMARK    4  A    between atoms: C3_7  and  C4_8 
REMARK    5  A    between atoms: C4_8  and  N2_9 
REMARK    6  A    between atoms: C6_11  and  N3_12 
REMARK    7  A    between atoms: C8_17  and  C9_18 
REMARK    8  A    between atoms: C9_18  and  N4_19 
ROOT
HETATM    1  N2  UNL     1       1.650  -2.160   3.996  1.00  0.00     0.096 N 
HETATM    2  C5  UNL     1       1.447  -1.698   2.637  1.00  0.00     0.305 C 
HETATM    3  C6  UNL     1       0.208  -2.407   2.137  1.00  0.00     0.213 C 
HETATM    4  C7  UNL     1       0.276  -3.736   2.860  1.00  0.00     0.072 C 
HETATM    5  C8  UNL     1       0.867  -3.323   4.214  1.00  0.00     0.250 C 
ENDROOT
BRANCH   1   6
HETATM    6  C4  UNL     1       1.485  -1.097   4.952  1.00  0.00     0.273 C 
BRANCH   6   7
HETATM    7  C3  UNL     1       2.724  -0.960   5.764  1.00  0.00     0.032 C 
BRANCH   7   8
HETATM    8  C2  UNL     1       3.377   0.380   5.766  1.00  0.00     0.029 C 
BRANCH   8   9
HETATM    9  C1  UNL     1       4.858   0.429   5.730  1.00  0.00     0.229 C 
BRANCH   9  10
HETATM   10  N1  UNL     1       5.536  -0.736   6.222  1.00  0.00    -0.079 N 
ATOM     11  H13 UNL     1       6.222  -0.466   6.926  1.00  0.00     0.274 HD
ATOM     12  H12 UNL     1       4.899  -1.292   6.792  1.00  0.00     0.274 HD
ATOM     13  H11 UNL     1       5.975  -1.326   5.517  1.00  0.00     0.274 HD
ENDBRANCH   9  10
ENDBRANCH   8   9
ENDBRANCH   7   8
ENDBRANCH   6   7
ENDBRANCH   1   6
BRANCH   5  14
HETATM   14  C9  UNL     1      -0.281  -3.187   5.155  1.00  0.00     0.265 C 
BRANCH  14  15
HETATM   15  N4  UNL     1      -0.006  -4.066   6.294  1.00  0.00    -0.077 N 
ATOM     16  H43 UNL     1      -0.486  -4.964   6.232  1.00  0.00     0.274 HD
ATOM     17  H42 UNL     1       0.947  -4.428   6.298  1.00  0.00     0.274 HD
ATOM     18  H41 UNL     1      -0.239  -3.542   7.137  1.00  0.00     0.274 HD
ENDBRANCH  14  15
ENDBRANCH   5  14
BRANCH   3  19
HETATM   19  N3  UNL     1       0.225  -2.588   0.700  1.00  0.00    -0.073 N 
ATOM     20  H33 UNL     1       1.105  -3.002   0.390  1.00  0.00     0.274 HD
ATOM     21  H32 UNL     1      -0.412  -3.331   0.413  1.00  0.00     0.274 HD
ATOM     22  H31 UNL     1       0.030  -1.720   0.200  1.00  0.00     0.274 HD
ENDBRANCH   3  19
TORSDOF 8
ENDMDL
MODEL 5
REMARK VINA RESULT: -4.349945823      7.891      9.527
REMARK  8 active torsions:
REMARK  status: ('A' for Active; 'I' for Inactive)
REMARK    1  A    between atoms: N1_1  and  C1_5 
REMARK    2  A    between atoms: C1_5  and  C2_6 
REMARK    3  A    between atoms: C2_6  and  C3_7 
REMARK    4  A    between atoms: C3_7  and  C4_8 
REMARK    5  A    between atoms: C4_8  and  N2_9 
REMARK    6  A    between atoms: C6_11  and  N3_12 
REMARK    7  A    between atoms: C8_17  and  C9_18 
REMARK    8  A    between atoms: C9_18  and  N4_19 
ROOT
HETATM    1  N2  UNL     1       0.756  -2.006   4.409  1.00  0.00     0.096 N 
HETATM    2  C5  UNL     1       1.416  -0.716   4.451  1.00  0.00     0.305 C 
HETATM    3  C6  UNL     1       2.445  -0.811   5.557  1.00  0.00     0.213 C 
HETATM    4  C7  UNL     1       1.783  -1.754   6.541  1.00  0.00     0.072 C 
HETATM    5  C8  UNL     1       1.049  -2.718   5.601  1.00  0.00     0.250 C 
ENDROOT
BRANCH   1   6
HETATM    6  C4  UNL     1       1.018  -2.699   3.176  1.00  0.00     0.273 C 
BRANCH   6   7
HETATM    7  C3  UNL     1       1.248  -1.713   2.087  1.00  0.00     0.032 C 
BRANCH   7   8
HETATM    8  C2  UNL     1       1.764  -2.249   0.795  1.00  0.00     0.029 C 
BRANCH   8   9
HETATM    9  C1  UNL     1       3.001  -1.651   0.240  1.00  0.00     0.229 C 
BRANCH   9  10
HETATM   10  N1  UNL     1       4.204  -1.898   0.983  1.00  0.00    -0.079 N 
ATOM     11  H13 UNL     1       4.783  -2.576   0.488  1.00  0.00     0.274 HD
ATOM     12  H12 UNL     1       4.809  -1.078   0.944  1.00  0.00     0.274 HD
ATOM     13  H11 UNL     1       4.076  -2.190   1.951  1.00  0.00     0.274 HD
ENDBRANCH   9  10
ENDBRANCH   8   9
ENDBRANCH   7   8
ENDBRANCH   6   7
ENDBRANCH   1   6
BRANCH   5  14
HETATM   14  C9  UNL     1       1.919  -3.921   5.461  1.00  0.00     0.265 C 
BRANCH  14  15
HETATM   15  N4  UNL     1       1.603  -4.808   6.583  1.00  0.00    -0.077 N 
ATOM     16  H43 UNL     1       2.334  -4.829   7.295  1.00  0.00     0.274 HD
ATOM     17  H42 UNL     1       0.854  -4.452   7.176  1.00  0.00     0.274 HD
ATOM     18  H41 UNL     1       1.400  -5.726   6.188  1.00  0.00     0.274 HD
ENDBRANCH  14  15
ENDBRANCH   5  14
BRANCH   3  19
HETATM   19  N3  UNL     1       2.715   0.477   6.162  1.00  0.00    -0.073 N 
ATOM     20  H33 UNL     1       3.603   0.859   5.836  1.00  0.00     0.274 HD
ATOM     21  H32 UNL     1       2.088   1.195   5.800  1.00  0.00     0.274 HD
ATOM     22  H31 UNL     1       2.682   0.437   7.181  1.00  0.00     0.274 HD
ENDBRANCH   3  19
TORSDOF 8
ENDMDL
