MODEL 1
REMARK VINA RESULT: -5.910496391      0.000      0.000
REMARK  7 active torsions:
REMARK  status: ('A' for Active; 'I' for Inactive)
REMARK    1  A    between atoms: N1_2  and  C2_5 
REMARK    2  A    between atoms: C2_5  and  C3_6 
REMARK    3  A    between atoms: C3_6  and  N2_7 
REMARK    4  A    between atoms: N2_7  and  C4_9 
REMARK    5  A    between atoms: C5_12  and  C6_13 
REMARK    6  A    between atoms: C6_13  and  C7_14 
REMARK    7  A    between atoms: C7_14  and  N4_15 
ROOT
HETATM    1  C4  UNL     1       5.564   0.327   6.050  1.00  0.00     0.694 A 
HETATM    2  N3  UNL     1       6.655   0.439   6.795  1.00  0.00    -0.178 N 
ATOM      3  H3  UNL     1       6.665   0.777   7.758  1.00  0.00     0.185 HD
HETATM    4  C5  UNL     1       7.747   0.048   6.113  1.00  0.00     0.114 A 
HETATM    5  N5  UNL     1       7.309  -0.325   4.881  1.00  0.00    -0.274 N 
ATOM      6  H5  UNL     1       7.884  -0.675   4.114  1.00  0.00     0.189 HD
HETATM    7  N6  UNL     1       5.989  -0.149   4.862  1.00  0.00    -0.131 N 
ATOM      8  H6  UNL     1       5.386  -0.346   4.064  1.00  0.00     0.205 HD
ENDROOT
BRANCH   1   9
HETATM    9  N2  UNL     1       4.324   0.596   6.331  1.00  0.00    -0.223 N 
ATOM     10  H2  UNL     1       4.123   1.189   7.137  1.00  0.00     0.177 HD
BRANCH   9  11
HETATM   11  C3  UNL     1       3.227   0.097   5.559  1.00  0.00     0.165 C 
BRANCH  11  12
HETATM   12  C2  UNL     1       2.833  -1.314   5.826  1.00  0.00     0.252 C 
BRANCH  12  13
HETATM   13  N1  UNL     1       1.581  -1.471   6.526  1.00  0.00    -0.077 N 
HETATM   14  C1  UNL     1       0.537  -2.049   5.730  1.00  0.00     0.267 C 
ATOM     15  H12 UNL     1       1.279  -0.582   6.923  1.00  0.00     0.276 HD
ATOM     16  H11 UNL     1       1.715  -2.005   7.384  1.00  0.00     0.276 HD
ENDBRANCH  12  13
ENDBRANCH  11  12
ENDBRANCH   9  11
ENDBRANCH   1   9
BRANCH   4  17
HETATM   17  C6  UNL     1       9.173   0.007   6.564  1.00  0.00     0.105 C 
BRANCH  17  18
HETATM   18  C7  UNL     1       9.302   0.388   8.009  1.00  0.00     0.237 C 
BRANCH  18  19
HETATM   19  N4  UNL     1      10.055   1.576   8.251  1.00  0.00    -0.079 N 
ATOM     20  H43 UNL     1       9.719   2.335   7.658  1.00  0.00     0.274 HD
ATOM     21  H42 UNL     1       9.829   1.956   9.170  1.00  0.00     0.274 HD
ATOM     22  H41 UNL     1      11.065   1.471   8.150  1.00  0.00     0.274 HD
ENDBRANCH  18  19
ENDBRANCH  17  18
ENDBRANCH   4  17
TORSDOF 7
ENDMDL
MODEL 2
REMARK VINA RESULT: -5.895899195      1.526      6.260
REMARK  7 active torsions:
REMARK  status: ('A' for Active; 'I' for Inactive)
REMARK    1  A    between atoms: N1_2  and  C2_5 
REMARK    2  A    between atoms: C2_5  and  C3_6 
REMARK    3  A    between atoms: C3_6  and  N2_7 
REMARK    4  A    between atoms: N2_7  and  C4_9 
REMARK    5  A    between atoms: C5_12  and  C6_13 
REMARK    6  A    between atoms: C6_13  and  C7_14 
REMARK    7  A    between atoms: C7_14  and  N4_15 
ROOT
HETATM    1  C4  UNL     1       7.969  -0.436   5.818  1.00  0.00     0.694 A 
HETATM    2  N3  UNL     1       7.130   0.415   5.243  1.00  0.00    -0.178 N 
ATOM      3  H3  UNL     1       7.414   1.187   4.640  1.00  0.00     0.185 HD
HETATM    4  C5  UNL     1       5.855   0.125   5.562  1.00  0.00     0.114 A 
HETATM    5  N5  UNL     1       5.908  -0.963   6.377  1.00  0.00    -0.274 N 
ATOM      6  H5  UNL     1       5.113  -1.442   6.799  1.00  0.00     0.189 HD
HETATM    7  N6  UNL     1       7.192  -1.286   6.519  1.00  0.00    -0.131 N 
ATOM      8  H6  UNL     1       7.539  -2.065   7.080  1.00  0.00     0.205 HD
ENDROOT
BRANCH   1   9
HETATM    9  N2  UNL     1       9.266  -0.502   5.764  1.00  0.00    -0.223 N 
ATOM     10  H2  UNL     1       9.695  -1.221   5.181  1.00  0.00     0.177 HD
BRANCH   9  11
HETATM   11  C3  UNL     1      10.119   0.391   6.488  1.00  0.00     0.165 C 
BRANCH  11  12
HETATM   12  C2  UNL     1       9.618   0.833   7.818  1.00  0.00     0.252 C 
BRANCH  12  13
HETATM   13  N1  UNL     1      10.255   2.017   8.342  1.00  0.00    -0.077 N 
HETATM   14  C1  UNL     1      11.380   2.463   7.572  1.00  0.00     0.267 C 
ATOM     15  H12 UNL     1      10.520   1.880   9.317  1.00  0.00     0.276 HD
ATOM     16  H11 UNL     1       9.576   2.770   8.454  1.00  0.00     0.276 HD
ENDBRANCH  12  13
ENDBRANCH  11  12
ENDBRANCH   9  11
ENDBRANCH   1   9
BRANCH   4  17
HETATM   17  C6  UNL     1       4.599   0.817   5.137  1.00  0.00     0.105 C 
BRANCH  17  18
HETATM   18  C7  UNL     1       3.385   0.004   5.475  1.00  0.00     0.237 C 
BRANCH  18  19
HETATM   19  N4  UNL     1       2.562   0.553   6.504  1.00  0.00    -0.079 N 
ATOM     20  H43 UNL     1       3.139   0.890   7.275  1.00  0.00     0.274 HD
ATOM     21  H42 UNL     1       2.149   1.433   6.194  1.00  0.00     0.274 HD
ATOM     22  H41 UNL     1       1.838  -0.074   6.854  1.00  0.00     0.274 HD
ENDBRANCH  18  19
ENDBRANCH  17  18
ENDBRANCH   4  17
TORSDOF 7
ENDMDL
MODEL 3
REMARK VINA RESULT: -5.892745021      1.464      6.377
REMARK  7 active torsions:
REMARK  status: ('A' for Active; 'I' for Inactive)
REMARK    1  A    between atoms: N1_2  and  C2_5 
REMARK    2  A    between atoms: C2_5  and  C3_6 
REMARK    3  A    between atoms: C3_6  and  N2_7 
REMARK    4  A    between atoms: N2_7  and  C4_9 
REMARK    5  A    between atoms: C5_12  and  C6_13 
REMARK    6  A    between atoms: C6_13  and  C7_14 
REMARK    7  A    between atoms: C7_14  and  N4_15 
ROOT
HETATM    1  C4  UNL     1       4.093   0.190   6.055  1.00  0.00     0.694 A 
HETATM    2  N3  UNL     1       3.935  -1.078   5.706  1.00  0.00    -0.178 N 
ATOM      3  H3  UNL     1       4.694  -1.700   5.426  1.00  0.00     0.185 HD
HETATM    4  C5  UNL     1       2.639  -1.438   5.768  1.00  0.00     0.114 A 
HETATM    5  N5  UNL     1       1.961  -0.333   6.178  1.00  0.00    -0.274 N 
ATOM      6  H5  UNL     1       0.954  -0.262   6.329  1.00  0.00     0.189 HD
HETATM    7  N6  UNL     1       2.856   0.639   6.346  1.00  0.00    -0.131 N 
ATOM      8  H6  UNL     1       2.636   1.588   6.650  1.00  0.00     0.205 HD
ENDROOT
BRANCH   1   9
HETATM    9  N2  UNL     1       5.172   0.913   6.128  1.00  0.00    -0.223 N 
ATOM     10  H2  UNL     1       5.163   1.746   6.717  1.00  0.00     0.177 HD
BRANCH   9  11
HETATM   11  C3  UNL     1       6.372   0.589   5.418  1.00  0.00     0.165 C 
BRANCH  11  12
HETATM   12  C2  UNL     1       7.400  -0.164   6.190  1.00  0.00     0.252 C 
BRANCH  12  13
HETATM   13  N1  UNL     1       7.620   0.318   7.532  1.00  0.00    -0.077 N 
HETATM   14  C1  UNL     1       8.992   0.271   7.950  1.00  0.00     0.267 C 
ATOM     15  H12 UNL     1       7.028  -0.183   8.194  1.00  0.00     0.276 HD
ATOM     16  H11 UNL     1       7.244   1.259   7.642  1.00  0.00     0.276 HD
ENDBRANCH  12  13
ENDBRANCH  11  12
ENDBRANCH   9  11
ENDBRANCH   1   9
BRANCH   4  17
HETATM   17  C6  UNL     1       2.015  -2.763   5.464  1.00  0.00     0.105 C 
BRANCH  17  18
HETATM   18  C7  UNL     1       0.519  -2.667   5.423  1.00  0.00     0.237 C 
BRANCH  18  19
HETATM   19  N4  UNL     1      -0.165  -3.592   6.267  1.00  0.00    -0.079 N 
ATOM     20  H43 UNL     1      -0.219  -3.229   7.219  1.00  0.00     0.274 HD
ATOM     21  H42 UNL     1      -1.158  -3.617   6.032  1.00  0.00     0.274 HD
ATOM     22  H41 UNL     1       0.222  -4.535   6.271  1.00  0.00     0.274 HD
ENDBRANCH  18  19
ENDBRANCH  17  18
ENDBRANCH   4  17
TORSDOF 7
ENDMDL
MODEL 4
REMARK VINA RESULT: -5.889564330      1.205      6.242
REMARK  7 active torsions:
REMARK  status: ('A' for Active; 'I' for Inactive)
REMARK    1  A    between atoms: N1_2  and  C2_5 
REMARK    2  A    between atoms: C2_5  and  C3_6 
REMARK    3  A    between atoms: C3_6  and  N2_7 
REMARK    4  A    between atoms: N2_7  and  C4_9 
REMARK    5  A    between atoms: C5_12  and  C6_13 
REMARK    6  A    between atoms: C6_13  and  C7_14 
REMARK    7  A    between atoms: C7_14  and  N4_15 
ROOT
HETATM    1  C4  UNL     1       6.892  -0.642   6.022  1.00  0.00     0.694 A 
HETATM    2  N3  UNL     1       5.653  -0.629   6.494  1.00  0.00    -0.178 N 
ATOM      3  H3  UNL     1       5.375  -1.016   7.396  1.00  0.00     0.185 HD
HETATM    4  C5  UNL     1       4.813  -0.038   5.626  1.00  0.00     0.114 A 
HETATM    5  N5  UNL     1       5.571   0.335   4.560  1.00  0.00    -0.274 N 
ATOM      6  H5  UNL     1       5.243   0.811   3.720  1.00  0.00     0.189 HD
HETATM    7  N6  UNL     1       6.823  -0.039   4.819  1.00  0.00    -0.131 N 
ATOM      8  H6  UNL     1       7.616   0.110   4.195  1.00  0.00     0.205 HD
ENDROOT
BRANCH   1   9
HETATM    9  N2  UNL     1       7.985  -1.112   6.546  1.00  0.00    -0.223 N 
ATOM     10  H2  UNL     1       8.362  -1.988   6.185  1.00  0.00     0.177 HD
BRANCH   9  11
HETATM   11  C3  UNL     1       8.683  -0.452   7.608  1.00  0.00     0.165 C 
BRANCH  11  12
HETATM   12  C2  UNL     1       9.718   0.534   7.191  1.00  0.00     0.252 C 
BRANCH  12  13
HETATM   13  N1  UNL     1      10.033   1.536   8.180  1.00  0.00    -0.077 N 
HETATM   14  C1  UNL     1      11.070   2.443   7.781  1.00  0.00     0.267 C 
ATOM     15  H12 UNL     1      10.262   1.100   9.073  1.00  0.00     0.276 HD
ATOM     16  H11 UNL     1       9.193   2.049   8.450  1.00  0.00     0.276 HD
ENDBRANCH  12  13
ENDBRANCH  11  12
ENDBRANCH   9  11
ENDBRANCH   1   9
BRANCH   4  17
HETATM   17  C6  UNL     1       3.339   0.192   5.751  1.00  0.00     0.105 C 
BRANCH  17  18
HETATM   18  C7  UNL     1       2.571  -1.089   5.617  1.00  0.00     0.237 C 
BRANCH  18  19
HETATM   19  N4  UNL     1       1.865  -1.490   6.790  1.00  0.00    -0.079 N 
ATOM     20  H43 UNL     1       2.520  -1.790   7.512  1.00  0.00     0.274 HD
ATOM     21  H42 UNL     1       1.454  -0.677   7.250  1.00  0.00     0.274 HD
ATOM     22  H41 UNL     1       1.155  -2.206   6.638  1.00  0.00     0.274 HD
ENDBRANCH  18  19
ENDBRANCH  17  18
ENDBRANCH   4  17
TORSDOF 7
ENDMDL
MODEL 5
REMARK VINA RESULT: -5.888216837      1.595      6.797
REMARK  7 active torsions:
REMARK  status: ('A' for Active; 'I' for Inactive)
REMARK    1  A    between atoms: N1_2  and  C2_5 
REMARK    2  A    between atoms: C2_5  and  C3_6 
REMARK    3  A    between atoms: C3_6  and  N2_7 
REMARK    4  A    between atoms: N2_7  and  C4_9 
REMARK    5  A    between atoms: C5_12  and  C6_13 
REMARK    6  A    between atoms: C6_13  and  C7_14 
REMARK    7  A    between atoms: C7_14  and  N4_15 
ROOT
HETATM    1  C4  UNL     1       3.099  -0.627   5.886  1.00  0.00     0.694 A 
HETATM    2  N3  UNL     1       2.376  -1.737   5.896  1.00  0.00    -0.178 N 
ATOM      3  H3  UNL     1       2.736  -2.660   6.142  1.00  0.00     0.185 HD
HETATM    4  C5  UNL     1       1.103  -1.487   5.539  1.00  0.00     0.114 A 
HETATM    5  N5  UNL     1       1.036  -0.150   5.294  1.00  0.00    -0.274 N 
ATOM      6  H5  UNL     1       0.209   0.371   5.001  1.00  0.00     0.189 HD
HETATM    7  N6  UNL     1       2.251   0.350   5.509  1.00  0.00    -0.131 N 
ATOM      8  H6  UNL     1       2.503   1.333   5.404  1.00  0.00     0.205 HD
ENDROOT
BRANCH   1   9
HETATM    9  N2  UNL     1       4.355  -0.441   6.167  1.00  0.00    -0.223 N 
ATOM     10  H2  UNL     1       4.853  -1.167   6.682  1.00  0.00     0.177 HD
BRANCH   9  11
HETATM   11  C3  UNL     1       5.070   0.739   5.782  1.00  0.00     0.165 C 
BRANCH  11  12
HETATM   12  C2  UNL     1       6.547   0.690   5.961  1.00  0.00     0.252 C 
BRANCH  12  13
HETATM   13  N1  UNL     1       7.009   1.057   7.278  1.00  0.00    -0.077 N 
HETATM   14  C1  UNL     1       8.310   0.546   7.603  1.00  0.00     0.267 C 
ATOM     15  H12 UNL     1       6.330   0.781   7.987  1.00  0.00     0.276 HD
ATOM     16  H11 UNL     1       6.982   2.069   7.399  1.00  0.00     0.276 HD
ENDBRANCH  12  13
ENDBRANCH  11  12
ENDBRANCH   9  11
ENDBRANCH   1   9
BRANCH   4  17
HETATM   17  C6  UNL     1      -0.046  -2.438   5.418  1.00  0.00     0.105 C 
BRANCH  17  18
HETATM   18  C7  UNL     1       0.423  -3.863   5.400  1.00  0.00     0.237 C 
BRANCH  18  19
HETATM   19  N4  UNL     1       0.003  -4.646   6.517  1.00  0.00    -0.079 N 
ATOM     20  H43 UNL     1      -0.066  -4.064   7.351  1.00  0.00     0.274 HD
ATOM     21  H42 UNL     1      -0.974  -4.919   6.410  1.00  0.00     0.274 HD
ATOM     22  H41 UNL     1       0.580  -5.466   6.706  1.00  0.00     0.274 HD
ENDBRANCH  18  19
ENDBRANCH  17  18
ENDBRANCH   4  17
TORSDOF 7
ENDMDL
