MODEL 1
REMARK VINA RESULT: -5.394621838      0.000      0.000
REMARK  7 active torsions:
REMARK  status: ('A' for Active; 'I' for Inactive)
REMARK    1  A    between atoms: N1_1  and  C1_5 
REMARK    2  A    between atoms: C1_5  and  C2_6 
REMARK    3  A    between atoms: C2_6  and  C3_7 
REMARK    4  A    between atoms: C3_7  and  N2_8 
REMARK    5  A    between atoms: C6_14  and  C7_15 
REMARK    6  A    between atoms: C7_15  and  C8_16 
REMARK    7  A    between atoms: C8_16  and  N4_17 
ROOT
HETATM    1  N2  UNL     1       9.374  -0.312   6.063  1.00  0.00     0.092 N 
HETATM    2  C4  UNL     1       8.762  -0.801   7.290  1.00  0.00     0.300 C 
HETATM    3  C5  UNL     1       7.326  -1.160   7.032  1.00  0.00     0.262 C 
HETATM    4  N3  UNL     1       6.641   0.106   6.881  1.00  0.00    -0.068 N 
ATOM      5  H31 UNL     1       6.760   0.727   7.681  1.00  0.00     0.277 HD
ATOM      6  H32 UNL     1       5.626   0.024   6.933  1.00  0.00     0.277 HD
HETATM    7  C6  UNL     1       7.110   0.685   5.625  1.00  0.00     0.215 C 
HETATM    8  C9  UNL     1       8.434   0.267   5.164  1.00  0.00     0.305 C 
ENDROOT
BRANCH   1   9
HETATM    9  C3  UNL     1      10.486   0.565   6.373  1.00  0.00     0.274 C 
BRANCH   9  10
HETATM   10  C2  UNL     1      10.235   1.328   7.640  1.00  0.00     0.057 C 
BRANCH  10  11
HETATM   11  C1  UNL     1      11.278   2.466   7.673  1.00  0.00     0.231 C 
BRANCH  11  12
HETATM   12  N1  UNL     1      10.704   3.544   8.436  1.00  0.00    -0.079 N 
ATOM     13  H13 UNL     1       9.902   3.255   8.997  1.00  0.00     0.274 HD
ATOM     14  H12 UNL     1      11.298   3.850   9.206  1.00  0.00     0.274 HD
ATOM     15  H11 UNL     1      10.483   4.291   7.778  1.00  0.00     0.274 HD
ENDBRANCH  11  12
ENDBRANCH  10  11
ENDBRANCH   9  10
ENDBRANCH   1   9
BRANCH   7  16
HETATM   16  C7  UNL     1       6.013   0.346   4.625  1.00  0.00     0.062 C 
BRANCH  16  17
HETATM   17  C8  UNL     1       4.636   0.656   5.086  1.00  0.00     0.231 C 
BRANCH  17  18
HETATM   18  N4  UNL     1       3.690  -0.419   5.018  1.00  0.00    -0.079 N 
ATOM     19  H43 UNL     1       4.073  -1.181   4.458  1.00  0.00     0.274 HD
ATOM     20  H42 UNL     1       3.622  -0.877   5.928  1.00  0.00     0.274 HD
ATOM     21  H41 UNL     1       2.758  -0.178   4.683  1.00  0.00     0.274 HD
ENDBRANCH  17  18
ENDBRANCH  16  17
ENDBRANCH   7  16
TORSDOF 7
ENDMDL
MODEL 2
REMARK VINA RESULT: -5.269130884      1.800      2.105
REMARK  7 active torsions:
REMARK  status: ('A' for Active; 'I' for Inactive)
REMARK    1  A    between atoms: N1_1  and  C1_5 
REMARK    2  A    between atoms: C1_5  and  C2_6 
REMARK    3  A    between atoms: C2_6  and  C3_7 
REMARK    4  A    between atoms: C3_7  and  N2_8 
REMARK    5  A    between atoms: C6_14  and  C7_15 
REMARK    6  A    between atoms: C7_15  and  C8_16 
REMARK    7  A    between atoms: C8_16  and  N4_17 
ROOT
HETATM    1  N2  UNL     1       9.202  -0.079   5.905  1.00  0.00     0.092 N 
HETATM    2  C4  UNL     1       9.220   0.387   7.284  1.00  0.00     0.300 C 
HETATM    3  C5  UNL     1       7.896   0.099   7.934  1.00  0.00     0.262 C 
HETATM    4  N3  UNL     1       6.973   1.047   7.347  1.00  0.00    -0.068 N 
ATOM      5  H31 UNL     1       7.269   2.018   7.454  1.00  0.00     0.277 HD
ATOM      6  H32 UNL     1       6.094   1.124   7.858  1.00  0.00     0.277 HD
HETATM    7  C6  UNL     1       6.798   0.647   5.954  1.00  0.00     0.215 C 
HETATM    8  C9  UNL     1       7.895  -0.105   5.344  1.00  0.00     0.305 C 
ENDROOT
BRANCH   1   9
HETATM    9  C3  UNL     1      10.153   0.673   5.111  1.00  0.00     0.274 C 
BRANCH   9  10
HETATM   10  C2  UNL     1      11.365   1.036   5.918  1.00  0.00     0.057 C 
BRANCH  10  11
HETATM   11  C1  UNL     1      12.394  -0.092   5.682  1.00  0.00     0.231 C 
BRANCH  11  12
HETATM   12  N1  UNL     1      13.631   0.539   5.303  1.00  0.00    -0.079 N 
ATOM     13  H13 UNL     1      13.739   1.476   5.691  1.00  0.00     0.274 HD
ATOM     14  H12 UNL     1      14.447   0.119   5.747  1.00  0.00     0.274 HD
ATOM     15  H11 UNL     1      13.675   0.520   4.284  1.00  0.00     0.274 HD
ENDBRANCH  11  12
ENDBRANCH  10  11
ENDBRANCH   9  10
ENDBRANCH   1   9
BRANCH   7  16
HETATM   16  C7  UNL     1       5.488  -0.131   5.951  1.00  0.00     0.062 C 
BRANCH  16  17
HETATM   17  C8  UNL     1       4.298   0.660   5.549  1.00  0.00     0.231 C 
BRANCH  17  18
HETATM   18  N4  UNL     1       3.192   0.644   6.460  1.00  0.00    -0.079 N 
ATOM     19  H43 UNL     1       2.667   1.515   6.381  1.00  0.00     0.274 HD
ATOM     20  H42 UNL     1       2.490  -0.024   6.140  1.00  0.00     0.274 HD
ATOM     21  H41 UNL     1       3.418   0.464   7.438  1.00  0.00     0.274 HD
ENDBRANCH  17  18
ENDBRANCH  16  17
ENDBRANCH   7  16
TORSDOF 7
ENDMDL
MODEL 3
REMARK VINA RESULT: -4.838595310      1.480      1.861
REMARK  7 active torsions:
REMARK  status: ('A' for Active; 'I' for Inactive)
REMARK    1  A    between atoms: N1_1  and  C1_5 
REMARK    2  A    between atoms: C1_5  and  C2_6 
REMARK    3  A    between atoms: C2_6  and  C3_7 
REMARK    4  A    between atoms: C3_7  and  N2_8 
REMARK    5  A    between atoms: C6_14  and  C7_15 
REMARK    6  A    between atoms: C7_15  and  C8_16 
REMARK    7  A    between atoms: C8_16  and  N4_17 
ROOT
HETATM    1  N2  UNL     1       9.268  -0.248   6.201  1.00  0.00     0.092 N 
HETATM    2  C4  UNL     1       8.599  -0.914   7.309  1.00  0.00     0.300 C 
HETATM    3  C5  UNL     1       7.208  -1.307   6.900  1.00  0.00     0.262 C 
HETATM    4  N3  UNL     1       6.464  -0.067   6.850  1.00  0.00    -0.068 N 
ATOM      5  H31 UNL     1       6.491   0.455   7.726  1.00  0.00     0.277 HD
ATOM      6  H32 UNL     1       5.454  -0.203   6.813  1.00  0.00     0.277 HD
HETATM    7  C6  UNL     1       6.987   0.685   5.713  1.00  0.00     0.215 C 
HETATM    8  C9  UNL     1       8.362   0.393   5.309  1.00  0.00     0.305 C 
ENDROOT
BRANCH   1   9
HETATM    9  C3  UNL     1      10.303   0.637   6.700  1.00  0.00     0.274 C 
BRANCH   9  10
HETATM   10  C2  UNL     1      11.290   0.976   5.622  1.00  0.00     0.057 C 
BRANCH  10  11
HETATM   11  C1  UNL     1      12.388  -0.108   5.686  1.00  0.00     0.231 C 
BRANCH  11  12
HETATM   12  N1  UNL     1      13.625   0.523   5.303  1.00  0.00    -0.079 N 
ATOM     13  H13 UNL     1      14.392  -0.139   5.184  1.00  0.00     0.274 HD
ATOM     14  H12 UNL     1      13.613   0.881   4.349  1.00  0.00     0.274 HD
ATOM     15  H11 UNL     1      13.822   1.242   5.999  1.00  0.00     0.274 HD
ENDBRANCH  11  12
ENDBRANCH  10  11
ENDBRANCH   9  10
ENDBRANCH   1   9
BRANCH   7  16
HETATM   16  C7  UNL     1       5.984   0.421   4.598  1.00  0.00     0.062 C 
BRANCH  16  17
HETATM   17  C8  UNL     1       4.565   0.629   4.978  1.00  0.00     0.231 C 
BRANCH  17  18
HETATM   18  N4  UNL     1       3.719  -0.527   4.918  1.00  0.00    -0.079 N 
ATOM     19  H43 UNL     1       3.726  -1.007   5.818  1.00  0.00     0.274 HD
ATOM     20  H42 UNL     1       2.742  -0.237   4.873  1.00  0.00     0.274 HD
ATOM     21  H41 UNL     1       3.917  -1.191   4.170  1.00  0.00     0.274 HD
ENDBRANCH  17  18
ENDBRANCH  16  17
ENDBRANCH   7  16
TORSDOF 7
ENDMDL
MODEL 4
REMARK VINA RESULT: -4.794126053      1.023      5.467
REMARK  7 active torsions:
REMARK  status: ('A' for Active; 'I' for Inactive)
REMARK    1  A    between atoms: N1_1  and  C1_5 
REMARK    2  A    between atoms: C1_5  and  C2_6 
REMARK    3  A    between atoms: C2_6  and  C3_7 
REMARK    4  A    between atoms: C3_7  and  N2_8 
REMARK    5  A    between atoms: C6_14  and  C7_15 
REMARK    6  A    between atoms: C7_15  and  C8_16 
REMARK    7  A    between atoms: C8_16  and  N4_17 
ROOT
HETATM    1  N2  UNL     1       6.685   0.031   6.427  1.00  0.00     0.092 N 
HETATM    2  C4  UNL     1       7.248  -1.309   6.349  1.00  0.00     0.300 C 
HETATM    3  C5  UNL     1       8.386  -1.439   7.322  1.00  0.00     0.262 C 
HETATM    4  N3  UNL     1       9.465  -0.665   6.748  1.00  0.00    -0.068 N 
ATOM      5  H31 UNL     1       9.712  -0.957   5.802  1.00  0.00     0.277 HD
ATOM      6  H32 UNL     1      10.369  -0.851   7.180  1.00  0.00     0.277 HD
HETATM    7  C6  UNL     1       9.062   0.736   6.832  1.00  0.00     0.215 C 
HETATM    8  C9  UNL     1       7.624   1.004   6.870  1.00  0.00     0.305 C 
ENDROOT
BRANCH   1   9
HETATM    9  C3  UNL     1       6.047   0.380   5.172  1.00  0.00     0.274 C 
BRANCH   9  10
HETATM   10  C2  UNL     1       4.693   0.983   5.404  1.00  0.00     0.057 C 
BRANCH  10  11
HETATM   11  C1  UNL     1       3.755  -0.188   5.769  1.00  0.00     0.231 C 
BRANCH  11  12
HETATM   12  N1  UNL     1       2.521   0.389   6.235  1.00  0.00    -0.079 N 
ATOM     13  H13 UNL     1       1.723   0.161   5.642  1.00  0.00     0.274 HD
ATOM     14  H12 UNL     1       2.175  -0.044   7.091  1.00  0.00     0.274 HD
ATOM     15  H11 UNL     1       2.678   1.392   6.328  1.00  0.00     0.274 HD
ENDBRANCH  11  12
ENDBRANCH  10  11
ENDBRANCH   9  10
ENDBRANCH   1   9
BRANCH   7  16
HETATM   16  C7  UNL     1       9.783   1.257   8.068  1.00  0.00     0.062 C 
BRANCH  16  17
HETATM   17  C8  UNL     1      10.876   2.223   7.787  1.00  0.00     0.231 C 
BRANCH  17  18
HETATM   18  N4  UNL     1      10.750   3.514   8.398  1.00  0.00    -0.079 N 
ATOM     19  H43 UNL     1      10.110   3.460   9.190  1.00  0.00     0.274 HD
ATOM     20  H42 UNL     1      11.617   3.754   8.878  1.00  0.00     0.274 HD
ATOM     21  H41 UNL     1      10.474   4.278   7.781  1.00  0.00     0.274 HD
ENDBRANCH  17  18
ENDBRANCH  16  17
ENDBRANCH   7  16
TORSDOF 7
ENDMDL
MODEL 5
REMARK VINA RESULT: -4.770893796      1.790      5.569
REMARK  7 active torsions:
REMARK  status: ('A' for Active; 'I' for Inactive)
REMARK    1  A    between atoms: N1_1  and  C1_5 
REMARK    2  A    between atoms: C1_5  and  C2_6 
REMARK    3  A    between atoms: C2_6  and  C3_7 
REMARK    4  A    between atoms: C3_7  and  N2_8 
REMARK    5  A    between atoms: C6_14  and  C7_15 
REMARK    6  A    between atoms: C7_15  and  C8_16 
REMARK    7  A    between atoms: C8_16  and  N4_17 
ROOT
HETATM    1  N2  UNL     1       7.228   0.664   6.231  1.00  0.00     0.092 N 
HETATM    2  C4  UNL     1       7.624   0.522   7.625  1.00  0.00     0.300 C 
HETATM    3  C5  UNL     1       9.050   0.966   7.794  1.00  0.00     0.262 C 
HETATM    4  N3  UNL     1       9.845  -0.078   7.185  1.00  0.00    -0.068 N 
ATOM      5  H31 UNL     1       9.666  -1.003   7.576  1.00  0.00     0.277 HD
ATOM      6  H32 UNL     1      10.834  -0.026   7.430  1.00  0.00     0.277 HD
HETATM    7  C6  UNL     1       9.601  -0.001   5.748  1.00  0.00     0.215 C 
HETATM    8  C9  UNL     1       8.325   0.579   5.329  1.00  0.00     0.305 C 
ENDROOT
BRANCH   1   9
HETATM    9  C3  UNL     1       6.155  -0.261   5.919  1.00  0.00     0.274 C 
BRANCH   9  10
HETATM   10  C2  UNL     1       4.935   0.469   5.439  1.00  0.00     0.057 C 
BRANCH  10  11
HETATM   11  C1  UNL     1       3.724  -0.391   5.863  1.00  0.00     0.231 C 
BRANCH  11  12
HETATM   12  N1  UNL     1       2.742   0.506   6.413  1.00  0.00    -0.079 N 
ATOM     13  H13 UNL     1       1.900   0.579   5.841  1.00  0.00     0.274 HD
ATOM     14  H12 UNL     1       2.296   0.144   7.256  1.00  0.00     0.274 HD
ATOM     15  H11 UNL     1       3.205   1.403   6.559  1.00  0.00     0.274 HD
ENDBRANCH  11  12
ENDBRANCH  10  11
ENDBRANCH   9  10
ENDBRANCH   1   9
BRANCH   7  16
HETATM   16  C7  UNL     1      10.797   0.772   5.207  1.00  0.00     0.062 C 
BRANCH  16  17
HETATM   17  C8  UNL     1      12.036   0.642   6.014  1.00  0.00     0.231 C 
BRANCH  17  18
HETATM   18  N4  UNL     1      13.231   0.322   5.288  1.00  0.00    -0.079 N 
ATOM     19  H43 UNL     1      13.948   1.021   5.480  1.00  0.00     0.274 HD
ATOM     20  H42 UNL     1      13.668  -0.506   5.693  1.00  0.00     0.274 HD
ATOM     21  H41 UNL     1      13.126   0.201   4.281  1.00  0.00     0.274 HD
ENDBRANCH  17  18
ENDBRANCH  16  17
ENDBRANCH   7  16
TORSDOF 7
ENDMDL
