MODEL 1
REMARK VINA RESULT: -6.243500521      0.000      0.000
REMARK  5 active torsions:
REMARK  status: ('A' for Active; 'I' for Inactive)
REMARK    1  A    between atoms: C3_3  and  N1_4 
REMARK    2  A    between atoms: N1_4  and  C4_6 
REMARK    3  A    between atoms: C4_6  and  C5_7 
REMARK    4  A    between atoms: C5_7  and  N2_8 
REMARK    5  A    between atoms: N2_8  and  C6_10 
ROOT
HETATM    1  N1  UNL     1       6.728  -0.478   5.366  1.00  0.00    -0.415 N 
ATOM      2  H1  UNL     1       6.258  -1.064   4.676  1.00  0.00     0.153 HD
ENDROOT
BRANCH   1   3
HETATM    3  C3  UNL     1       8.024  -0.814   5.903  1.00  0.00     0.079 C 
HETATM    4  C2  UNL     1       9.037   0.127   5.350  1.00  0.00     0.052 C 
HETATM    5  C1  UNL     1      10.224   0.289   6.260  1.00  0.00     0.234 C 
HETATM    6  N4  UNL     1       9.684   0.893   7.484  1.00  0.00    -0.075 N 
HETATM    7  C10 UNL     1       8.992  -0.160   8.167  1.00  0.00     0.234 C 
ATOM      8  H42 UNL     1      10.389   1.357   8.056  1.00  0.00     0.277 HD
ATOM      9  H41 UNL     1       9.106   1.716   7.312  1.00  0.00     0.277 HD
HETATM   10  C9  UNL     1       7.932  -0.836   7.397  1.00  0.00     0.052 C 
ENDBRANCH   1   3
BRANCH   1  11
HETATM   11  C4  UNL     1       6.152   0.713   5.855  1.00  0.00     0.133 C 
BRANCH  11  12
HETATM   12  C5  UNL     1       4.622   0.602   5.824  1.00  0.00     0.133 C 
BRANCH  12  13
HETATM   13  N2  UNL     1       4.176  -0.672   6.187  1.00  0.00    -0.412 N 
ATOM     14  H2  UNL     1       4.656  -1.192   6.921  1.00  0.00     0.153 HD
BRANCH  13  15
HETATM   15  C6  UNL     1       3.070  -1.229   5.538  1.00  0.00     0.127 C 
HETATM   16  C7  UNL     1       2.022  -0.236   5.076  1.00  0.00     0.258 C 
HETATM   17  N3  UNL     1       1.001  -1.060   5.656  1.00  0.00    -0.071 N 
HETATM   18  C8  UNL     1       1.979  -1.797   6.406  1.00  0.00     0.258 C 
ATOM     19  H32 UNL     1       0.220  -0.622   6.145  1.00  0.00     0.277 HD
ATOM     20  H31 UNL     1       0.354  -1.561   5.048  1.00  0.00     0.277 HD
ENDBRANCH  13  15
ENDBRANCH  12  13
ENDBRANCH  11  12
ENDBRANCH   1  11
TORSDOF 5
ENDMDL
MODEL 2
REMARK VINA RESULT: -5.754724700      1.506      6.335
REMARK  5 active torsions:
REMARK  status: ('A' for Active; 'I' for Inactive)
REMARK    1  A    between atoms: C3_3  and  N1_4 
REMARK    2  A    between atoms: N1_4  and  C4_6 
REMARK    3  A    between atoms: C4_6  and  C5_7 
REMARK    4  A    between atoms: C5_7  and  N2_8 
REMARK    5  A    between atoms: N2_8  and  C6_10 
ROOT
HETATM    1  N1  UNL     1       2.683   0.219   6.099  1.00  0.00    -0.415 N 
ATOM      2  H1  UNL     1       2.597   0.794   6.937  1.00  0.00     0.153 HD
ENDROOT
BRANCH   1   3
HETATM    3  C3  UNL     1       1.725  -0.809   5.772  1.00  0.00     0.079 C 
HETATM    4  C2  UNL     1       1.407  -0.730   4.319  1.00  0.00     0.052 C 
HETATM    5  C1  UNL     1       0.957  -2.052   3.760  1.00  0.00     0.234 C 
HETATM    6  N4  UNL     1       2.115  -2.940   3.909  1.00  0.00    -0.075 N 
HETATM    7  C10 UNL     1       2.178  -3.271   5.302  1.00  0.00     0.234 C 
ATOM      8  H42 UNL     1       2.086  -3.756   3.296  1.00  0.00     0.277 HD
ATOM      9  H41 UNL     1       2.982  -2.545   3.544  1.00  0.00     0.277 HD
HETATM   10  C9  UNL     1       2.263  -2.128   6.229  1.00  0.00     0.052 C 
ENDBRANCH   1   3
BRANCH   1  11
HETATM   11  C4  UNL     1       3.748   0.377   5.187  1.00  0.00     0.133 C 
BRANCH  11  12
HETATM   12  C5  UNL     1       5.068   0.544   5.952  1.00  0.00     0.133 C 
BRANCH  12  13
HETATM   13  N2  UNL     1       5.605  -0.681   6.355  1.00  0.00    -0.412 N 
ATOM     14  H2  UNL     1       5.012  -1.378   6.806  1.00  0.00     0.153 HD
BRANCH  13  15
HETATM   15  C6  UNL     1       6.960  -0.948   6.136  1.00  0.00     0.127 C 
HETATM   16  C7  UNL     1       7.894  -0.515   7.250  1.00  0.00     0.258 C 
HETATM   17  N3  UNL     1       8.752   0.098   6.278  1.00  0.00    -0.071 N 
HETATM   18  C8  UNL     1       7.723   0.027   5.279  1.00  0.00     0.258 C 
ATOM     19  H32 UNL     1       9.186   0.997   6.488  1.00  0.00     0.277 HD
ATOM     20  H31 UNL     1       9.666  -0.312   6.086  1.00  0.00     0.277 HD
ENDBRANCH  13  15
ENDBRANCH  12  13
ENDBRANCH  11  12
ENDBRANCH   1  11
TORSDOF 5
ENDMDL
MODEL 3
REMARK VINA RESULT: -5.748448935      0.991      1.210
REMARK  5 active torsions:
REMARK  status: ('A' for Active; 'I' for Inactive)
REMARK    1  A    between atoms: C3_3  and  N1_4 
REMARK    2  A    between atoms: N1_4  and  C4_6 
REMARK    3  A    between atoms: C4_6  and  C5_7 
REMARK    4  A    between atoms: C5_7  and  N2_8 
REMARK    5  A    between atoms: N2_8  and  C6_10 
ROOT
HETATM    1  N1  UNL     1       6.295   0.964   6.810  1.00  0.00    -0.415 N 
ATOM      2  H1  UNL     1       6.069   1.584   7.588  1.00  0.00     0.153 HD
ENDROOT
BRANCH   1   3
HETATM    3  C3  UNL     1       7.389   0.026   6.871  1.00  0.00     0.079 C 
HETATM    4  C2  UNL     1       7.780  -0.352   5.484  1.00  0.00     0.052 C 
HETATM    5  C1  UNL     1       9.219  -0.783   5.393  1.00  0.00     0.234 C 
HETATM    6  N4  UNL     1       9.995   0.408   5.760  1.00  0.00    -0.075 N 
HETATM    7  C10 UNL     1       9.865   0.536   7.182  1.00  0.00     0.234 C 
ATOM      8  H42 UNL     1      10.962   0.379   5.439  1.00  0.00     0.277 HD
ATOM      9  H41 UNL     1       9.721   1.247   5.248  1.00  0.00     0.277 HD
HETATM   10  C9  UNL     1       8.487   0.622   7.694  1.00  0.00     0.052 C 
ENDBRANCH   1   3
BRANCH   1  11
HETATM   11  C4  UNL     1       5.557   0.968   5.608  1.00  0.00     0.133 C 
BRANCH  11  12
HETATM   12  C5  UNL     1       4.084   0.648   5.901  1.00  0.00     0.133 C 
BRANCH  12  13
HETATM   13  N2  UNL     1       3.875  -0.715   6.129  1.00  0.00    -0.412 N 
ATOM     14  H2  UNL     1       4.500  -1.233   6.745  1.00  0.00     0.153 HD
BRANCH  13  15
HETATM   15  C6  UNL     1       2.804  -1.363   5.507  1.00  0.00     0.127 C 
HETATM   16  C7  UNL     1       1.715  -0.452   4.974  1.00  0.00     0.258 C 
HETATM   17  N3  UNL     1       0.728  -1.286   5.597  1.00  0.00    -0.071 N 
HETATM   18  C8  UNL     1       1.730  -1.927   6.401  1.00  0.00     0.258 C 
ATOM     19  H32 UNL     1      -0.079  -0.856   6.050  1.00  0.00     0.277 HD
ATOM     20  H31 UNL     1       0.112  -1.855   5.016  1.00  0.00     0.277 HD
ENDBRANCH  13  15
ENDBRANCH  12  13
ENDBRANCH  11  12
ENDBRANCH   1  11
TORSDOF 5
ENDMDL
MODEL 4
REMARK VINA RESULT: -5.542450996      1.112      1.483
REMARK  5 active torsions:
REMARK  status: ('A' for Active; 'I' for Inactive)
REMARK    1  A    between atoms: C3_3  and  N1_4 
REMARK    2  A    between atoms: N1_4  and  C4_6 
REMARK    3  A    between atoms: C4_6  and  C5_7 
REMARK    4  A    between atoms: C5_7  and  N2_8 
REMARK    5  A    between atoms: N2_8  and  C6_10 
ROOT
HETATM    1  N1  UNL     1       7.093   0.481   6.893  1.00  0.00    -0.415 N 
ATOM      2  H1  UNL     1       6.683   1.226   7.456  1.00  0.00     0.153 HD
ENDROOT
BRANCH   1   3
HETATM    3  C3  UNL     1       8.454   0.040   7.079  1.00  0.00     0.079 C 
HETATM    4  C2  UNL     1       9.143   0.023   5.759  1.00  0.00     0.052 C 
HETATM    5  C1  UNL     1      10.632   0.197   5.889  1.00  0.00     0.234 C 
HETATM    6  N4  UNL     1      10.808   1.538   6.460  1.00  0.00    -0.075 N 
HETATM    7  C10 UNL     1      10.452   1.423   7.844  1.00  0.00     0.234 C 
ATOM      8  H42 UNL     1      11.739   1.927   6.309  1.00  0.00     0.277 HD
ATOM      9  H41 UNL     1      10.290   2.264   5.965  1.00  0.00     0.277 HD
HETATM   10  C9  UNL     1       9.100   0.903   8.117  1.00  0.00     0.052 C 
ENDBRANCH   1   3
BRANCH   1  11
HETATM   11  C4  UNL     1       6.366  -0.183   5.883  1.00  0.00     0.133 C 
BRANCH  11  12
HETATM   12  C5  UNL     1       5.134   0.647   5.497  1.00  0.00     0.133 C 
BRANCH  12  13
HETATM   13  N2  UNL     1       4.085  -0.149   5.030  1.00  0.00    -0.412 N 
ATOM     14  H2  UNL     1       4.211  -0.725   4.197  1.00  0.00     0.153 HD
BRANCH  13  15
HETATM   15  C6  UNL     1       2.863  -0.153   5.709  1.00  0.00     0.127 C 
HETATM   16  C7  UNL     1       2.436  -1.497   6.267  1.00  0.00     0.258 C 
HETATM   17  N3  UNL     1       1.131  -1.303   5.704  1.00  0.00    -0.071 N 
HETATM   18  C8  UNL     1       1.613  -0.236   4.873  1.00  0.00     0.258 C 
ATOM     19  H32 UNL     1       0.648  -2.093   5.275  1.00  0.00     0.277 HD
ATOM     20  H31 UNL     1       0.337  -1.138   6.322  1.00  0.00     0.277 HD
ENDBRANCH  13  15
ENDBRANCH  12  13
ENDBRANCH  11  12
ENDBRANCH   1  11
TORSDOF 5
ENDMDL
MODEL 5
REMARK VINA RESULT: -5.541382753      1.853      6.811
REMARK  5 active torsions:
REMARK  status: ('A' for Active; 'I' for Inactive)
REMARK    1  A    between atoms: C3_3  and  N1_4 
REMARK    2  A    between atoms: N1_4  and  C4_6 
REMARK    3  A    between atoms: C4_6  and  C5_7 
REMARK    4  A    between atoms: C5_7  and  N2_8 
REMARK    5  A    between atoms: N2_8  and  C6_10 
ROOT
HETATM    1  N1  UNL     1       3.095  -1.630   5.827  1.00  0.00    -0.415 N 
ATOM      2  H1  UNL     1       3.809  -2.078   6.401  1.00  0.00     0.153 HD
ENDROOT
BRANCH   1   3
HETATM    3  C3  UNL     1       2.098  -2.390   5.112  1.00  0.00     0.079 C 
HETATM    4  C2  UNL     1       2.248  -3.831   5.456  1.00  0.00     0.052 C 
HETATM    5  C1  UNL     1       0.960  -4.593   5.300  1.00  0.00     0.234 C 
HETATM    6  N4  UNL     1       0.047  -3.999   6.284  1.00  0.00    -0.075 N 
HETATM    7  C10 UNL     1      -0.347  -2.733   5.737  1.00  0.00     0.234 C 
ATOM      8  H42 UNL     1      -0.739  -4.601   6.528  1.00  0.00     0.277 HD
ATOM      9  H41 UNL     1       0.445  -3.932   7.221  1.00  0.00     0.277 HD
HETATM   10  C9  UNL     1       0.751  -1.808   5.406  1.00  0.00     0.052 C 
ENDBRANCH   1   3
BRANCH   1  11
HETATM   11  C4  UNL     1       3.017  -0.229   5.684  1.00  0.00     0.133 C 
BRANCH  11  12
HETATM   12  C5  UNL     1       4.427   0.375   5.709  1.00  0.00     0.133 C 
BRANCH  12  13
HETATM   13  N2  UNL     1       5.394  -0.553   6.105  1.00  0.00    -0.412 N 
ATOM     14  H2  UNL     1       5.140  -1.531   6.240  1.00  0.00     0.153 HD
BRANCH  13  15
HETATM   15  C6  UNL     1       6.711  -0.133   6.315  1.00  0.00     0.127 C 
HETATM   16  C7  UNL     1       7.607  -0.172   5.092  1.00  0.00     0.258 C 
HETATM   17  N3  UNL     1       8.615  -0.838   5.866  1.00  0.00    -0.071 N 
HETATM   18  C8  UNL     1       7.667  -1.139   6.901  1.00  0.00     0.258 C 
ATOM     19  H32 UNL     1       9.153  -1.595   5.444  1.00  0.00     0.277 HD
ATOM     20  H31 UNL     1       9.475  -0.343   6.102  1.00  0.00     0.277 HD
ENDBRANCH  13  15
ENDBRANCH  12  13
ENDBRANCH  11  12
ENDBRANCH   1  11
TORSDOF 5
ENDMDL
