MODEL 1
REMARK VINA RESULT: -6.398277973      0.000      0.000
REMARK  2 active torsions:
REMARK  status: ('A' for Active; 'I' for Inactive)
REMARK    1  A    between atoms: C5_7  and  N2_8 
REMARK    2  A    between atoms: N2_8  and  C6_10 
ROOT
HETATM    1  C1  UNL     1      17.964  40.462  33.190  1.00  0.00     0.056 C 
HETATM    2  C2  UNL     1      19.115  40.978  34.035  1.00  0.00    -0.018 A 
HETATM    3  C3  UNL     1      19.129  41.099  35.385  1.00  0.00     0.045 A 
HETATM    4  C4  UNL     1      20.280  41.592  35.979  1.00  0.00     0.059 A 
HETATM    5  N1  UNL     1      20.600  41.822  37.259  1.00  0.00    -0.335 N 
ATOM      6  H1  UNL     1      19.928  41.628  38.002  1.00  0.00     0.168 HD
HETATM    7  C5  UNL     1      21.796  42.303  37.546  1.00  0.00     0.148 A 
HETATM    8  S1  UNL     1      22.560  42.467  36.041  1.00  0.00    -0.045 SA
HETATM    9  C11 UNL     1      21.269  41.893  35.077  1.00  0.00     0.076 A 
HETATM   10  S2  UNL     1      20.643  41.520  33.528  1.00  0.00    -0.085 SA
ENDROOT
BRANCH   7  11
HETATM   11  N2  UNL     1      22.252  42.578  38.757  1.00  0.00    -0.342 N 
ATOM     12  H2  UNL     1      22.915  43.331  38.938  1.00  0.00     0.164 HD
BRANCH  11  13
HETATM   13  C6  UNL     1      21.733  41.725  39.808  1.00  0.00     0.249 C 
HETATM   14  C7  UNL     1      22.511  41.922  41.092  1.00  0.00     0.084 C 
HETATM   15  C8  UNL     1      21.401  41.905  42.116  1.00  0.00     0.054 C 
HETATM   16  C9  UNL     1      21.567  43.068  43.074  1.00  0.00     0.036 C 
HETATM   17  C10 UNL     1      21.390  40.575  42.880  1.00  0.00     0.036 C 
HETATM   18  N3  UNL     1      20.188  41.966  41.369  1.00  0.00    -0.089 NA
HETATM   19  O1  UNL     1      20.438  42.148  40.080  1.00  0.00    -0.260 OA
ENDBRANCH  11  13
ENDBRANCH   7  11
TORSDOF 2
ENDMDL
MODEL 2
REMARK VINA RESULT: -6.358695523      2.414      3.496
REMARK  2 active torsions:
REMARK  status: ('A' for Active; 'I' for Inactive)
REMARK    1  A    between atoms: C5_7  and  N2_8 
REMARK    2  A    between atoms: N2_8  and  C6_10 
ROOT
HETATM    1  C1  UNL     1      25.145  44.576  33.182  1.00  0.00     0.056 C 
HETATM    2  C2  UNL     1      24.019  44.049  34.054  1.00  0.00    -0.018 A 
HETATM    3  C3  UNL     1      24.033  43.941  35.405  1.00  0.00     0.045 A 
HETATM    4  C4  UNL     1      22.903  43.435  36.025  1.00  0.00     0.059 A 
HETATM    5  N1  UNL     1      22.611  43.213  37.314  1.00  0.00    -0.335 N 
ATOM      6  H1  UNL     1      23.293  43.426  38.042  1.00  0.00     0.168 HD
HETATM    7  C5  UNL     1      21.429  42.715  37.629  1.00  0.00     0.148 A 
HETATM    8  S1  UNL     1      20.639  42.521  36.140  1.00  0.00    -0.045 SA
HETATM    9  C11 UNL     1      21.902  43.107  35.146  1.00  0.00     0.076 A 
HETATM   10  S2  UNL     1      22.492  43.475  33.581  1.00  0.00    -0.085 SA
ENDROOT
BRANCH   7  11
HETATM   11  N2  UNL     1      21.001  42.444  38.851  1.00  0.00    -0.342 N 
ATOM     12  H2  UNL     1      20.379  41.662  39.056  1.00  0.00     0.164 HD
BRANCH  11  13
HETATM   13  C6  UNL     1      21.487  43.346  39.876  1.00  0.00     0.249 C 
HETATM   14  C7  UNL     1      20.729  43.144  41.171  1.00  0.00     0.084 C 
HETATM   15  C8  UNL     1      21.846  43.238  42.185  1.00  0.00     0.054 C 
HETATM   16  C9  UNL     1      21.743  42.092  43.172  1.00  0.00     0.036 C 
HETATM   17  C10 UNL     1      21.799  44.586  42.916  1.00  0.00     0.036 C 
HETATM   18  N3  UNL     1      23.054  43.216  41.429  1.00  0.00    -0.089 NA
HETATM   19  O1  UNL     1      22.802  42.992  40.147  1.00  0.00    -0.260 OA
ENDBRANCH  11  13
ENDBRANCH   7  11
TORSDOF 2
ENDMDL
MODEL 3
REMARK VINA RESULT: -6.145986418      2.640      3.580
REMARK  2 active torsions:
REMARK  status: ('A' for Active; 'I' for Inactive)
REMARK    1  A    between atoms: C5_7  and  N2_8 
REMARK    2  A    between atoms: N2_8  and  C6_10 
ROOT
HETATM    1  C1  UNL     1      25.649  44.206  33.514  1.00  0.00     0.056 C 
HETATM    2  C2  UNL     1      24.407  44.052  34.375  1.00  0.00    -0.018 A 
HETATM    3  C3  UNL     1      24.233  43.158  35.379  1.00  0.00     0.045 A 
HETATM    4  C4  UNL     1      23.023  43.172  36.053  1.00  0.00     0.059 A 
HETATM    5  N1  UNL     1      22.556  42.435  37.070  1.00  0.00    -0.335 N 
ATOM      6  H1  UNL     1      23.131  41.703  37.485  1.00  0.00     0.168 HD
HETATM    7  C5  UNL     1      21.338  42.670  37.528  1.00  0.00     0.148 A 
HETATM    8  S1  UNL     1      20.761  43.942  36.565  1.00  0.00    -0.045 SA
HETATM    9  C11 UNL     1      22.152  44.122  35.586  1.00  0.00     0.076 A 
HETATM   10  S2  UNL     1      22.956  44.931  34.308  1.00  0.00    -0.085 SA
ENDROOT
BRANCH   7  11
HETATM   11  N2  UNL     1      20.746  42.028  38.521  1.00  0.00    -0.342 N 
ATOM     12  H2  UNL     1      20.033  41.314  38.367  1.00  0.00     0.164 HD
BRANCH  11  13
HETATM   13  C6  UNL     1      21.189  42.418  39.845  1.00  0.00     0.249 C 
HETATM   14  C7  UNL     1      20.442  41.643  40.910  1.00  0.00     0.084 C 
HETATM   15  C8  UNL     1      21.553  41.338  41.887  1.00  0.00     0.054 C 
HETATM   16  C9  UNL     1      21.505  39.874  42.279  1.00  0.00     0.036 C 
HETATM   17  C10 UNL     1      21.443  42.233  43.127  1.00  0.00     0.036 C 
HETATM   18  N3  UNL     1      22.761  41.697  41.220  1.00  0.00    -0.089 NA
HETATM   19  O1  UNL     1      22.520  42.038  39.961  1.00  0.00    -0.260 OA
ENDBRANCH  11  13
ENDBRANCH   7  11
TORSDOF 2
ENDMDL
MODEL 4
REMARK VINA RESULT: -5.801771746      1.582      1.977
REMARK  2 active torsions:
REMARK  status: ('A' for Active; 'I' for Inactive)
REMARK    1  A    between atoms: C5_7  and  N2_8 
REMARK    2  A    between atoms: N2_8  and  C6_10 
ROOT
HETATM    1  C1  UNL     1      19.817  40.420  32.148  1.00  0.00     0.056 C 
HETATM    2  C2  UNL     1      20.320  41.018  33.450  1.00  0.00    -0.018 A 
HETATM    3  C3  UNL     1      19.955  40.642  34.700  1.00  0.00     0.045 A 
HETATM    4  C4  UNL     1      20.528  41.311  35.770  1.00  0.00     0.059 A 
HETATM    5  N1  UNL     1      20.380  41.175  37.094  1.00  0.00    -0.335 N 
ATOM      6  H1  UNL     1      19.744  40.474  37.474  1.00  0.00     0.168 HD
HETATM    7  C5  UNL     1      21.069  41.962  37.902  1.00  0.00     0.148 A 
HETATM    8  S1  UNL     1      21.974  42.950  36.862  1.00  0.00    -0.045 SA
HETATM    9  C11 UNL     1      21.411  42.288  35.388  1.00  0.00     0.076 A 
HETATM   10  S2  UNL     1      21.439  42.276  33.676  1.00  0.00    -0.085 SA
ENDROOT
BRANCH   7  11
HETATM   11  N2  UNL     1      21.027  41.944  39.224  1.00  0.00    -0.342 N 
ATOM     12  H2  UNL     1      20.644  41.159  39.751  1.00  0.00     0.164 HD
BRANCH  11  13
HETATM   13  C6  UNL     1      21.568  43.127  39.863  1.00  0.00     0.249 C 
HETATM   14  C7  UNL     1      20.781  43.470  41.110  1.00  0.00     0.084 C 
HETATM   15  C8  UNL     1      21.888  43.858  42.061  1.00  0.00     0.054 C 
HETATM   16  C9  UNL     1      21.685  43.168  43.396  1.00  0.00     0.036 C 
HETATM   17  C10 UNL     1      21.937  45.380  42.243  1.00  0.00     0.036 C 
HETATM   18  N3  UNL     1      23.100  43.476  41.416  1.00  0.00    -0.089 NA
HETATM   19  O1  UNL     1      22.848  42.810  40.298  1.00  0.00    -0.260 OA
ENDBRANCH  11  13
ENDBRANCH   7  11
TORSDOF 2
ENDMDL
MODEL 5
REMARK VINA RESULT: -5.791718950      2.002      2.741
REMARK  2 active torsions:
REMARK  status: ('A' for Active; 'I' for Inactive)
REMARK    1  A    between atoms: C5_7  and  N2_8 
REMARK    2  A    between atoms: N2_8  and  C6_10 
ROOT
HETATM    1  C1  UNL     1      23.298  44.577  32.045  1.00  0.00     0.056 C 
HETATM    2  C2  UNL     1      22.830  43.975  33.358  1.00  0.00    -0.018 A 
HETATM    3  C3  UNL     1      23.188  44.383  34.601  1.00  0.00     0.045 A 
HETATM    4  C4  UNL     1      22.652  43.705  35.683  1.00  0.00     0.059 A 
HETATM    5  N1  UNL     1      22.804  43.864  37.004  1.00  0.00    -0.335 N 
ATOM      6  H1  UNL     1      23.412  44.597  37.370  1.00  0.00     0.168 HD
HETATM    7  C5  UNL     1      22.155  43.060  37.828  1.00  0.00     0.148 A 
HETATM    8  S1  UNL     1      21.285  42.020  36.808  1.00  0.00    -0.045 SA
HETATM    9  C11 UNL     1      21.809  42.686  35.321  1.00  0.00     0.076 A 
HETATM   10  S2  UNL     1      21.768  42.674  33.610  1.00  0.00    -0.085 SA
ENDROOT
BRANCH   7  11
HETATM   11  N2  UNL     1      22.206  43.097  39.149  1.00  0.00    -0.342 N 
ATOM     12  H2  UNL     1      22.580  43.895  39.663  1.00  0.00     0.164 HD
BRANCH  11  13
HETATM   13  C6  UNL     1      21.688  41.915  39.809  1.00  0.00     0.249 C 
HETATM   14  C7  UNL     1      22.493  41.600  41.053  1.00  0.00     0.084 C 
HETATM   15  C8  UNL     1      21.400  41.208  42.020  1.00  0.00     0.054 C 
HETATM   16  C9  UNL     1      21.606  41.918  43.343  1.00  0.00     0.036 C 
HETATM   17  C10 UNL     1      21.376  39.688  42.221  1.00  0.00     0.036 C 
HETATM   18  N3  UNL     1      20.176  41.563  41.381  1.00  0.00    -0.089 NA
HETATM   19  O1  UNL     1      20.408  42.218  40.252  1.00  0.00    -0.260 OA
ENDBRANCH  11  13
ENDBRANCH   7  11
TORSDOF 2
ENDMDL
