MODEL 1
REMARK VINA RESULT: -5.908499791      0.000      0.000
REMARK  1 active torsions:
REMARK  status: ('A' for Active; 'I' for Inactive)
REMARK    1  A    between atoms: C6_8  and  C7_9 
ROOT
HETATM    1  C7  UNL     1      15.308  40.249  29.830  1.00  0.00    -0.019 C 
HETATM    2  C8  UNL     1      14.459  39.059  29.728  1.00  0.00     0.181 C 
HETATM    3  C9  UNL     1      14.056  38.423  30.943  1.00  0.00     0.075 C 
HETATM    4  N2  UNL     1      13.727  37.892  31.891  1.00  0.00    -0.196 NA
HETATM    5  C10 UNL     1      14.956  38.080  28.731  1.00  0.00     0.068 C 
HETATM    6  N3  UNL     1      14.256  37.180  28.241  1.00  0.00    -0.395 N 
ATOM      7  H31 UNL     1      14.598  36.506  27.555  1.00  0.00     0.156 HD
ATOM      8  H32 UNL     1      13.287  37.035  28.521  1.00  0.00     0.156 HD
HETATM    9  S1  UNL     1      16.648  38.332  28.241  1.00  0.00    -0.061 SA
HETATM   10  C11 UNL     1      16.567  40.065  27.658  1.00  0.00     0.068 C 
HETATM   11  N4  UNL     1      17.072  40.434  26.601  1.00  0.00    -0.395 N 
ATOM     12  H41 UNL     1      17.027  41.401  26.276  1.00  0.00     0.156 HD
ATOM     13  H42 UNL     1      17.585  39.836  25.953  1.00  0.00     0.156 HD
HETATM   14  C12 UNL     1      15.801  40.958  28.626  1.00  0.00     0.181 C 
HETATM   15  C13 UNL     1      16.889  41.921  29.071  1.00  0.00     0.075 C 
HETATM   16  N5  UNL     1      17.700  42.667  29.424  1.00  0.00    -0.196 NA
ENDROOT
BRANCH   1  17
HETATM   17  C6  UNL     1      15.182  41.088  31.048  1.00  0.00    -0.001 A 
HETATM   18  C2  UNL     1      14.278  42.133  31.235  1.00  0.00    -0.034 A 
HETATM   19  C1  UNL     1      13.145  42.503  30.380  1.00  0.00     0.050 C 
HETATM   20  C3  UNL     1      14.636  42.735  32.416  1.00  0.00     0.095 A 
HETATM   21  N1  UNL     1      15.678  42.153  32.967  1.00  0.00    -0.368 N 
HETATM   22  C4  UNL     1      16.046  41.128  32.148  1.00  0.00     0.016 A 
ATOM     23  H1  UNL     1      16.126  42.419  33.843  1.00  0.00     0.165 HD
HETATM   24  C5  UNL     1      17.269  40.319  32.392  1.00  0.00     0.069 C 
ENDBRANCH   1  17
TORSDOF 1
ENDMDL
MODEL 2
REMARK VINA RESULT: -5.881723425      0.564      1.884
REMARK  1 active torsions:
REMARK  status: ('A' for Active; 'I' for Inactive)
REMARK    1  A    between atoms: C6_8  and  C7_9 
ROOT
HETATM    1  C7  UNL     1      15.584  40.329  29.665  1.00  0.00    -0.019 C 
HETATM    2  C8  UNL     1      14.712  39.151  29.641  1.00  0.00     0.181 C 
HETATM    3  C9  UNL     1      14.223  38.661  30.891  1.00  0.00     0.075 C 
HETATM    4  N2  UNL     1      13.824  38.243  31.869  1.00  0.00    -0.196 NA
HETATM    5  C10 UNL     1      15.242  38.058  28.788  1.00  0.00     0.068 C 
HETATM    6  N3  UNL     1      14.550  37.123  28.358  1.00  0.00    -0.395 N 
ATOM      7  H31 UNL     1      14.914  36.372  27.772  1.00  0.00     0.156 HD
ATOM      8  H32 UNL     1      13.562  37.029  28.592  1.00  0.00     0.156 HD
HETATM    9  S1  UNL     1      16.966  38.223  28.379  1.00  0.00    -0.061 SA
HETATM   10  C11 UNL     1      16.964  39.883  27.607  1.00  0.00     0.068 C 
HETATM   11  N4  UNL     1      17.539  40.124  26.549  1.00  0.00    -0.395 N 
ATOM     12  H41 UNL     1      17.538  41.049  26.119  1.00  0.00     0.156 HD
ATOM     13  H42 UNL     1      18.074  39.449  26.003  1.00  0.00     0.156 HD
HETATM   14  C12 UNL     1      16.165  40.891  28.423  1.00  0.00     0.181 C 
HETATM   15  C13 UNL     1      17.248  41.877  28.827  1.00  0.00     0.075 C 
HETATM   16  N5  UNL     1      18.056  42.642  29.145  1.00  0.00    -0.196 NA
ENDROOT
BRANCH   1  17
HETATM   17  C6  UNL     1      15.407  41.299  30.774  1.00  0.00    -0.001 A 
HETATM   18  C2  UNL     1      16.104  41.302  31.981  1.00  0.00    -0.034 A 
HETATM   19  C1  UNL     1      17.276  40.496  32.343  1.00  0.00     0.050 C 
HETATM   20  C3  UNL     1      15.495  42.249  32.767  1.00  0.00     0.095 A 
HETATM   21  N1  UNL     1      14.489  42.825  32.149  1.00  0.00    -0.368 N 
HETATM   22  C4  UNL     1      14.401  42.263  30.910  1.00  0.00     0.016 A 
ATOM     23  H1  UNL     1      13.886  43.556  32.526  1.00  0.00     0.165 HD
HETATM   24  C5  UNL     1      13.296  42.583  29.970  1.00  0.00     0.069 C 
ENDBRANCH   1  17
TORSDOF 1
ENDMDL
MODEL 3
REMARK VINA RESULT: -5.569530796      1.035      2.114
REMARK  1 active torsions:
REMARK  status: ('A' for Active; 'I' for Inactive)
REMARK    1  A    between atoms: C6_8  and  C7_9 
ROOT
HETATM    1  C7  UNL     1      15.453  40.632  29.762  1.00  0.00    -0.019 C 
HETATM    2  C8  UNL     1      14.326  39.696  29.736  1.00  0.00     0.181 C 
HETATM    3  C9  UNL     1      14.203  38.772  30.818  1.00  0.00     0.075 C 
HETATM    4  N2  UNL     1      14.083  38.020  31.660  1.00  0.00    -0.196 NA
HETATM    5  C10 UNL     1      14.159  39.031  28.419  1.00  0.00     0.068 C 
HETATM    6  N3  UNL     1      13.114  38.468  28.059  1.00  0.00    -0.395 N 
ATOM      7  H31 UNL     1      13.000  38.011  27.155  1.00  0.00     0.156 HD
ATOM      8  H32 UNL     1      12.299  38.400  28.668  1.00  0.00     0.156 HD
HETATM    9  S1  UNL     1      15.582  39.151  27.356  1.00  0.00    -0.061 SA
HETATM   10  C11 UNL     1      15.791  40.969  27.290  1.00  0.00     0.068 C 
HETATM   11  N4  UNL     1      15.985  41.577  26.241  1.00  0.00    -0.395 N 
ATOM     12  H41 UNL     1      16.102  42.590  26.205  1.00  0.00     0.156 HD
ATOM     13  H42 UNL     1      16.058  41.149  25.318  1.00  0.00     0.156 HD
HETATM   14  C12 UNL     1      15.681  41.606  28.669  1.00  0.00     0.181 C 
HETATM   15  C13 UNL     1      17.077  42.180  28.847  1.00  0.00     0.075 C 
HETATM   16  N5  UNL     1      18.134  42.626  29.004  1.00  0.00    -0.196 NA
ENDROOT
BRANCH   1  17
HETATM   17  C6  UNL     1      15.989  41.034  31.087  1.00  0.00    -0.001 A 
HETATM   18  C2  UNL     1      17.077  40.458  31.741  1.00  0.00    -0.034 A 
HETATM   19  C1  UNL     1      18.038  39.490  31.202  1.00  0.00     0.050 C 
HETATM   20  C3  UNL     1      17.098  41.013  32.997  1.00  0.00     0.095 A 
HETATM   21  N1  UNL     1      16.121  41.875  33.170  1.00  0.00    -0.368 N 
HETATM   22  C4  UNL     1      15.410  41.915  32.008  1.00  0.00     0.016 A 
ATOM     23  H1  UNL     1      15.931  42.412  34.015  1.00  0.00     0.165 HD
HETATM   24  C5  UNL     1      14.152  42.694  31.875  1.00  0.00     0.069 C 
ENDBRANCH   1  17
TORSDOF 1
ENDMDL
MODEL 4
REMARK VINA RESULT: -5.454796490      0.881      3.424
REMARK  1 active torsions:
REMARK  status: ('A' for Active; 'I' for Inactive)
REMARK    1  A    between atoms: C6_8  and  C7_9 
ROOT
HETATM    1  C7  UNL     1      15.952  40.554  29.829  1.00  0.00    -0.019 C 
HETATM    2  C8  UNL     1      16.963  41.177  28.970  1.00  0.00     0.181 C 
HETATM    3  C9  UNL     1      17.095  42.598  29.021  1.00  0.00     0.075 C 
HETATM    4  N2  UNL     1      17.218  43.727  29.034  1.00  0.00    -0.196 NA
HETATM    5  C10 UNL     1      16.921  40.675  27.574  1.00  0.00     0.068 C 
HETATM    6  N3  UNL     1      17.856  40.800  26.769  1.00  0.00    -0.395 N 
ATOM      7  H31 UNL     1      17.828  40.455  25.809  1.00  0.00     0.156 HD
ATOM      8  H32 UNL     1      18.717  41.290  27.011  1.00  0.00     0.156 HD
HETATM    9  S1  UNL     1      15.418  39.820  27.150  1.00  0.00    -0.061 SA
HETATM   10  C11 UNL     1      15.402  38.525  28.444  1.00  0.00     0.068 C 
HETATM   11  N4  UNL     1      15.168  37.344  28.199  1.00  0.00    -0.395 N 
ATOM     12  H41 UNL     1      15.159  36.623  28.920  1.00  0.00     0.156 HD
ATOM     13  H42 UNL     1      14.955  36.966  27.276  1.00  0.00     0.156 HD
HETATM   14  C12 UNL     1      15.720  39.091  29.822  1.00  0.00     0.181 C 
HETATM   15  C13 UNL     1      14.420  38.826  30.563  1.00  0.00     0.075 C 
HETATM   16  N5  UNL     1      13.440  38.634  31.148  1.00  0.00    -0.196 NA
ENDROOT
BRANCH   1  17
HETATM   17  C6  UNL     1      15.601  41.242  31.096  1.00  0.00    -0.001 A 
HETATM   18  C2  UNL     1      14.577  42.172  31.269  1.00  0.00    -0.034 A 
HETATM   19  C1  UNL     1      13.515  42.525  30.321  1.00  0.00     0.050 C 
HETATM   20  C3  UNL     1      14.735  42.676  32.537  1.00  0.00     0.095 A 
HETATM   21  N1  UNL     1      15.763  42.137  33.155  1.00  0.00    -0.368 N 
HETATM   22  C4  UNL     1      16.327  41.244  32.293  1.00  0.00     0.016 A 
ATOM     23  H1  UNL     1      16.079  42.349  34.101  1.00  0.00     0.165 HD
HETATM   24  C5  UNL     1      17.593  40.531  32.607  1.00  0.00     0.069 C 
ENDBRANCH   1  17
TORSDOF 1
ENDMDL
MODEL 5
REMARK VINA RESULT: -5.290696658     10.840     13.191
REMARK  1 active torsions:
REMARK  status: ('A' for Active; 'I' for Inactive)
REMARK    1  A    between atoms: C6_8  and  C7_9 
ROOT
HETATM    1  C7  UNL     1      27.161  44.918  29.519  1.00  0.00    -0.019 C 
HETATM    2  C8  UNL     1      28.033  46.097  29.493  1.00  0.00     0.181 C 
HETATM    3  C9  UNL     1      28.701  46.458  30.703  1.00  0.00     0.075 C 
HETATM    4  N2  UNL     1      29.239  46.774  31.652  1.00  0.00    -0.196 NA
HETATM    5  C10 UNL     1      27.398  47.269  28.841  1.00  0.00     0.068 C 
HETATM    6  N3  UNL     1      28.031  48.247  28.415  1.00  0.00    -0.395 N 
ATOM      7  H31 UNL     1      27.594  49.053  27.967  1.00  0.00     0.156 HD
ATOM      8  H32 UNL     1      29.042  48.321  28.514  1.00  0.00     0.156 HD
HETATM    9  S1  UNL     1      25.631  47.139  28.668  1.00  0.00    -0.061 SA
HETATM   10  C11 UNL     1      25.506  45.568  27.737  1.00  0.00     0.068 C 
HETATM   11  N4  UNL     1      24.783  45.435  26.753  1.00  0.00    -0.395 N 
ATOM     12  H41 UNL     1      24.714  44.559  26.235  1.00  0.00     0.156 HD
ATOM     13  H42 UNL     1      24.183  46.161  26.362  1.00  0.00     0.156 HD
HETATM   14  C12 UNL     1      26.403  44.485  28.323  1.00  0.00     0.181 C 
HETATM   15  C13 UNL     1      25.379  43.457  28.773  1.00  0.00     0.075 C 
HETATM   16  N5  UNL     1      24.616  42.660  29.124  1.00  0.00    -0.196 NA
ENDROOT
BRANCH   1  17
HETATM   17  C6  UNL     1      27.484  43.840  30.486  1.00  0.00    -0.001 A 
HETATM   18  C2  UNL     1      27.072  43.779  31.816  1.00  0.00    -0.034 A 
HETATM   19  C1  UNL     1      26.089  44.634  32.491  1.00  0.00     0.050 C 
HETATM   20  C3  UNL     1      27.747  42.720  32.373  1.00  0.00     0.095 A 
HETATM   21  N1  UNL     1      28.535  42.129  31.503  1.00  0.00    -0.368 N 
HETATM   22  C4  UNL     1      28.401  42.795  30.321  1.00  0.00     0.016 A 
ATOM     23  H1  UNL     1      29.134  41.323  31.679  1.00  0.00     0.165 HD
HETATM   24  C5  UNL     1      29.239  42.480  29.134  1.00  0.00     0.069 C 
ENDBRANCH   1  17
TORSDOF 1
ENDMDL
