MODEL 1
REMARK VINA RESULT: -6.737235173      0.000      0.000
REMARK  2 active torsions:
REMARK  status: ('A' for Active; 'I' for Inactive)
REMARK    1  A    between atoms: C4_7  and  C5_8 
REMARK    2  A    between atoms: C12_15  and  O1_16 
ROOT
HETATM    1  N1  UNL     1      20.118  41.199  32.783  1.00  0.00    -0.191 NA
HETATM    2  C1  UNL     1      20.614  41.550  33.769  1.00  0.00     0.104 C 
HETATM    3  C2  UNL     1      21.216  42.039  35.019  1.00  0.00     0.101 A 
HETATM    4  C3  UNL     1      22.218  42.990  34.959  1.00  0.00     0.110 A 
HETATM    5  N2  UNL     1      22.894  43.515  33.789  1.00  0.00    -0.093 NA
HETATM    6  S1  UNL     1      22.493  43.335  36.621  1.00  0.00    -0.076 SA
HETATM    7  C4  UNL     1      21.361  42.279  37.326  1.00  0.00     0.017 A 
HETATM    8  C13 UNL     1      20.789  41.673  36.230  1.00  0.00     0.083 A 
HETATM    9  N3  UNL     1      19.705  40.712  36.449  1.00  0.00    -0.100 NA
ENDROOT
BRANCH   7  10
HETATM   10  C5  UNL     1      21.150  41.941  38.793  1.00  0.00     0.056 C 
HETATM   11  C6  UNL     1      20.709  43.176  39.498  1.00  0.00     0.012 C 
HETATM   12  C7  UNL     1      21.588  43.969  40.334  1.00  0.00     0.001 C 
HETATM   13  C8  UNL     1      21.537  43.668  41.808  1.00  0.00     0.000 C 
HETATM   14  C9  UNL     1      20.917  42.359  42.166  1.00  0.00     0.000 C 
HETATM   15  C10 UNL     1      21.481  41.147  41.493  1.00  0.00     0.002 C 
HETATM   16  C11 UNL     1      22.709  41.353  40.710  1.00  0.00     0.032 C 
HETATM   17  C12 UNL     1      22.556  41.557  39.241  1.00  0.00     0.127 C 
BRANCH  17  18
HETATM   18  O1  UNL     1      22.950  40.477  38.471  1.00  0.00    -0.395 OA
ATOM     19  H1  UNL     1      23.309  40.825  37.664  1.00  0.00     0.210 HD
ENDBRANCH  17  18
ENDBRANCH   7  10
TORSDOF 2
ENDMDL
MODEL 2
REMARK VINA RESULT: -6.725010150      1.692      2.881
REMARK  2 active torsions:
REMARK  status: ('A' for Active; 'I' for Inactive)
REMARK    1  A    between atoms: C4_7  and  C5_8 
REMARK    2  A    between atoms: C12_15  and  O1_16 
ROOT
HETATM    1  N1  UNL     1      23.104  43.808  32.786  1.00  0.00    -0.191 NA
HETATM    2  C1  UNL     1      22.613  43.463  33.777  1.00  0.00     0.104 C 
HETATM    3  C2  UNL     1      22.018  42.982  35.033  1.00  0.00     0.101 A 
HETATM    4  C3  UNL     1      21.013  42.034  34.984  1.00  0.00     0.110 A 
HETATM    5  N2  UNL     1      20.328  41.506  33.822  1.00  0.00    -0.093 NA
HETATM    6  S1  UNL     1      20.748  41.698  36.650  1.00  0.00    -0.076 SA
HETATM    7  C4  UNL     1      21.887  42.754  37.342  1.00  0.00     0.017 A 
HETATM    8  C13 UNL     1      22.454  43.353  36.239  1.00  0.00     0.083 A 
HETATM    9  N3  UNL     1      23.542  44.312  36.446  1.00  0.00    -0.100 NA
ENDROOT
BRANCH   7  10
HETATM   10  C5  UNL     1      22.109  43.099  38.806  1.00  0.00     0.056 C 
HETATM   11  C6  UNL     1      22.522  41.860  39.520  1.00  0.00     0.012 C 
HETATM   12  C7  UNL     1      21.625  41.094  40.363  1.00  0.00     0.001 C 
HETATM   13  C8  UNL     1      21.687  41.406  41.836  1.00  0.00     0.000 C 
HETATM   14  C9  UNL     1      22.338  42.702  42.182  1.00  0.00     0.000 C 
HETATM   15  C10 UNL     1      21.802  43.922  41.500  1.00  0.00     0.002 C 
HETATM   16  C11 UNL     1      20.568  43.739  40.720  1.00  0.00     0.032 C 
HETATM   17  C12 UNL     1      20.713  43.519  39.253  1.00  0.00     0.127 C 
BRANCH  17  18
HETATM   18  O1  UNL     1      20.343  44.602  38.475  1.00  0.00    -0.395 OA
ATOM     19  H1  UNL     1      20.016  44.257  37.653  1.00  0.00     0.210 HD
ENDBRANCH  17  18
ENDBRANCH   7  10
TORSDOF 2
ENDMDL
MODEL 3
REMARK VINA RESULT: -5.871597817      1.975      3.168
REMARK  2 active torsions:
REMARK  status: ('A' for Active; 'I' for Inactive)
REMARK    1  A    between atoms: C4_7  and  C5_8 
REMARK    2  A    between atoms: C12_15  and  O1_16 
ROOT
HETATM    1  N1  UNL     1      24.025  44.385  32.237  1.00  0.00    -0.191 NA
HETATM    2  C1  UNL     1      23.433  43.991  33.151  1.00  0.00     0.104 C 
HETATM    3  C2  UNL     1      22.711  43.446  34.310  1.00  0.00     0.101 A 
HETATM    4  C3  UNL     1      21.741  42.481  34.110  1.00  0.00     0.110 A 
HETATM    5  N2  UNL     1      21.207  41.987  32.857  1.00  0.00    -0.093 NA
HETATM    6  S1  UNL     1      21.296  42.071  35.720  1.00  0.00    -0.076 SA
HETATM    7  C4  UNL     1      22.323  43.121  36.579  1.00  0.00     0.017 A 
HETATM    8  C13 UNL     1      22.996  43.776  35.572  1.00  0.00     0.083 A 
HETATM    9  N3  UNL     1      24.030  44.748  35.940  1.00  0.00    -0.100 NA
ENDROOT
BRANCH   7  10
HETATM   10  C5  UNL     1      22.367  43.410  38.071  1.00  0.00     0.056 C 
HETATM   11  C6  UNL     1      23.015  42.255  38.751  1.00  0.00     0.012 C 
HETATM   12  C7  UNL     1      22.273  41.249  39.485  1.00  0.00     0.001 C 
HETATM   13  C8  UNL     1      22.170  41.468  40.971  1.00  0.00     0.000 C 
HETATM   14  C9  UNL     1      22.476  42.853  41.430  1.00  0.00     0.000 C 
HETATM   15  C10 UNL     1      21.711  43.959  40.772  1.00  0.00     0.002 C 
HETATM   16  C11 UNL     1      20.605  43.548  39.894  1.00  0.00     0.032 C 
HETATM   17  C12 UNL     1      20.887  43.466  38.433  1.00  0.00     0.127 C 
BRANCH  17  18
HETATM   18  O1  UNL     1      20.322  44.484  37.685  1.00  0.00    -0.395 OA
ATOM     19  H1  UNL     1      20.821  45.272  37.860  1.00  0.00     0.210 HD
ENDBRANCH  17  18
ENDBRANCH   7  10
TORSDOF 2
ENDMDL
MODEL 4
REMARK VINA RESULT: -5.742203279      3.745      6.482
REMARK  2 active torsions:
REMARK  status: ('A' for Active; 'I' for Inactive)
REMARK    1  A    between atoms: C4_7  and  C5_8 
REMARK    2  A    between atoms: C12_15  and  O1_16 
ROOT
HETATM    1  N1  UNL     1      21.304  42.032  45.070  1.00  0.00    -0.191 NA
HETATM    2  C1  UNL     1      21.391  42.502  44.016  1.00  0.00     0.104 C 
HETATM    3  C2  UNL     1      21.550  43.083  42.674  1.00  0.00     0.101 A 
HETATM    4  C3  UNL     1      22.216  44.287  42.534  1.00  0.00     0.110 A 
HETATM    5  N2  UNL     1      22.698  45.176  43.572  1.00  0.00    -0.093 NA
HETATM    6  S1  UNL     1      22.269  44.479  40.826  1.00  0.00    -0.076 SA
HETATM    7  C4  UNL     1      21.452  43.063  40.352  1.00  0.00     0.017 A 
HETATM    8  C13 UNL     1      21.154  42.468  41.558  1.00  0.00     0.083 A 
HETATM    9  N3  UNL     1      20.477  41.169  41.547  1.00  0.00    -0.100 NA
ENDROOT
BRANCH   7  10
HETATM   10  C5  UNL     1      20.996  42.639  38.966  1.00  0.00     0.056 C 
HETATM   11  C6  UNL     1      22.096  41.863  38.330  1.00  0.00     0.012 C 
HETATM   12  C7  UNL     1      22.972  42.415  37.315  1.00  0.00     0.001 C 
HETATM   13  C8  UNL     1      22.579  42.137  35.889  1.00  0.00     0.000 C 
HETATM   14  C9  UNL     1      21.166  41.699  35.695  1.00  0.00     0.000 C 
HETATM   15  C10 UNL     1      20.107  42.583  36.276  1.00  0.00     0.002 C 
HETATM   16  C11 UNL     1      20.561  43.883  36.794  1.00  0.00     0.032 C 
HETATM   17  C12 UNL     1      20.825  43.979  38.258  1.00  0.00     0.127 C 
BRANCH  17  18
HETATM   18  O1  UNL     1      19.874  44.695  38.963  1.00  0.00    -0.395 OA
ATOM     19  H1  UNL     1      19.057  44.624  38.484  1.00  0.00     0.210 HD
ENDBRANCH  17  18
ENDBRANCH   7  10
TORSDOF 2
ENDMDL
MODEL 5
REMARK VINA RESULT: -5.681636439      3.689      6.488
REMARK  2 active torsions:
REMARK  status: ('A' for Active; 'I' for Inactive)
REMARK    1  A    between atoms: C4_7  and  C5_8 
REMARK    2  A    between atoms: C12_15  and  O1_16 
ROOT
HETATM    1  N1  UNL     1      22.094  43.173  44.984  1.00  0.00    -0.191 NA
HETATM    2  C1  UNL     1      21.978  42.684  43.940  1.00  0.00     0.104 C 
HETATM    3  C2  UNL     1      21.781  42.081  42.614  1.00  0.00     0.101 A 
HETATM    4  C3  UNL     1      21.088  40.889  42.509  1.00  0.00     0.110 A 
HETATM    5  N2  UNL     1      20.609  40.030  43.573  1.00  0.00    -0.093 NA
HETATM    6  S1  UNL     1      21.000  40.666  40.807  1.00  0.00    -0.076 SA
HETATM    7  C4  UNL     1      21.836  42.054  40.290  1.00  0.00     0.017 A 
HETATM    8  C13 UNL     1      22.169  42.666  41.478  1.00  0.00     0.083 A 
HETATM    9  N3  UNL     1      22.872  43.951  41.429  1.00  0.00    -0.100 NA
ENDROOT
BRANCH   7  10
HETATM   10  C5  UNL     1      22.275  42.443  38.888  1.00  0.00     0.056 C 
HETATM   11  C6  UNL     1      21.169  43.205  38.247  1.00  0.00     0.012 C 
HETATM   12  C7  UNL     1      20.277  42.631  37.258  1.00  0.00     0.001 C 
HETATM   13  C8  UNL     1      20.653  42.872  35.820  1.00  0.00     0.000 C 
HETATM   14  C9  UNL     1      22.064  43.301  35.597  1.00  0.00     0.000 C 
HETATM   15  C10 UNL     1      23.128  42.429  36.185  1.00  0.00     0.002 C 
HETATM   16  C11 UNL     1      22.678  41.144  36.743  1.00  0.00     0.032 C 
HETATM   17  C12 UNL     1      22.433  41.085  38.212  1.00  0.00     0.127 C 
BRANCH  17  18
HETATM   18  O1  UNL     1      23.392  40.384  38.922  1.00  0.00    -0.395 OA
ATOM     19  H1  UNL     1      23.022  40.188  39.774  1.00  0.00     0.210 HD
ENDBRANCH  17  18
ENDBRANCH   7  10
TORSDOF 2
ENDMDL
