MODEL 1
REMARK VINA RESULT: -4.207958680      0.000      0.000
REMARK  4 active torsions:
REMARK  status: ('A' for Active; 'I' for Inactive)
REMARK    1  A    between atoms: N1_2  and  C2_5 
REMARK    2  A    between atoms: C2_5  and  N2_6 
REMARK    3  A    between atoms: N2_6  and  C3_9 
REMARK    4  A    between atoms: C3_9  and  C4_10 
ROOT
HETATM    1  N2  UNL     1      12.040  15.049   8.164  1.00  0.00    -0.051 N 
ATOM      2  H21 UNL     1      12.189  15.817   8.817  1.00  0.00     0.279 HD
ATOM      3  H22 UNL     1      12.250  14.269   8.786  1.00  0.00     0.279 HD
ENDROOT
BRANCH   1   4
HETATM    4  C2  UNL     1      12.965  15.108   7.063  1.00  0.00     0.462 C 
BRANCH   4   5
HETATM    5  N1  UNL     1      14.252  14.564   7.279  1.00  0.00    -0.055 N 
HETATM    6  C1  UNL     1      14.673  13.951   5.995  1.00  0.00     0.269 C 
ATOM      7  H12 UNL     1      14.290  13.916   8.067  1.00  0.00     0.278 HD
ATOM      8  H11 UNL     1      14.922  15.243   7.642  1.00  0.00     0.278 HD
ENDBRANCH   4   5
ENDBRANCH   1   4
BRANCH   1   9
HETATM    9  C3  UNL     1      10.721  15.005   7.722  1.00  0.00     0.239 C 
BRANCH   9  10
HETATM   10  C4  UNL     1      10.401  14.748   6.299  1.00  0.00     0.015 A 
HETATM   11  C5  UNL     1       9.726  13.435   6.040  1.00  0.00     0.011 A 
HETATM   12  C6  UNL     1       9.119  14.717   5.613  1.00  0.00    -0.013 A 
HETATM   13  C7  UNL     1       9.187  14.991   4.107  1.00  0.00     0.010 C 
ENDBRANCH   9  10
ENDBRANCH   1   9
TORSDOF 4
ENDMDL
MODEL 2
REMARK VINA RESULT: -4.028321619      1.463      2.208
REMARK  4 active torsions:
REMARK  status: ('A' for Active; 'I' for Inactive)
REMARK    1  A    between atoms: N1_2  and  C2_5 
REMARK    2  A    between atoms: C2_5  and  N2_6 
REMARK    3  A    between atoms: N2_6  and  C3_9 
REMARK    4  A    between atoms: C3_9  and  C4_10 
ROOT
HETATM    1  N2  UNL     1      14.062  14.906   5.770  1.00  0.00    -0.051 N 
ATOM      2  H21 UNL     1      13.933  13.983   5.355  1.00  0.00     0.279 HD
ATOM      3  H22 UNL     1      14.423  15.398   4.953  1.00  0.00     0.279 HD
ENDROOT
BRANCH   1   4
HETATM    4  C2  UNL     1      15.030  14.873   6.834  1.00  0.00     0.462 C 
BRANCH   4   5
HETATM    5  N1  UNL     1      14.825  13.916   7.856  1.00  0.00    -0.055 N 
HETATM    6  C1  UNL     1      16.157  13.346   8.173  1.00  0.00     0.269 C 
ATOM      7  H12 UNL     1      14.130  13.209   7.614  1.00  0.00     0.278 HD
ATOM      8  H11 UNL     1      14.343  14.294   8.672  1.00  0.00     0.278 HD
ENDBRANCH   4   5
ENDBRANCH   1   4
BRANCH   1   9
HETATM    9  C3  UNL     1      12.853  15.446   6.195  1.00  0.00     0.239 C 
BRANCH   9  10
HETATM   10  C4  UNL     1      11.656  14.592   6.372  1.00  0.00     0.015 A 
HETATM   11  C5  UNL     1      10.866  14.876   7.614  1.00  0.00     0.011 A 
HETATM   12  C6  UNL     1      10.242  14.918   6.270  1.00  0.00    -0.013 A 
HETATM   13  C7  UNL     1       9.328  13.731   5.948  1.00  0.00     0.010 C 
ENDBRANCH   9  10
ENDBRANCH   1   9
TORSDOF 4
ENDMDL
MODEL 3
REMARK VINA RESULT: -3.906347573      1.193      2.211
REMARK  4 active torsions:
REMARK  status: ('A' for Active; 'I' for Inactive)
REMARK    1  A    between atoms: N1_2  and  C2_5 
REMARK    2  A    between atoms: C2_5  and  N2_6 
REMARK    3  A    between atoms: N2_6  and  C3_9 
REMARK    4  A    between atoms: C3_9  and  C4_10 
ROOT
HETATM    1  N2  UNL     1      14.223  14.680   7.332  1.00  0.00    -0.051 N 
ATOM      2  H21 UNL     1      14.852  15.387   7.713  1.00  0.00     0.279 HD
ATOM      3  H22 UNL     1      14.012  14.175   8.192  1.00  0.00     0.279 HD
ENDROOT
BRANCH   1   4
HETATM    4  C2  UNL     1      14.896  13.836   6.380  1.00  0.00     0.462 C 
BRANCH   4   5
HETATM    5  N1  UNL     1      14.897  12.447   6.644  1.00  0.00    -0.055 N 
HETATM    6  C1  UNL     1      14.227  11.797   5.491  1.00  0.00     0.269 C 
ATOM      7  H12 UNL     1      14.477  12.206   7.543  1.00  0.00     0.278 HD
ATOM      8  H11 UNL     1      15.827  12.072   6.834  1.00  0.00     0.278 HD
ENDBRANCH   4   5
ENDBRANCH   1   4
BRANCH   1   9
HETATM    9  C3  UNL     1      13.081  15.257   6.787  1.00  0.00     0.239 C 
BRANCH   9  10
HETATM   10  C4  UNL     1      11.797  14.518   6.749  1.00  0.00     0.015 A 
HETATM   11  C5  UNL     1      10.792  14.963   7.767  1.00  0.00     0.011 A 
HETATM   12  C6  UNL     1      10.476  14.948   6.319  1.00  0.00    -0.013 A 
HETATM   13  C7  UNL     1       9.542  13.817   5.876  1.00  0.00     0.010 C 
ENDBRANCH   9  10
ENDBRANCH   1   9
TORSDOF 4
ENDMDL
MODEL 4
REMARK VINA RESULT: -3.876260749      2.316      3.002
REMARK  4 active torsions:
REMARK  status: ('A' for Active; 'I' for Inactive)
REMARK    1  A    between atoms: N1_2  and  C2_5 
REMARK    2  A    between atoms: C2_5  and  N2_6 
REMARK    3  A    between atoms: N2_6  and  C3_9 
REMARK    4  A    between atoms: C3_9  and  C4_10 
ROOT
HETATM    1  N2  UNL     1      14.402  15.678   7.166  1.00  0.00    -0.051 N 
ATOM      2  H21 UNL     1      14.326  15.439   8.154  1.00  0.00     0.279 HD
ATOM      3  H22 UNL     1      14.829  14.817   6.826  1.00  0.00     0.279 HD
ENDROOT
BRANCH   1   4
HETATM    4  C2  UNL     1      15.268  16.809   6.963  1.00  0.00     0.462 C 
BRANCH   4   5
HETATM    5  N1  UNL     1      15.485  17.657   8.075  1.00  0.00    -0.055 N 
HETATM    6  C1  UNL     1      16.952  17.851   8.177  1.00  0.00     0.269 C 
ATOM      7  H12 UNL     1      15.063  17.309   8.936  1.00  0.00     0.278 HD
ATOM      8  H11 UNL     1      14.964  18.533   8.023  1.00  0.00     0.278 HD
ENDBRANCH   4   5
ENDBRANCH   1   4
BRANCH   1   9
HETATM    9  C3  UNL     1      13.150  15.884   6.595  1.00  0.00     0.239 C 
BRANCH   9  10
HETATM   10  C4  UNL     1      12.080  14.867   6.714  1.00  0.00     0.015 A 
HETATM   11  C5  UNL     1      11.209  15.018   7.925  1.00  0.00     0.011 A 
HETATM   12  C6  UNL     1      10.640  14.992   6.557  1.00  0.00    -0.013 A 
HETATM   13  C7  UNL     1       9.916  13.693   6.185  1.00  0.00     0.010 C 
ENDBRANCH   9  10
ENDBRANCH   1   9
TORSDOF 4
ENDMDL
MODEL 5
REMARK VINA RESULT: -3.759272880      1.603      2.377
REMARK  4 active torsions:
REMARK  status: ('A' for Active; 'I' for Inactive)
REMARK    1  A    between atoms: N1_2  and  C2_5 
REMARK    2  A    between atoms: C2_5  and  N2_6 
REMARK    3  A    between atoms: N2_6  and  C3_9 
REMARK    4  A    between atoms: C3_9  and  C4_10 
ROOT
HETATM    1  N2  UNL     1      14.108  14.113   6.625  1.00  0.00    -0.051 N 
ATOM      2  H21 UNL     1      13.903  13.407   7.332  1.00  0.00     0.279 HD
ATOM      3  H22 UNL     1      14.345  13.496   5.849  1.00  0.00     0.279 HD
ENDROOT
BRANCH   1   4
HETATM    4  C2  UNL     1      15.228  14.931   7.007  1.00  0.00     0.462 C 
BRANCH   4   5
HETATM    5  N1  UNL     1      14.959  16.287   7.305  1.00  0.00    -0.055 N 
HETATM    6  C1  UNL     1      16.274  16.942   7.515  1.00  0.00     0.269 C 
ATOM      7  H12 UNL     1      14.318  16.408   8.090  1.00  0.00     0.278 HD
ATOM      8  H11 UNL     1      14.385  16.749   6.600  1.00  0.00     0.278 HD
ENDBRANCH   4   5
ENDBRANCH   1   4
BRANCH   1   9
HETATM    9  C3  UNL     1      12.986  14.884   6.337  1.00  0.00     0.239 C 
BRANCH   9  10
HETATM   10  C4  UNL     1      11.621  14.329   6.481  1.00  0.00     0.015 A 
HETATM   11  C5  UNL     1      10.826  14.913   7.609  1.00  0.00     0.011 A 
HETATM   12  C6  UNL     1      10.325  14.934   6.215  1.00  0.00    -0.013 A 
HETATM   13  C7  UNL     1       9.197  13.939   5.921  1.00  0.00     0.010 C 
ENDBRANCH   9  10
ENDBRANCH   1   9
TORSDOF 4
ENDMDL
