MODEL 1
REMARK VINA RESULT: -7.365864326      0.000      0.000
REMARK  3 active torsions:
REMARK  status: ('A' for Active; 'I' for Inactive)
REMARK       I    between atoms: C1_2  and  N1_3 
REMARK       I    between atoms: C1_2  and  N2_9 
REMARK    1  A    between atoms: N1_3  and  C2_5 
REMARK    2  A    between atoms: C2_5  and  C3_6 
REMARK       I    between atoms: N2_9  and  C6_11 
REMARK       I    between atoms: C6_11  and  N3_13 
REMARK    3  A    between atoms: C9_16  and  O3_17 
ROOT
HETATM    1  O1  UNL     1      -2.996  32.966  42.423  1.00  0.00    -0.247 OA
HETATM    2  C1  UNL     1      -3.120  33.899  41.552  1.00  0.00     0.327 C 
HETATM    3  N1  UNL     1      -4.405  34.306  41.265  1.00  0.00    -0.322 N 
ATOM      4  H1  UNL     1      -4.477  35.030  40.549  1.00  0.00     0.169 HD
HETATM    5  N2  UNL     1      -1.950  34.396  40.994  1.00  0.00    -0.261 N 
ATOM      6  H2  UNL     1      -1.098  33.957  41.344  1.00  0.00     0.175 HD
HETATM    7  C6  UNL     1      -1.734  35.392  40.037  1.00  0.00     0.326 C 
HETATM    8  O2  UNL     1      -2.722  35.999  39.536  1.00  0.00    -0.247 OA
HETATM    9  N3  UNL     1      -0.451  35.785  39.574  1.00  0.00    -0.334 N 
HETATM   10  C7  UNL     1      -0.311  36.837  38.554  1.00  0.00     0.130 C 
HETATM   11  C8  UNL     1       0.866  36.423  37.680  1.00  0.00     0.051 C 
HETATM   12  C9  UNL     1       0.836  34.905  37.567  1.00  0.00     0.121 C 
HETATM   13  C10 UNL     1       1.290  34.310  38.896  1.00  0.00     0.051 C 
HETATM   14  C11 UNL     1       0.790  35.222  40.028  1.00  0.00     0.130 C 
ENDROOT
BRANCH   3  15
HETATM   15  C2  UNL     1      -5.642  33.876  41.808  1.00  0.00     0.070 C 
BRANCH  15  16
HETATM   16  C3  UNL     1      -6.734  33.350  41.018  1.00  0.00     0.024 A 
HETATM   17  C4  UNL     1      -6.728  32.973  39.603  1.00  0.00     0.010 A 
HETATM   18  C5  UNL     1      -7.528  34.203  40.068  1.00  0.00     0.010 A 
ENDBRANCH  15  16
ENDBRANCH   3  15
BRANCH  12  19
HETATM   19  O3  UNL     1      -0.450  34.452  37.326  1.00  0.00    -0.395 OA
ATOM     20  H3  UNL     1      -0.440  33.683  36.768  1.00  0.00     0.210 HD
ENDBRANCH  12  19
TORSDOF 3
ENDMDL
MODEL 2
REMARK VINA RESULT: -7.059753950      5.070      6.891
REMARK  3 active torsions:
REMARK  status: ('A' for Active; 'I' for Inactive)
REMARK       I    between atoms: C1_2  and  N1_3 
REMARK       I    between atoms: C1_2  and  N2_9 
REMARK    1  A    between atoms: N1_3  and  C2_5 
REMARK    2  A    between atoms: C2_5  and  C3_6 
REMARK       I    between atoms: N2_9  and  C6_11 
REMARK       I    between atoms: C6_11  and  N3_13 
REMARK    3  A    between atoms: C9_16  and  O3_17 
ROOT
HETATM    1  O1  UNL     1       1.243  40.162  38.764  1.00  0.00    -0.247 OA
HETATM    2  C1  UNL     1       0.940  39.075  39.372  1.00  0.00     0.327 C 
HETATM    3  N1  UNL     1       0.330  39.206  40.600  1.00  0.00    -0.322 N 
ATOM      4  H1  UNL     1       0.124  38.326  41.074  1.00  0.00     0.169 HD
HETATM    5  N2  UNL     1       1.260  37.887  38.729  1.00  0.00    -0.261 N 
ATOM      6  H2  UNL     1       1.711  38.008  37.822  1.00  0.00     0.175 HD
HETATM    7  C6  UNL     1       1.072  36.554  39.105  1.00  0.00     0.326 C 
HETATM    8  O2  UNL     1       0.524  36.290  40.212  1.00  0.00    -0.247 OA
HETATM    9  N3  UNL     1       1.461  35.441  38.314  1.00  0.00    -0.334 N 
HETATM   10  C7  UNL     1       1.236  34.067  38.790  1.00  0.00     0.130 C 
HETATM   11  C8  UNL     1       2.430  33.253  38.306  1.00  0.00     0.051 C 
HETATM   12  C9  UNL     1       3.653  34.157  38.373  1.00  0.00     0.121 C 
HETATM   13  C10 UNL     1       3.567  35.174  37.239  1.00  0.00     0.051 C 
HETATM   14  C11 UNL     1       2.088  35.534  37.025  1.00  0.00     0.130 C 
ENDROOT
BRANCH   3  15
HETATM   15  C2  UNL     1      -0.058  40.372  41.308  1.00  0.00     0.070 C 
BRANCH  15  16
HETATM   16  C3  UNL     1       0.861  41.216  42.041  1.00  0.00     0.024 A 
HETATM   17  C4  UNL     1       1.882  42.121  41.507  1.00  0.00     0.010 A 
HETATM   18  C5  UNL     1       2.301  40.845  42.260  1.00  0.00     0.010 A 
ENDBRANCH  15  16
ENDBRANCH   3  15
BRANCH  12  19
HETATM   19  O3  UNL     1       3.683  34.863  39.563  1.00  0.00    -0.395 OA
ATOM     20  H3  UNL     1       2.853  35.297  39.721  1.00  0.00     0.210 HD
ENDBRANCH  12  19
TORSDOF 3
ENDMDL
MODEL 3
REMARK VINA RESULT: -7.039150895      5.342      7.791
REMARK  3 active torsions:
REMARK  status: ('A' for Active; 'I' for Inactive)
REMARK       I    between atoms: C1_2  and  N1_3 
REMARK       I    between atoms: C1_2  and  N2_9 
REMARK    1  A    between atoms: N1_3  and  C2_5 
REMARK    2  A    between atoms: C2_5  and  C3_6 
REMARK       I    between atoms: N2_9  and  C6_11 
REMARK       I    between atoms: C6_11  and  N3_13 
REMARK    3  A    between atoms: C9_16  and  O3_17 
ROOT
HETATM    1  O1  UNL     1       3.994  40.114  38.972  1.00  0.00    -0.247 OA
HETATM    2  C1  UNL     1       3.170  39.284  39.501  1.00  0.00     0.327 C 
HETATM    3  N1  UNL     1       2.591  39.666  40.691  1.00  0.00    -0.322 N 
ATOM      4  H1  UNL     1       1.961  38.977  41.103  1.00  0.00     0.169 HD
HETATM    5  N2  UNL     1       2.952  38.096  38.817  1.00  0.00    -0.261 N 
ATOM      6  H2  UNL     1       3.482  38.007  37.950  1.00  0.00     0.175 HD
HETATM    7  C6  UNL     1       2.135  37.000  39.108  1.00  0.00     0.326 C 
HETATM    8  O2  UNL     1       1.437  37.006  40.162  1.00  0.00    -0.247 OA
HETATM    9  N3  UNL     1       2.026  35.848  38.286  1.00  0.00    -0.334 N 
HETATM   10  C7  UNL     1       1.148  34.731  38.672  1.00  0.00     0.130 C 
HETATM   11  C8  UNL     1       1.862  33.462  38.225  1.00  0.00     0.051 C 
HETATM   12  C9  UNL     1       3.355  33.686  38.420  1.00  0.00     0.121 C 
HETATM   13  C10 UNL     1       3.847  34.643  37.339  1.00  0.00     0.051 C 
HETATM   14  C11 UNL     1       2.729  35.658  37.048  1.00  0.00     0.130 C 
ENDROOT
BRANCH   3  15
HETATM   15  C2  UNL     1       2.734  40.866  41.433  1.00  0.00     0.070 C 
BRANCH  15  16
HETATM   16  C3  UNL     1       2.110  42.120  41.070  1.00  0.00     0.024 A 
HETATM   17  C4  UNL     1       1.345  42.435  39.862  1.00  0.00     0.010 A 
HETATM   18  C5  UNL     1       2.727  43.075  40.087  1.00  0.00     0.010 A 
ENDBRANCH  15  16
ENDBRANCH   3  15
BRANCH  12  19
HETATM   19  O3  UNL     1       3.610  34.276  39.645  1.00  0.00    -0.395 OA
ATOM     20  H3  UNL     1       4.530  34.497  39.731  1.00  0.00     0.210 HD
ENDBRANCH  12  19
TORSDOF 3
ENDMDL
MODEL 4
REMARK VINA RESULT: -6.908483815      3.997      5.327
REMARK  3 active torsions:
REMARK  status: ('A' for Active; 'I' for Inactive)
REMARK       I    between atoms: C1_2  and  N1_3 
REMARK       I    between atoms: C1_2  and  N2_9 
REMARK    1  A    between atoms: N1_3  and  C2_5 
REMARK    2  A    between atoms: C2_5  and  C3_6 
REMARK       I    between atoms: N2_9  and  C6_11 
REMARK       I    between atoms: C6_11  and  N3_13 
REMARK    3  A    between atoms: C9_16  and  O3_17 
ROOT
HETATM    1  O1  UNL     1       1.662  35.235  39.684  1.00  0.00    -0.247 OA
HETATM    2  C1  UNL     1       0.873  36.222  39.905  1.00  0.00     0.327 C 
HETATM    3  N1  UNL     1      -0.477  35.963  39.817  1.00  0.00    -0.322 N 
ATOM      4  H1  UNL     1      -1.081  36.770  39.972  1.00  0.00     0.169 HD
HETATM    5  N2  UNL     1       1.465  37.441  40.208  1.00  0.00    -0.261 N 
ATOM      6  H2  UNL     1       2.485  37.421  40.222  1.00  0.00     0.175 HD
HETATM    7  C6  UNL     1       0.909  38.690  40.497  1.00  0.00     0.326 C 
HETATM    8  O2  UNL     1      -0.347  38.826  40.503  1.00  0.00    -0.247 OA
HETATM    9  N3  UNL     1       1.670  39.851  40.792  1.00  0.00    -0.334 N 
HETATM   10  C7  UNL     1       1.005  41.133  41.076  1.00  0.00     0.130 C 
HETATM   11  C8  UNL     1       1.896  42.212  40.472  1.00  0.00     0.051 C 
HETATM   12  C9  UNL     1       2.492  41.646  39.191  1.00  0.00     0.121 C 
HETATM   13  C10 UNL     1       3.558  40.621  39.564  1.00  0.00     0.051 C 
HETATM   14  C11 UNL     1       3.105  39.897  40.843  1.00  0.00     0.130 C 
ENDROOT
BRANCH   3  15
HETATM   15  C2  UNL     1      -1.158  34.749  39.547  1.00  0.00     0.070 C 
BRANCH  15  16
HETATM   16  C3  UNL     1      -2.436  34.671  38.873  1.00  0.00     0.024 A 
HETATM   17  C4  UNL     1      -3.342  35.767  38.521  1.00  0.00     0.010 A 
HETATM   18  C5  UNL     1      -3.744  34.755  39.609  1.00  0.00     0.010 A 
ENDBRANCH  15  16
ENDBRANCH   3  15
BRANCH  12  19
HETATM   19  O3  UNL     1       1.529  40.990  38.444  1.00  0.00    -0.395 OA
ATOM     20  H3  UNL     1       0.999  41.608  37.955  1.00  0.00     0.210 HD
ENDBRANCH  12  19
TORSDOF 3
ENDMDL
MODEL 5
REMARK VINA RESULT: -6.898621690      4.336      8.062
REMARK  3 active torsions:
REMARK  status: ('A' for Active; 'I' for Inactive)
REMARK       I    between atoms: C1_2  and  N1_3 
REMARK       I    between atoms: C1_2  and  N2_9 
REMARK    1  A    between atoms: N1_3  and  C2_5 
REMARK    2  A    between atoms: C2_5  and  C3_6 
REMARK       I    between atoms: N2_9  and  C6_11 
REMARK       I    between atoms: C6_11  and  N3_13 
REMARK    3  A    between atoms: C9_16  and  O3_17 
ROOT
HETATM    1  O1  UNL     1       4.301  38.835  39.270  1.00  0.00    -0.247 OA
HETATM    2  C1  UNL     1       3.029  38.994  39.326  1.00  0.00     0.327 C 
HETATM    3  N1  UNL     1       2.580  40.174  39.876  1.00  0.00    -0.322 N 
ATOM      4  H1  UNL     1       1.565  40.264  39.933  1.00  0.00     0.169 HD
HETATM    5  N2  UNL     1       2.245  37.962  38.827  1.00  0.00    -0.261 N 
ATOM      6  H2  UNL     1       2.776  37.170  38.462  1.00  0.00     0.175 HD
HETATM    7  C6  UNL     1       0.858  37.816  38.738  1.00  0.00     0.326 C 
HETATM    8  O2  UNL     1       0.107  38.738  39.164  1.00  0.00    -0.247 OA
HETATM    9  N3  UNL     1       0.211  36.679  38.187  1.00  0.00    -0.334 N 
HETATM   10  C7  UNL     1      -1.258  36.600  38.140  1.00  0.00     0.130 C 
HETATM   11  C8  UNL     1      -1.609  35.139  38.390  1.00  0.00     0.051 C 
HETATM   12  C9  UNL     1      -0.601  34.593  39.391  1.00  0.00     0.121 C 
HETATM   13  C10 UNL     1       0.737  34.411  38.682  1.00  0.00     0.051 C 
HETATM   14  C11 UNL     1       0.890  35.535  37.644  1.00  0.00     0.130 C 
ENDROOT
BRANCH   3  15
HETATM   15  C2  UNL     1       3.308  41.284  40.376  1.00  0.00     0.070 C 
BRANCH  15  16
HETATM   16  C3  UNL     1       3.631  42.458  39.593  1.00  0.00     0.024 A 
HETATM   17  C4  UNL     1       3.437  42.669  38.157  1.00  0.00     0.010 A 
HETATM   18  C5  UNL     1       4.860  42.542  38.732  1.00  0.00     0.010 A 
ENDBRANCH  15  16
ENDBRANCH   3  15
BRANCH  12  19
HETATM   19  O3  UNL     1      -0.401  35.485  40.430  1.00  0.00    -0.395 OA
ATOM     20  H3  UNL     1       0.510  35.500  40.696  1.00  0.00     0.210 HD
ENDBRANCH  12  19
TORSDOF 3
ENDMDL
