MODEL 1
REMARK VINA RESULT: -6.082375688      0.000      0.000
REMARK  3 active torsions:
REMARK  status: ('A' for Active; 'I' for Inactive)
REMARK    1  A    between atoms: C2_2  and  N1_4 
REMARK       I    between atoms: N1_4  and  C4_6 
REMARK       I    between atoms: C4_6  and  N4_12 
REMARK    2  A    between atoms: N2_7  and  C5_9 
REMARK    3  A    between atoms: N4_12  and  S2_14 
ROOT
HETATM    1  N1  UNL     1       0.206  36.808  38.981  1.00  0.00    -0.222 N 
ATOM      2  H1  UNL     1      -0.275  36.363  39.762  1.00  0.00     0.178 HD
HETATM    3  C4  UNL     1       1.557  36.448  38.742  1.00  0.00     0.689 C 
HETATM    4  N2  UNL     1       2.499  37.140  39.240  1.00  0.00    -0.168 N 
ATOM      5  H2  UNL     1       3.451  36.835  39.037  1.00  0.00     0.186 HD
HETATM    6  N4  UNL     1       1.866  35.312  37.944  1.00  0.00    -0.117 N 
ATOM      7  H4  UNL     1       1.182  34.964  37.273  1.00  0.00     0.197 HD
ENDROOT
BRANCH   1   8
HETATM    8  C2  UNL     1      -0.523  37.753  38.197  1.00  0.00     0.091 C 
HETATM    9  C1  UNL     1      -1.575  38.449  39.023  1.00  0.00     0.032 C 
HETATM   10  C3  UNL     1      -1.180  37.148  36.978  1.00  0.00     0.032 C 
ENDBRANCH   1   8
BRANCH   4  11
HETATM   11  C5  UNL     1       2.360  38.278  40.041  1.00  0.00     0.199 C 
HETATM   12  N3  UNL     1       1.842  38.118  41.368  1.00  0.00    -0.069 NA
HETATM   13  S1  UNL     1       2.746  39.794  39.569  1.00  0.00    -0.044 SA
ENDBRANCH   4  11
BRANCH   6  14
HETATM   14  S2  UNL     1       3.384  34.518  38.102  1.00  0.00     0.240 S 
HETATM   15  C6  UNL     1       4.609  35.289  37.061  1.00  0.00     0.186 C 
HETATM   16  O1  UNL     1       3.265  33.088  37.630  1.00  0.00    -0.206 OA
HETATM   17  O2  UNL     1       3.850  34.613  39.499  1.00  0.00    -0.206 OA
ENDBRANCH   6  14
TORSDOF 3
ENDMDL
MODEL 2
REMARK VINA RESULT: -6.015504476      2.441      3.916
REMARK  3 active torsions:
REMARK  status: ('A' for Active; 'I' for Inactive)
REMARK    1  A    between atoms: C2_2  and  N1_4 
REMARK       I    between atoms: N1_4  and  C4_6 
REMARK       I    between atoms: C4_6  and  N4_12 
REMARK    2  A    between atoms: N2_7  and  C5_9 
REMARK    3  A    between atoms: N4_12  and  S2_14 
ROOT
HETATM    1  N1  UNL     1       0.867  36.631  37.360  1.00  0.00    -0.222 N 
ATOM      2  H1  UNL     1       1.295  36.586  36.436  1.00  0.00     0.178 HD
HETATM    3  C4  UNL     1       1.683  37.015  38.453  1.00  0.00     0.689 C 
HETATM    4  N2  UNL     1       2.257  36.131  39.164  1.00  0.00    -0.168 N 
ATOM      5  H2  UNL     1       2.833  36.465  39.937  1.00  0.00     0.186 HD
HETATM    6  N4  UNL     1       1.868  38.391  38.762  1.00  0.00    -0.117 N 
ATOM      7  H4  UNL     1       1.177  39.075  38.452  1.00  0.00     0.197 HD
ENDROOT
BRANCH   1   8
HETATM    8  C2  UNL     1      -0.519  36.302  37.471  1.00  0.00     0.091 C 
HETATM    9  C1  UNL     1      -0.839  35.035  36.718  1.00  0.00     0.032 C 
HETATM   10  C3  UNL     1      -1.440  37.400  36.994  1.00  0.00     0.032 C 
ENDBRANCH   1   8
BRANCH   4  11
HETATM   11  C5  UNL     1       2.175  34.746  38.990  1.00  0.00     0.199 C 
HETATM   12  N3  UNL     1       1.094  34.044  39.617  1.00  0.00    -0.069 NA
HETATM   13  S1  UNL     1       3.234  33.859  38.117  1.00  0.00    -0.044 SA
ENDBRANCH   4  11
BRANCH   6  14
HETATM   14  S2  UNL     1       3.245  38.913  39.651  1.00  0.00     0.240 S 
HETATM   15  C6  UNL     1       3.400  40.688  39.588  1.00  0.00     0.186 C 
HETATM   16  O1  UNL     1       4.501  38.355  39.024  1.00  0.00    -0.206 OA
HETATM   17  O2  UNL     1       3.099  38.520  41.066  1.00  0.00    -0.206 OA
ENDBRANCH   6  14
TORSDOF 3
ENDMDL
MODEL 3
REMARK VINA RESULT: -5.996649569      2.587      4.141
REMARK  3 active torsions:
REMARK  status: ('A' for Active; 'I' for Inactive)
REMARK    1  A    between atoms: C2_2  and  N1_4 
REMARK       I    between atoms: N1_4  and  C4_6 
REMARK       I    between atoms: C4_6  and  N4_12 
REMARK    2  A    between atoms: N2_7  and  C5_9 
REMARK    3  A    between atoms: N4_12  and  S2_14 
ROOT
HETATM    1  N1  UNL     1       0.640  37.193  37.754  1.00  0.00    -0.222 N 
ATOM      2  H1  UNL     1       1.313  37.196  36.988  1.00  0.00     0.178 HD
HETATM    3  C4  UNL     1       1.134  37.345  39.074  1.00  0.00     0.689 C 
HETATM    4  N2  UNL     1       1.390  36.320  39.781  1.00  0.00    -0.168 N 
ATOM      5  H2  UNL     1       1.744  36.489  40.723  1.00  0.00     0.186 HD
HETATM    6  N4  UNL     1       1.348  38.642  39.615  1.00  0.00    -0.117 N 
ATOM      7  H4  UNL     1       0.845  39.441  39.228  1.00  0.00     0.197 HD
ENDROOT
BRANCH   1   8
HETATM    8  C2  UNL     1      -0.742  37.037  37.428  1.00  0.00     0.091 C 
HETATM    9  C1  UNL     1      -0.927  36.054  36.298  1.00  0.00     0.032 C 
HETATM   10  C3  UNL     1      -1.427  38.334  37.064  1.00  0.00     0.032 C 
ENDBRANCH   1   8
BRANCH   4  11
HETATM   11  C5  UNL     1       1.234  34.985  39.395  1.00  0.00     0.199 C 
HETATM   12  N3  UNL     1      -0.077  34.410  39.448  1.00  0.00    -0.069 NA
HETATM   13  S1  UNL     1       2.451  34.022  38.885  1.00  0.00    -0.044 SA
ENDBRANCH   4  11
BRANCH   6  14
HETATM   14  S2  UNL     1       2.447  38.879  40.916  1.00  0.00     0.240 S 
HETATM   15  C6  UNL     1       2.746  40.617  41.181  1.00  0.00     0.186 C 
HETATM   16  O1  UNL     1       3.785  38.266  40.575  1.00  0.00    -0.206 OA
HETATM   17  O2  UNL     1       1.874  38.322  42.157  1.00  0.00    -0.206 OA
ENDBRANCH   6  14
TORSDOF 3
ENDMDL
MODEL 4
REMARK VINA RESULT: -5.920337941      2.735      4.425
REMARK  3 active torsions:
REMARK  status: ('A' for Active; 'I' for Inactive)
REMARK    1  A    between atoms: C2_2  and  N1_4 
REMARK       I    between atoms: N1_4  and  C4_6 
REMARK       I    between atoms: C4_6  and  N4_12 
REMARK    2  A    between atoms: N2_7  and  C5_9 
REMARK    3  A    between atoms: N4_12  and  S2_14 
ROOT
HETATM    1  N1  UNL     1       0.506  36.444  37.442  1.00  0.00    -0.222 N 
ATOM      2  H1  UNL     1       0.632  37.003  36.599  1.00  0.00     0.178 HD
HETATM    3  C4  UNL     1       1.119  36.897  38.637  1.00  0.00     0.689 C 
HETATM    4  N2  UNL     1       2.270  36.469  38.966  1.00  0.00    -0.168 N 
ATOM      5  H2  UNL     1       2.663  36.830  39.836  1.00  0.00     0.186 HD
HETATM    6  N4  UNL     1       0.453  37.833  39.475  1.00  0.00    -0.117 N 
ATOM      7  H4  UNL     1      -0.563  37.919  39.429  1.00  0.00     0.197 HD
ENDROOT
BRANCH   1   8
HETATM    8  C2  UNL     1      -0.277  35.254  37.344  1.00  0.00     0.091 C 
HETATM    9  C1  UNL     1      -1.268  35.346  36.210  1.00  0.00     0.032 C 
HETATM   10  C3  UNL     1      -1.020  34.913  38.615  1.00  0.00     0.032 C 
ENDBRANCH   1   8
BRANCH   4  11
HETATM   11  C5  UNL     1       3.050  35.553  38.253  1.00  0.00     0.199 C 
HETATM   12  N3  UNL     1       3.759  36.017  37.098  1.00  0.00    -0.069 NA
HETATM   13  S1  UNL     1       3.212  33.975  38.645  1.00  0.00    -0.044 SA
ENDBRANCH   4  11
BRANCH   6  14
HETATM   14  S2  UNL     1       1.342  38.821  40.566  1.00  0.00     0.240 S 
HETATM   15  C6  UNL     1       0.308  40.110  41.235  1.00  0.00     0.186 C 
HETATM   16  O1  UNL     1       2.463  39.516  39.830  1.00  0.00    -0.206 OA
HETATM   17  O2  UNL     1       1.832  38.001  41.692  1.00  0.00    -0.206 OA
ENDBRANCH   6  14
TORSDOF 3
ENDMDL
MODEL 5
REMARK VINA RESULT: -5.814135573      3.852      5.327
REMARK  3 active torsions:
REMARK  status: ('A' for Active; 'I' for Inactive)
REMARK    1  A    between atoms: C2_2  and  N1_4 
REMARK       I    between atoms: N1_4  and  C4_6 
REMARK       I    between atoms: C4_6  and  N4_12 
REMARK    2  A    between atoms: N2_7  and  C5_9 
REMARK    3  A    between atoms: N4_12  and  S2_14 
ROOT
HETATM    1  N1  UNL     1       0.113  39.651  38.268  1.00  0.00    -0.222 N 
ATOM      2  H1  UNL     1       0.452  39.669  37.306  1.00  0.00     0.178 HD
HETATM    3  C4  UNL     1       0.956  40.177  39.279  1.00  0.00     0.689 C 
HETATM    4  N2  UNL     1       1.734  39.408  39.926  1.00  0.00    -0.168 N 
ATOM      5  H2  UNL     1       2.319  39.841  40.641  1.00  0.00     0.186 HD
HETATM    6  N4  UNL     1       0.938  41.568  39.576  1.00  0.00    -0.117 N 
ATOM      7  H4  UNL     1       0.117  42.125  39.338  1.00  0.00     0.197 HD
ENDROOT
BRANCH   1   8
HETATM    8  C2  UNL     1      -1.181  39.098  38.510  1.00  0.00     0.091 C 
HETATM    9  C1  UNL     1      -1.407  37.858  37.681  1.00  0.00     0.032 C 
HETATM   10  C3  UNL     1      -2.310  40.069  38.254  1.00  0.00     0.032 C 
ENDBRANCH   1   8
BRANCH   4  11
HETATM   11  C5  UNL     1       1.867  38.026  39.753  1.00  0.00     0.199 C 
HETATM   12  N3  UNL     1       1.075  37.158  40.572  1.00  0.00    -0.069 NA
HETATM   13  S1  UNL     1       2.873  37.322  38.674  1.00  0.00    -0.044 SA
ENDBRANCH   4  11
BRANCH   6  14
HETATM   14  S2  UNL     1       2.288  42.320  40.330  1.00  0.00     0.240 S 
HETATM   15  C6  UNL     1       2.615  43.912  39.597  1.00  0.00     0.186 C 
HETATM   16  O1  UNL     1       3.529  41.488  40.108  1.00  0.00    -0.206 OA
HETATM   17  O2  UNL     1       2.001  42.531  41.763  1.00  0.00    -0.206 OA
ENDBRANCH   6  14
TORSDOF 3
ENDMDL
