MODEL 1
REMARK VINA RESULT: -5.841005129      0.000      0.000
REMARK  5 active torsions:
REMARK  status: ('A' for Active; 'I' for Inactive)
REMARK    1  A    between atoms: C2_2  and  N1_3 
REMARK    2  A    between atoms: N1_3  and  C3_5 
REMARK    3  A    between atoms: C3_5  and  N2_7 
REMARK    4  A    between atoms: N2_7  and  C4_9 
REMARK    5  A    between atoms: N4_15  and  C7_16 
ROOT
HETATM    1  C4  UNL     1      -0.132  37.788  38.674  1.00  0.00     0.209 C 
HETATM    2  C5  UNL     1      -0.798  39.113  38.381  1.00  0.00     0.171 C 
HETATM    3  N3  UNL     1      -1.200  38.964  36.996  1.00  0.00    -0.339 N 
ATOM      4  H3  UNL     1      -1.292  39.714  36.311  1.00  0.00     0.164 HD
HETATM    5  C6  UNL     1      -1.440  37.589  36.770  1.00  0.00     0.320 C 
HETATM    6  O1  UNL     1      -2.021  37.135  35.728  1.00  0.00    -0.247 OA
HETATM    7  N4  UNL     1      -0.940  36.851  37.866  1.00  0.00    -0.303 N 
ENDROOT
BRANCH   1   8
HETATM    8  N2  UNL     1       1.219  37.798  38.257  1.00  0.00    -0.344 N 
ATOM      9  H2  UNL     1       1.381  38.198  37.332  1.00  0.00     0.164 HD
BRANCH   8  10
HETATM   10  C3  UNL     1       2.364  37.349  38.908  1.00  0.00     0.169 C 
HETATM   11  S1  UNL     1       3.299  38.526  39.715  1.00  0.00    -0.041 SA
BRANCH  10  12
HETATM   12  N1  UNL     1       2.915  36.072  39.036  1.00  0.00    -0.368 N 
ATOM     13  H1  UNL     1       3.170  35.788  39.981  1.00  0.00     0.161 HD
BRANCH  12  14
HETATM   14  C2  UNL     1       3.162  35.125  38.015  1.00  0.00     0.117 C 
HETATM   15  C1  UNL     1       2.885  33.680  38.531  1.00  0.00     0.026 C 
ENDBRANCH  12  14
ENDBRANCH  10  12
ENDBRANCH   8  10
ENDBRANCH   1   8
BRANCH   7  16
HETATM   16  C7  UNL     1      -1.202  35.460  38.094  1.00  0.00     0.028 C 
HETATM   17  C8  UNL     1      -2.651  35.098  37.945  1.00  0.00     0.038 C 
HETATM   18  C9  UNL     1      -0.745  35.076  39.472  1.00  0.00     0.038 C 
HETATM   19  C10 UNL     1      -0.433  34.674  37.048  1.00  0.00     0.038 C 
ENDBRANCH   7  16
TORSDOF 5
ENDMDL
MODEL 2
REMARK VINA RESULT: -5.817688089      3.297      5.766
REMARK  5 active torsions:
REMARK  status: ('A' for Active; 'I' for Inactive)
REMARK    1  A    between atoms: C2_2  and  N1_3 
REMARK    2  A    between atoms: N1_3  and  C3_5 
REMARK    3  A    between atoms: C3_5  and  N2_7 
REMARK    4  A    between atoms: N2_7  and  C4_9 
REMARK    5  A    between atoms: N4_15  and  C7_16 
ROOT
HETATM    1  C4  UNL     1       0.316  38.604  39.207  1.00  0.00     0.209 C 
HETATM    2  C5  UNL     1       1.049  37.342  38.814  1.00  0.00     0.171 C 
HETATM    3  N3  UNL     1       2.363  37.838  38.456  1.00  0.00    -0.339 N 
ATOM      4  H3  UNL     1       2.999  37.426  37.774  1.00  0.00     0.164 HD
HETATM    5  C6  UNL     1       2.600  39.000  39.227  1.00  0.00     0.320 C 
HETATM    6  O1  UNL     1       3.743  39.561  39.328  1.00  0.00    -0.247 OA
HETATM    7  N4  UNL     1       1.389  39.401  39.835  1.00  0.00    -0.303 N 
ENDROOT
BRANCH   1   8
HETATM    8  N2  UNL     1      -0.214  39.256  38.069  1.00  0.00    -0.344 N 
ATOM      9  H2  UNL     1       0.426  39.331  37.279  1.00  0.00     0.164 HD
BRANCH   8  10
HETATM   10  C3  UNL     1      -1.472  39.811  37.858  1.00  0.00     0.169 C 
HETATM   11  S1  UNL     1      -1.584  41.512  37.939  1.00  0.00    -0.041 SA
BRANCH  10  12
HETATM   12  N1  UNL     1      -2.708  39.224  37.579  1.00  0.00    -0.368 N 
ATOM     13  H1  UNL     1      -3.479  39.867  37.403  1.00  0.00     0.161 HD
BRANCH  12  14
HETATM   14  C2  UNL     1      -3.021  37.846  37.510  1.00  0.00     0.117 C 
HETATM   15  C1  UNL     1      -3.873  37.542  36.240  1.00  0.00     0.026 C 
ENDBRANCH  12  14
ENDBRANCH  10  12
ENDBRANCH   8  10
ENDBRANCH   1   8
BRANCH   7  16
HETATM   16  C7  UNL     1       1.290  40.398  40.861  1.00  0.00     0.028 C 
HETATM   17  C8  UNL     1       1.600  41.783  40.375  1.00  0.00     0.038 C 
HETATM   18  C9  UNL     1       2.222  40.059  41.989  1.00  0.00     0.038 C 
HETATM   19  C10 UNL     1      -0.147  40.405  41.352  1.00  0.00     0.038 C 
ENDBRANCH   7  16
TORSDOF 5
ENDMDL
MODEL 3
REMARK VINA RESULT: -5.815209301      4.297      6.103
REMARK  5 active torsions:
REMARK  status: ('A' for Active; 'I' for Inactive)
REMARK    1  A    between atoms: C2_2  and  N1_3 
REMARK    2  A    between atoms: N1_3  and  C3_5 
REMARK    3  A    between atoms: C3_5  and  N2_7 
REMARK    4  A    between atoms: N2_7  and  C4_9 
REMARK    5  A    between atoms: N4_15  and  C7_16 
ROOT
HETATM    1  C4  UNL     1       0.629  41.531  38.540  1.00  0.00     0.209 C 
HETATM    2  C5  UNL     1       1.252  42.847  38.136  1.00  0.00     0.171 C 
HETATM    3  N3  UNL     1       1.525  43.473  39.415  1.00  0.00    -0.339 N 
ATOM      4  H3  UNL     1       1.545  44.475  39.604  1.00  0.00     0.164 HD
HETATM    5  C6  UNL     1       1.757  42.439  40.350  1.00  0.00     0.320 C 
HETATM    6  O1  UNL     1       2.243  42.635  41.515  1.00  0.00    -0.247 OA
HETATM    7  N4  UNL     1       1.368  41.207  39.778  1.00  0.00    -0.303 N 
ENDROOT
BRANCH   1   8
HETATM    8  N2  UNL     1      -0.755  41.680  38.788  1.00  0.00    -0.344 N 
ATOM      9  H2  UNL     1      -1.061  42.640  38.950  1.00  0.00     0.164 HD
BRANCH   8  10
HETATM   10  C3  UNL     1      -1.765  40.726  38.846  1.00  0.00     0.169 C 
HETATM   11  S1  UNL     1      -2.397  40.371  40.391  1.00  0.00    -0.041 SA
BRANCH  10  12
HETATM   12  N1  UNL     1      -2.387  39.975  37.847  1.00  0.00    -0.368 N 
ATOM     13  H1  UNL     1      -3.180  40.417  37.384  1.00  0.00     0.161 HD
BRANCH  12  14
HETATM   14  C2  UNL     1      -2.052  38.676  37.399  1.00  0.00     0.117 C 
HETATM   15  C1  UNL     1      -3.322  37.931  36.885  1.00  0.00     0.026 C 
ENDBRANCH  12  14
ENDBRANCH  10  12
ENDBRANCH   8  10
ENDBRANCH   1   8
BRANCH   7  16
HETATM   16  C7  UNL     1       1.665  39.923  40.341  1.00  0.00     0.028 C 
HETATM   17  C8  UNL     1       1.128  38.780  39.530  1.00  0.00     0.038 C 
HETATM   18  C9  UNL     1       1.104  39.837  41.731  1.00  0.00     0.038 C 
HETATM   19  C10 UNL     1       3.176  39.778  40.376  1.00  0.00     0.038 C 
ENDBRANCH   7  16
TORSDOF 5
ENDMDL
MODEL 4
REMARK VINA RESULT: -5.814963558      3.801      5.236
REMARK  5 active torsions:
REMARK  status: ('A' for Active; 'I' for Inactive)
REMARK    1  A    between atoms: C2_2  and  N1_3 
REMARK    2  A    between atoms: N1_3  and  C3_5 
REMARK    3  A    between atoms: C3_5  and  N2_7 
REMARK    4  A    between atoms: N2_7  and  C4_9 
REMARK    5  A    between atoms: N4_15  and  C7_16 
ROOT
HETATM    1  C4  UNL     1       0.246  40.359  40.489  1.00  0.00     0.209 C 
HETATM    2  C5  UNL     1      -0.313  40.689  41.854  1.00  0.00     0.171 C 
HETATM    3  N3  UNL     1      -1.720  40.901  41.576  1.00  0.00    -0.339 N 
ATOM      4  H3  UNL     1      -2.351  41.518  42.088  1.00  0.00     0.164 HD
HETATM    5  C6  UNL     1      -2.057  40.095  40.464  1.00  0.00     0.320 C 
HETATM    6  O1  UNL     1      -3.258  39.868  40.093  1.00  0.00    -0.247 OA
HETATM    7  N4  UNL     1      -0.869  39.612  39.872  1.00  0.00    -0.303 N 
ENDROOT
BRANCH   1   8
HETATM    8  N2  UNL     1       0.543  41.537  39.766  1.00  0.00    -0.344 N 
ATOM      9  H2  UNL     1      -0.120  42.301  39.899  1.00  0.00     0.164 HD
BRANCH   8  10
HETATM   10  C3  UNL     1       1.595  41.819  38.901  1.00  0.00     0.169 C 
HETATM   11  S1  UNL     1       3.089  41.065  39.239  1.00  0.00    -0.041 SA
BRANCH  10  12
HETATM   12  N1  UNL     1       1.669  42.628  37.766  1.00  0.00    -0.368 N 
ATOM     13  H1  UNL     1       1.248  42.248  36.918  1.00  0.00     0.161 HD
BRANCH  12  14
HETATM   14  C2  UNL     1       2.256  43.909  37.646  1.00  0.00     0.117 C 
HETATM   15  C1  UNL     1       3.285  43.932  36.476  1.00  0.00     0.026 C 
ENDBRANCH  12  14
ENDBRANCH  10  12
ENDBRANCH   8  10
ENDBRANCH   1   8
BRANCH   7  16
HETATM   16  C7  UNL     1      -0.822  38.589  38.868  1.00  0.00     0.028 C 
HETATM   17  C8  UNL     1      -1.244  39.071  37.511  1.00  0.00     0.038 C 
HETATM   18  C9  UNL     1      -1.704  37.442  39.271  1.00  0.00     0.038 C 
HETATM   19  C10 UNL     1       0.619  38.128  38.753  1.00  0.00     0.038 C 
ENDBRANCH   7  16
TORSDOF 5
ENDMDL
MODEL 5
REMARK VINA RESULT: -5.807224719      3.295      5.785
REMARK  5 active torsions:
REMARK  status: ('A' for Active; 'I' for Inactive)
REMARK    1  A    between atoms: C2_2  and  N1_3 
REMARK    2  A    between atoms: N1_3  and  C3_5 
REMARK    3  A    between atoms: C3_5  and  N2_7 
REMARK    4  A    between atoms: N2_7  and  C4_9 
REMARK    5  A    between atoms: N4_15  and  C7_16 
ROOT
HETATM    1  C4  UNL     1       0.313  38.604  39.206  1.00  0.00     0.209 C 
HETATM    2  C5  UNL     1       1.047  37.340  38.824  1.00  0.00     0.171 C 
HETATM    3  N3  UNL     1       2.361  37.835  38.464  1.00  0.00    -0.339 N 
ATOM      4  H3  UNL     1       2.998  37.417  37.786  1.00  0.00     0.164 HD
HETATM    5  C6  UNL     1       2.596  39.002  39.226  1.00  0.00     0.320 C 
HETATM    6  O1  UNL     1       3.739  39.565  39.323  1.00  0.00    -0.247 OA
HETATM    7  N4  UNL     1       1.385  39.407  39.830  1.00  0.00    -0.303 N 
ENDROOT
BRANCH   1   8
HETATM    8  N2  UNL     1      -0.217  39.247  38.064  1.00  0.00    -0.344 N 
ATOM      9  H2  UNL     1       0.425  39.319  37.274  1.00  0.00     0.164 HD
BRANCH   8  10
HETATM   10  C3  UNL     1      -1.476  39.798  37.846  1.00  0.00     0.169 C 
HETATM   11  S1  UNL     1      -1.603  41.495  37.971  1.00  0.00    -0.041 SA
BRANCH  10  12
HETATM   12  N1  UNL     1      -2.702  39.209  37.531  1.00  0.00    -0.368 N 
ATOM     13  H1  UNL     1      -3.463  39.851  37.311  1.00  0.00     0.161 HD
BRANCH  12  14
HETATM   14  C2  UNL     1      -3.018  37.831  37.479  1.00  0.00     0.117 C 
HETATM   15  C1  UNL     1      -3.914  37.522  36.241  1.00  0.00     0.026 C 
ENDBRANCH  12  14
ENDBRANCH  10  12
ENDBRANCH   8  10
ENDBRANCH   1   8
BRANCH   7  16
HETATM   16  C7  UNL     1       1.283  40.412  40.848  1.00  0.00     0.028 C 
HETATM   17  C8  UNL     1       2.272  40.230  41.962  1.00  0.00     0.038 C 
HETATM   18  C9  UNL     1      -0.103  40.410  41.426  1.00  0.00     0.038 C 
HETATM   19  C10 UNL     1       1.579  41.751  40.198  1.00  0.00     0.038 C 
ENDBRANCH   7  16
TORSDOF 5
ENDMDL
