MODEL 1
REMARK VINA RESULT: -6.772717307      0.000      0.000
REMARK  4 active torsions:
REMARK  status: ('A' for Active; 'I' for Inactive)
REMARK       I    between atoms: N2_3  and  C2_5 
REMARK       I    between atoms: C2_5  and  N5_15 
REMARK    1  A    between atoms: N3_6  and  C3_8 
REMARK    2  A    between atoms: C3_8  and  C4_10 
REMARK    3  A    between atoms: C4_10  and  N4_11 
REMARK    4  A    between atoms: N5_15  and  C5_17 
ROOT
HETATM    1  N1  UNL     1      -1.298  37.281  32.903  1.00  0.00    -0.171 NA
HETATM    2  C1  UNL     1      -1.021  37.242  34.023  1.00  0.00     0.196 C 
HETATM    3  N2  UNL     1      -0.684  37.181  35.371  1.00  0.00    -0.126 N 
ATOM      4  H2  UNL     1       0.171  36.715  35.676  1.00  0.00     0.197 HD
HETATM    5  C2  UNL     1      -1.573  37.792  36.323  1.00  0.00     0.688 C 
HETATM    6  N3  UNL     1      -1.030  38.658  37.106  1.00  0.00    -0.183 N 
ATOM      7  H3  UNL     1      -0.036  38.876  37.034  1.00  0.00     0.185 HD
HETATM    8  N5  UNL     1      -2.941  37.469  36.395  1.00  0.00    -0.221 N 
ATOM      9  H5  UNL     1      -3.621  38.183  36.658  1.00  0.00     0.178 HD
ENDROOT
BRANCH   6  10
HETATM   10  C3  UNL     1      -1.849  39.304  38.073  1.00  0.00     0.119 C 
HETATM   11  S1  UNL     1      -2.304  38.524  39.421  1.00  0.00    -0.063 SA
BRANCH  10  12
HETATM   12  C4  UNL     1      -2.279  40.683  37.838  1.00  0.00     0.299 C 
BRANCH  12  13
HETATM   13  N4  UNL     1      -2.172  41.482  39.046  1.00  0.00    -0.073 N 
ATOM     14  H43 UNL     1      -2.476  42.442  38.886  1.00  0.00     0.274 HD
ATOM     15  H42 UNL     1      -2.871  41.209  39.738  1.00  0.00     0.274 HD
ATOM     16  H41 UNL     1      -1.229  41.447  39.432  1.00  0.00     0.274 HD
ENDBRANCH  12  13
ENDBRANCH  10  12
ENDBRANCH   6  10
BRANCH   8  17
HETATM   17  C5  UNL     1      -3.381  36.132  36.100  1.00  0.00     0.099 C 
HETATM   18  C6  UNL     1      -4.885  36.029  36.013  1.00  0.00     0.026 C 
HETATM   19  C7  UNL     1      -5.268  34.640  36.536  1.00  0.00     0.002 C 
HETATM   20  C8  UNL     1      -5.080  34.704  38.038  1.00  0.00     0.000 C 
HETATM   21  C9  UNL     1      -3.621  34.925  38.303  1.00  0.00     0.002 C 
HETATM   22  C10 UNL     1      -2.785  35.198  37.100  1.00  0.00     0.026 C 
ENDBRANCH   8  17
TORSDOF 4
ENDMDL
MODEL 2
REMARK VINA RESULT: -6.677560396      3.711      4.731
REMARK  4 active torsions:
REMARK  status: ('A' for Active; 'I' for Inactive)
REMARK       I    between atoms: N2_3  and  C2_5 
REMARK       I    between atoms: C2_5  and  N5_15 
REMARK    1  A    between atoms: N3_6  and  C3_8 
REMARK    2  A    between atoms: C3_8  and  C4_10 
REMARK    3  A    between atoms: C4_10  and  N4_11 
REMARK    4  A    between atoms: N5_15  and  C5_17 
ROOT
HETATM    1  N1  UNL     1       1.314  33.744  38.588  1.00  0.00    -0.171 NA
HETATM    2  C1  UNL     1       1.132  34.547  39.397  1.00  0.00     0.196 C 
HETATM    3  N2  UNL     1       0.903  35.506  40.377  1.00  0.00    -0.126 N 
ATOM      4  H2  UNL     1       0.760  35.237  41.350  1.00  0.00     0.197 HD
HETATM    5  C2  UNL     1       0.874  36.890  39.980  1.00  0.00     0.688 C 
HETATM    6  N3  UNL     1       1.680  37.663  40.621  1.00  0.00    -0.183 N 
ATOM      7  H3  UNL     1       2.285  37.294  41.354  1.00  0.00     0.185 HD
HETATM    8  N5  UNL     1       0.025  37.366  38.964  1.00  0.00    -0.221 N 
ATOM      9  H5  UNL     1       0.328  38.134  38.365  1.00  0.00     0.178 HD
ENDROOT
BRANCH   6  10
HETATM   10  C3  UNL     1       1.704  39.045  40.282  1.00  0.00     0.119 C 
HETATM   11  S1  UNL     1       0.688  40.087  40.997  1.00  0.00    -0.063 SA
BRANCH  10  12
HETATM   12  C4  UNL     1       2.658  39.516  39.278  1.00  0.00     0.299 C 
BRANCH  12  13
HETATM   13  N4  UNL     1       4.023  39.185  39.650  1.00  0.00    -0.073 N 
ATOM     14  H43 UNL     1       4.455  39.936  40.187  1.00  0.00     0.274 HD
ATOM     15  H42 UNL     1       4.050  38.450  40.356  1.00  0.00     0.274 HD
ATOM     16  H41 UNL     1       4.581  38.941  38.832  1.00  0.00     0.274 HD
ENDBRANCH  12  13
ENDBRANCH  10  12
ENDBRANCH   6  10
BRANCH   8  17
HETATM   17  C5  UNL     1      -1.270  36.771  38.770  1.00  0.00     0.099 C 
HETATM   18  C6  UNL     1      -1.470  36.282  37.355  1.00  0.00     0.026 C 
HETATM   19  C7  UNL     1      -2.953  36.474  37.022  1.00  0.00     0.002 C 
HETATM   20  C8  UNL     1      -3.138  37.965  36.828  1.00  0.00     0.000 C 
HETATM   21  C9  UNL     1      -2.856  38.631  38.142  1.00  0.00     0.002 C 
HETATM   22  C10 UNL     1      -2.316  37.741  39.208  1.00  0.00     0.026 C 
ENDBRANCH   8  17
TORSDOF 4
ENDMDL
MODEL 3
REMARK VINA RESULT: -6.644342090      4.144      5.356
REMARK  4 active torsions:
REMARK  status: ('A' for Active; 'I' for Inactive)
REMARK       I    between atoms: N2_3  and  C2_5 
REMARK       I    between atoms: C2_5  and  N5_15 
REMARK    1  A    between atoms: N3_6  and  C3_8 
REMARK    2  A    between atoms: C3_8  and  C4_10 
REMARK    3  A    between atoms: C4_10  and  N4_11 
REMARK    4  A    between atoms: N5_15  and  C5_17 
ROOT
HETATM    1  N1  UNL     1      -2.817  37.356  37.632  1.00  0.00    -0.171 NA
HETATM    2  C1  UNL     1      -1.769  37.834  37.558  1.00  0.00     0.196 C 
HETATM    3  N2  UNL     1      -0.504  38.404  37.457  1.00  0.00    -0.126 N 
ATOM      4  H2  UNL     1      -0.216  38.891  36.609  1.00  0.00     0.197 HD
HETATM    5  C2  UNL     1       0.387  38.287  38.581  1.00  0.00     0.688 C 
HETATM    6  N3  UNL     1       0.859  39.399  39.027  1.00  0.00    -0.183 N 
ATOM      7  H3  UNL     1       0.603  40.286  38.593  1.00  0.00     0.185 HD
HETATM    8  N5  UNL     1       0.720  37.046  39.156  1.00  0.00    -0.221 N 
ATOM      9  H5  UNL     1       0.894  36.979  40.158  1.00  0.00     0.178 HD
ENDROOT
BRANCH   6  10
HETATM   10  C3  UNL     1       1.747  39.361  40.138  1.00  0.00     0.119 C 
HETATM   11  S1  UNL     1       1.236  39.790  41.616  1.00  0.00    -0.063 SA
BRANCH  10  12
HETATM   12  C4  UNL     1       3.129  38.928  39.931  1.00  0.00     0.299 C 
BRANCH  12  13
HETATM   13  N4  UNL     1       3.799  38.681  41.195  1.00  0.00    -0.073 N 
ATOM     14  H43 UNL     1       4.791  38.910  41.143  1.00  0.00     0.274 HD
ATOM     15  H42 UNL     1       3.519  39.357  41.906  1.00  0.00     0.274 HD
ATOM     16  H41 UNL     1       3.653  37.723  41.512  1.00  0.00     0.274 HD
ENDBRANCH  12  13
ENDBRANCH  10  12
ENDBRANCH   6  10
BRANCH   8  17
HETATM   17  C5  UNL     1       0.814  35.873  38.330  1.00  0.00     0.099 C 
HETATM   18  C6  UNL     1       0.697  34.597  39.130  1.00  0.00     0.026 C 
HETATM   19  C7  UNL     1       1.590  33.558  38.444  1.00  0.00     0.002 C 
HETATM   20  C8  UNL     1       3.013  33.962  38.773  1.00  0.00     0.000 C 
HETATM   21  C9  UNL     1       3.263  35.296  38.137  1.00  0.00     0.002 C 
HETATM   22  C10 UNL     1       2.070  35.949  37.528  1.00  0.00     0.026 C 
ENDBRANCH   8  17
TORSDOF 4
ENDMDL
MODEL 4
REMARK VINA RESULT: -6.581799014      2.822      4.311
REMARK  4 active torsions:
REMARK  status: ('A' for Active; 'I' for Inactive)
REMARK       I    between atoms: N2_3  and  C2_5 
REMARK       I    between atoms: C2_5  and  N5_15 
REMARK    1  A    between atoms: N3_6  and  C3_8 
REMARK    2  A    between atoms: C3_8  and  C4_10 
REMARK    3  A    between atoms: C4_10  and  N4_11 
REMARK    4  A    between atoms: N5_15  and  C5_17 
ROOT
HETATM    1  N1  UNL     1      -1.336  36.925  33.224  1.00  0.00    -0.171 NA
HETATM    2  C1  UNL     1      -1.489  36.279  34.169  1.00  0.00     0.196 C 
HETATM    3  N2  UNL     1      -1.687  35.503  35.306  1.00  0.00    -0.126 N 
ATOM      4  H2  UNL     1      -2.414  34.788  35.331  1.00  0.00     0.197 HD
HETATM    5  C2  UNL     1      -0.839  35.737  36.445  1.00  0.00     0.688 C 
HETATM    6  N3  UNL     1      -0.217  34.701  36.890  1.00  0.00    -0.183 N 
ATOM      7  H3  UNL     1      -0.335  33.791  36.446  1.00  0.00     0.185 HD
HETATM    8  N5  UNL     1      -0.699  37.008  37.034  1.00  0.00    -0.221 N 
ATOM      9  H5  UNL     1       0.192  37.282  37.448  1.00  0.00     0.178 HD
ENDROOT
BRANCH   6  10
HETATM   10  C3  UNL     1       0.639  34.858  38.015  1.00  0.00     0.119 C 
HETATM   11  S1  UNL     1       2.215  35.186  37.812  1.00  0.00    -0.063 SA
BRANCH  10  12
HETATM   12  C4  UNL     1       0.082  34.719  39.360  1.00  0.00     0.299 C 
BRANCH  12  13
HETATM   13  N4  UNL     1       0.890  35.421  40.342  1.00  0.00    -0.073 N 
ATOM     14  H43 UNL     1       1.610  34.815  40.734  1.00  0.00     0.274 HD
ATOM     15  H42 UNL     1       1.492  36.117  39.902  1.00  0.00     0.274 HD
ATOM     16  H41 UNL     1       0.310  35.834  41.072  1.00  0.00     0.274 HD
ENDBRANCH  12  13
ENDBRANCH  10  12
ENDBRANCH   6  10
BRANCH   8  17
HETATM   17  C5  UNL     1      -1.811  37.919  37.053  1.00  0.00     0.099 C 
HETATM   18  C6  UNL     1      -1.401  39.317  37.453  1.00  0.00     0.026 C 
HETATM   19  C7  UNL     1      -2.575  39.920  38.232  1.00  0.00     0.002 C 
HETATM   20  C8  UNL     1      -2.567  39.231  39.581  1.00  0.00     0.000 C 
HETATM   21  C9  UNL     1      -2.849  37.776  39.349  1.00  0.00     0.002 C 
HETATM   22  C10 UNL     1      -2.884  37.351  37.921  1.00  0.00     0.026 C 
ENDBRANCH   8  17
TORSDOF 4
ENDMDL
MODEL 5
REMARK VINA RESULT: -6.532343078      3.527      4.482
REMARK  4 active torsions:
REMARK  status: ('A' for Active; 'I' for Inactive)
REMARK       I    between atoms: N2_3  and  C2_5 
REMARK       I    between atoms: C2_5  and  N5_15 
REMARK    1  A    between atoms: N3_6  and  C3_8 
REMARK    2  A    between atoms: C3_8  and  C4_10 
REMARK    3  A    between atoms: C4_10  and  N4_11 
REMARK    4  A    between atoms: N5_15  and  C5_17 
ROOT
HETATM    1  N1  UNL     1       1.434  33.910  38.472  1.00  0.00    -0.171 NA
HETATM    2  C1  UNL     1       1.221  34.662  39.321  1.00  0.00     0.196 C 
HETATM    3  N2  UNL     1       0.955  35.560  40.349  1.00  0.00    -0.126 N 
ATOM      4  H2  UNL     1       0.829  35.237  41.308  1.00  0.00     0.197 HD
HETATM    5  C2  UNL     1       0.860  36.959  40.022  1.00  0.00     0.688 C 
HETATM    6  N3  UNL     1       1.634  37.735  40.699  1.00  0.00    -0.183 N 
ATOM      7  H3  UNL     1       2.260  37.357  41.411  1.00  0.00     0.185 HD
HETATM    8  N5  UNL     1      -0.014  37.447  39.034  1.00  0.00    -0.221 N 
ATOM      9  H5  UNL     1       0.250  38.257  38.474  1.00  0.00     0.178 HD
ENDROOT
BRANCH   6  10
HETATM   10  C3  UNL     1       1.595  39.131  40.430  1.00  0.00     0.119 C 
HETATM   11  S1  UNL     1       2.590  39.787  39.328  1.00  0.00    -0.063 SA
BRANCH  10  12
HETATM   12  C4  UNL     1       0.646  39.972  41.159  1.00  0.00     0.299 C 
BRANCH  12  13
HETATM   13  N4  UNL     1      -0.133  40.798  40.254  1.00  0.00    -0.073 N 
ATOM     14  H43 UNL     1      -0.197  40.378  39.327  1.00  0.00     0.274 HD
ATOM     15  H42 UNL     1      -1.124  40.790  40.499  1.00  0.00     0.274 HD
ATOM     16  H41 UNL     1       0.234  41.748  40.210  1.00  0.00     0.274 HD
ENDBRANCH  12  13
ENDBRANCH  10  12
ENDBRANCH   6  10
BRANCH   8  17
HETATM   17  C5  UNL     1      -1.282  36.805  38.814  1.00  0.00     0.099 C 
HETATM   18  C6  UNL     1      -1.434  36.306  37.396  1.00  0.00     0.026 C 
HETATM   19  C7  UNL     1      -2.916  36.443  37.032  1.00  0.00     0.002 C 
HETATM   20  C8  UNL     1      -3.151  37.926  36.831  1.00  0.00     0.000 C 
HETATM   21  C9  UNL     1      -2.921  38.604  38.149  1.00  0.00     0.002 C 
HETATM   22  C10 UNL     1      -2.372  37.736  39.228  1.00  0.00     0.026 C 
ENDBRANCH   8  17
TORSDOF 4
ENDMDL
