MODEL 1
REMARK VINA RESULT: -7.557502576      0.000      0.000
REMARK  13 active torsions:
REMARK  status: ('A' for Active; 'I' for Inactive)
REMARK    1  A    between atoms: C2_2  and  C4_4 
REMARK    2  A    between atoms: C4_4  and  N2_8 
REMARK    3  A    between atoms: N2_8  and  C5_10 
REMARK    4  A    between atoms: C5_10  and  C6_11 
REMARK    5  A    between atoms: C6_11  and  N3_12 
REMARK    6  A    between atoms: N3_12  and  C8_14 
REMARK    7  A    between atoms: C8_14  and  C9_15 
REMARK    8  A    between atoms: C9_15  and  O1_16 
REMARK    9  A    between atoms: O1_16  and  C10_17 
REMARK   10  A    between atoms: N4_18  and  C11_20 
REMARK   11  A    between atoms: C13_22  and  O2_23 
REMARK   12  A    between atoms: C14_25  and  C15_26 
REMARK   13  A    between atoms: N8_33  and  C16_34 
ROOT
HETATM    1  C11 UNL     1      23.576  37.499  26.066  1.00  0.00     0.078 A 
HETATM    2  C12 UNL     1      23.642  38.493  27.007  1.00  0.00     0.075 A 
HETATM    3  C13 UNL     1      22.632  39.388  27.036  1.00  0.00     0.089 A 
HETATM    4  C14 UNL     1      21.622  39.215  26.109  1.00  0.00     0.087 A 
HETATM    5  S1  UNL     1      22.126  37.842  25.267  1.00  0.00    -0.066 SA
ENDROOT
BRANCH   1   6
HETATM    6  N4  UNL     1      24.537  36.438  25.855  1.00  0.00    -0.342 N 
HETATM    7  C10 UNL     1      24.856  36.200  24.631  1.00  0.00     0.227 C 
ATOM      8  H4  UNL     1      24.938  35.909  26.630  1.00  0.00     0.167 HD
BRANCH   7   9
HETATM    9  O1  UNL     1      25.786  35.173  24.414  1.00  0.00    -0.345 OA
BRANCH   9  10
HETATM   10  C9  UNL     1      27.015  35.513  23.814  1.00  0.00     0.206 C 
BRANCH  10  11
HETATM   11  C8  UNL     1      26.841  36.800  23.063  1.00  0.00     0.298 C 
BRANCH  11  12
HETATM   12  N3  UNL     1      27.797  37.805  23.434  1.00  0.00     0.087 N 
HETATM   13  C7  UNL     1      27.985  37.793  24.896  1.00  0.00     0.310 C 
BRANCH  12  14
HETATM   14  C6  UNL     1      27.520  39.122  22.961  1.00  0.00     0.291 C 
BRANCH  14  15
HETATM   15  C5  UNL     1      26.725  39.887  23.977  1.00  0.00     0.151 C 
BRANCH  15  16
HETATM   16  N2  UNL     1      27.186  41.244  24.162  1.00  0.00    -0.378 N 
ATOM     17  H2  UNL     1      26.547  41.899  24.613  1.00  0.00     0.160 HD
BRANCH  16  18
HETATM   18  C4  UNL     1      28.453  41.736  23.768  1.00  0.00     0.074 C 
HETATM   19  N1  UNL     1      29.497  41.369  24.382  1.00  0.00    -0.389 N 
ATOM     20  H12 UNL     1      30.410  41.724  24.098  1.00  0.00     0.157 HD
ATOM     21  H11 UNL     1      29.446  40.717  25.165  1.00  0.00     0.157 HD
BRANCH  18  22
HETATM   22  C2  UNL     1      28.526  42.682  22.631  1.00  0.00     0.044 C 
HETATM   23  C1  UNL     1      29.275  42.066  21.466  1.00  0.00     0.017 C 
HETATM   24  C3  UNL     1      29.256  43.940  23.093  1.00  0.00     0.017 C 
ENDBRANCH  18  22
ENDBRANCH  16  18
ENDBRANCH  15  16
ENDBRANCH  14  15
ENDBRANCH  12  14
ENDBRANCH  11  12
ENDBRANCH  10  11
ENDBRANCH   9  10
ENDBRANCH   7   9
ENDBRANCH   1   6
BRANCH   3  25
HETATM   25  O2  UNL     1      22.624  40.451  27.982  1.00  0.00    -0.359 OA
ATOM     26  H2  UNL     1      21.829  40.943  28.158  1.00  0.00     0.217 HD
ENDBRANCH   3  25
BRANCH   4  27
HETATM   27  C15 UNL     1      20.435  40.101  26.000  1.00  0.00     0.160 A 
HETATM   28  N5  UNL     1      19.433  40.147  26.901  1.00  0.00    -0.267 N 
HETATM   29  N6  UNL     1      18.579  41.033  26.476  1.00  0.00    -0.226 N 
ATOM     30  H5  UNL     1      19.358  39.593  27.754  1.00  0.00     0.190 HD
HETATM   31  N7  UNL     1      19.016  41.527  25.358  1.00  0.00    -0.224 N 
ATOM     32  H6  UNL     1      17.711  41.295  26.943  1.00  0.00     0.210 HD
HETATM   33  N8  UNL     1      20.191  40.953  25.033  1.00  0.00    -0.250 N 
ATOM     34  H7  UNL     1      18.541  42.243  24.808  1.00  0.00     0.210 HD
BRANCH  33  35
HETATM   35  C16 UNL     1      20.892  41.330  23.828  1.00  0.00     0.046 C 
HETATM   36  C17 UNL     1      20.167  42.588  23.286  1.00  0.00     0.040 C 
HETATM   37  C18 UNL     1      20.828  40.340  22.717  1.00  0.00     0.040 C 
HETATM   38  C19 UNL     1      22.277  41.791  24.153  1.00  0.00     0.040 C 
ENDBRANCH  33  35
ENDBRANCH   4  27
TORSDOF 13
ENDMDL
MODEL 2
REMARK VINA RESULT: -7.262805554      2.588      7.076
REMARK  13 active torsions:
REMARK  status: ('A' for Active; 'I' for Inactive)
REMARK    1  A    between atoms: C2_2  and  C4_4 
REMARK    2  A    between atoms: C4_4  and  N2_8 
REMARK    3  A    between atoms: N2_8  and  C5_10 
REMARK    4  A    between atoms: C5_10  and  C6_11 
REMARK    5  A    between atoms: C6_11  and  N3_12 
REMARK    6  A    between atoms: N3_12  and  C8_14 
REMARK    7  A    between atoms: C8_14  and  C9_15 
REMARK    8  A    between atoms: C9_15  and  O1_16 
REMARK    9  A    between atoms: O1_16  and  C10_17 
REMARK   10  A    between atoms: N4_18  and  C11_20 
REMARK   11  A    between atoms: C13_22  and  O2_23 
REMARK   12  A    between atoms: C14_25  and  C15_26 
REMARK   13  A    between atoms: N8_33  and  C16_34 
ROOT
HETATM    1  C11 UNL     1      27.414  37.915  23.980  1.00  0.00     0.078 A 
HETATM    2  C12 UNL     1      27.737  38.273  22.697  1.00  0.00     0.075 A 
HETATM    3  C13 UNL     1      27.930  39.586  22.449  1.00  0.00     0.089 A 
HETATM    4  C14 UNL     1      27.783  40.449  23.519  1.00  0.00     0.087 A 
HETATM    5  S1  UNL     1      27.393  39.402  24.784  1.00  0.00    -0.066 SA
ENDROOT
BRANCH   1   6
HETATM    6  N4  UNL     1      27.167  36.577  24.471  1.00  0.00    -0.342 N 
HETATM    7  C10 UNL     1      25.931  36.222  24.547  1.00  0.00     0.227 C 
ATOM      8  H4  UNL     1      27.926  35.952  24.742  1.00  0.00     0.167 HD
BRANCH   7   9
HETATM    9  O1  UNL     1      25.679  34.928  25.023  1.00  0.00    -0.345 OA
BRANCH   9  10
HETATM   10  C9  UNL     1      24.353  34.600  25.370  1.00  0.00     0.206 C 
BRANCH  10  11
HETATM   11  C8  UNL     1      23.422  35.467  24.575  1.00  0.00     0.298 C 
BRANCH  11  12
HETATM   12  N3  UNL     1      22.382  36.059  25.370  1.00  0.00     0.087 N 
HETATM   13  C7  UNL     1      21.184  36.271  24.539  1.00  0.00     0.310 C 
BRANCH  12  14
HETATM   14  C6  UNL     1      22.745  37.250  26.067  1.00  0.00     0.291 C 
BRANCH  14  15
HETATM   15  C5  UNL     1      23.306  38.263  25.115  1.00  0.00     0.151 C 
BRANCH  15  16
HETATM   16  N2  UNL     1      22.628  39.538  25.170  1.00  0.00    -0.378 N 
ATOM     17  H2  UNL     1      21.843  39.626  25.815  1.00  0.00     0.160 HD
BRANCH  16  18
HETATM   18  C4  UNL     1      22.967  40.675  24.398  1.00  0.00     0.074 C 
HETATM   19  N1  UNL     1      24.101  41.220  24.532  1.00  0.00    -0.389 N 
ATOM     20  H12 UNL     1      24.345  42.039  23.976  1.00  0.00     0.157 HD
ATOM     21  H11 UNL     1      24.786  40.854  25.193  1.00  0.00     0.157 HD
BRANCH  18  22
HETATM   22  C2  UNL     1      21.972  41.205  23.438  1.00  0.00     0.044 C 
HETATM   23  C1  UNL     1      22.654  41.734  22.192  1.00  0.00     0.017 C 
HETATM   24  C3  UNL     1      21.204  42.339  24.113  1.00  0.00     0.017 C 
ENDBRANCH  18  22
ENDBRANCH  16  18
ENDBRANCH  15  16
ENDBRANCH  14  15
ENDBRANCH  12  14
ENDBRANCH  11  12
ENDBRANCH  10  11
ENDBRANCH   9  10
ENDBRANCH   7   9
ENDBRANCH   1   6
BRANCH   3  25
HETATM   25  O2  UNL     1      28.267  40.042  21.144  1.00  0.00    -0.359 OA
ATOM     26  H2  UNL     1      28.524  40.945  20.993  1.00  0.00     0.217 HD
ENDBRANCH   3  25
BRANCH   4  27
HETATM   27  C15 UNL     1      27.961  41.920  23.428  1.00  0.00     0.160 A 
HETATM   28  N5  UNL     1      26.951  42.812  23.451  1.00  0.00    -0.267 N 
HETATM   29  N6  UNL     1      27.486  43.996  23.353  1.00  0.00    -0.226 N 
ATOM     30  H5  UNL     1      25.956  42.601  23.530  1.00  0.00     0.190 HD
HETATM   31  N7  UNL     1      28.774  43.862  23.271  1.00  0.00    -0.224 N 
ATOM     32  H6  UNL     1      26.977  44.880  23.341  1.00  0.00     0.210 HD
HETATM   33  N8  UNL     1      29.103  42.557  23.315  1.00  0.00    -0.250 N 
ATOM     34  H7  UNL     1      29.439  44.632  23.185  1.00  0.00     0.210 HD
BRANCH  33  35
HETATM   35  C16 UNL     1      30.483  42.137  23.243  1.00  0.00     0.046 C 
HETATM   36  C17 UNL     1      31.332  43.403  23.520  1.00  0.00     0.040 C 
HETATM   37  C18 UNL     1      30.933  41.654  21.908  1.00  0.00     0.040 C 
HETATM   38  C19 UNL     1      30.803  41.204  24.367  1.00  0.00     0.040 C 
ENDBRANCH  33  35
ENDBRANCH   4  27
TORSDOF 13
ENDMDL
MODEL 3
REMARK VINA RESULT: -7.236323575      3.011      5.886
REMARK  13 active torsions:
REMARK  status: ('A' for Active; 'I' for Inactive)
REMARK    1  A    between atoms: C2_2  and  C4_4 
REMARK    2  A    between atoms: C4_4  and  N2_8 
REMARK    3  A    between atoms: N2_8  and  C5_10 
REMARK    4  A    between atoms: C5_10  and  C6_11 
REMARK    5  A    between atoms: C6_11  and  N3_12 
REMARK    6  A    between atoms: N3_12  and  C8_14 
REMARK    7  A    between atoms: C8_14  and  C9_15 
REMARK    8  A    between atoms: C9_15  and  O1_16 
REMARK    9  A    between atoms: O1_16  and  C10_17 
REMARK   10  A    between atoms: N4_18  and  C11_20 
REMARK   11  A    between atoms: C13_22  and  O2_23 
REMARK   12  A    between atoms: C14_25  and  C15_26 
REMARK   13  A    between atoms: N8_33  and  C16_34 
ROOT
HETATM    1  C11 UNL     1      27.334  38.097  23.328  1.00  0.00     0.078 A 
HETATM    2  C12 UNL     1      26.749  38.661  24.431  1.00  0.00     0.075 A 
HETATM    3  C13 UNL     1      25.883  37.898  25.132  1.00  0.00     0.089 A 
HETATM    4  C14 UNL     1      25.668  36.614  24.667  1.00  0.00     0.087 A 
HETATM    5  S1  UNL     1      26.665  36.544  23.307  1.00  0.00    -0.066 SA
ENDROOT
BRANCH   1   6
HETATM    6  N4  UNL     1      28.287  38.721  22.436  1.00  0.00    -0.342 N 
HETATM    7  C10 UNL     1      29.125  39.532  22.983  1.00  0.00     0.227 C 
ATOM      8  H4  UNL     1      28.295  38.531  21.434  1.00  0.00     0.167 HD
BRANCH   7   9
HETATM    9  O1  UNL     1      30.053  40.144  22.128  1.00  0.00    -0.345 OA
BRANCH   9  10
HETATM   10  C9  UNL     1      30.167  41.548  22.176  1.00  0.00     0.206 C 
BRANCH  10  11
HETATM   11  C8  UNL     1      28.928  42.149  21.579  1.00  0.00     0.298 C 
BRANCH  11  12
HETATM   12  N3  UNL     1      28.198  42.973  22.502  1.00  0.00     0.087 N 
HETATM   13  C7  UNL     1      29.141  43.784  23.293  1.00  0.00     0.310 C 
BRANCH  12  14
HETATM   14  C6  UNL     1      27.276  42.284  23.345  1.00  0.00     0.291 C 
BRANCH  14  15
HETATM   15  C5  UNL     1      26.158  41.703  22.532  1.00  0.00     0.151 C 
BRANCH  15  16
HETATM   16  N2  UNL     1      24.996  41.359  23.319  1.00  0.00    -0.378 N 
ATOM     17  H2  UNL     1      25.155  40.911  24.221  1.00  0.00     0.160 HD
BRANCH  16  18
HETATM   18  C4  UNL     1      23.653  41.593  22.936  1.00  0.00     0.074 C 
HETATM   19  N1  UNL     1      23.396  42.128  21.819  1.00  0.00    -0.389 N 
ATOM     20  H12 UNL     1      22.428  42.297  21.543  1.00  0.00     0.157 HD
ATOM     21  H11 UNL     1      24.142  42.398  21.179  1.00  0.00     0.157 HD
BRANCH  18  22
HETATM   22  C2  UNL     1      22.570  41.201  23.865  1.00  0.00     0.044 C 
HETATM   23  C1  UNL     1      21.482  42.255  23.901  1.00  0.00     0.017 C 
HETATM   24  C3  UNL     1      23.164  41.040  25.262  1.00  0.00     0.017 C 
ENDBRANCH  18  22
ENDBRANCH  16  18
ENDBRANCH  15  16
ENDBRANCH  14  15
ENDBRANCH  12  14
ENDBRANCH  11  12
ENDBRANCH  10  11
ENDBRANCH   9  10
ENDBRANCH   7   9
ENDBRANCH   1   6
BRANCH   3  25
HETATM   25  O2  UNL     1      25.232  38.407  26.291  1.00  0.00    -0.359 OA
ATOM     26  H2  UNL     1      24.309  38.239  26.446  1.00  0.00     0.217 HD
ENDBRANCH   3  25
BRANCH   4  27
HETATM   27  C15 UNL     1      24.753  35.640  25.314  1.00  0.00     0.160 A 
HETATM   28  N5  UNL     1      25.123  34.769  26.274  1.00  0.00    -0.267 N 
HETATM   29  N6  UNL     1      24.063  34.085  26.596  1.00  0.00    -0.226 N 
ATOM     30  H5  UNL     1      26.056  34.665  26.672  1.00  0.00     0.190 HD
HETATM   31  N7  UNL     1      23.067  34.500  25.876  1.00  0.00    -0.224 N 
ATOM     32  H6  UNL     1      24.022  33.345  27.298  1.00  0.00     0.210 HD
HETATM   33  N8  UNL     1      23.476  35.486  25.053  1.00  0.00    -0.250 N 
ATOM     34  H7  UNL     1      22.115  34.135  25.925  1.00  0.00     0.210 HD
BRANCH  33  35
HETATM   35  C16 UNL     1      22.554  36.123  24.143  1.00  0.00     0.046 C 
HETATM   36  C17 UNL     1      21.180  35.447  24.381  1.00  0.00     0.040 C 
HETATM   37  C18 UNL     1      22.841  35.918  22.696  1.00  0.00     0.040 C 
HETATM   38  C19 UNL     1      22.352  37.555  24.526  1.00  0.00     0.040 C 
ENDBRANCH  33  35
ENDBRANCH   4  27
TORSDOF 13
ENDMDL
MODEL 4
REMARK VINA RESULT: -7.192865000      4.672      7.349
REMARK  13 active torsions:
REMARK  status: ('A' for Active; 'I' for Inactive)
REMARK    1  A    between atoms: C2_2  and  C4_4 
REMARK    2  A    between atoms: C4_4  and  N2_8 
REMARK    3  A    between atoms: N2_8  and  C5_10 
REMARK    4  A    between atoms: C5_10  and  C6_11 
REMARK    5  A    between atoms: C6_11  and  N3_12 
REMARK    6  A    between atoms: N3_12  and  C8_14 
REMARK    7  A    between atoms: C8_14  and  C9_15 
REMARK    8  A    between atoms: C9_15  and  O1_16 
REMARK    9  A    between atoms: O1_16  and  C10_17 
REMARK   10  A    between atoms: N4_18  and  C11_20 
REMARK   11  A    between atoms: C13_22  and  O2_23 
REMARK   12  A    between atoms: C14_25  and  C15_26 
REMARK   13  A    between atoms: N8_33  and  C16_34 
ROOT
HETATM    1  C11 UNL     1      22.320  41.990  21.270  1.00  0.00     0.078 A 
HETATM    2  C12 UNL     1      22.328  42.959  20.301  1.00  0.00     0.075 A 
HETATM    3  C13 UNL     1      21.514  42.780  19.238  1.00  0.00     0.089 A 
HETATM    4  C14 UNL     1      20.745  41.632  19.231  1.00  0.00     0.087 A 
HETATM    5  S1  UNL     1      21.191  40.881  20.674  1.00  0.00    -0.066 SA
ENDROOT
BRANCH   1   6
HETATM    6  N4  UNL     1      23.102  41.973  22.487  1.00  0.00    -0.342 N 
HETATM    7  C10 UNL     1      22.651  41.232  23.438  1.00  0.00     0.227 C 
ATOM      8  H4  UNL     1      23.961  42.517  22.586  1.00  0.00     0.167 HD
BRANCH   7   9
HETATM    9  O1  UNL     1      23.401  41.209  24.623  1.00  0.00    -0.345 OA
BRANCH   9  10
HETATM   10  C9  UNL     1      24.088  40.021  24.945  1.00  0.00     0.206 C 
BRANCH  10  11
HETATM   11  C8  UNL     1      25.499  40.134  24.448  1.00  0.00     0.298 C 
BRANCH  11  12
HETATM   12  N3  UNL     1      26.309  38.995  24.781  1.00  0.00     0.087 N 
HETATM   13  C7  UNL     1      27.252  38.721  23.682  1.00  0.00     0.310 C 
BRANCH  12  14
HETATM   14  C6  UNL     1      25.593  37.819  25.153  1.00  0.00     0.291 C 
BRANCH  14  15
HETATM   15  C5  UNL     1      26.017  36.658  24.305  1.00  0.00     0.151 C 
BRANCH  15  16
HETATM   16  N2  UNL     1      25.806  35.376  24.939  1.00  0.00    -0.378 N 
ATOM     17  H2  UNL     1      26.562  34.695  24.884  1.00  0.00     0.160 HD
BRANCH  16  18
HETATM   18  C4  UNL     1      24.631  34.993  25.630  1.00  0.00     0.074 C 
HETATM   19  N1  UNL     1      24.618  34.967  26.895  1.00  0.00    -0.389 N 
ATOM     20  H12 UNL     1      23.771  34.690  27.392  1.00  0.00     0.157 HD
ATOM     21  H11 UNL     1      25.444  35.220  27.436  1.00  0.00     0.157 HD
BRANCH  18  22
HETATM   22  C2  UNL     1      23.432  34.627  24.843  1.00  0.00     0.044 C 
HETATM   23  C1  UNL     1      22.361  35.692  24.967  1.00  0.00     0.017 C 
HETATM   24  C3  UNL     1      22.890  33.302  25.374  1.00  0.00     0.017 C 
ENDBRANCH  18  22
ENDBRANCH  16  18
ENDBRANCH  15  16
ENDBRANCH  14  15
ENDBRANCH  12  14
ENDBRANCH  11  12
ENDBRANCH  10  11
ENDBRANCH   9  10
ENDBRANCH   7   9
ENDBRANCH   1   6
BRANCH   3  25
HETATM   25  O2  UNL     1      21.463  43.739  18.187  1.00  0.00    -0.359 OA
ATOM     26  H2  UNL     1      21.182  44.632  18.354  1.00  0.00     0.217 HD
ENDBRANCH   3  25
BRANCH   4  27
HETATM   27  C15 UNL     1      19.795  41.278  18.146  1.00  0.00     0.160 A 
HETATM   28  N5  UNL     1      20.158  40.994  16.879  1.00  0.00    -0.267 N 
HETATM   29  N6  UNL     1      19.065  40.731  16.220  1.00  0.00    -0.226 N 
ATOM     30  H5  UNL     1      21.107  40.986  16.506  1.00  0.00     0.190 HD
HETATM   31  N7  UNL     1      18.057  40.843  17.029  1.00  0.00    -0.224 N 
ATOM     32  H6  UNL     1      19.011  40.480  15.233  1.00  0.00     0.210 HD
HETATM   33  N8  UNL     1      18.491  41.189  18.257  1.00  0.00    -0.250 N 
ATOM     34  H7  UNL     1      17.081  40.691  16.774  1.00  0.00     0.210 HD
BRANCH  33  35
HETATM   35  C16 UNL     1      17.562  41.377  19.346  1.00  0.00     0.046 C 
HETATM   36  C17 UNL     1      16.156  41.471  18.701  1.00  0.00     0.040 C 
HETATM   37  C18 UNL     1      17.722  42.646  20.109  1.00  0.00     0.040 C 
HETATM   38  C19 UNL     1      17.513  40.154  20.205  1.00  0.00     0.040 C 
ENDBRANCH  33  35
ENDBRANCH   4  27
TORSDOF 13
ENDMDL
MODEL 5
REMARK VINA RESULT: -7.154396941      2.700      5.354
REMARK  13 active torsions:
REMARK  status: ('A' for Active; 'I' for Inactive)
REMARK    1  A    between atoms: C2_2  and  C4_4 
REMARK    2  A    between atoms: C4_4  and  N2_8 
REMARK    3  A    between atoms: N2_8  and  C5_10 
REMARK    4  A    between atoms: C5_10  and  C6_11 
REMARK    5  A    between atoms: C6_11  and  N3_12 
REMARK    6  A    between atoms: N3_12  and  C8_14 
REMARK    7  A    between atoms: C8_14  and  C9_15 
REMARK    8  A    between atoms: C9_15  and  O1_16 
REMARK    9  A    between atoms: O1_16  and  C10_17 
REMARK   10  A    between atoms: N4_18  and  C11_20 
REMARK   11  A    between atoms: C13_22  and  O2_23 
REMARK   12  A    between atoms: C14_25  and  C15_26 
REMARK   13  A    between atoms: N8_33  and  C16_34 
ROOT
HETATM    1  C11 UNL     1      22.412  40.242  24.713  1.00  0.00     0.078 A 
HETATM    2  C12 UNL     1      22.083  41.572  24.721  1.00  0.00     0.075 A 
HETATM    3  C13 UNL     1      21.073  41.966  23.916  1.00  0.00     0.089 A 
HETATM    4  C14 UNL     1      20.464  40.985  23.157  1.00  0.00     0.087 A 
HETATM    5  S1  UNL     1      21.315  39.597  23.599  1.00  0.00    -0.066 SA
ENDROOT
BRANCH   1   6
HETATM    6  N4  UNL     1      23.450  39.600  25.490  1.00  0.00    -0.342 N 
HETATM    7  C10 UNL     1      24.411  39.069  24.819  1.00  0.00     0.227 C 
ATOM      8  H4  UNL     1      23.421  39.569  26.509  1.00  0.00     0.167 HD
BRANCH   7   9
HETATM    9  O1  UNL     1      25.422  38.442  25.562  1.00  0.00    -0.345 OA
BRANCH   9  10
HETATM   10  C9  UNL     1      26.734  38.943  25.442  1.00  0.00     0.206 C 
BRANCH  10  11
HETATM   11  C8  UNL     1      27.656  37.800  25.128  1.00  0.00     0.298 C 
BRANCH  11  12
HETATM   12  N3  UNL     1      28.047  37.752  23.747  1.00  0.00     0.087 N 
HETATM   13  C7  UNL     1      28.049  39.115  23.186  1.00  0.00     0.310 C 
BRANCH  12  14
HETATM   14  C6  UNL     1      27.296  36.857  22.927  1.00  0.00     0.291 C 
BRANCH  14  15
HETATM   15  C5  UNL     1      26.783  35.708  23.741  1.00  0.00     0.151 C 
BRANCH  15  16
HETATM   16  N2  UNL     1      25.340  35.660  23.819  1.00  0.00    -0.378 N 
ATOM     17  H2  UNL     1      24.815  35.995  23.012  1.00  0.00     0.160 HD
BRANCH  16  18
HETATM   18  C4  UNL     1      24.599  35.183  24.926  1.00  0.00     0.074 C 
HETATM   19  N1  UNL     1      25.096  35.226  26.089  1.00  0.00    -0.389 N 
ATOM     20  H12 UNL     1      24.562  34.882  26.887  1.00  0.00     0.157 HD
ATOM     21  H11 UNL     1      26.031  35.600  26.249  1.00  0.00     0.157 HD
BRANCH  18  22
HETATM   22  C2  UNL     1      23.242  34.640  24.693  1.00  0.00     0.044 C 
HETATM   23  C1  UNL     1      22.185  35.684  24.994  1.00  0.00     0.017 C 
HETATM   24  C3  UNL     1      23.038  33.436  25.609  1.00  0.00     0.017 C 
ENDBRANCH  18  22
ENDBRANCH  16  18
ENDBRANCH  15  16
ENDBRANCH  14  15
ENDBRANCH  12  14
ENDBRANCH  11  12
ENDBRANCH  10  11
ENDBRANCH   9  10
ENDBRANCH   7   9
ENDBRANCH   1   6
BRANCH   3  25
HETATM   25  O2  UNL     1      20.669  43.330  23.864  1.00  0.00    -0.359 OA
ATOM     26  H2  UNL     1      20.017  43.669  24.467  1.00  0.00     0.217 HD
ENDBRANCH   3  25
BRANCH   4  27
HETATM   27  C15 UNL     1      19.338  41.239  22.222  1.00  0.00     0.160 A 
HETATM   28  N5  UNL     1      18.135  41.720  22.592  1.00  0.00    -0.267 N 
HETATM   29  N6  UNL     1      17.413  41.811  21.512  1.00  0.00    -0.226 N 
ATOM     30  H5  UNL     1      17.844  41.966  23.538  1.00  0.00     0.190 HD
HETATM   31  N7  UNL     1      18.123  41.407  20.504  1.00  0.00    -0.224 N 
ATOM     32  H6  UNL     1      16.450  42.144  21.465  1.00  0.00     0.210 HD
HETATM   33  N8  UNL     1      19.348  41.038  20.925  1.00  0.00    -0.250 N 
ATOM     34  H7  UNL     1      17.802  41.374  19.536  1.00  0.00     0.210 HD
BRANCH  33  35
HETATM   35  C16 UNL     1      20.337  40.548  19.994  1.00  0.00     0.046 C 
HETATM   36  C17 UNL     1      19.775  40.839  18.579  1.00  0.00     0.040 C 
HETATM   37  C18 UNL     1      20.567  39.077  20.023  1.00  0.00     0.040 C 
HETATM   38  C19 UNL     1      21.589  41.361  20.088  1.00  0.00     0.040 C 
ENDBRANCH  33  35
ENDBRANCH   4  27
TORSDOF 13
ENDMDL
