MODEL 1
REMARK VINA RESULT: -8.793644284      0.000      0.000
REMARK  13 active torsions:
REMARK  status: ('A' for Active; 'I' for Inactive)
REMARK    1  A    between atoms: O1_1  and  N1_3 
REMARK    2  A    between atoms: N1_3  and  N2_5 
REMARK    3  A    between atoms: N2_5  and  N3_6 
REMARK       I    between atoms: N2_5  and  C10_23 
REMARK    4  A    between atoms: N3_6  and  C1_8 
REMARK    5  A    between atoms: C3_10  and  O2_11 
REMARK    6  A    between atoms: N4_13  and  C4_14 
REMARK    7  A    between atoms: C4_14  and  N5_15 
REMARK    8  A    between atoms: C9_20  and  O3_21 
REMARK    9  A    between atoms: C10_23  and  C11_25 
REMARK   10  A    between atoms: C11_25  and  C12_26 
REMARK   11  A    between atoms: C12_26  and  C13_28 
REMARK   12  A    between atoms: C14_29  and  C15_30 
REMARK   13  A    between atoms: C16_31  and  C17_32 
ROOT
HETATM    1  N2  UNL     1      25.235  36.141  24.840  1.00  0.00    -0.140 N 
HETATM    2  C10 UNL     1      24.068  36.027  25.683  1.00  0.00     0.266 C 
HETATM    3  O4  UNL     1      24.030  36.614  26.763  1.00  0.00    -0.269 OA
ENDROOT
BRANCH   1   4
HETATM    4  N1  UNL     1      25.343  35.489  23.620  1.00  0.00    -0.186 N 
ATOM      5  H1  UNL     1      24.518  35.445  23.023  1.00  0.00     0.218 HD
BRANCH   4   6
HETATM    6  O1  UNL     1      26.386  34.959  23.213  1.00  0.00    -0.273 OA
ATOM      7  H1  UNL     1      26.748  35.101  22.347  1.00  0.00     0.246 HD
ENDBRANCH   4   6
ENDBRANCH   1   4
BRANCH   1   8
HETATM    8  N3  UNL     1      26.291  36.946  25.261  1.00  0.00    -0.271 N 
ATOM      9  H3  UNL     1      26.900  36.607  26.006  1.00  0.00     0.189 HD
BRANCH   8  10
HETATM   10  C1  UNL     1      26.553  38.225  24.689  1.00  0.00     0.105 A 
HETATM   11  C2  UNL     1      26.178  39.478  25.103  1.00  0.00     0.091 A 
HETATM   12  C3  UNL     1      26.688  40.372  24.192  1.00  0.00     0.151 A 
HETATM   13  N4  UNL     1      27.372  39.703  23.219  1.00  0.00    -0.271 N 
HETATM   14  C9  UNL     1      27.288  38.398  23.525  1.00  0.00     0.178 A 
BRANCH  12  15
HETATM   15  O2  UNL     1      26.523  41.734  24.262  1.00  0.00    -0.346 OA
ATOM     16  H2  UNL     1      27.159  42.334  24.633  1.00  0.00     0.219 HD
ENDBRANCH  12  15
BRANCH  13  17
HETATM   17  C4  UNL     1      28.024  40.296  22.068  1.00  0.00     0.163 C 
BRANCH  17  18
HETATM   18  N5  UNL     1      28.924  41.344  22.348  1.00  0.00    -0.279 NA
HETATM   19  C5  UNL     1      29.675  41.808  21.216  1.00  0.00     0.096 C 
HETATM   20  C6  UNL     1      30.935  40.941  21.295  1.00  0.00     0.016 C 
HETATM   21  C7  UNL     1      31.047  40.482  22.719  1.00  0.00     0.016 C 
HETATM   22  C8  UNL     1      29.864  41.146  23.402  1.00  0.00     0.096 C 
ENDBRANCH  17  18
ENDBRANCH  13  17
BRANCH  14  23
HETATM   23  O3  UNL     1      27.856  37.338  22.778  1.00  0.00    -0.344 OA
ATOM     24  H3  UNL     1      27.525  37.038  21.940  1.00  0.00     0.219 HD
ENDBRANCH  14  23
ENDBRANCH   8  10
ENDBRANCH   1   8
BRANCH   2  25
HETATM   25  C11 UNL     1      22.961  35.199  25.201  1.00  0.00     0.189 C 
BRANCH  25  26
HETATM   26  C12 UNL     1      22.085  35.990  24.287  1.00  0.00     0.158 C 
HETATM   27  O5  UNL     1      22.297  35.908  23.072  1.00  0.00    -0.293 OA
BRANCH  26  28
HETATM   28  C13 UNL     1      21.056  36.786  24.919  1.00  0.00     0.050 C 
HETATM   29  C14 UNL     1      21.168  38.050  25.172  1.00  0.00     0.003 C 
BRANCH  29  30
HETATM   30  C15 UNL     1      22.274  38.889  24.898  1.00  0.00    -0.004 C 
HETATM   31  C16 UNL     1      22.176  40.015  24.231  1.00  0.00    -0.022 C 
BRANCH  31  32
HETATM   32  C17 UNL     1      20.916  40.528  23.695  1.00  0.00     0.008 C 
HETATM   33  C18 UNL     1      21.039  42.065  23.728  1.00  0.00     0.008 C 
HETATM   34  C19 UNL     1      22.007  42.309  22.615  1.00  0.00     0.001 C 
HETATM   35  C20 UNL     1      21.784  41.204  21.605  1.00  0.00     0.001 C 
HETATM   36  C21 UNL     1      20.788  40.251  22.200  1.00  0.00     0.008 C 
ENDBRANCH  31  32
ENDBRANCH  29  30
ENDBRANCH  26  28
ENDBRANCH  25  26
ENDBRANCH   2  25
TORSDOF 13
ENDMDL
MODEL 2
REMARK VINA RESULT: -8.667938042      0.761      1.366
REMARK  13 active torsions:
REMARK  status: ('A' for Active; 'I' for Inactive)
REMARK    1  A    between atoms: O1_1  and  N1_3 
REMARK    2  A    between atoms: N1_3  and  N2_5 
REMARK    3  A    between atoms: N2_5  and  N3_6 
REMARK       I    between atoms: N2_5  and  C10_23 
REMARK    4  A    between atoms: N3_6  and  C1_8 
REMARK    5  A    between atoms: C3_10  and  O2_11 
REMARK    6  A    between atoms: N4_13  and  C4_14 
REMARK    7  A    between atoms: C4_14  and  N5_15 
REMARK    8  A    between atoms: C9_20  and  O3_21 
REMARK    9  A    between atoms: C10_23  and  C11_25 
REMARK   10  A    between atoms: C11_25  and  C12_26 
REMARK   11  A    between atoms: C12_26  and  C13_28 
REMARK   12  A    between atoms: C14_29  and  C15_30 
REMARK   13  A    between atoms: C16_31  and  C17_32 
ROOT
HETATM    1  N2  UNL     1      25.116  36.080  25.324  1.00  0.00    -0.140 N 
HETATM    2  C10 UNL     1      24.496  35.571  24.124  1.00  0.00     0.266 C 
HETATM    3  O4  UNL     1      25.077  35.666  23.043  1.00  0.00    -0.269 OA
ENDROOT
BRANCH   1   4
HETATM    4  N1  UNL     1      24.504  36.017  26.568  1.00  0.00    -0.186 N 
ATOM      5  H1  UNL     1      23.870  36.770  26.831  1.00  0.00     0.218 HD
BRANCH   4   6
HETATM    6  O1  UNL     1      24.684  35.097  27.378  1.00  0.00    -0.273 OA
ATOM      7  H1  UNL     1      23.979  34.607  27.786  1.00  0.00     0.246 HD
ENDBRANCH   4   6
ENDBRANCH   1   4
BRANCH   1   8
HETATM    8  N3  UNL     1      26.385  36.647  25.235  1.00  0.00    -0.271 N 
ATOM      9  H3  UNL     1      27.188  36.111  25.566  1.00  0.00     0.189 HD
BRANCH   8  10
HETATM   10  C1  UNL     1      26.605  37.949  24.699  1.00  0.00     0.105 A 
HETATM   11  C2  UNL     1      26.199  39.179  25.152  1.00  0.00     0.091 A 
HETATM   12  C3  UNL     1      26.674  40.112  24.262  1.00  0.00     0.151 A 
HETATM   13  N4  UNL     1      27.367  39.491  23.264  1.00  0.00    -0.271 N 
HETATM   14  C9  UNL     1      27.323  38.176  23.533  1.00  0.00     0.178 A 
BRANCH  12  15
HETATM   15  O2  UNL     1      26.472  41.467  24.372  1.00  0.00    -0.346 OA
ATOM     16  H2  UNL     1      27.162  42.119  24.329  1.00  0.00     0.219 HD
ENDBRANCH  12  15
BRANCH  13  17
HETATM   17  C4  UNL     1      27.990  40.135  22.124  1.00  0.00     0.163 C 
BRANCH  17  18
HETATM   18  N5  UNL     1      28.842  41.217  22.424  1.00  0.00    -0.279 NA
HETATM   19  C5  UNL     1      29.510  41.786  21.288  1.00  0.00     0.096 C 
HETATM   20  C6  UNL     1      30.819  40.992  21.258  1.00  0.00     0.016 C 
HETATM   21  C7  UNL     1      31.026  40.462  22.646  1.00  0.00     0.016 C 
HETATM   22  C8  UNL     1      29.842  41.015  23.420  1.00  0.00     0.096 C 
ENDBRANCH  17  18
ENDBRANCH  13  17
BRANCH  14  23
HETATM   23  O3  UNL     1      27.913  37.155  22.751  1.00  0.00    -0.344 OA
ATOM     24  H3  UNL     1      28.456  37.313  21.988  1.00  0.00     0.219 HD
ENDBRANCH  14  23
ENDBRANCH   8  10
ENDBRANCH   1   8
BRANCH   2  25
HETATM   25  C11 UNL     1      23.176  34.952  24.252  1.00  0.00     0.189 C 
BRANCH  25  26
HETATM   26  C12 UNL     1      22.113  35.906  23.819  1.00  0.00     0.158 C 
HETATM   27  O5  UNL     1      22.009  36.143  22.609  1.00  0.00    -0.293 OA
BRANCH  26  28
HETATM   28  C13 UNL     1      21.293  36.470  24.868  1.00  0.00     0.050 C 
HETATM   29  C14 UNL     1      21.489  37.636  25.396  1.00  0.00     0.003 C 
BRANCH  29  30
HETATM   30  C15 UNL     1      22.503  38.568  25.075  1.00  0.00    -0.004 C 
HETATM   31  C16 UNL     1      22.271  39.698  24.448  1.00  0.00    -0.022 C 
BRANCH  31  32
HETATM   32  C17 UNL     1      20.940  40.118  24.011  1.00  0.00     0.008 C 
HETATM   33  C18 UNL     1      20.648  41.435  24.757  1.00  0.00     0.008 C 
HETATM   34  C19 UNL     1      21.558  42.386  24.047  1.00  0.00     0.001 C 
HETATM   35  C20 UNL     1      21.674  41.884  22.624  1.00  0.00     0.001 C 
HETATM   36  C21 UNL     1      20.946  40.573  22.554  1.00  0.00     0.008 C 
ENDBRANCH  31  32
ENDBRANCH  29  30
ENDBRANCH  26  28
ENDBRANCH  25  26
ENDBRANCH   2  25
TORSDOF 13
ENDMDL
MODEL 3
REMARK VINA RESULT: -8.575597711      1.426      2.131
REMARK  13 active torsions:
REMARK  status: ('A' for Active; 'I' for Inactive)
REMARK    1  A    between atoms: O1_1  and  N1_3 
REMARK    2  A    between atoms: N1_3  and  N2_5 
REMARK    3  A    between atoms: N2_5  and  N3_6 
REMARK       I    between atoms: N2_5  and  C10_23 
REMARK    4  A    between atoms: N3_6  and  C1_8 
REMARK    5  A    between atoms: C3_10  and  O2_11 
REMARK    6  A    between atoms: N4_13  and  C4_14 
REMARK    7  A    between atoms: C4_14  and  N5_15 
REMARK    8  A    between atoms: C9_20  and  O3_21 
REMARK    9  A    between atoms: C10_23  and  C11_25 
REMARK   10  A    between atoms: C11_25  and  C12_26 
REMARK   11  A    between atoms: C12_26  and  C13_28 
REMARK   12  A    between atoms: C14_29  and  C15_30 
REMARK   13  A    between atoms: C16_31  and  C17_32 
ROOT
HETATM    1  N2  UNL     1      25.646  36.019  25.074  1.00  0.00    -0.140 N 
HETATM    2  C10 UNL     1      24.562  35.402  25.802  1.00  0.00     0.266 C 
HETATM    3  O4  UNL     1      24.174  35.893  26.860  1.00  0.00    -0.269 OA
ENDROOT
BRANCH   1   4
HETATM    4  N1  UNL     1      26.138  35.502  23.883  1.00  0.00    -0.186 N 
ATOM      5  H1  UNL     1      25.597  35.655  23.033  1.00  0.00     0.218 HD
BRANCH   4   6
HETATM    6  O1  UNL     1      27.198  34.867  23.796  1.00  0.00    -0.273 OA
ATOM      7  H1  UNL     1      27.263  34.000  23.413  1.00  0.00     0.246 HD
ENDBRANCH   4   6
ENDBRANCH   1   4
BRANCH   1   8
HETATM    8  N3  UNL     1      26.214  37.187  25.578  1.00  0.00    -0.271 N 
ATOM      9  H3  UNL     1      26.512  37.206  26.554  1.00  0.00     0.189 HD
BRANCH   8  10
HETATM   10  C1  UNL     1      26.397  38.354  24.782  1.00  0.00     0.105 A 
HETATM   11  C2  UNL     1      25.725  39.552  24.790  1.00  0.00     0.091 A 
HETATM   12  C3  UNL     1      26.294  40.338  23.818  1.00  0.00     0.151 A 
HETATM   13  N4  UNL     1      27.304  39.659  23.203  1.00  0.00    -0.271 N 
HETATM   14  C9  UNL     1      27.364  38.452  23.792  1.00  0.00     0.178 A 
BRANCH  12  15
HETATM   15  O2  UNL     1      25.893  41.618  23.520  1.00  0.00    -0.346 OA
ATOM     16  H2  UNL     1      26.195  42.396  23.974  1.00  0.00     0.219 HD
ENDBRANCH  12  15
BRANCH  13  17
HETATM   17  C4  UNL     1      28.120  40.143  22.107  1.00  0.00     0.163 C 
BRANCH  17  18
HETATM   18  N5  UNL     1      28.907  41.279  22.385  1.00  0.00    -0.279 NA
HETATM   19  C5  UNL     1      29.637  41.792  21.262  1.00  0.00     0.096 C 
HETATM   20  C6  UNL     1      30.973  41.053  21.387  1.00  0.00     0.016 C 
HETATM   21  C7  UNL     1      31.094  40.634  22.822  1.00  0.00     0.016 C 
HETATM   22  C8  UNL     1      29.835  41.192  23.464  1.00  0.00     0.096 C 
ENDBRANCH  17  18
ENDBRANCH  13  17
BRANCH  14  23
HETATM   23  O3  UNL     1      28.271  37.418  23.461  1.00  0.00    -0.344 OA
ATOM     24  H3  UNL     1      29.070  37.547  22.964  1.00  0.00     0.219 HD
ENDBRANCH  14  23
ENDBRANCH   8  10
ENDBRANCH   1   8
BRANCH   2  25
HETATM   25  C11 UNL     1      23.963  34.194  25.232  1.00  0.00     0.189 C 
BRANCH  25  26
HETATM   26  C12 UNL     1      22.640  34.512  24.618  1.00  0.00     0.158 C 
HETATM   27  O5  UNL     1      21.666  33.831  24.961  1.00  0.00    -0.293 OA
BRANCH  26  28
HETATM   28  C13 UNL     1      22.622  35.603  23.669  1.00  0.00     0.050 C 
HETATM   29  C14 UNL     1      21.913  36.677  23.809  1.00  0.00     0.003 C 
BRANCH  29  30
HETATM   30  C15 UNL     1      21.038  36.999  24.874  1.00  0.00    -0.004 C 
HETATM   31  C16 UNL     1      21.277  37.960  25.736  1.00  0.00    -0.022 C 
BRANCH  31  32
HETATM   32  C17 UNL     1      22.472  38.802  25.694  1.00  0.00     0.008 C 
HETATM   33  C18 UNL     1      22.002  40.175  25.175  1.00  0.00     0.008 C 
HETATM   34  C19 UNL     1      21.255  40.700  26.360  1.00  0.00     0.001 C 
HETATM   35  C20 UNL     1      21.927  40.112  27.582  1.00  0.00     0.001 C 
HETATM   36  C21 UNL     1      22.967  39.144  27.096  1.00  0.00     0.008 C 
ENDBRANCH  31  32
ENDBRANCH  29  30
ENDBRANCH  26  28
ENDBRANCH  25  26
ENDBRANCH   2  25
TORSDOF 13
ENDMDL
MODEL 4
REMARK VINA RESULT: -8.049312494      1.361      2.319
REMARK  13 active torsions:
REMARK  status: ('A' for Active; 'I' for Inactive)
REMARK    1  A    between atoms: O1_1  and  N1_3 
REMARK    2  A    between atoms: N1_3  and  N2_5 
REMARK    3  A    between atoms: N2_5  and  N3_6 
REMARK       I    between atoms: N2_5  and  C10_23 
REMARK    4  A    between atoms: N3_6  and  C1_8 
REMARK    5  A    between atoms: C3_10  and  O2_11 
REMARK    6  A    between atoms: N4_13  and  C4_14 
REMARK    7  A    between atoms: C4_14  and  N5_15 
REMARK    8  A    between atoms: C9_20  and  O3_21 
REMARK    9  A    between atoms: C10_23  and  C11_25 
REMARK   10  A    between atoms: C11_25  and  C12_26 
REMARK   11  A    between atoms: C12_26  and  C13_28 
REMARK   12  A    between atoms: C14_29  and  C15_30 
REMARK   13  A    between atoms: C16_31  and  C17_32 
ROOT
HETATM    1  N2  UNL     1      24.714  35.931  25.558  1.00  0.00    -0.140 N 
HETATM    2  C10 UNL     1      23.889  35.476  24.463  1.00  0.00     0.266 C 
HETATM    3  O4  UNL     1      24.396  35.235  23.369  1.00  0.00    -0.269 OA
ENDROOT
BRANCH   1   4
HETATM    4  N1  UNL     1      24.198  36.234  26.809  1.00  0.00    -0.186 N 
ATOM      5  H1  UNL     1      24.000  35.464  27.448  1.00  0.00     0.218 HD
BRANCH   4   6
HETATM    6  O1  UNL     1      23.964  37.388  27.196  1.00  0.00    -0.273 OA
ATOM      7  H1  UNL     1      23.127  37.666  27.551  1.00  0.00     0.246 HD
ENDBRANCH   4   6
ENDBRANCH   1   4
BRANCH   1   8
HETATM    8  N3  UNL     1      26.086  36.061  25.355  1.00  0.00    -0.271 N 
ATOM      9  H3  UNL     1      26.711  35.367  25.767  1.00  0.00     0.189 HD
BRANCH   8  10
HETATM   10  C1  UNL     1      26.650  37.125  24.593  1.00  0.00     0.105 A 
HETATM   11  C2  UNL     1      27.339  37.103  23.406  1.00  0.00     0.091 A 
HETATM   12  C3  UNL     1      27.665  38.404  23.107  1.00  0.00     0.151 A 
HETATM   13  N4  UNL     1      27.196  39.236  24.080  1.00  0.00    -0.271 N 
HETATM   14  C9  UNL     1      26.578  38.455  24.982  1.00  0.00     0.178 A 
BRANCH  12  15
HETATM   15  O2  UNL     1      28.363  38.794  21.989  1.00  0.00    -0.346 OA
ATOM     16  H2  UNL     1      28.667  39.679  21.826  1.00  0.00     0.219 HD
ENDBRANCH  12  15
BRANCH  13  17
HETATM   17  C4  UNL     1      27.368  40.674  24.135  1.00  0.00     0.163 C 
BRANCH  17  18
HETATM   18  N5  UNL     1      28.248  41.222  23.180  1.00  0.00    -0.279 NA
HETATM   19  C5  UNL     1      29.554  41.542  23.681  1.00  0.00     0.096 C 
HETATM   20  C6  UNL     1      29.383  43.003  24.104  1.00  0.00     0.016 C 
HETATM   21  C7  UNL     1      28.221  43.540  23.322  1.00  0.00     0.016 C 
HETATM   22  C8  UNL     1      27.805  42.365  22.452  1.00  0.00     0.096 C 
ENDBRANCH  17  18
ENDBRANCH  13  17
BRANCH  14  23
HETATM   23  O3  UNL     1      25.946  38.904  26.166  1.00  0.00    -0.344 OA
ATOM     24  H3  UNL     1      25.394  39.675  26.217  1.00  0.00     0.219 HD
ENDBRANCH  14  23
ENDBRANCH   8  10
ENDBRANCH   1   8
BRANCH   2  25
HETATM   25  C11 UNL     1      22.456  35.319  24.714  1.00  0.00     0.189 C 
BRANCH  25  26
HETATM   26  C12 UNL     1      21.702  36.479  24.153  1.00  0.00     0.158 C 
HETATM   27  O5  UNL     1      21.699  36.624  22.924  1.00  0.00    -0.293 OA
BRANCH  26  28
HETATM   28  C13 UNL     1      21.038  37.334  25.111  1.00  0.00     0.050 C 
HETATM   29  C14 UNL     1      21.428  38.531  25.410  1.00  0.00     0.003 C 
BRANCH  29  30
HETATM   30  C15 UNL     1      22.542  39.231  24.887  1.00  0.00    -0.004 C 
HETATM   31  C16 UNL     1      22.431  40.267  24.090  1.00  0.00    -0.022 C 
BRANCH  31  32
HETATM   32  C17 UNL     1      21.148  40.814  23.651  1.00  0.00     0.008 C 
HETATM   33  C18 UNL     1      21.369  42.332  23.494  1.00  0.00     0.008 C 
HETATM   34  C19 UNL     1      22.204  42.383  22.254  1.00  0.00     0.001 C 
HETATM   35  C20 UNL     1      21.788  41.198  21.410  1.00  0.00     0.001 C 
HETATM   36  C21 UNL     1      20.817  40.392  22.222  1.00  0.00     0.008 C 
ENDBRANCH  31  32
ENDBRANCH  29  30
ENDBRANCH  26  28
ENDBRANCH  25  26
ENDBRANCH   2  25
TORSDOF 13
ENDMDL
MODEL 5
REMARK VINA RESULT: -7.809330359      2.552      3.944
REMARK  13 active torsions:
REMARK  status: ('A' for Active; 'I' for Inactive)
REMARK    1  A    between atoms: O1_1  and  N1_3 
REMARK    2  A    between atoms: N1_3  and  N2_5 
REMARK    3  A    between atoms: N2_5  and  N3_6 
REMARK       I    between atoms: N2_5  and  C10_23 
REMARK    4  A    between atoms: N3_6  and  C1_8 
REMARK    5  A    between atoms: C3_10  and  O2_11 
REMARK    6  A    between atoms: N4_13  and  C4_14 
REMARK    7  A    between atoms: C4_14  and  N5_15 
REMARK    8  A    between atoms: C9_20  and  O3_21 
REMARK    9  A    between atoms: C10_23  and  C11_25 
REMARK   10  A    between atoms: C11_25  and  C12_26 
REMARK   11  A    between atoms: C12_26  and  C13_28 
REMARK   12  A    between atoms: C14_29  and  C15_30 
REMARK   13  A    between atoms: C16_31  and  C17_32 
ROOT
HETATM    1  N2  UNL     1      23.064  37.122  25.893  1.00  0.00    -0.140 N 
HETATM    2  C10 UNL     1      22.867  38.478  26.349  1.00  0.00     0.266 C 
HETATM    3  O4  UNL     1      23.796  39.091  26.874  1.00  0.00    -0.269 OA
ENDROOT
BRANCH   1   4
HETATM    4  N1  UNL     1      22.051  36.375  25.308  1.00  0.00    -0.186 N 
ATOM      5  H1  UNL     1      21.384  35.907  25.921  1.00  0.00     0.218 HD
BRANCH   4   6
HETATM    6  O1  UNL     1      21.911  36.245  24.085  1.00  0.00    -0.273 OA
ATOM      7  H1  UNL     1      21.153  36.557  23.604  1.00  0.00     0.246 HD
ENDBRANCH   4   6
ENDBRANCH   1   4
BRANCH   1   8
HETATM    8  N3  UNL     1      24.322  36.542  26.034  1.00  0.00    -0.271 N 
ATOM      9  H3  UNL     1      24.556  36.086  26.916  1.00  0.00     0.189 HD
BRANCH   8  10
HETATM   10  C1  UNL     1      25.294  36.561  24.993  1.00  0.00     0.105 A 
HETATM   11  C2  UNL     1      25.459  35.730  23.912  1.00  0.00     0.091 A 
HETATM   12  C3  UNL     1      26.554  36.185  23.218  1.00  0.00     0.151 A 
HETATM   13  N4  UNL     1      27.077  37.280  23.842  1.00  0.00    -0.271 N 
HETATM   14  C9  UNL     1      26.308  37.506  24.921  1.00  0.00     0.178 A 
BRANCH  12  15
HETATM   15  O2  UNL     1      27.040  35.611  22.069  1.00  0.00    -0.346 OA
ATOM     16  H2  UNL     1      26.790  35.871  21.190  1.00  0.00     0.219 HD
ENDBRANCH  12  15
BRANCH  13  17
HETATM   17  C4  UNL     1      28.252  38.021  23.430  1.00  0.00     0.163 C 
BRANCH  17  18
HETATM   18  N5  UNL     1      28.212  39.411  23.664  1.00  0.00    -0.279 NA
HETATM   19  C5  UNL     1      27.377  40.148  22.760  1.00  0.00     0.096 C 
HETATM   20  C6  UNL     1      28.368  40.539  21.660  1.00  0.00     0.016 C 
HETATM   21  C7  UNL     1      29.734  40.487  22.279  1.00  0.00     0.016 C 
HETATM   22  C8  UNL     1      29.455  40.107  23.723  1.00  0.00     0.096 C 
ENDBRANCH  17  18
ENDBRANCH  13  17
BRANCH  14  23
HETATM   23  O3  UNL     1      26.493  38.548  25.860  1.00  0.00    -0.344 OA
ATOM     24  H3  UNL     1      25.797  39.111  26.176  1.00  0.00     0.219 HD
ENDBRANCH  14  23
ENDBRANCH   8  10
ENDBRANCH   1   8
BRANCH   2  25
HETATM   25  C11 UNL     1      21.544  39.073  26.160  1.00  0.00     0.189 C 
BRANCH  25  26
HETATM   26  C12 UNL     1      21.478  39.783  24.848  1.00  0.00     0.158 C 
HETATM   27  O5  UNL     1      21.258  39.105  23.836  1.00  0.00    -0.293 OA
BRANCH  26  28
HETATM   28  C13 UNL     1      21.680  41.214  24.884  1.00  0.00     0.050 C 
HETATM   29  C14 UNL     1      20.797  42.082  24.508  1.00  0.00     0.003 C 
BRANCH  29  30
HETATM   30  C15 UNL     1      19.501  41.829  24.000  1.00  0.00    -0.004 C 
HETATM   31  C16 UNL     1      18.433  41.748  24.759  1.00  0.00    -0.022 C 
BRANCH  31  32
HETATM   32  C17 UNL     1      18.463  41.909  26.212  1.00  0.00     0.008 C 
HETATM   33  C18 UNL     1      17.115  42.554  26.592  1.00  0.00     0.008 C 
HETATM   34  C19 UNL     1      16.173  41.410  26.394  1.00  0.00     0.001 C 
HETATM   35  C20 UNL     1      16.959  40.152  26.693  1.00  0.00     0.001 C 
HETATM   36  C21 UNL     1      18.384  40.563  26.928  1.00  0.00     0.008 C 
ENDBRANCH  31  32
ENDBRANCH  29  30
ENDBRANCH  26  28
ENDBRANCH  25  26
ENDBRANCH   2  25
TORSDOF 13
ENDMDL
