MODEL 1
REMARK VINA RESULT: -6.941070739      0.000      0.000
REMARK  11 active torsions:
REMARK  status: ('A' for Active; 'I' for Inactive)
REMARK    1  A    between atoms: C2_2  and  C3_3 
REMARK    2  A    between atoms: C4_4  and  C5_5 
REMARK    3  A    between atoms: C6_6  and  C7_7 
REMARK    4  A    between atoms: C8_11  and  C9_12 
REMARK    5  A    between atoms: N1_13  and  N2_15 
REMARK    6  A    between atoms: C10_16  and  O3_17 
REMARK    7  A    between atoms: C12_25  and  O4_26 
REMARK    8  A    between atoms: O4_26  and  C13_27 
REMARK    9  A    between atoms: C13_27  and  C14_28 
REMARK   10  A    between atoms: C15_29  and  C16_30 
REMARK   11  A    between atoms: C16_30  and  O5_31 
ROOT
HETATM    1  C5  UNL     1      25.080  38.392  24.925  1.00  0.00     0.023 A 
HETATM    2  C6  UNL     1      25.708  37.204  24.767  1.00  0.00     0.095 A 
HETATM    3  S1  UNL     1      27.168  37.660  23.922  1.00  0.00    -0.078 SA
HETATM    4  C8  UNL     1      26.906  39.328  23.804  1.00  0.00     0.057 A 
HETATM    5  C12 UNL     1      25.714  39.500  24.414  1.00  0.00     0.099 A 
ENDROOT
BRANCH   4   6
HETATM    6  C9  UNL     1      27.795  40.330  23.175  1.00  0.00     0.129 C 
HETATM    7  N1  UNL     1      28.294  41.216  23.953  1.00  0.00    -0.298 N 
ATOM      8  H1  UNL     1      28.045  41.168  24.941  1.00  0.00     0.186 HD
BRANCH   7   9
HETATM    9  N2  UNL     1      29.138  42.226  23.562  1.00  0.00    -0.190 N 
HETATM   10  C10 UNL     1      28.772  43.505  23.371  1.00  0.00     0.260 A 
HETATM   11  N3  UNL     1      29.844  44.206  22.996  1.00  0.00    -0.261 N 
HETATM   12  N4  UNL     1      30.862  43.388  22.953  1.00  0.00    -0.271 N 
ATOM     13  H3  UNL     1      29.864  45.203  22.781  1.00  0.00     0.190 HD
HETATM   14  C11 UNL     1      30.449  42.153  23.300  1.00  0.00     0.215 A 
ATOM     15  H4  UNL     1      31.816  43.644  22.698  1.00  0.00     0.189 HD
HETATM   16  S2  UNL     1      31.344  40.786  23.397  1.00  0.00    -0.037 SA
BRANCH  10  17
HETATM   17  O3  UNL     1      27.512  44.045  23.525  1.00  0.00    -0.330 OA
ATOM     18  H3  UNL     1      27.048  44.202  24.340  1.00  0.00     0.221 HD
ENDBRANCH  10  17
ENDBRANCH   7   9
ENDBRANCH   4   6
BRANCH   5  19
HETATM   19  O4  UNL     1      25.183  40.820  24.491  1.00  0.00    -0.345 OA
BRANCH  19  20
HETATM   20  C13 UNL     1      24.324  41.176  23.409  1.00  0.00     0.203 C 
BRANCH  20  21
HETATM   21  C14 UNL     1      22.935  41.386  23.861  1.00  0.00    -0.002 C 
HETATM   22  C15 UNL     1      21.891  40.830  23.240  1.00  0.00    -0.003 C 
BRANCH  22  23
HETATM   23  C16 UNL     1      20.498  41.053  23.710  1.00  0.00     0.194 C 
BRANCH  23  24
HETATM   24  O5  UNL     1      20.379  42.164  24.513  1.00  0.00    -0.392 OA
HETATM   25  C17 UNL     1      19.067  42.362  24.918  1.00  0.00     0.201 C 
ENDBRANCH  23  24
ENDBRANCH  22  23
ENDBRANCH  20  21
ENDBRANCH  19  20
ENDBRANCH   5  19
BRANCH   2  26
HETATM   26  C7  UNL     1      25.348  35.811  24.986  1.00  0.00     0.217 C 
HETATM   27  O1  UNL     1      25.374  35.038  23.958  1.00  0.00    -0.643 OA
HETATM   28  O2  UNL     1      24.970  35.220  26.169  1.00  0.00    -0.643 OA
ENDBRANCH   2  26
BRANCH   1  29
HETATM   29  C4  UNL     1      23.879  38.572  25.771  1.00  0.00     0.016 C 
HETATM   30  C3  UNL     1      23.759  39.241  26.865  1.00  0.00     0.000 C 
BRANCH  30  31
HETATM   31  C2  UNL     1      22.462  39.297  27.581  1.00  0.00    -0.010 C 
HETATM   32  C1  UNL     1      21.525  40.126  27.205  1.00  0.00     0.011 C 
ENDBRANCH  30  31
ENDBRANCH   1  29
TORSDOF 11
ENDMDL
MODEL 2
REMARK VINA RESULT: -6.813431472      1.743      2.025
REMARK  11 active torsions:
REMARK  status: ('A' for Active; 'I' for Inactive)
REMARK    1  A    between atoms: C2_2  and  C3_3 
REMARK    2  A    between atoms: C4_4  and  C5_5 
REMARK    3  A    between atoms: C6_6  and  C7_7 
REMARK    4  A    between atoms: C8_11  and  C9_12 
REMARK    5  A    between atoms: N1_13  and  N2_15 
REMARK    6  A    between atoms: C10_16  and  O3_17 
REMARK    7  A    between atoms: C12_25  and  O4_26 
REMARK    8  A    between atoms: O4_26  and  C13_27 
REMARK    9  A    between atoms: C13_27  and  C14_28 
REMARK   10  A    between atoms: C15_29  and  C16_30 
REMARK   11  A    between atoms: C16_30  and  O5_31 
ROOT
HETATM    1  C5  UNL     1      24.270  38.941  25.207  1.00  0.00     0.023 A 
HETATM    2  C6  UNL     1      25.010  37.811  25.295  1.00  0.00     0.095 A 
HETATM    3  S1  UNL     1      26.500  38.276  24.511  1.00  0.00    -0.078 SA
HETATM    4  C8  UNL     1      26.109  39.871  24.104  1.00  0.00     0.057 A 
HETATM    5  C12 UNL     1      24.853  40.015  24.578  1.00  0.00     0.099 A 
ENDROOT
BRANCH   4   6
HETATM    6  C9  UNL     1      26.967  40.849  23.398  1.00  0.00     0.129 C 
HETATM    7  N1  UNL     1      27.987  41.281  24.041  1.00  0.00    -0.298 N 
ATOM      8  H1  UNL     1      28.134  40.923  24.985  1.00  0.00     0.186 HD
BRANCH   7   9
HETATM    9  N2  UNL     1      28.899  42.187  23.559  1.00  0.00    -0.190 N 
HETATM   10  C10 UNL     1      28.646  43.487  23.332  1.00  0.00     0.260 A 
HETATM   11  N3  UNL     1      29.755  44.065  22.868  1.00  0.00    -0.261 N 
HETATM   12  N4  UNL     1      30.687  43.151  22.806  1.00  0.00    -0.271 N 
ATOM     13  H3  UNL     1      29.858  45.046  22.607  1.00  0.00     0.190 HD
HETATM   14  C11 UNL     1      30.179  41.976  23.230  1.00  0.00     0.215 A 
ATOM     15  H4  UNL     1      31.644  43.302  22.488  1.00  0.00     0.189 HD
HETATM   16  S2  UNL     1      30.944  40.534  23.339  1.00  0.00    -0.037 SA
BRANCH  10  17
HETATM   17  O3  UNL     1      27.453  44.153  23.529  1.00  0.00    -0.330 OA
ATOM     18  H3  UNL     1      27.327  44.992  23.958  1.00  0.00     0.221 HD
ENDBRANCH  10  17
ENDBRANCH   7   9
ENDBRANCH   4   6
BRANCH   5  19
HETATM   19  O4  UNL     1      24.207  41.272  24.396  1.00  0.00    -0.345 OA
BRANCH  19  20
HETATM   20  C13 UNL     1      23.026  41.219  23.599  1.00  0.00     0.203 C 
BRANCH  20  21
HETATM   21  C14 UNL     1      23.195  41.943  22.324  1.00  0.00    -0.002 C 
HETATM   22  C15 UNL     1      22.181  42.566  21.718  1.00  0.00    -0.003 C 
BRANCH  22  23
HETATM   23  C16 UNL     1      22.369  43.291  20.434  1.00  0.00     0.194 C 
BRANCH  23  24
HETATM   24  O5  UNL     1      22.271  42.465  19.337  1.00  0.00    -0.392 OA
HETATM   25  C17 UNL     1      21.035  41.839  19.280  1.00  0.00     0.201 C 
ENDBRANCH  23  24
ENDBRANCH  22  23
ENDBRANCH  20  21
ENDBRANCH  19  20
ENDBRANCH   5  19
BRANCH   2  26
HETATM   26  C7  UNL     1      24.750  36.439  25.705  1.00  0.00     0.217 C 
HETATM   27  O1  UNL     1      25.586  35.547  25.305  1.00  0.00    -0.643 OA
HETATM   28  O2  UNL     1      23.703  35.977  26.468  1.00  0.00    -0.643 OA
ENDBRANCH   2  26
BRANCH   1  29
HETATM   29  C4  UNL     1      22.981  39.127  25.910  1.00  0.00     0.016 C 
HETATM   30  C3  UNL     1      22.746  39.772  27.000  1.00  0.00     0.000 C 
BRANCH  30  31
HETATM   31  C2  UNL     1      21.375  39.840  27.560  1.00  0.00    -0.010 C 
HETATM   32  C1  UNL     1      20.409  40.417  26.897  1.00  0.00     0.011 C 
ENDBRANCH  30  31
ENDBRANCH   1  29
TORSDOF 11
ENDMDL
MODEL 3
REMARK VINA RESULT: -6.621705010      4.520      7.154
REMARK  11 active torsions:
REMARK  status: ('A' for Active; 'I' for Inactive)
REMARK    1  A    between atoms: C2_2  and  C3_3 
REMARK    2  A    between atoms: C4_4  and  C5_5 
REMARK    3  A    between atoms: C6_6  and  C7_7 
REMARK    4  A    between atoms: C8_11  and  C9_12 
REMARK    5  A    between atoms: N1_13  and  N2_15 
REMARK    6  A    between atoms: C10_16  and  O3_17 
REMARK    7  A    between atoms: C12_25  and  O4_26 
REMARK    8  A    between atoms: O4_26  and  C13_27 
REMARK    9  A    between atoms: C13_27  and  C14_28 
REMARK   10  A    between atoms: C15_29  and  C16_30 
REMARK   11  A    between atoms: C16_30  and  O5_31 
ROOT
HETATM    1  C5  UNL     1      24.349  37.486  25.373  1.00  0.00     0.023 A 
HETATM    2  C6  UNL     1      23.889  36.215  25.307  1.00  0.00     0.095 A 
HETATM    3  S1  UNL     1      22.177  36.449  25.050  1.00  0.00    -0.078 SA
HETATM    4  C8  UNL     1      22.129  38.140  25.048  1.00  0.00     0.057 A 
HETATM    5  C12 UNL     1      23.419  38.489  25.241  1.00  0.00     0.099 A 
ENDROOT
BRANCH   4   6
HETATM    6  C9  UNL     1      20.937  39.000  24.874  1.00  0.00     0.129 C 
HETATM    7  N1  UNL     1      20.873  40.042  25.616  1.00  0.00    -0.298 N 
ATOM      8  H1  UNL     1      21.641  40.203  26.267  1.00  0.00     0.186 HD
BRANCH   7   9
HETATM    9  N2  UNL     1      19.852  40.960  25.603  1.00  0.00    -0.190 N 
HETATM   10  C10 UNL     1      18.758  40.906  26.381  1.00  0.00     0.260 A 
HETATM   11  N3  UNL     1      17.981  41.954  26.103  1.00  0.00    -0.261 N 
HETATM   12  N4  UNL     1      18.572  42.654  25.171  1.00  0.00    -0.271 N 
ATOM     13  H3  UNL     1      17.085  42.171  26.539  1.00  0.00     0.190 HD
HETATM   14  C11 UNL     1      19.736  42.056  24.844  1.00  0.00     0.215 A 
ATOM     15  H4  UNL     1      18.212  43.514  24.759  1.00  0.00     0.189 HD
HETATM   16  S2  UNL     1      20.834  42.541  23.733  1.00  0.00    -0.037 SA
BRANCH  10  17
HETATM   17  O3  UNL     1      18.449  39.945  27.323  1.00  0.00    -0.330 OA
ATOM     18  H3  UNL     1      17.958  40.064  28.127  1.00  0.00     0.221 HD
ENDBRANCH  10  17
ENDBRANCH   7   9
ENDBRANCH   4   6
BRANCH   5  19
HETATM   19  O4  UNL     1      23.739  39.876  25.294  1.00  0.00    -0.345 OA
BRANCH  19  20
HETATM   20  C13 UNL     1      24.080  40.453  24.035  1.00  0.00     0.203 C 
BRANCH  20  21
HETATM   21  C14 UNL     1      25.362  41.179  24.096  1.00  0.00    -0.002 C 
HETATM   22  C15 UNL     1      26.138  41.348  23.022  1.00  0.00    -0.003 C 
BRANCH  22  23
HETATM   23  C16 UNL     1      27.428  42.083  23.102  1.00  0.00     0.194 C 
BRANCH  23  24
HETATM   24  O5  UNL     1      27.949  42.381  21.864  1.00  0.00    -0.392 OA
HETATM   25  C17 UNL     1      29.323  42.200  21.831  1.00  0.00     0.201 C 
ENDBRANCH  23  24
ENDBRANCH  22  23
ENDBRANCH  20  21
ENDBRANCH  19  20
ENDBRANCH   5  19
BRANCH   2  26
HETATM   26  C7  UNL     1      24.458  34.898  25.554  1.00  0.00     0.217 C 
HETATM   27  O1  UNL     1      25.618  34.665  25.048  1.00  0.00    -0.643 OA
HETATM   28  O2  UNL     1      23.895  33.861  26.260  1.00  0.00    -0.643 OA
ENDBRANCH   2  26
BRANCH   1  29
HETATM   29  C4  UNL     1      25.788  37.831  25.382  1.00  0.00     0.016 C 
HETATM   30  C3  UNL     1      26.632  37.788  24.409  1.00  0.00     0.000 C 
BRANCH  30  31
HETATM   31  C2  UNL     1      28.050  38.169  24.618  1.00  0.00    -0.010 C 
HETATM   32  C1  UNL     1      28.702  38.843  23.709  1.00  0.00     0.011 C 
ENDBRANCH  30  31
ENDBRANCH   1  29
TORSDOF 11
ENDMDL
MODEL 4
REMARK VINA RESULT: -6.547519458      2.677      6.125
REMARK  11 active torsions:
REMARK  status: ('A' for Active; 'I' for Inactive)
REMARK    1  A    between atoms: C2_2  and  C3_3 
REMARK    2  A    between atoms: C4_4  and  C5_5 
REMARK    3  A    between atoms: C6_6  and  C7_7 
REMARK    4  A    between atoms: C8_11  and  C9_12 
REMARK    5  A    between atoms: N1_13  and  N2_15 
REMARK    6  A    between atoms: C10_16  and  O3_17 
REMARK    7  A    between atoms: C12_25  and  O4_26 
REMARK    8  A    between atoms: O4_26  and  C13_27 
REMARK    9  A    between atoms: C13_27  and  C14_28 
REMARK   10  A    between atoms: C15_29  and  C16_30 
REMARK   11  A    between atoms: C16_30  and  O5_31 
ROOT
HETATM    1  C5  UNL     1      20.416  41.881  23.938  1.00  0.00     0.023 A 
HETATM    2  C6  UNL     1      20.683  42.316  22.684  1.00  0.00     0.095 A 
HETATM    3  S1  UNL     1      22.374  41.915  22.500  1.00  0.00    -0.078 SA
HETATM    4  C8  UNL     1      22.658  41.225  24.019  1.00  0.00     0.057 A 
HETATM    5  C12 UNL     1      21.458  41.313  24.631  1.00  0.00     0.099 A 
ENDROOT
BRANCH   4   6
HETATM    6  C9  UNL     1      23.933  40.667  24.522  1.00  0.00     0.129 C 
HETATM    7  N1  UNL     1      24.977  40.908  23.819  1.00  0.00    -0.298 N 
ATOM      8  H1  UNL     1      24.855  41.462  22.971  1.00  0.00     0.186 HD
BRANCH   7   9
HETATM    9  N2  UNL     1      26.246  40.479  24.118  1.00  0.00    -0.190 N 
HETATM   10  C10 UNL     1      26.539  39.384  24.839  1.00  0.00     0.260 A 
HETATM   11  N3  UNL     1      27.866  39.272  24.931  1.00  0.00    -0.261 N 
HETATM   12  N4  UNL     1      28.397  40.274  24.280  1.00  0.00    -0.271 N 
ATOM     13  H3  UNL     1      28.375  38.537  25.421  1.00  0.00     0.190 HD
HETATM   14  C11 UNL     1      27.411  41.037  23.767  1.00  0.00     0.215 A 
ATOM     15  H4  UNL     1      29.396  40.450  24.177  1.00  0.00     0.189 HD
HETATM   16  S2  UNL     1      27.560  42.401  22.876  1.00  0.00    -0.037 SA
BRANCH  10  17
HETATM   17  O3  UNL     1      25.650  38.496  25.409  1.00  0.00    -0.330 OA
ATOM     18  H3  UNL     1      25.267  37.725  25.006  1.00  0.00     0.221 HD
ENDBRANCH  10  17
ENDBRANCH   7   9
ENDBRANCH   4   6
BRANCH   5  19
HETATM   19  O4  UNL     1      21.344  40.813  25.960  1.00  0.00    -0.345 OA
BRANCH  19  20
HETATM   20  C13 UNL     1      20.713  39.538  26.059  1.00  0.00     0.203 C 
BRANCH  20  21
HETATM   21  C14 UNL     1      21.693  38.437  26.006  1.00  0.00    -0.002 C 
HETATM   22  C15 UNL     1      21.593  37.434  25.129  1.00  0.00    -0.003 C 
BRANCH  22  23
HETATM   23  C16 UNL     1      22.591  36.333  25.090  1.00  0.00     0.194 C 
BRANCH  23  24
HETATM   24  O5  UNL     1      23.518  36.417  26.103  1.00  0.00    -0.392 OA
HETATM   25  C17 UNL     1      24.235  35.239  26.238  1.00  0.00     0.201 C 
ENDBRANCH  23  24
ENDBRANCH  22  23
ENDBRANCH  20  21
ENDBRANCH  19  20
ENDBRANCH   5  19
BRANCH   2  26
HETATM   26  C7  UNL     1      19.964  43.100  21.690  1.00  0.00     0.217 C 
HETATM   27  O1  UNL     1      20.675  43.714  20.812  1.00  0.00    -0.643 OA
HETATM   28  O2  UNL     1      18.604  43.272  21.584  1.00  0.00    -0.643 OA
ENDBRANCH   2  26
BRANCH   1  29
HETATM   29  C4  UNL     1      19.049  41.809  24.500  1.00  0.00     0.016 C 
HETATM   30  C3  UNL     1      18.436  42.670  25.237  1.00  0.00     0.000 C 
BRANCH  30  31
HETATM   31  C2  UNL     1      17.056  42.413  25.715  1.00  0.00    -0.010 C 
HETATM   32  C1  UNL     1      16.779  41.348  26.419  1.00  0.00     0.011 C 
ENDBRANCH  30  31
ENDBRANCH   1  29
TORSDOF 11
ENDMDL
MODEL 5
REMARK VINA RESULT: -6.502106889      4.361      7.043
REMARK  11 active torsions:
REMARK  status: ('A' for Active; 'I' for Inactive)
REMARK    1  A    between atoms: C2_2  and  C3_3 
REMARK    2  A    between atoms: C4_4  and  C5_5 
REMARK    3  A    between atoms: C6_6  and  C7_7 
REMARK    4  A    between atoms: C8_11  and  C9_12 
REMARK    5  A    between atoms: N1_13  and  N2_15 
REMARK    6  A    between atoms: C10_16  and  O3_17 
REMARK    7  A    between atoms: C12_25  and  O4_26 
REMARK    8  A    between atoms: O4_26  and  C13_27 
REMARK    9  A    between atoms: C13_27  and  C14_28 
REMARK   10  A    between atoms: C15_29  and  C16_30 
REMARK   11  A    between atoms: C16_30  and  O5_31 
ROOT
HETATM    1  C5  UNL     1      24.405  37.694  25.288  1.00  0.00     0.023 A 
HETATM    2  C6  UNL     1      23.926  36.428  25.257  1.00  0.00     0.095 A 
HETATM    3  S1  UNL     1      22.222  36.678  24.969  1.00  0.00    -0.078 SA
HETATM    4  C8  UNL     1      22.199  38.369  24.912  1.00  0.00     0.057 A 
HETATM    5  C12 UNL     1      23.491  38.705  25.110  1.00  0.00     0.099 A 
ENDROOT
BRANCH   4   6
HETATM    6  C9  UNL     1      21.022  39.240  24.693  1.00  0.00     0.129 C 
HETATM    7  N1  UNL     1      20.926  40.268  25.450  1.00  0.00    -0.298 N 
ATOM      8  H1  UNL     1      21.661  40.412  26.143  1.00  0.00     0.186 HD
BRANCH   7   9
HETATM    9  N2  UNL     1      19.912  41.193  25.403  1.00  0.00    -0.190 N 
HETATM   10  C10 UNL     1      19.930  42.318  24.669  1.00  0.00     0.260 A 
HETATM   11  N3  UNL     1      18.786  42.976  24.864  1.00  0.00    -0.261 N 
HETATM   12  N4  UNL     1      18.062  42.280  25.701  1.00  0.00    -0.271 N 
ATOM     13  H3  UNL     1      18.523  43.864  24.436  1.00  0.00     0.190 HD
HETATM   14  C11 UNL     1      18.741  41.169  26.050  1.00  0.00     0.215 A 
ATOM     15  H4  UNL     1      17.134  42.537  26.035  1.00  0.00     0.189 HD
HETATM   16  S2  UNL     1      18.264  39.982  27.071  1.00  0.00    -0.037 SA
BRANCH  10  17
HETATM   17  O3  UNL     1      20.942  42.759  23.840  1.00  0.00    -0.330 OA
ATOM     18  H3  UNL     1      21.175  43.660  23.645  1.00  0.00     0.221 HD
ENDBRANCH  10  17
ENDBRANCH   7   9
ENDBRANCH   4   6
BRANCH   5  19
HETATM   19  O4  UNL     1      23.831  40.089  25.122  1.00  0.00    -0.345 OA
BRANCH  19  20
HETATM   20  C13 UNL     1      24.140  40.633  23.841  1.00  0.00     0.203 C 
BRANCH  20  21
HETATM   21  C14 UNL     1      25.495  41.215  23.806  1.00  0.00    -0.002 C 
HETATM   22  C15 UNL     1      26.088  41.573  22.664  1.00  0.00    -0.003 C 
BRANCH  22  23
HETATM   23  C16 UNL     1      27.455  42.159  22.648  1.00  0.00     0.194 C 
BRANCH  23  24
HETATM   24  O5  UNL     1      27.920  42.461  23.907  1.00  0.00    -0.392 OA
HETATM   25  C17 UNL     1      29.171  43.056  23.860  1.00  0.00     0.201 C 
ENDBRANCH  23  24
ENDBRANCH  22  23
ENDBRANCH  20  21
ENDBRANCH  19  20
ENDBRANCH   5  19
BRANCH   2  26
HETATM   26  C7  UNL     1      24.473  35.112  25.555  1.00  0.00     0.217 C 
HETATM   27  O1  UNL     1      25.543  34.774  24.926  1.00  0.00    -0.643 OA
HETATM   28  O2  UNL     1      23.972  34.176  26.428  1.00  0.00    -0.643 OA
ENDBRANCH   2  26
BRANCH   1  29
HETATM   29  C4  UNL     1      25.849  38.018  25.305  1.00  0.00     0.016 C 
HETATM   30  C3  UNL     1      26.714  37.886  24.360  1.00  0.00     0.000 C 
BRANCH  30  31
HETATM   31  C2  UNL     1      28.132  38.263  24.572  1.00  0.00    -0.010 C 
HETATM   32  C1  UNL     1      28.750  39.048  23.731  1.00  0.00     0.011 C 
ENDBRANCH  30  31
ENDBRANCH   1  29
TORSDOF 11
ENDMDL
