MODEL 1
REMARK VINA RESULT: -5.729353238      0.000      0.000
REMARK  7 active torsions:
REMARK  status: ('A' for Active; 'I' for Inactive)
REMARK    1  A    between atoms: C4_4  and  C5_5 
REMARK    2  A    between atoms: C5_5  and  N1_6 
REMARK    3  A    between atoms: N1_6  and  S1_8 
REMARK    4  A    between atoms: S1_8  and  N2_10 
REMARK    5  A    between atoms: S1_8  and  N3_15 
REMARK    6  A    between atoms: N2_10  and  C6_12 
REMARK    7  A    between atoms: N3_15  and  C8_17 
ROOT
HETATM    1  S1  UNL     1      -7.206 -36.337   2.542  1.00  0.00     0.192 S 
HETATM    2  O1  UNL     1      -8.460 -36.279   1.748  1.00  0.00    -0.206 OA
ENDROOT
BRANCH   1   3
HETATM    3  N1  UNL     1      -6.682 -34.746   2.977  1.00  0.00    -0.316 N 
ATOM      4  H1  UNL     1      -5.728 -34.507   3.247  1.00  0.00     0.172 HD
BRANCH   3   5
HETATM    5  C5  UNL     1      -7.781 -33.796   2.908  1.00  0.00     0.159 C 
BRANCH   5   6
HETATM    6  C4  UNL     1      -7.211 -32.464   3.297  1.00  0.00    -0.005 C 
HETATM    7  C2  UNL     1      -7.932 -31.361   3.295  1.00  0.00    -0.090 C 
HETATM    8  C1  UNL     1      -9.358 -31.438   2.894  1.00  0.00     0.042 C 
HETATM    9  C3  UNL     1      -7.370 -30.047   3.678  1.00  0.00     0.042 C 
ENDBRANCH   5   6
ENDBRANCH   3   5
ENDBRANCH   1   3
BRANCH   1  10
HETATM   10  N2  UNL     1      -7.550 -37.086   3.882  1.00  0.00    -0.302 N 
ATOM     11  H2  UNL     1      -8.155 -37.906   3.868  1.00  0.00     0.173 HD
BRANCH  10  12
HETATM   12  C6  UNL     1      -7.004 -36.605   5.139  1.00  0.00     0.185 C 
HETATM   13  C7  UNL     1      -8.171 -36.156   5.992  1.00  0.00     0.050 C 
HETATM   14 CL1  UNL     1      -6.209 -37.942   6.007  1.00  0.00    -0.102 Cl
ENDBRANCH  10  12
ENDBRANCH   1  10
BRANCH   1  15
HETATM   15  N3  UNL     1      -5.920 -37.138   1.763  1.00  0.00    -0.313 N 
ATOM     16  H3  UNL     1      -6.058 -37.788   0.990  1.00  0.00     0.172 HD
BRANCH  15  17
HETATM   17  C8  UNL     1      -4.620 -36.813   2.297  1.00  0.00     0.121 C 
HETATM   18  C9  UNL     1      -3.744 -36.393   1.145  1.00  0.00     0.029 C 
HETATM   19  C10 UNL     1      -2.279 -36.385   1.498  1.00  0.00     0.038 C 
HETATM   20  C11 UNL     1      -1.950 -37.799   1.994  1.00  0.00     0.223 C 
HETATM   21  C12 UNL     1      -0.483 -37.835   2.270  1.00  0.00     0.036 C 
HETATM   22  N4  UNL     1      -2.672 -37.965   3.224  1.00  0.00     0.095 N 
HETATM   23  C13 UNL     1      -0.027 -39.096   2.946  1.00  0.00     0.004 C 
HETATM   24  C14 UNL     1      -1.206 -39.927   3.398  1.00  0.00     0.030 C 
HETATM   25  C15 UNL     1      -2.209 -39.022   4.050  1.00  0.00     0.273 C 
HETATM   26  C16 UNL     1      -4.106 -37.987   3.053  1.00  0.00     0.298 C 
ENDBRANCH  15  17
ENDBRANCH   1  15
TORSDOF 7
ENDMDL
MODEL 2
REMARK VINA RESULT: -5.700175321      2.734      7.563
REMARK  7 active torsions:
REMARK  status: ('A' for Active; 'I' for Inactive)
REMARK    1  A    between atoms: C4_4  and  C5_5 
REMARK    2  A    between atoms: C5_5  and  N1_6 
REMARK    3  A    between atoms: N1_6  and  S1_8 
REMARK    4  A    between atoms: S1_8  and  N2_10 
REMARK    5  A    between atoms: S1_8  and  N3_15 
REMARK    6  A    between atoms: N2_10  and  C6_12 
REMARK    7  A    between atoms: N3_15  and  C8_17 
ROOT
HETATM    1  S1  UNL     1      -4.839 -36.985   1.528  1.00  0.00     0.192 S 
HETATM    2  O1  UNL     1      -5.153 -36.373   0.212  1.00  0.00    -0.206 OA
ENDROOT
BRANCH   1   3
HETATM    3  N1  UNL     1      -4.666 -38.701   1.381  1.00  0.00    -0.316 N 
ATOM      4  H1  UNL     1      -4.179 -39.167   0.615  1.00  0.00     0.172 HD
BRANCH   3   5
HETATM    5  C5  UNL     1      -5.305 -39.389   2.491  1.00  0.00     0.159 C 
BRANCH   5   6
HETATM    6  C4  UNL     1      -4.225 -40.169   3.181  1.00  0.00    -0.005 C 
HETATM    7  C2  UNL     1      -3.907 -39.966   4.443  1.00  0.00    -0.090 C 
HETATM    8  C1  UNL     1      -4.643 -38.931   5.211  1.00  0.00     0.042 C 
HETATM    9  C3  UNL     1      -2.842 -40.735   5.124  1.00  0.00     0.042 C 
ENDBRANCH   5   6
ENDBRANCH   3   5
ENDBRANCH   1   3
BRANCH   1  10
HETATM   10  N2  UNL     1      -3.438 -36.422   1.970  1.00  0.00    -0.302 N 
ATOM     11  H2  UNL     1      -3.372 -35.505   2.409  1.00  0.00     0.173 HD
BRANCH  10  12
HETATM   12  C6  UNL     1      -2.240 -37.213   1.750  1.00  0.00     0.185 C 
HETATM   13  C7  UNL     1      -1.289 -36.368   0.930  1.00  0.00     0.050 C 
HETATM   14 CL1  UNL     1      -1.435 -37.541   3.305  1.00  0.00    -0.102 Cl
ENDBRANCH  10  12
ENDBRANCH   1  10
BRANCH   1  15
HETATM   15  N3  UNL     1      -5.987 -36.658   2.744  1.00  0.00    -0.313 N 
ATOM     16  H3  UNL     1      -5.885 -36.980   3.706  1.00  0.00     0.172 HD
BRANCH  15  17
HETATM   17  C8  UNL     1      -7.116 -35.885   2.288  1.00  0.00     0.121 C 
HETATM   18  C9  UNL     1      -7.075 -34.554   2.993  1.00  0.00     0.029 C 
HETATM   19  C10 UNL     1      -8.378 -33.802   2.898  1.00  0.00     0.038 C 
HETATM   20  C11 UNL     1      -9.453 -34.733   3.473  1.00  0.00     0.223 C 
HETATM   21  C12 UNL     1     -10.739 -33.974   3.464  1.00  0.00     0.036 C 
HETATM   22  N4  UNL     1      -9.546 -35.841   2.563  1.00  0.00     0.095 N 
HETATM   23  C13 UNL     1     -11.936 -34.808   3.820  1.00  0.00     0.004 C 
HETATM   24  C14 UNL     1     -11.578 -36.276   3.871  1.00  0.00     0.030 C 
HETATM   25  C15 UNL     1     -10.735 -36.607   2.675  1.00  0.00     0.273 C 
HETATM   26  C16 UNL     1      -8.360 -36.664   2.534  1.00  0.00     0.298 C 
ENDBRANCH  15  17
ENDBRANCH   1  15
TORSDOF 7
ENDMDL
MODEL 3
REMARK VINA RESULT: -5.657333279      2.408      7.859
REMARK  7 active torsions:
REMARK  status: ('A' for Active; 'I' for Inactive)
REMARK    1  A    between atoms: C4_4  and  C5_5 
REMARK    2  A    between atoms: C5_5  and  N1_6 
REMARK    3  A    between atoms: N1_6  and  S1_8 
REMARK    4  A    between atoms: S1_8  and  N2_10 
REMARK    5  A    between atoms: S1_8  and  N3_15 
REMARK    6  A    between atoms: N2_10  and  C6_12 
REMARK    7  A    between atoms: N3_15  and  C8_17 
ROOT
HETATM    1  S1  UNL     1      -5.045 -36.827   1.913  1.00  0.00     0.192 S 
HETATM    2  O1  UNL     1      -4.986 -38.002   1.005  1.00  0.00    -0.206 OA
ENDROOT
BRANCH   1   3
HETATM    3  N1  UNL     1      -5.148 -37.333   3.564  1.00  0.00    -0.316 N 
ATOM      4  H1  UNL     1      -5.267 -36.700   4.355  1.00  0.00     0.172 HD
BRANCH   3   5
HETATM    5  C5  UNL     1      -5.041 -38.780   3.677  1.00  0.00     0.159 C 
BRANCH   5   6
HETATM    6  C4  UNL     1      -3.705 -39.056   4.301  1.00  0.00    -0.005 C 
HETATM    7  C2  UNL     1      -2.836 -39.888   3.764  1.00  0.00    -0.090 C 
HETATM    8  C1  UNL     1      -3.188 -40.575   2.498  1.00  0.00     0.042 C 
HETATM    9  C3  UNL     1      -1.519 -40.161   4.380  1.00  0.00     0.042 C 
ENDBRANCH   5   6
ENDBRANCH   3   5
ENDBRANCH   1   3
BRANCH   1  10
HETATM   10  N2  UNL     1      -3.680 -36.062   1.755  1.00  0.00    -0.302 N 
ATOM     11  H2  UNL     1      -3.638 -35.055   1.908  1.00  0.00     0.173 HD
BRANCH  10  12
HETATM   12  C6  UNL     1      -2.479 -36.793   1.391  1.00  0.00     0.185 C 
HETATM   13  C7  UNL     1      -1.822 -36.039   0.255  1.00  0.00     0.050 C 
HETATM   14 CL1  UNL     1      -1.330 -36.789   2.752  1.00  0.00    -0.102 Cl
ENDBRANCH  10  12
ENDBRANCH   1  10
BRANCH   1  15
HETATM   15  N3  UNL     1      -6.332 -35.758   1.591  1.00  0.00    -0.313 N 
ATOM     16  H3  UNL     1      -6.466 -35.306   0.687  1.00  0.00     0.172 HD
BRANCH  15  17
HETATM   17  C8  UNL     1      -7.214 -35.551   2.714  1.00  0.00     0.121 C 
HETATM   18  C9  UNL     1      -8.431 -36.415   2.505  1.00  0.00     0.029 C 
HETATM   19  C10 UNL     1      -9.583 -36.025   3.395  1.00  0.00     0.038 C 
HETATM   20  C11 UNL     1      -9.864 -34.544   3.109  1.00  0.00     0.223 C 
HETATM   21  C12 UNL     1     -11.057 -34.161   3.921  1.00  0.00     0.036 C 
HETATM   22  N4  UNL     1      -8.714 -33.825   3.581  1.00  0.00     0.095 N 
HETATM   23  C13 UNL     1     -11.351 -32.688   3.903  1.00  0.00     0.004 C 
HETATM   24  C14 UNL     1     -10.224 -31.916   3.255  1.00  0.00     0.030 C 
HETATM   25  C15 UNL     1      -8.921 -32.436   3.785  1.00  0.00     0.273 C 
HETATM   26  C16 UNL     1      -7.513 -34.098   2.826  1.00  0.00     0.298 C 
ENDBRANCH  15  17
ENDBRANCH   1  15
TORSDOF 7
ENDMDL
MODEL 4
REMARK VINA RESULT: -5.641447571      1.068      1.296
REMARK  7 active torsions:
REMARK  status: ('A' for Active; 'I' for Inactive)
REMARK    1  A    between atoms: C4_4  and  C5_5 
REMARK    2  A    between atoms: C5_5  and  N1_6 
REMARK    3  A    between atoms: N1_6  and  S1_8 
REMARK    4  A    between atoms: S1_8  and  N2_10 
REMARK    5  A    between atoms: S1_8  and  N3_15 
REMARK    6  A    between atoms: N2_10  and  C6_12 
REMARK    7  A    between atoms: N3_15  and  C8_17 
ROOT
HETATM    1  S1  UNL     1      -6.986 -36.439   2.650  1.00  0.00     0.192 S 
HETATM    2  O1  UNL     1      -8.291 -37.135   2.509  1.00  0.00    -0.206 OA
ENDROOT
BRANCH   1   3
HETATM    3  N1  UNL     1      -7.111 -34.792   2.132  1.00  0.00    -0.316 N 
ATOM      4  H1  UNL     1      -6.607 -34.398   1.338  1.00  0.00     0.172 HD
BRANCH   3   5
HETATM    5  C5  UNL     1      -8.029 -34.045   2.977  1.00  0.00     0.159 C 
BRANCH   5   6
HETATM    6  C4  UNL     1      -7.364 -32.731   3.263  1.00  0.00    -0.005 C 
HETATM    7  C2  UNL     1      -7.143 -32.306   4.490  1.00  0.00    -0.090 C 
HETATM    8  C1  UNL     1      -7.565 -33.156   5.631  1.00  0.00     0.042 C 
HETATM    9  C3  UNL     1      -6.487 -31.010   4.773  1.00  0.00     0.042 C 
ENDBRANCH   5   6
ENDBRANCH   3   5
ENDBRANCH   1   3
BRANCH   1  10
HETATM   10  N2  UNL     1      -6.650 -36.409   4.186  1.00  0.00    -0.302 N 
ATOM     11  H2  UNL     1      -6.036 -35.686   4.561  1.00  0.00     0.173 HD
BRANCH  10  12
HETATM   12  C6  UNL     1      -7.215 -37.414   5.069  1.00  0.00     0.185 C 
HETATM   13  C7  UNL     1      -6.113 -37.857   6.007  1.00  0.00     0.050 C 
HETATM   14 CL1  UNL     1      -8.494 -36.689   6.075  1.00  0.00    -0.102 Cl
ENDBRANCH  10  12
ENDBRANCH   1  10
BRANCH   1  15
HETATM   15  N3  UNL     1      -5.705 -37.178   1.806  1.00  0.00    -0.313 N 
ATOM     16  H3  UNL     1      -5.848 -37.793   1.006  1.00  0.00     0.172 HD
BRANCH  15  17
HETATM   17  C8  UNL     1      -4.399 -36.854   2.326  1.00  0.00     0.121 C 
HETATM   18  C9  UNL     1      -3.540 -36.415   1.168  1.00  0.00     0.029 C 
HETATM   19  C10 UNL     1      -2.071 -36.405   1.502  1.00  0.00     0.038 C 
HETATM   20  C11 UNL     1      -1.729 -37.824   1.974  1.00  0.00     0.223 C 
HETATM   21  C12 UNL     1      -0.258 -37.857   2.230  1.00  0.00     0.036 C 
HETATM   22  N4  UNL     1      -2.433 -38.010   3.212  1.00  0.00     0.095 N 
HETATM   23  C13 UNL     1       0.213 -39.125   2.883  1.00  0.00     0.004 C 
HETATM   24  C14 UNL     1      -0.956 -39.968   3.339  1.00  0.00     0.030 C 
HETATM   25  C15 UNL     1      -1.954 -39.076   4.017  1.00  0.00     0.273 C 
HETATM   26  C16 UNL     1      -3.869 -38.036   3.060  1.00  0.00     0.298 C 
ENDBRANCH  15  17
ENDBRANCH   1  15
TORSDOF 7
ENDMDL
MODEL 5
REMARK VINA RESULT: -5.604304118      2.719      7.748
REMARK  7 active torsions:
REMARK  status: ('A' for Active; 'I' for Inactive)
REMARK    1  A    between atoms: C4_4  and  C5_5 
REMARK    2  A    between atoms: C5_5  and  N1_6 
REMARK    3  A    between atoms: N1_6  and  S1_8 
REMARK    4  A    between atoms: S1_8  and  N2_10 
REMARK    5  A    between atoms: S1_8  and  N3_15 
REMARK    6  A    between atoms: N2_10  and  C6_12 
REMARK    7  A    between atoms: N3_15  and  C8_17 
ROOT
HETATM    1  S1  UNL     1      -4.699 -36.871   1.511  1.00  0.00     0.192 S 
HETATM    2  O1  UNL     1      -5.136 -36.435   0.160  1.00  0.00    -0.206 OA
ENDROOT
BRANCH   1   3
HETATM    3  N1  UNL     1      -4.408 -38.576   1.541  1.00  0.00    -0.316 N 
ATOM      4  H1  UNL     1      -4.037 -39.111   0.756  1.00  0.00     0.172 HD
BRANCH   3   5
HETATM    5  C5  UNL     1      -4.762 -39.146   2.831  1.00  0.00     0.159 C 
BRANCH   5   6
HETATM    6  C4  UNL     1      -3.495 -39.191   3.633  1.00  0.00    -0.005 C 
HETATM    7  C2  UNL     1      -2.694 -40.237   3.624  1.00  0.00    -0.090 C 
HETATM    8  C1  UNL     1      -3.054 -41.411   2.792  1.00  0.00     0.042 C 
HETATM    9  C3  UNL     1      -1.444 -40.282   4.416  1.00  0.00     0.042 C 
ENDBRANCH   5   6
ENDBRANCH   3   5
ENDBRANCH   1   3
BRANCH   1  10
HETATM   10  N2  UNL     1      -3.320 -36.168   1.792  1.00  0.00    -0.302 N 
ATOM     11  H2  UNL     1      -3.295 -35.243   2.219  1.00  0.00     0.173 HD
BRANCH  10  12
HETATM   12  C6  UNL     1      -2.082 -36.842   1.442  1.00  0.00     0.185 C 
HETATM   13  C7  UNL     1      -1.469 -36.080   0.286  1.00  0.00     0.050 C 
HETATM   14 CL1  UNL     1      -0.931 -36.742   2.799  1.00  0.00    -0.102 Cl
ENDBRANCH  10  12
ENDBRANCH   1  10
BRANCH   1  15
HETATM   15  N3  UNL     1      -5.793 -36.485   2.758  1.00  0.00    -0.313 N 
ATOM     16  H3  UNL     1      -5.636 -36.738   3.734  1.00  0.00     0.172 HD
BRANCH  15  17
HETATM   17  C8  UNL     1      -6.962 -35.769   2.309  1.00  0.00     0.121 C 
HETATM   18  C9  UNL     1      -6.983 -34.437   3.015  1.00  0.00     0.029 C 
HETATM   19  C10 UNL     1      -8.321 -33.751   2.927  1.00  0.00     0.038 C 
HETATM   20  C11 UNL     1      -9.346 -34.733   3.509  1.00  0.00     0.223 C 
HETATM   21  C12 UNL     1     -10.667 -34.039   3.507  1.00  0.00     0.036 C 
HETATM   22  N4  UNL     1      -9.389 -35.844   2.600  1.00  0.00     0.095 N 
HETATM   23  C13 UNL     1     -11.819 -34.931   3.871  1.00  0.00     0.004 C 
HETATM   24  C14 UNL     1     -11.390 -36.380   3.920  1.00  0.00     0.030 C 
HETATM   25  C15 UNL     1     -10.539 -36.669   2.719  1.00  0.00     0.273 C 
HETATM   26  C16 UNL     1      -8.164 -36.608   2.563  1.00  0.00     0.298 C 
ENDBRANCH  15  17
ENDBRANCH   1  15
TORSDOF 7
ENDMDL
