MODEL 1
REMARK VINA RESULT: -6.085341722      0.000      0.000
REMARK  6 active torsions:
REMARK  status: ('A' for Active; 'I' for Inactive)
REMARK    1  A    between atoms: C6_7  and  C7_8 
REMARK    2  A    between atoms: C7_8  and  N1_9 
REMARK    3  A    between atoms: C7_8  and  C11_17 
REMARK    4  A    between atoms: N1_9  and  S1_11 
REMARK    5  A    between atoms: S1_11  and  C8_14 
REMARK       I    between atoms: C11_17  and  N2_19 
REMARK    6  A    between atoms: N2_19  and  C12_21 
ROOT
HETATM    1  C7  UNL     1      -5.385 -37.921   2.641  1.00  0.00     0.219 C 
ENDROOT
BRANCH   1   2
HETATM    2  C6  UNL     1      -4.059 -37.418   2.220  1.00  0.00    -0.004 A 
HETATM    3  C5  UNL     1      -3.870 -36.546   1.186  1.00  0.00     0.043 A 
HETATM    4  C4  UNL     1      -2.636 -36.058   0.837  1.00  0.00     0.025 A 
HETATM    5 CL1  UNL     1      -5.241 -36.030   0.218  1.00  0.00    -0.084 Cl
HETATM    6  C3  UNL     1      -1.533 -36.480   1.576  1.00  0.00     0.008 A 
HETATM    7  C2  UNL     1      -1.716 -37.364   2.623  1.00  0.00    -0.061 A 
HETATM    8  C1  UNL     1      -0.488 -37.774   3.370  1.00  0.00     0.048 C 
HETATM    9  C17 UNL     1      -2.949 -37.836   2.957  1.00  0.00     0.018 A 
ENDBRANCH   1   2
BRANCH   1  10
HETATM   10  N1  UNL     1      -5.681 -37.428   3.970  1.00  0.00    -0.301 N 
ATOM     11  H1  UNL     1      -4.985 -37.445   4.714  1.00  0.00     0.173 HD
BRANCH  10  12
HETATM   12  S1  UNL     1      -7.235 -36.823   4.225  1.00  0.00     0.231 S 
HETATM   13  O1  UNL     1      -8.220 -37.857   4.714  1.00  0.00    -0.206 OA
HETATM   14  O2  UNL     1      -7.226 -35.724   5.279  1.00  0.00    -0.206 OA
BRANCH  12  15
HETATM   15  C8  UNL     1      -7.836 -36.051   2.723  1.00  0.00     0.121 C 
HETATM   16  C9  UNL     1      -9.335 -36.306   2.593  1.00  0.00     0.027 C 
HETATM   17  C10 UNL     1      -7.648 -34.570   2.743  1.00  0.00     0.027 C 
ENDBRANCH  12  15
ENDBRANCH  10  12
ENDBRANCH   1  10
BRANCH   1  18
HETATM   18  C11 UNL     1      -5.392 -39.399   2.606  1.00  0.00     0.246 C 
HETATM   19  O3  UNL     1      -5.527 -39.995   3.711  1.00  0.00    -0.271 OA
HETATM   20  N2  UNL     1      -5.265 -40.111   1.435  1.00  0.00    -0.354 N 
ATOM     21  H2  UNL     1      -5.141 -39.570   0.579  1.00  0.00     0.162 HD
BRANCH  20  22
HETATM   22  C12 UNL     1      -5.291 -41.558   1.299  1.00  0.00     0.084 C 
HETATM   23  C13 UNL     1      -4.027 -42.087   0.694  1.00  0.00     0.025 C 
HETATM   24  C14 UNL     1      -4.341 -42.554  -0.717  1.00  0.00     0.002 C 
HETATM   25  C15 UNL     1      -5.813 -42.765  -0.771  1.00  0.00     0.002 C 
HETATM   26  C16 UNL     1      -6.379 -41.918   0.314  1.00  0.00     0.025 C 
ENDBRANCH  20  22
ENDBRANCH   1  18
TORSDOF 6
ENDMDL
MODEL 2
REMARK VINA RESULT: -5.956122963      3.165      6.210
REMARK  6 active torsions:
REMARK  status: ('A' for Active; 'I' for Inactive)
REMARK    1  A    between atoms: C6_7  and  C7_8 
REMARK    2  A    between atoms: C7_8  and  N1_9 
REMARK    3  A    between atoms: C7_8  and  C11_17 
REMARK    4  A    between atoms: N1_9  and  S1_11 
REMARK    5  A    between atoms: S1_11  and  C8_14 
REMARK       I    between atoms: C11_17  and  N2_19 
REMARK    6  A    between atoms: N2_19  and  C12_21 
ROOT
HETATM    1  C7  UNL     1      -4.060 -37.855   2.198  1.00  0.00     0.219 C 
ENDROOT
BRANCH   1   2
HETATM    2  C6  UNL     1      -4.646 -38.844   3.129  1.00  0.00    -0.004 A 
HETATM    3  C5  UNL     1      -5.095 -40.075   2.746  1.00  0.00     0.043 A 
HETATM    4  C4  UNL     1      -5.598 -40.995   3.631  1.00  0.00     0.025 A 
HETATM    5 CL1  UNL     1      -5.072 -40.522   1.048  1.00  0.00    -0.084 Cl
HETATM    6  C3  UNL     1      -5.651 -40.645   4.978  1.00  0.00     0.008 A 
HETATM    7  C2  UNL     1      -5.199 -39.400   5.374  1.00  0.00    -0.061 A 
HETATM    8  C1  UNL     1      -5.288 -39.093   6.835  1.00  0.00     0.048 C 
HETATM    9  C17 UNL     1      -4.701 -38.500   4.481  1.00  0.00     0.018 A 
ENDBRANCH   1   2
BRANCH   1  10
HETATM   10  N1  UNL     1      -3.095 -37.044   2.911  1.00  0.00    -0.301 N 
ATOM     11  H1  UNL     1      -3.386 -36.295   3.540  1.00  0.00     0.173 HD
BRANCH  10  12
HETATM   12  S1  UNL     1      -1.466 -37.398   2.652  1.00  0.00     0.231 S 
HETATM   13  O1  UNL     1      -0.518 -36.502   3.410  1.00  0.00    -0.206 OA
HETATM   14  O2  UNL     1      -1.140 -38.818   3.091  1.00  0.00    -0.206 OA
BRANCH  12  15
HETATM   15  C8  UNL     1      -1.109 -37.338   0.896  1.00  0.00     0.121 C 
HETATM   16  C9  UNL     1      -1.605 -36.012   0.327  1.00  0.00     0.027 C 
HETATM   17  C10 UNL     1       0.358 -37.406   0.622  1.00  0.00     0.027 C 
ENDBRANCH  12  15
ENDBRANCH  10  12
ENDBRANCH   1  10
BRANCH   1  18
HETATM   18  C11 UNL     1      -5.132 -37.020   1.616  1.00  0.00     0.246 C 
HETATM   19  O3  UNL     1      -5.109 -36.853   0.364  1.00  0.00    -0.271 OA
HETATM   20  N2  UNL     1      -6.121 -36.447   2.383  1.00  0.00    -0.354 N 
ATOM     21  H2  UNL     1      -6.073 -36.605   3.389  1.00  0.00     0.162 HD
BRANCH  20  22
HETATM   22  C12 UNL     1      -7.228 -35.639   1.898  1.00  0.00     0.084 C 
HETATM   23  C13 UNL     1      -7.315 -34.324   2.608  1.00  0.00     0.025 C 
HETATM   24  C14 UNL     1      -8.531 -34.360   3.518  1.00  0.00     0.002 C 
HETATM   25  C15 UNL     1      -9.410 -35.442   2.999  1.00  0.00     0.002 C 
HETATM   26  C16 UNL     1      -8.516 -36.354   2.237  1.00  0.00     0.025 C 
ENDBRANCH  20  22
ENDBRANCH   1  18
TORSDOF 6
ENDMDL
MODEL 3
REMARK VINA RESULT: -5.907411243      3.088      4.980
REMARK  6 active torsions:
REMARK  status: ('A' for Active; 'I' for Inactive)
REMARK    1  A    between atoms: C6_7  and  C7_8 
REMARK    2  A    between atoms: C7_8  and  N1_9 
REMARK    3  A    between atoms: C7_8  and  C11_17 
REMARK    4  A    between atoms: N1_9  and  S1_11 
REMARK    5  A    between atoms: S1_11  and  C8_14 
REMARK       I    between atoms: C11_17  and  N2_19 
REMARK    6  A    between atoms: N2_19  and  C12_21 
ROOT
HETATM    1  C7  UNL     1      -3.273 -39.027   2.979  1.00  0.00     0.219 C 
ENDROOT
BRANCH   1   2
HETATM    2  C6  UNL     1      -4.505 -38.257   3.254  1.00  0.00    -0.004 A 
HETATM    3  C5  UNL     1      -5.166 -38.282   4.449  1.00  0.00     0.043 A 
HETATM    4  C4  UNL     1      -6.285 -37.528   4.700  1.00  0.00     0.025 A 
HETATM    5 CL1  UNL     1      -4.606 -39.340   5.733  1.00  0.00    -0.084 Cl
HETATM    6  C3  UNL     1      -6.760 -36.705   3.681  1.00  0.00     0.008 A 
HETATM    7  C2  UNL     1      -6.097 -36.674   2.469  1.00  0.00    -0.061 A 
HETATM    8  C1  UNL     1      -6.664 -35.769   1.422  1.00  0.00     0.048 C 
HETATM    9  C17 UNL     1      -4.986 -37.428   2.239  1.00  0.00     0.018 A 
ENDBRANCH   1   2
BRANCH   1  10
HETATM   10  N1  UNL     1      -2.545 -38.391   1.901  1.00  0.00    -0.301 N 
ATOM     11  H1  UNL     1      -2.909 -38.370   0.949  1.00  0.00     0.173 HD
BRANCH  10  12
HETATM   12  S1  UNL     1      -1.064 -37.686   2.297  1.00  0.00     0.231 S 
HETATM   13  O1  UNL     1      -1.092 -36.885   3.576  1.00  0.00    -0.206 OA
HETATM   14  O2  UNL     1       0.010 -38.747   2.492  1.00  0.00    -0.206 OA
BRANCH  12  15
HETATM   15  C8  UNL     1      -0.499 -36.666   0.935  1.00  0.00     0.121 C 
HETATM   16  C9  UNL     1       0.287 -37.530  -0.047  1.00  0.00     0.027 C 
HETATM   17  C10 UNL     1      -1.638 -36.072   0.173  1.00  0.00     0.027 C 
ENDBRANCH  12  15
ENDBRANCH  10  12
ENDBRANCH   1  10
BRANCH   1  18
HETATM   18  C11 UNL     1      -3.622 -40.422   2.636  1.00  0.00     0.246 C 
HETATM   19  O3  UNL     1      -3.165 -41.327   3.389  1.00  0.00    -0.271 OA
HETATM   20  N2  UNL     1      -4.412 -40.741   1.555  1.00  0.00    -0.354 N 
ATOM     21  H2  UNL     1      -4.735 -39.966   0.975  1.00  0.00     0.162 HD
BRANCH  20  22
HETATM   22  C12 UNL     1      -4.832 -42.076   1.158  1.00  0.00     0.084 C 
HETATM   23  C13 UNL     1      -3.821 -42.742   0.276  1.00  0.00     0.025 C 
HETATM   24  C14 UNL     1      -4.392 -42.801  -1.131  1.00  0.00     0.002 C 
HETATM   25  C15 UNL     1      -5.865 -42.642  -0.993  1.00  0.00     0.002 C 
HETATM   26  C16 UNL     1      -6.073 -41.944   0.305  1.00  0.00     0.025 C 
ENDBRANCH  20  22
ENDBRANCH   1  18
TORSDOF 6
ENDMDL
MODEL 4
REMARK VINA RESULT: -5.739771935      2.981      5.708
REMARK  6 active torsions:
REMARK  status: ('A' for Active; 'I' for Inactive)
REMARK    1  A    between atoms: C6_7  and  C7_8 
REMARK    2  A    between atoms: C7_8  and  N1_9 
REMARK    3  A    between atoms: C7_8  and  C11_17 
REMARK    4  A    between atoms: N1_9  and  S1_11 
REMARK    5  A    between atoms: S1_11  and  C8_14 
REMARK       I    between atoms: C11_17  and  N2_19 
REMARK    6  A    between atoms: N2_19  and  C12_21 
ROOT
HETATM    1  C7  UNL     1      -4.445 -40.374   2.263  1.00  0.00     0.219 C 
ENDROOT
BRANCH   1   2
HETATM    2  C6  UNL     1      -5.127 -41.181   1.228  1.00  0.00    -0.004 A 
HETATM    3  C5  UNL     1      -6.480 -41.359   1.172  1.00  0.00     0.043 A 
HETATM    4  C4  UNL     1      -7.098 -42.078   0.180  1.00  0.00     0.025 A 
HETATM    5 CL1  UNL     1      -7.502 -40.679   2.427  1.00  0.00    -0.084 Cl
HETATM    6  C3  UNL     1      -6.299 -42.649  -0.808  1.00  0.00     0.008 A 
HETATM    7  C2  UNL     1      -4.929 -42.474  -0.758  1.00  0.00    -0.061 A 
HETATM    8  C1  UNL     1      -4.135 -43.117  -1.850  1.00  0.00     0.048 C 
HETATM    9  C17 UNL     1      -4.333 -41.755   0.234  1.00  0.00     0.018 A 
ENDBRANCH   1   2
BRANCH   1  10
HETATM   10  N1  UNL     1      -3.641 -39.356   1.619  1.00  0.00    -0.301 N 
ATOM     11  H1  UNL     1      -2.856 -39.598   1.015  1.00  0.00     0.173 HD
BRANCH  10  12
HETATM   12  S1  UNL     1      -4.065 -37.751   1.918  1.00  0.00     0.231 S 
HETATM   13  O1  UNL     1      -4.921 -37.134   0.839  1.00  0.00    -0.206 OA
HETATM   14  O2  UNL     1      -4.867 -37.630   3.207  1.00  0.00    -0.206 OA
BRANCH  12  15
HETATM   15  C8  UNL     1      -2.584 -36.773   2.174  1.00  0.00     0.121 C 
HETATM   16  C9  UNL     1      -1.564 -37.601   2.950  1.00  0.00     0.027 C 
HETATM   17  C10 UNL     1      -1.939 -36.390   0.882  1.00  0.00     0.027 C 
ENDBRANCH  12  15
ENDBRANCH  10  12
ENDBRANCH   1  10
BRANCH   1  18
HETATM   18  C11 UNL     1      -3.614 -41.251   3.114  1.00  0.00     0.246 C 
HETATM   19  O3  UNL     1      -4.223 -42.090   3.836  1.00  0.00    -0.271 OA
HETATM   20  N2  UNL     1      -2.239 -41.178   3.130  1.00  0.00    -0.354 N 
ATOM     21  H2  UNL     1      -1.809 -40.467   2.538  1.00  0.00     0.162 HD
BRANCH  20  22
HETATM   22  C12 UNL     1      -1.341 -42.016   3.908  1.00  0.00     0.084 C 
HETATM   23  C13 UNL     1      -0.299 -41.209   4.619  1.00  0.00     0.025 C 
HETATM   24  C14 UNL     1       1.036 -41.458   3.936  1.00  0.00     0.002 C 
HETATM   25  C15 UNL     1       0.889 -42.733   3.184  1.00  0.00     0.002 C 
HETATM   26  C16 UNL     1      -0.571 -42.895   2.950  1.00  0.00     0.025 C 
ENDBRANCH  20  22
ENDBRANCH   1  18
TORSDOF 6
ENDMDL
MODEL 5
REMARK VINA RESULT: -5.724740388      1.335      1.578
REMARK  6 active torsions:
REMARK  status: ('A' for Active; 'I' for Inactive)
REMARK    1  A    between atoms: C6_7  and  C7_8 
REMARK    2  A    between atoms: C7_8  and  N1_9 
REMARK    3  A    between atoms: C7_8  and  C11_17 
REMARK    4  A    between atoms: N1_9  and  S1_11 
REMARK    5  A    between atoms: S1_11  and  C8_14 
REMARK       I    between atoms: C11_17  and  N2_19 
REMARK    6  A    between atoms: N2_19  and  C12_21 
ROOT
HETATM    1  C7  UNL     1      -5.392 -37.821   2.386  1.00  0.00     0.219 C 
ENDROOT
BRANCH   1   2
HETATM    2  C6  UNL     1      -4.037 -37.346   2.033  1.00  0.00    -0.004 A 
HETATM    3  C5  UNL     1      -3.777 -36.479   1.009  1.00  0.00     0.043 A 
HETATM    4  C4  UNL     1      -2.517 -36.018   0.724  1.00  0.00     0.025 A 
HETATM    5 CL1  UNL     1      -5.087 -35.937  -0.027  1.00  0.00    -0.084 Cl
HETATM    6  C3  UNL     1      -1.463 -36.462   1.517  1.00  0.00     0.008 A 
HETATM    7  C2  UNL     1      -1.717 -37.340   2.555  1.00  0.00    -0.061 A 
HETATM    8  C1  UNL     1      -0.537 -37.775   3.363  1.00  0.00     0.048 C 
HETATM    9  C17 UNL     1      -2.975 -37.786   2.825  1.00  0.00     0.018 A 
ENDBRANCH   1   2
BRANCH   1  10
HETATM   10  N1  UNL     1      -5.769 -37.272   3.672  1.00  0.00    -0.301 N 
ATOM     11  H1  UNL     1      -5.157 -37.343   4.484  1.00  0.00     0.173 HD
BRANCH  10  12
HETATM   12  S1  UNL     1      -7.271 -36.510   3.761  1.00  0.00     0.231 S 
HETATM   13  O1  UNL     1      -7.313 -35.161   3.084  1.00  0.00    -0.206 OA
HETATM   14  O2  UNL     1      -8.349 -37.348   3.089  1.00  0.00    -0.206 OA
BRANCH  12  15
HETATM   15  C8  UNL     1      -7.771 -36.361   5.477  1.00  0.00     0.121 C 
HETATM   16  C9  UNL     1      -6.861 -37.229   6.341  1.00  0.00     0.027 C 
HETATM   17  C10 UNL     1      -7.637 -34.960   5.977  1.00  0.00     0.027 C 
ENDBRANCH  12  15
ENDBRANCH  10  12
ENDBRANCH   1  10
BRANCH   1  18
HETATM   18  C11 UNL     1      -5.413 -39.299   2.410  1.00  0.00     0.246 C 
HETATM   19  O3  UNL     1      -5.686 -39.849   3.514  1.00  0.00    -0.271 OA
HETATM   20  N2  UNL     1      -5.157 -40.059   1.291  1.00  0.00    -0.354 N 
ATOM     21  H2  UNL     1      -4.926 -39.556   0.435  1.00  0.00     0.162 HD
BRANCH  20  22
HETATM   22  C12 UNL     1      -5.184 -41.511   1.212  1.00  0.00     0.084 C 
HETATM   23  C13 UNL     1      -3.971 -42.057   0.523  1.00  0.00     0.025 C 
HETATM   24  C14 UNL     1      -4.398 -42.577  -0.839  1.00  0.00     0.002 C 
HETATM   25  C15 UNL     1      -5.868 -42.796  -0.762  1.00  0.00     0.002 C 
HETATM   26  C16 UNL     1      -6.348 -41.912   0.334  1.00  0.00     0.025 C 
ENDBRANCH  20  22
ENDBRANCH   1  18
TORSDOF 6
ENDMDL
