MODEL 1
REMARK VINA RESULT: -6.567055685      0.000      0.000
REMARK  6 active torsions:
REMARK  status: ('A' for Active; 'I' for Inactive)
REMARK    1  A    between atoms: C2_2  and  C4_4 
REMARK    2  A    between atoms: C4_4  and  C5_5 
REMARK    3  A    between atoms: C5_5  and  N1_6 
REMARK    4  A    between atoms: C5_5  and  C16_20 
REMARK       I    between atoms: N1_6  and  C6_8 
REMARK    5  A    between atoms: C6_8  and  C7_10 
REMARK    6  A    between atoms: C11_15  and  C12_16 
REMARK       I    between atoms: C16_20  and  N2_22 
ROOT
HETATM    1  C5  UNL     1      -3.595 -39.162   3.470  1.00  0.00     0.177 C 
ENDROOT
BRANCH   1   2
HETATM    2  C4  UNL     1      -4.088 -39.316   4.858  1.00  0.00     0.038 C 
BRANCH   2   3
HETATM    3  C2  UNL     1      -5.489 -38.944   5.152  1.00  0.00    -0.020 C 
HETATM    4  C1  UNL     1      -5.854 -37.713   4.297  1.00  0.00     0.009 C 
HETATM    5  C3  UNL     1      -5.695 -38.475   6.575  1.00  0.00     0.009 C 
ENDBRANCH   2   3
ENDBRANCH   1   2
BRANCH   1   6
HETATM    6  N1  UNL     1      -3.438 -40.443   2.795  1.00  0.00    -0.344 N 
HETATM    7  C6  UNL     1      -4.111 -40.820   1.637  1.00  0.00     0.252 C 
HETATM    8  O1  UNL     1      -4.919 -40.017   1.112  1.00  0.00    -0.268 OA
ATOM      9  H1  UNL     1      -2.786 -41.114   3.201  1.00  0.00     0.163 HD
BRANCH   7  10
HETATM   10  C7  UNL     1      -3.903 -42.113   1.023  1.00  0.00     0.034 A 
HETATM   11  C8  UNL     1      -2.972 -42.989   1.593  1.00  0.00     0.041 A 
HETATM   12  C9  UNL     1      -2.732 -44.229   1.051  1.00  0.00     0.035 A 
HETATM   13 CL1  UNL     1      -1.553 -45.271   1.815  1.00  0.00    -0.084 Cl
HETATM   14  C10 UNL     1      -3.432 -44.626  -0.092  1.00  0.00     0.031 A 
HETATM   15  C11 UNL     1      -4.357 -43.791  -0.682  1.00  0.00    -0.052 A 
HETATM   16  C15 UNL     1      -4.564 -42.556  -0.103  1.00  0.00     0.024 A 
BRANCH  15  17
HETATM   17  C12 UNL     1      -5.108 -44.212  -1.908  1.00  0.00     0.010 C 
HETATM   18  C13 UNL     1      -4.188 -44.960  -2.863  1.00  0.00     0.015 C 
HETATM   19  C14 UNL     1      -5.742 -43.043  -2.615  1.00  0.00     0.015 C 
ENDBRANCH  15  17
ENDBRANCH   7  10
ENDBRANCH   1   6
BRANCH   1  20
HETATM   20  C16 UNL     1      -2.394 -38.366   3.248  1.00  0.00     0.242 C 
HETATM   21  O2  UNL     1      -1.330 -38.724   3.858  1.00  0.00    -0.271 OA
HETATM   22  N2  UNL     1      -2.269 -37.227   2.421  1.00  0.00    -0.347 N 
HETATM   23  C17 UNL     1      -3.326 -36.647   1.620  1.00  0.00     0.153 C 
HETATM   24  C20 UNL     1      -0.981 -36.510   2.304  1.00  0.00     0.153 C 
HETATM   25  C18 UNL     1      -2.669 -35.843   0.516  1.00  0.00     0.252 C 
HETATM   26  N3  UNL     1      -1.523 -36.505  -0.039  1.00  0.00    -0.072 N 
HETATM   27  C19 UNL     1      -0.487 -36.788   0.904  1.00  0.00     0.252 C 
ATOM     28  H32 UNL     1      -1.806 -37.357  -0.523  1.00  0.00     0.277 HD
ATOM     29  H31 UNL     1      -1.151 -35.973  -0.825  1.00  0.00     0.277 HD
ENDBRANCH   1  20
TORSDOF 6
ENDMDL
MODEL 2
REMARK VINA RESULT: -6.440439566      1.959      2.440
REMARK  6 active torsions:
REMARK  status: ('A' for Active; 'I' for Inactive)
REMARK    1  A    between atoms: C2_2  and  C4_4 
REMARK    2  A    between atoms: C4_4  and  C5_5 
REMARK    3  A    between atoms: C5_5  and  N1_6 
REMARK    4  A    between atoms: C5_5  and  C16_20 
REMARK       I    between atoms: N1_6  and  C6_8 
REMARK    5  A    between atoms: C6_8  and  C7_10 
REMARK    6  A    between atoms: C11_15  and  C12_16 
REMARK       I    between atoms: C16_20  and  N2_22 
ROOT
HETATM    1  C5  UNL     1      -4.036 -38.665   3.728  1.00  0.00     0.177 C 
ENDROOT
BRANCH   1   2
HETATM    2  C4  UNL     1      -4.419 -38.833   5.148  1.00  0.00     0.038 C 
BRANCH   2   3
HETATM    3  C2  UNL     1      -4.933 -40.149   5.587  1.00  0.00    -0.020 C 
HETATM    4  C1  UNL     1      -6.416 -39.985   5.978  1.00  0.00     0.009 C 
HETATM    5  C3  UNL     1      -4.275 -40.655   6.851  1.00  0.00     0.009 C 
ENDBRANCH   2   3
ENDBRANCH   1   2
BRANCH   1   6
HETATM    6  N1  UNL     1      -4.381 -39.828   2.921  1.00  0.00    -0.344 N 
HETATM    7  C6  UNL     1      -5.154 -39.794   1.766  1.00  0.00     0.252 C 
HETATM    8  O1  UNL     1      -5.602 -38.694   1.363  1.00  0.00    -0.268 OA
ATOM      9  H1  UNL     1      -4.028 -40.735   3.226  1.00  0.00     0.163 HD
BRANCH   7  10
HETATM   10  C7  UNL     1      -5.456 -40.995   1.017  1.00  0.00     0.034 A 
HETATM   11  C8  UNL     1      -6.767 -41.483   1.023  1.00  0.00     0.041 A 
HETATM   12  C9  UNL     1      -7.110 -42.620   0.332  1.00  0.00     0.035 A 
HETATM   13 CL1  UNL     1      -8.769 -43.173   0.385  1.00  0.00    -0.084 Cl
HETATM   14  C10 UNL     1      -6.130 -43.304  -0.394  1.00  0.00     0.031 A 
HETATM   15  C11 UNL     1      -4.827 -42.854  -0.424  1.00  0.00    -0.052 A 
HETATM   16  C15 UNL     1      -4.531 -41.708   0.286  1.00  0.00     0.024 A 
BRANCH  15  17
HETATM   17  C12 UNL     1      -3.774 -43.585  -1.200  1.00  0.00     0.010 C 
HETATM   18  C13 UNL     1      -4.219 -43.781  -2.642  1.00  0.00     0.015 C 
HETATM   19  C14 UNL     1      -3.436 -44.916  -0.582  1.00  0.00     0.015 C 
ENDBRANCH  15  17
ENDBRANCH   7  10
ENDBRANCH   1   6
BRANCH   1  20
HETATM   20  C16 UNL     1      -2.665 -38.274   3.424  1.00  0.00     0.242 C 
HETATM   21  O2  UNL     1      -1.728 -38.906   4.019  1.00  0.00    -0.271 OA
HETATM   22  N2  UNL     1      -2.247 -37.261   2.531  1.00  0.00    -0.347 N 
HETATM   23  C17 UNL     1      -3.121 -36.427   1.733  1.00  0.00     0.153 C 
HETATM   24  C20 UNL     1      -0.811 -36.967   2.333  1.00  0.00     0.153 C 
HETATM   25  C18 UNL     1      -2.307 -35.905   0.566  1.00  0.00     0.252 C 
HETATM   26  N3  UNL     1      -1.436 -36.903   0.013  1.00  0.00    -0.072 N 
HETATM   27  C19 UNL     1      -0.488 -37.441   0.936  1.00  0.00     0.252 C 
ATOM     28  H32 UNL     1      -1.981 -37.652  -0.414  1.00  0.00     0.277 HD
ATOM     29  H31 UNL     1      -0.960 -36.541  -0.813  1.00  0.00     0.277 HD
ENDBRANCH   1  20
TORSDOF 6
ENDMDL
MODEL 3
REMARK VINA RESULT: -6.431842586      4.434      6.421
REMARK  6 active torsions:
REMARK  status: ('A' for Active; 'I' for Inactive)
REMARK    1  A    between atoms: C2_2  and  C4_4 
REMARK    2  A    between atoms: C4_4  and  C5_5 
REMARK    3  A    between atoms: C5_5  and  N1_6 
REMARK    4  A    between atoms: C5_5  and  C16_20 
REMARK       I    between atoms: N1_6  and  C6_8 
REMARK    5  A    between atoms: C6_8  and  C7_10 
REMARK    6  A    between atoms: C11_15  and  C12_16 
REMARK       I    between atoms: C16_20  and  N2_22 
ROOT
HETATM    1  C5  UNL     1      -7.178 -36.829   3.341  1.00  0.00     0.177 C 
ENDROOT
BRANCH   1   2
HETATM    2  C4  UNL     1      -7.982 -38.070   3.273  1.00  0.00     0.038 C 
BRANCH   2   3
HETATM    3  C2  UNL     1      -7.462 -39.282   3.943  1.00  0.00    -0.020 C 
HETATM    4  C1  UNL     1      -7.167 -40.345   2.863  1.00  0.00     0.009 C 
HETATM    5  C3  UNL     1      -8.479 -39.948   4.843  1.00  0.00     0.009 C 
ENDBRANCH   2   3
ENDBRANCH   1   2
BRANCH   1   6
HETATM    6  N1  UNL     1      -5.748 -37.099   3.410  1.00  0.00    -0.344 N 
HETATM    7  C6  UNL     1      -4.921 -37.289   2.308  1.00  0.00     0.252 C 
HETATM    8  O1  UNL     1      -5.413 -37.227   1.157  1.00  0.00    -0.268 OA
ATOM      9  H1  UNL     1      -5.322 -37.154   4.335  1.00  0.00     0.163 HD
BRANCH   7  10
HETATM   10  C7  UNL     1      -3.507 -37.556   2.456  1.00  0.00     0.034 A 
HETATM   11  C8  UNL     1      -2.594 -36.777   1.735  1.00  0.00     0.041 A 
HETATM   12  C9  UNL     1      -1.239 -36.987   1.835  1.00  0.00     0.035 A 
HETATM   13 CL1  UNL     1      -0.157 -35.976   0.905  1.00  0.00    -0.084 Cl
HETATM   14  C10 UNL     1      -0.762 -37.998   2.674  1.00  0.00     0.031 A 
HETATM   15  C11 UNL     1      -1.630 -38.787   3.400  1.00  0.00    -0.052 A 
HETATM   16  C15 UNL     1      -2.981 -38.538   3.267  1.00  0.00     0.024 A 
BRANCH  15  17
HETATM   17  C12 UNL     1      -1.121 -39.872   4.299  1.00  0.00     0.010 C 
HETATM   18  C13 UNL     1       0.122 -40.516   3.701  1.00  0.00     0.015 C 
HETATM   19  C14 UNL     1      -2.166 -40.923   4.566  1.00  0.00     0.015 C 
ENDBRANCH  15  17
ENDBRANCH   7  10
ENDBRANCH   1   6
BRANCH   1  20
HETATM   20  C16 UNL     1      -7.517 -35.842   4.360  1.00  0.00     0.242 C 
HETATM   21  O2  UNL     1      -7.689 -36.264   5.553  1.00  0.00    -0.271 OA
HETATM   22  N2  UNL     1      -7.677 -34.450   4.176  1.00  0.00    -0.347 N 
HETATM   23  C17 UNL     1      -7.515 -33.741   2.924  1.00  0.00     0.153 C 
HETATM   24  C20 UNL     1      -8.036 -33.570   5.309  1.00  0.00     0.153 C 
HETATM   25  C18 UNL     1      -7.229 -32.291   3.259  1.00  0.00     0.252 C 
HETATM   26  N3  UNL     1      -6.336 -32.150   4.375  1.00  0.00    -0.072 N 
HETATM   27  C19 UNL     1      -6.804 -32.743   5.587  1.00  0.00     0.252 C 
ATOM     28  H32 UNL     1      -5.412 -32.510   4.137  1.00  0.00     0.277 HD
ATOM     29  H31 UNL     1      -6.108 -31.168   4.525  1.00  0.00     0.277 HD
ENDBRANCH   1  20
TORSDOF 6
ENDMDL
MODEL 4
REMARK VINA RESULT: -6.427171945      2.301      4.400
REMARK  6 active torsions:
REMARK  status: ('A' for Active; 'I' for Inactive)
REMARK    1  A    between atoms: C2_2  and  C4_4 
REMARK    2  A    between atoms: C4_4  and  C5_5 
REMARK    3  A    between atoms: C5_5  and  N1_6 
REMARK    4  A    between atoms: C5_5  and  C16_20 
REMARK       I    between atoms: N1_6  and  C6_8 
REMARK    5  A    between atoms: C6_8  and  C7_10 
REMARK    6  A    between atoms: C11_15  and  C12_16 
REMARK       I    between atoms: C16_20  and  N2_22 
ROOT
HETATM    1  C5  UNL     1      -4.164 -37.188   2.070  1.00  0.00     0.177 C 
ENDROOT
BRANCH   1   2
HETATM    2  C4  UNL     1      -2.953 -36.439   1.665  1.00  0.00     0.038 C 
BRANCH   2   3
HETATM    3  C2  UNL     1      -1.663 -37.162   1.612  1.00  0.00    -0.020 C 
HETATM    4  C1  UNL     1      -1.112 -37.275   3.049  1.00  0.00     0.009 C 
HETATM    5  C3  UNL     1      -0.587 -36.406   0.866  1.00  0.00     0.009 C 
ENDBRANCH   2   3
ENDBRANCH   1   2
BRANCH   1   6
HETATM    6  N1  UNL     1      -4.214 -38.518   1.478  1.00  0.00    -0.344 N 
HETATM    7  C6  UNL     1      -4.037 -39.707   2.177  1.00  0.00     0.252 C 
HETATM    8  O1  UNL     1      -3.818 -39.664   3.410  1.00  0.00    -0.268 OA
ATOM      9  H1  UNL     1      -4.392 -38.582   0.475  1.00  0.00     0.163 HD
BRANCH   7  10
HETATM   10  C7  UNL     1      -4.099 -40.994   1.517  1.00  0.00     0.034 A 
HETATM   11  C8  UNL     1      -3.127 -41.955   1.818  1.00  0.00     0.041 A 
HETATM   12  C9  UNL     1      -3.136 -43.192   1.221  1.00  0.00     0.035 A 
HETATM   13 CL1  UNL     1      -1.889 -44.344   1.645  1.00  0.00    -0.084 Cl
HETATM   14  C10 UNL     1      -4.136 -43.500   0.294  1.00  0.00     0.031 A 
HETATM   15  C11 UNL     1      -5.111 -42.580  -0.029  1.00  0.00    -0.052 A 
HETATM   16  C15 UNL     1      -5.060 -41.351   0.596  1.00  0.00     0.024 A 
BRANCH  15  17
HETATM   17  C12 UNL     1      -6.183 -42.906  -1.023  1.00  0.00     0.010 C 
HETATM   18  C13 UNL     1      -6.938 -44.157  -0.597  1.00  0.00     0.015 C 
HETATM   19  C14 UNL     1      -5.632 -43.087  -2.413  1.00  0.00     0.015 C 
ENDBRANCH  15  17
ENDBRANCH   7  10
ENDBRANCH   1   6
BRANCH   1  20
HETATM   20  C16 UNL     1      -5.463 -36.549   1.893  1.00  0.00     0.242 C 
HETATM   21  O2  UNL     1      -5.720 -36.046   0.748  1.00  0.00    -0.271 OA
HETATM   22  N2  UNL     1      -6.487 -36.422   2.860  1.00  0.00    -0.347 N 
HETATM   23  C17 UNL     1      -6.433 -36.927   4.216  1.00  0.00     0.153 C 
HETATM   24  C20 UNL     1      -7.754 -35.733   2.538  1.00  0.00     0.153 C 
HETATM   25  C18 UNL     1      -7.862 -37.076   4.700  1.00  0.00     0.252 C 
HETATM   26  N3  UNL     1      -8.733 -37.603   3.688  1.00  0.00    -0.072 N 
HETATM   27  C19 UNL     1      -8.807 -36.814   2.499  1.00  0.00     0.252 C 
ATOM     28  H32 UNL     1      -8.474 -38.563   3.462  1.00  0.00     0.277 HD
ATOM     29  H31 UNL     1      -9.667 -37.758   4.069  1.00  0.00     0.277 HD
ENDBRANCH   1  20
TORSDOF 6
ENDMDL
MODEL 5
REMARK VINA RESULT: -6.371430743      1.389      2.585
REMARK  6 active torsions:
REMARK  status: ('A' for Active; 'I' for Inactive)
REMARK    1  A    between atoms: C2_2  and  C4_4 
REMARK    2  A    between atoms: C4_4  and  C5_5 
REMARK    3  A    between atoms: C5_5  and  N1_6 
REMARK    4  A    between atoms: C5_5  and  C16_20 
REMARK       I    between atoms: N1_6  and  C6_8 
REMARK    5  A    between atoms: C6_8  and  C7_10 
REMARK    6  A    between atoms: C11_15  and  C12_16 
REMARK       I    between atoms: C16_20  and  N2_22 
ROOT
HETATM    1  C5  UNL     1      -3.663 -39.075   3.335  1.00  0.00     0.177 C 
ENDROOT
BRANCH   1   2
HETATM    2  C4  UNL     1      -4.209 -39.243   4.701  1.00  0.00     0.038 C 
BRANCH   2   3
HETATM    3  C2  UNL     1      -5.593 -38.791   4.966  1.00  0.00    -0.020 C 
HETATM    4  C1  UNL     1      -6.562 -39.903   4.513  1.00  0.00     0.009 C 
HETATM    5  C3  UNL     1      -5.997 -37.593   4.136  1.00  0.00     0.009 C 
ENDBRANCH   2   3
ENDBRANCH   1   2
BRANCH   1   6
HETATM    6  N1  UNL     1      -3.481 -40.349   2.652  1.00  0.00    -0.344 N 
HETATM    7  C6  UNL     1      -4.180 -40.752   1.520  1.00  0.00     0.252 C 
HETATM    8  O1  UNL     1      -5.037 -39.981   1.025  1.00  0.00    -0.268 OA
ATOM      9  H1  UNL     1      -2.789 -40.994   3.034  1.00  0.00     0.163 HD
BRANCH   7  10
HETATM   10  C7  UNL     1      -3.944 -42.036   0.897  1.00  0.00     0.034 A 
HETATM   11  C8  UNL     1      -4.404 -42.249  -0.408  1.00  0.00     0.041 A 
HETATM   12  C9  UNL     1      -4.211 -43.449  -1.048  1.00  0.00     0.035 A 
HETATM   13 CL1  UNL     1      -4.813 -43.644  -2.678  1.00  0.00    -0.084 Cl
HETATM   14  C10 UNL     1      -3.540 -44.480  -0.384  1.00  0.00     0.031 A 
HETATM   15  C11 UNL     1      -3.072 -44.309   0.902  1.00  0.00    -0.052 A 
HETATM   16  C15 UNL     1      -3.290 -43.087   1.503  1.00  0.00     0.024 A 
BRANCH  15  17
HETATM   17  C12 UNL     1      -2.354 -45.413   1.617  1.00  0.00     0.010 C 
HETATM   18  C13 UNL     1      -2.700 -45.398   3.099  1.00  0.00     0.015 C 
HETATM   19  C14 UNL     1      -0.861 -45.328   1.437  1.00  0.00     0.015 C 
ENDBRANCH  15  17
ENDBRANCH   7  10
ENDBRANCH   1   6
BRANCH   1  20
HETATM   20  C16 UNL     1      -2.454 -38.278   3.168  1.00  0.00     0.242 C 
HETATM   21  O2  UNL     1      -1.422 -38.627   3.836  1.00  0.00    -0.271 OA
HETATM   22  N2  UNL     1      -2.289 -37.146   2.338  1.00  0.00    -0.347 N 
HETATM   23  C17 UNL     1      -3.305 -36.575   1.478  1.00  0.00     0.153 C 
HETATM   24  C20 UNL     1      -0.998 -36.427   2.281  1.00  0.00     0.153 C 
HETATM   25  C18 UNL     1      -2.593 -35.779   0.403  1.00  0.00     0.252 C 
HETATM   26  N3  UNL     1      -1.418 -36.444  -0.086  1.00  0.00    -0.072 N 
HETATM   27  C19 UNL     1      -0.432 -36.716   0.911  1.00  0.00     0.252 C 
ATOM     28  H32 UNL     1      -1.674 -37.301  -0.576  1.00  0.00     0.277 HD
ATOM     29  H31 UNL     1      -1.007 -35.917  -0.857  1.00  0.00     0.277 HD
ENDBRANCH   1  20
TORSDOF 6
ENDMDL
