MODEL 1
REMARK VINA RESULT: -6.037199319      0.000      0.000
REMARK  7 active torsions:
REMARK  status: ('A' for Active; 'I' for Inactive)
REMARK    1  A    between atoms: C2_2  and  C3_3 
REMARK    2  A    between atoms: C3_3  and  N1_6 
REMARK       I    between atoms: N1_6  and  C6_8 
REMARK    3  A    between atoms: C6_8  and  C7_10 
REMARK    4  A    between atoms: C7_10  and  N2_11 
REMARK    5  A    between atoms: N2_11  and  N3_12 
REMARK       I    between atoms: N2_11  and  C16_23 
REMARK       I    between atoms: N3_12  and  C8_14 
REMARK    6  A    between atoms: C8_14  and  C9_16 
REMARK    7  A    between atoms: C16_23  and  C17_25 
ROOT
HETATM    1  N2  UNL     1      -4.671 -40.502   2.190  1.00  0.00    -0.249 N 
HETATM    2  C16 UNL     1      -4.949 -41.217   1.022  1.00  0.00     0.242 C 
HETATM    3  O3  UNL     1      -6.155 -41.217   0.597  1.00  0.00    -0.271 OA
ENDROOT
BRANCH   1   4
HETATM    4  C7  UNL     1      -3.334 -40.429   2.720  1.00  0.00     0.255 C 
BRANCH   4   5
HETATM    5  C6  UNL     1      -2.808 -39.036   2.724  1.00  0.00     0.238 C 
HETATM    6  N1  UNL     1      -2.266 -38.424   1.566  1.00  0.00    -0.351 N 
ATOM      7  H1  UNL     1      -2.237 -38.960   0.697  1.00  0.00     0.163 HD
HETATM    8  O1  UNL     1      -2.857 -38.402   3.802  1.00  0.00    -0.272 OA
BRANCH   6   9
HETATM    9  C3  UNL     1      -1.758 -37.080   1.563  1.00  0.00     0.025 C 
HETATM   10  C4  UNL     1      -0.882 -36.790   2.776  1.00  0.00     0.038 C 
HETATM   11  C5  UNL     1      -2.926 -36.086   1.552  1.00  0.00     0.038 C 
BRANCH   9  12
HETATM   12  C2  UNL     1      -0.922 -36.815   0.356  1.00  0.00     0.026 C 
HETATM   13  C1  UNL     1       0.366 -37.606   0.417  1.00  0.00     0.007 C 
ENDBRANCH   9  12
ENDBRANCH   6   9
ENDBRANCH   4   5
ENDBRANCH   1   4
BRANCH   1  14
HETATM   14  N3  UNL     1      -5.670 -39.825   2.905  1.00  0.00    -0.264 N 
HETATM   15  C8  UNL     1      -6.165 -38.553   2.530  1.00  0.00     0.245 C 
HETATM   16  O2  UNL     1      -5.667 -38.008   1.492  1.00  0.00    -0.271 OA
ATOM     17  H3  UNL     1      -6.060 -40.271   3.734  1.00  0.00     0.190 HD
BRANCH  15  18
HETATM   18  C9  UNL     1      -7.220 -37.845   3.286  1.00  0.00     0.042 C 
HETATM   19  C10 UNL     1      -8.285 -38.853   3.646  1.00  0.00     0.026 C 
HETATM   20  C11 UNL     1      -6.639 -37.212   4.515  1.00  0.00     0.019 C 
HETATM   21  C12 UNL     1      -7.301 -35.860   4.569  1.00  0.00     0.002 C 
HETATM   22  C13 UNL     1      -7.296 -35.437   3.101  1.00  0.00     0.005 C 
HETATM   23  C14 UNL     1      -7.823 -36.722   2.463  1.00  0.00    -0.001 C 
HETATM   24  C15 UNL     1      -9.328 -36.692   2.627  1.00  0.00     0.011 C 
ENDBRANCH  15  18
ENDBRANCH   1  14
BRANCH   2  25
HETATM   25  C17 UNL     1      -3.971 -41.970   0.243  1.00  0.00     0.080 C 
HETATM   26  C18 UNL     1      -3.542 -43.318   0.785  1.00  0.00     0.014 C 
HETATM   27  C19 UNL     1      -4.250 -44.010  -0.371  1.00  0.00     0.002 C 
HETATM   28  C20 UNL     1      -4.480 -42.649  -0.985  1.00  0.00     0.014 C 
ENDBRANCH   2  25
TORSDOF 7
ENDMDL
MODEL 2
REMARK VINA RESULT: -5.802739230      5.716      9.822
REMARK  7 active torsions:
REMARK  status: ('A' for Active; 'I' for Inactive)
REMARK    1  A    between atoms: C2_2  and  C3_3 
REMARK    2  A    between atoms: C3_3  and  N1_6 
REMARK       I    between atoms: N1_6  and  C6_8 
REMARK    3  A    between atoms: C6_8  and  C7_10 
REMARK    4  A    between atoms: C7_10  and  N2_11 
REMARK    5  A    between atoms: N2_11  and  N3_12 
REMARK       I    between atoms: N2_11  and  C16_23 
REMARK       I    between atoms: N3_12  and  C8_14 
REMARK    6  A    between atoms: C8_14  and  C9_16 
REMARK    7  A    between atoms: C16_23  and  C17_25 
ROOT
HETATM    1  N2  UNL     1      -6.914 -32.221   4.233  1.00  0.00    -0.249 N 
HETATM    2  C16 UNL     1      -6.463 -31.728   5.461  1.00  0.00     0.242 C 
HETATM    3  O3  UNL     1      -6.216 -32.574   6.387  1.00  0.00    -0.271 OA
ENDROOT
BRANCH   1   4
HETATM    4  C7  UNL     1      -7.189 -31.337   3.130  1.00  0.00     0.255 C 
BRANCH   4   5
HETATM    5  C6  UNL     1      -8.554 -30.750   3.210  1.00  0.00     0.238 C 
HETATM    6  N1  UNL     1      -9.729 -31.540   3.140  1.00  0.00    -0.351 N 
ATOM      7  H1  UNL     1      -9.633 -32.550   3.031  1.00  0.00     0.163 HD
HETATM    8  O1  UNL     1      -8.643 -29.508   3.344  1.00  0.00    -0.272 OA
BRANCH   6   9
HETATM    9  C3  UNL     1     -11.049 -30.978   3.217  1.00  0.00     0.025 C 
HETATM   10  C4  UNL     1     -11.187 -29.708   2.387  1.00  0.00     0.038 C 
HETATM   11  C5  UNL     1     -11.386 -30.649   4.677  1.00  0.00     0.038 C 
BRANCH   9  12
HETATM   12  C2  UNL     1     -12.079 -31.934   2.715  1.00  0.00     0.026 C 
HETATM   13  C1  UNL     1     -11.712 -33.353   3.085  1.00  0.00     0.007 C 
ENDBRANCH   9  12
ENDBRANCH   6   9
ENDBRANCH   4   5
ENDBRANCH   1   4
BRANCH   1  14
HETATM   14  N3  UNL     1      -7.124 -33.590   4.012  1.00  0.00    -0.264 N 
HETATM   15  C8  UNL     1      -8.229 -34.300   4.539  1.00  0.00     0.245 C 
HETATM   16  O2  UNL     1      -9.064 -33.650   5.248  1.00  0.00    -0.271 OA
ATOM     17  H3  UNL     1      -6.448 -34.099   3.444  1.00  0.00     0.190 HD
BRANCH  15  18
HETATM   18  C9  UNL     1      -8.446 -35.743   4.301  1.00  0.00     0.042 C 
HETATM   19  C10 UNL     1      -7.450 -36.505   5.140  1.00  0.00     0.026 C 
HETATM   20  C11 UNL     1      -9.853 -36.120   4.659  1.00  0.00     0.019 C 
HETATM   21  C12 UNL     1     -10.269 -37.049   3.550  1.00  0.00     0.002 C 
HETATM   22  C13 UNL     1      -9.675 -36.369   2.317  1.00  0.00     0.005 C 
HETATM   23  C14 UNL     1      -8.265 -36.089   2.835  1.00  0.00    -0.001 C 
HETATM   24  C15 UNL     1      -7.492 -37.382   2.686  1.00  0.00     0.011 C 
ENDBRANCH  15  18
ENDBRANCH   1  14
BRANCH   2  25
HETATM   25  C17 UNL     1      -6.252 -30.319   5.776  1.00  0.00     0.080 C 
HETATM   26  C18 UNL     1      -7.339 -29.612   6.560  1.00  0.00     0.014 C 
HETATM   27  C19 UNL     1      -6.407 -29.502   7.758  1.00  0.00     0.002 C 
HETATM   28  C20 UNL     1      -5.292 -30.021   6.879  1.00  0.00     0.014 C 
ENDBRANCH   2  25
TORSDOF 7
ENDMDL
MODEL 3
REMARK VINA RESULT: -5.757139049      2.323      3.432
REMARK  7 active torsions:
REMARK  status: ('A' for Active; 'I' for Inactive)
REMARK    1  A    between atoms: C2_2  and  C3_3 
REMARK    2  A    between atoms: C3_3  and  N1_6 
REMARK       I    between atoms: N1_6  and  C6_8 
REMARK    3  A    between atoms: C6_8  and  C7_10 
REMARK    4  A    between atoms: C7_10  and  N2_11 
REMARK    5  A    between atoms: N2_11  and  N3_12 
REMARK       I    between atoms: N2_11  and  C16_23 
REMARK       I    between atoms: N3_12  and  C8_14 
REMARK    6  A    between atoms: C8_14  and  C9_16 
REMARK    7  A    between atoms: C16_23  and  C17_25 
ROOT
HETATM    1  N2  UNL     1      -5.778 -37.100   2.180  1.00  0.00    -0.249 N 
HETATM    2  C16 UNL     1      -6.061 -38.422   2.534  1.00  0.00     0.242 C 
HETATM    3  O3  UNL     1      -6.830 -38.618   3.537  1.00  0.00    -0.271 OA
ENDROOT
BRANCH   1   4
HETATM    4  C7  UNL     1      -4.943 -36.792   1.048  1.00  0.00     0.255 C 
BRANCH   4   5
HETATM    5  C6  UNL     1      -3.509 -36.667   1.427  1.00  0.00     0.238 C 
HETATM    6  N1  UNL     1      -2.641 -37.786   1.501  1.00  0.00    -0.351 N 
ATOM      7  H1  UNL     1      -3.015 -38.711   1.286  1.00  0.00     0.163 HD
HETATM    8  O1  UNL     1      -3.077 -35.521   1.685  1.00  0.00    -0.272 OA
BRANCH   6   9
HETATM    9  C3  UNL     1      -1.256 -37.671   1.867  1.00  0.00     0.025 C 
HETATM   10  C4  UNL     1      -1.018 -36.576   2.899  1.00  0.00     0.038 C 
HETATM   11  C5  UNL     1      -0.418 -37.361   0.620  1.00  0.00     0.038 C 
BRANCH   9  12
HETATM   12  C2  UNL     1      -0.741 -38.940   2.459  1.00  0.00     0.026 C 
HETATM   13  C1  UNL     1      -1.427 -39.229   3.775  1.00  0.00     0.007 C 
ENDBRANCH   9  12
ENDBRANCH   6   9
ENDBRANCH   4   5
ENDBRANCH   1   4
BRANCH   1  14
HETATM   14  N3  UNL     1      -6.284 -36.010   2.905  1.00  0.00    -0.264 N 
HETATM   15  C8  UNL     1      -7.577 -35.475   2.696  1.00  0.00     0.245 C 
HETATM   16  O2  UNL     1      -8.304 -36.018   1.802  1.00  0.00    -0.271 OA
ATOM     17  H3  UNL     1      -5.692 -35.583   3.616  1.00  0.00     0.190 HD
BRANCH  15  18
HETATM   18  C9  UNL     1      -8.107 -34.328   3.464  1.00  0.00     0.042 C 
HETATM   19  C10 UNL     1      -9.613 -34.429   3.466  1.00  0.00     0.026 C 
HETATM   20  C11 UNL     1      -7.563 -34.347   4.862  1.00  0.00     0.019 C 
HETATM   21  C12 UNL     1      -7.236 -32.903   5.139  1.00  0.00     0.002 C 
HETATM   22  C13 UNL     1      -6.630 -32.447   3.812  1.00  0.00     0.005 C 
HETATM   23  C14 UNL     1      -7.674 -33.010   2.848  1.00  0.00    -0.001 C 
HETATM   24  C15 UNL     1      -8.823 -32.024   2.842  1.00  0.00     0.011 C 
ENDBRANCH  15  18
ENDBRANCH   1  14
BRANCH   2  25
HETATM   25  C17 UNL     1      -5.547 -39.605   1.851  1.00  0.00     0.080 C 
HETATM   26  C18 UNL     1      -4.683 -40.551   2.658  1.00  0.00     0.014 C 
HETATM   27  C19 UNL     1      -5.777 -41.608   2.595  1.00  0.00     0.002 C 
HETATM   28  C20 UNL     1      -6.516 -40.716   1.625  1.00  0.00     0.014 C 
ENDBRANCH   2  25
TORSDOF 7
ENDMDL
MODEL 4
REMARK VINA RESULT: -5.732478104      5.436      9.819
REMARK  7 active torsions:
REMARK  status: ('A' for Active; 'I' for Inactive)
REMARK    1  A    between atoms: C2_2  and  C3_3 
REMARK    2  A    between atoms: C3_3  and  N1_6 
REMARK       I    between atoms: N1_6  and  C6_8 
REMARK    3  A    between atoms: C6_8  and  C7_10 
REMARK    4  A    between atoms: C7_10  and  N2_11 
REMARK    5  A    between atoms: N2_11  and  N3_12 
REMARK       I    between atoms: N2_11  and  C16_23 
REMARK       I    between atoms: N3_12  and  C8_14 
REMARK    6  A    between atoms: C8_14  and  C9_16 
REMARK    7  A    between atoms: C16_23  and  C17_25 
ROOT
HETATM    1  N2  UNL     1      -6.848 -32.182   3.889  1.00  0.00    -0.249 N 
HETATM    2  C16 UNL     1      -6.530 -31.799   5.195  1.00  0.00     0.242 C 
HETATM    3  O3  UNL     1      -6.190 -32.717   6.019  1.00  0.00    -0.271 OA
ENDROOT
BRANCH   1   4
HETATM    4  C7  UNL     1      -7.213 -31.207   2.894  1.00  0.00     0.255 C 
BRANCH   4   5
HETATM    5  C6  UNL     1      -8.614 -30.735   3.061  1.00  0.00     0.238 C 
HETATM    6  N1  UNL     1      -9.725 -31.613   3.007  1.00  0.00    -0.351 N 
ATOM      7  H1  UNL     1      -9.556 -32.607   2.848  1.00  0.00     0.163 HD
HETATM    8  O1  UNL     1      -8.792 -29.510   3.254  1.00  0.00    -0.272 OA
BRANCH   6   9
HETATM    9  C3  UNL     1     -11.080 -31.162   3.167  1.00  0.00     0.025 C 
HETATM   10  C4  UNL     1     -11.396 -29.956   2.292  1.00  0.00     0.038 C 
HETATM   11  C5  UNL     1     -11.328 -30.784   4.633  1.00  0.00     0.038 C 
BRANCH   9  12
HETATM   12  C2  UNL     1     -12.057 -32.228   2.800  1.00  0.00     0.026 C 
HETATM   13  C1  UNL     1     -13.457 -31.663   2.722  1.00  0.00     0.007 C 
ENDBRANCH   9  12
ENDBRANCH   6   9
ENDBRANCH   4   5
ENDBRANCH   1   4
BRANCH   1  14
HETATM   14  N3  UNL     1      -6.831 -33.524   3.482  1.00  0.00    -0.264 N 
HETATM   15  C8  UNL     1      -7.906 -34.416   3.708  1.00  0.00     0.245 C 
HETATM   16  O2  UNL     1      -8.931 -33.964   4.314  1.00  0.00    -0.271 OA
ATOM     17  H3  UNL     1      -6.005 -33.874   2.999  1.00  0.00     0.190 HD
BRANCH  15  18
HETATM   18  C9  UNL     1      -7.884 -35.829   3.274  1.00  0.00     0.042 C 
HETATM   19  C10 UNL     1      -9.197 -36.124   2.591  1.00  0.00     0.026 C 
HETATM   20  C11 UNL     1      -6.728 -36.067   2.348  1.00  0.00     0.019 C 
HETATM   21  C12 UNL     1      -6.178 -37.396   2.794  1.00  0.00     0.002 C 
HETATM   22  C13 UNL     1      -6.263 -37.287   4.317  1.00  0.00     0.005 C 
HETATM   23  C14 UNL     1      -7.691 -36.761   4.456  1.00  0.00    -0.001 C 
HETATM   24  C15 UNL     1      -8.600 -37.966   4.336  1.00  0.00     0.011 C 
ENDBRANCH  15  18
ENDBRANCH   1  14
BRANCH   2  25
HETATM   25  C17 UNL     1      -6.555 -30.430   5.702  1.00  0.00     0.080 C 
HETATM   26  C18 UNL     1      -7.635 -30.081   6.703  1.00  0.00     0.014 C 
HETATM   27  C19 UNL     1      -6.581 -29.930   7.791  1.00  0.00     0.002 C 
HETATM   28  C20 UNL     1      -5.524 -30.080   6.722  1.00  0.00     0.014 C 
ENDBRANCH   2  25
TORSDOF 7
ENDMDL
MODEL 5
REMARK VINA RESULT: -5.689268908      2.751      5.758
REMARK  7 active torsions:
REMARK  status: ('A' for Active; 'I' for Inactive)
REMARK    1  A    between atoms: C2_2  and  C3_3 
REMARK    2  A    between atoms: C3_3  and  N1_6 
REMARK       I    between atoms: N1_6  and  C6_8 
REMARK    3  A    between atoms: C6_8  and  C7_10 
REMARK    4  A    between atoms: C7_10  and  N2_11 
REMARK    5  A    between atoms: N2_11  and  N3_12 
REMARK       I    between atoms: N2_11  and  C16_23 
REMARK       I    between atoms: N3_12  and  C8_14 
REMARK    6  A    between atoms: C8_14  and  C9_16 
REMARK    7  A    between atoms: C16_23  and  C17_25 
ROOT
HETATM    1  N2  UNL     1      -3.899 -38.144   3.079  1.00  0.00    -0.249 N 
HETATM    2  C16 UNL     1      -2.542 -37.941   2.811  1.00  0.00     0.242 C 
HETATM    3  O3  UNL     1      -1.725 -38.009   3.793  1.00  0.00    -0.271 OA
ENDROOT
BRANCH   1   4
HETATM    4  C7  UNL     1      -4.880 -38.112   2.026  1.00  0.00     0.255 C 
BRANCH   4   5
HETATM    5  C6  UNL     1      -6.213 -37.669   2.516  1.00  0.00     0.238 C 
HETATM    6  N1  UNL     1      -6.534 -36.303   2.721  1.00  0.00    -0.351 N 
ATOM      7  H1  UNL     1      -5.823 -35.598   2.523  1.00  0.00     0.163 HD
HETATM    8  O1  UNL     1      -7.067 -38.554   2.751  1.00  0.00    -0.272 OA
BRANCH   6   9
HETATM    9  C3  UNL     1      -7.820 -35.869   3.195  1.00  0.00     0.025 C 
HETATM   10  C4  UNL     1      -8.945 -36.238   2.236  1.00  0.00     0.038 C 
HETATM   11  C5  UNL     1      -7.814 -34.347   3.383  1.00  0.00     0.038 C 
BRANCH   9  12
HETATM   12  C2  UNL     1      -8.154 -36.490   4.509  1.00  0.00     0.026 C 
HETATM   13  C1  UNL     1      -7.357 -35.846   5.620  1.00  0.00     0.007 C 
ENDBRANCH   9  12
ENDBRANCH   6   9
ENDBRANCH   4   5
ENDBRANCH   1   4
BRANCH   1  14
HETATM   14  N3  UNL     1      -4.374 -38.384   4.377  1.00  0.00    -0.264 N 
HETATM   15  C8  UNL     1      -4.494 -39.681   4.930  1.00  0.00     0.245 C 
HETATM   16  O2  UNL     1      -4.151 -40.668   4.202  1.00  0.00    -0.271 OA
ATOM     17  H3  UNL     1      -4.646 -37.586   4.949  1.00  0.00     0.190 HD
BRANCH  15  18
HETATM   18  C9  UNL     1      -4.993 -39.928   6.300  1.00  0.00     0.042 C 
HETATM   19  C10 UNL     1      -3.976 -40.785   7.015  1.00  0.00     0.026 C 
HETATM   20  C11 UNL     1      -5.201 -38.627   7.017  1.00  0.00     0.019 C 
HETATM   21  C12 UNL     1      -6.504 -38.823   7.744  1.00  0.00     0.002 C 
HETATM   22  C13 UNL     1      -7.347 -39.565   6.707  1.00  0.00     0.005 C 
HETATM   23  C14 UNL     1      -6.338 -40.629   6.274  1.00  0.00    -0.001 C 
HETATM   24  C15 UNL     1      -6.391 -41.718   7.324  1.00  0.00     0.011 C 
ENDBRANCH  15  18
ENDBRANCH   1  14
BRANCH   2  25
HETATM   25  C17 UNL     1      -1.977 -37.655   1.496  1.00  0.00     0.080 C 
HETATM   26  C18 UNL     1      -1.989 -36.213   1.034  1.00  0.00     0.014 C 
HETATM   27  C19 UNL     1      -0.472 -36.162   1.142  1.00  0.00     0.002 C 
HETATM   28  C20 UNL     1      -0.488 -37.651   1.399  1.00  0.00     0.014 C 
ENDBRANCH   2  25
TORSDOF 7
ENDMDL
