MODEL 1
REMARK VINA RESULT: -6.197173894      0.000      0.000
REMARK  8 active torsions:
REMARK  status: ('A' for Active; 'I' for Inactive)
REMARK    1  A    between atoms: C2_2  and  C3_3 
REMARK    2  A    between atoms: C4_4  and  C5_5 
REMARK    3  A    between atoms: C5_5  and  N1_6 
REMARK    4  A    between atoms: C9_12  and  N3_13 
REMARK    5  A    between atoms: N3_13  and  S1_15 
REMARK    6  A    between atoms: S1_15  and  N4_18 
REMARK    7  A    between atoms: C12_21  and  O3_22 
REMARK    8  A    between atoms: C13_24  and  O4_25 
ROOT
HETATM    1  C3  UNL     1      49.503  32.414  38.160  1.00  0.00     0.063 C 
HETATM    2  C4  UNL     1      50.544  31.353  38.433  1.00  0.00     0.115 C 
HETATM    3  N2  UNL     1      50.821  31.313  39.833  1.00  0.00    -0.392 N 
ATOM      4  H2  UNL     1      50.961  30.424  40.315  1.00  0.00     0.155 HD
HETATM    5  C9  UNL     1      50.894  32.526  40.527  1.00  0.00     0.220 C 
HETATM    6  C12 UNL     1      50.903  33.780  39.733  1.00  0.00     0.190 C 
HETATM    7  C13 UNL     1      50.132  33.734  38.451  1.00  0.00     0.160 C 
ENDROOT
BRANCH   5   8
HETATM    8  N3  UNL     1      49.823  32.574  41.512  1.00  0.00    -0.283 N 
ATOM      9  H3  UNL     1      49.185  33.363  41.608  1.00  0.00     0.175 HD
BRANCH   8  10
HETATM   10  S1  UNL     1      49.741  31.176  42.491  1.00  0.00     0.299 S 
HETATM   11  O1  UNL     1      49.076  30.027  41.829  1.00  0.00    -0.188 OA
HETATM   12  O2  UNL     1      51.165  30.754  42.803  1.00  0.00    -0.188 OA
BRANCH  10  13
HETATM   13  N4  UNL     1      48.945  31.487  43.999  1.00  0.00    -0.202 NA
HETATM   14  C10 UNL     1      49.936  31.517  45.064  1.00  0.00     0.130 C 
HETATM   15  C11 UNL     1      48.350  32.815  43.953  1.00  0.00     0.130 C 
ENDBRANCH  10  13
ENDBRANCH   8  10
ENDBRANCH   5   8
BRANCH   6  16
HETATM   16  O3  UNL     1      50.356  34.799  40.514  1.00  0.00    -0.389 OA
ATOM     17  H3  UNL     1      50.014  35.469  39.934  1.00  0.00     0.210 HD
ENDBRANCH   6  16
BRANCH   2  18
HETATM   18  C5  UNL     1      49.971  30.019  38.033  1.00  0.00     0.261 C 
BRANCH  18  19
HETATM   19  N1  UNL     1      50.755  29.267  37.103  1.00  0.00    -0.077 N 
HETATM   20  C6  UNL     1      51.007  27.933  37.675  1.00  0.00     0.271 C 
HETATM   21  C7  UNL     1      50.027  28.984  35.853  1.00  0.00     0.271 C 
HETATM   22  C8  UNL     1      52.020  29.815  36.745  1.00  0.00     0.271 C 
ENDBRANCH  18  19
ENDBRANCH   2  18
BRANCH   7  23
HETATM   23  O4  UNL     1      49.102  34.692  38.440  1.00  0.00    -0.392 OA
ATOM     24  H4  UNL     1      49.306  35.327  39.117  1.00  0.00     0.210 HD
ENDBRANCH   7  23
BRANCH   1  25
HETATM   25  C2  UNL     1      49.012  32.408  36.765  1.00  0.00    -0.028 C 
HETATM   26  C1  UNL     1      49.708  32.754  35.702  1.00  0.00     0.007 C 
ENDBRANCH   1  25
TORSDOF 8
ENDMDL
MODEL 2
REMARK VINA RESULT: -5.894090627      1.533      1.741
REMARK  8 active torsions:
REMARK  status: ('A' for Active; 'I' for Inactive)
REMARK    1  A    between atoms: C2_2  and  C3_3 
REMARK    2  A    between atoms: C4_4  and  C5_5 
REMARK    3  A    between atoms: C5_5  and  N1_6 
REMARK    4  A    between atoms: C9_12  and  N3_13 
REMARK    5  A    between atoms: N3_13  and  S1_15 
REMARK    6  A    between atoms: S1_15  and  N4_18 
REMARK    7  A    between atoms: C12_21  and  O3_22 
REMARK    8  A    between atoms: C13_24  and  O4_25 
ROOT
HETATM    1  C3  UNL     1      49.167  33.322  37.552  1.00  0.00     0.063 C 
HETATM    2  C4  UNL     1      50.007  32.220  38.154  1.00  0.00     0.115 C 
HETATM    3  N2  UNL     1      49.969  32.323  39.579  1.00  0.00    -0.392 N 
ATOM      4  H2  UNL     1      49.908  31.490  40.163  1.00  0.00     0.155 HD
HETATM    5  C9  UNL     1      50.019  33.600  40.149  1.00  0.00     0.220 C 
HETATM    6  C12 UNL     1      50.330  34.747  39.259  1.00  0.00     0.190 C 
HETATM    7  C13 UNL     1      49.855  34.612  37.847  1.00  0.00     0.160 C 
ENDROOT
BRANCH   5   8
HETATM    8  N3  UNL     1      48.771  33.851  40.857  1.00  0.00    -0.283 N 
ATOM      9  H3  UNL     1      48.159  34.640  40.651  1.00  0.00     0.175 HD
BRANCH   8  10
HETATM   10  S1  UNL     1      48.435  32.692  42.067  1.00  0.00     0.299 S 
HETATM   11  O1  UNL     1      47.444  33.154  43.071  1.00  0.00    -0.188 OA
HETATM   12  O2  UNL     1      47.846  31.474  41.380  1.00  0.00    -0.188 OA
BRANCH  10  13
HETATM   13  N4  UNL     1      49.870  32.184  42.895  1.00  0.00    -0.202 NA
HETATM   14  C10 UNL     1      49.590  32.087  44.319  1.00  0.00     0.130 C 
HETATM   15  C11 UNL     1      50.220  30.842  42.453  1.00  0.00     0.130 C 
ENDBRANCH  10  13
ENDBRANCH   8  10
ENDBRANCH   5   8
BRANCH   6  16
HETATM   16  O3  UNL     1      49.739  35.891  39.794  1.00  0.00    -0.389 OA
ATOM     17  H3  UNL     1      50.170  36.652  39.422  1.00  0.00     0.210 HD
ENDBRANCH   6  16
BRANCH   2  18
HETATM   18  C5  UNL     1      49.396  30.898  37.767  1.00  0.00     0.261 C 
BRANCH  18  19
HETATM   19  N1  UNL     1      50.285  29.971  37.140  1.00  0.00    -0.077 N 
HETATM   20  C6  UNL     1      50.264  28.712  37.905  1.00  0.00     0.271 C 
HETATM   21  C7  UNL     1      49.828  29.575  35.795  1.00  0.00     0.271 C 
HETATM   22  C8  UNL     1      51.648  30.370  37.027  1.00  0.00     0.271 C 
ENDBRANCH  18  19
ENDBRANCH   2  18
BRANCH   7  23
HETATM   23  O4  UNL     1      48.958  35.642  37.510  1.00  0.00    -0.392 OA
ATOM     24  H4  UNL     1      48.277  35.646  38.174  1.00  0.00     0.210 HD
ENDBRANCH   7  23
BRANCH   1  25
HETATM   25  C2  UNL     1      48.991  33.190  36.089  1.00  0.00    -0.028 C 
HETATM   26  C1  UNL     1      49.939  33.321  35.185  1.00  0.00     0.007 C 
ENDBRANCH   1  25
TORSDOF 8
ENDMDL
MODEL 3
REMARK VINA RESULT: -5.893641209      2.690      4.131
REMARK  8 active torsions:
REMARK  status: ('A' for Active; 'I' for Inactive)
REMARK    1  A    between atoms: C2_2  and  C3_3 
REMARK    2  A    between atoms: C4_4  and  C5_5 
REMARK    3  A    between atoms: C5_5  and  N1_6 
REMARK    4  A    between atoms: C9_12  and  N3_13 
REMARK    5  A    between atoms: N3_13  and  S1_15 
REMARK    6  A    between atoms: S1_15  and  N4_18 
REMARK    7  A    between atoms: C12_21  and  O3_22 
REMARK    8  A    between atoms: C13_24  and  O4_25 
ROOT
HETATM    1  C3  UNL     1      49.895  31.590  39.475  1.00  0.00     0.063 C 
HETATM    2  C4  UNL     1      49.622  33.062  39.677  1.00  0.00     0.115 C 
HETATM    3  N2  UNL     1      49.412  33.317  41.067  1.00  0.00    -0.392 N 
ATOM      4  H2  UNL     1      49.790  34.155  41.509  1.00  0.00     0.155 HD
HETATM    5  C9  UNL     1      48.674  32.384  41.805  1.00  0.00     0.220 C 
HETATM    6  C12 UNL     1      47.970  31.311  41.061  1.00  0.00     0.190 C 
HETATM    7  C13 UNL     1      48.637  30.859  39.800  1.00  0.00     0.160 C 
ENDROOT
BRANCH   5   8
HETATM    8  N3  UNL     1      49.536  31.796  42.821  1.00  0.00    -0.283 N 
ATOM      9  H3  UNL     1      50.354  31.228  42.601  1.00  0.00     0.175 HD
BRANCH   8  10
HETATM   10  S1  UNL     1      49.042  32.153  44.416  1.00  0.00     0.299 S 
HETATM   11  O1  UNL     1      48.638  33.568  44.609  1.00  0.00    -0.188 OA
HETATM   12  O2  UNL     1      47.830  31.293  44.722  1.00  0.00    -0.188 OA
BRANCH  10  13
HETATM   13  N4  UNL     1      50.268  31.762  45.577  1.00  0.00    -0.202 NA
HETATM   14  C10 UNL     1      49.659  31.054  46.693  1.00  0.00     0.130 C 
HETATM   15  C11 UNL     1      51.214  30.836  44.970  1.00  0.00     0.130 C 
ENDBRANCH  10  13
ENDBRANCH   8  10
ENDBRANCH   5   8
BRANCH   6  16
HETATM   16  O3  UNL     1      47.855  30.199  41.896  1.00  0.00    -0.389 OA
ATOM     17  H3  UNL     1      47.027  29.771  41.712  1.00  0.00     0.210 HD
ENDBRANCH   6  16
BRANCH   2  18
HETATM   18  C5  UNL     1      50.841  33.831  39.241  1.00  0.00     0.261 C 
BRANCH  18  19
HETATM   19  N1  UNL     1      50.582  35.021  38.492  1.00  0.00    -0.077 N 
HETATM   20  C6  UNL     1      51.707  35.245  37.567  1.00  0.00     0.271 C 
HETATM   21  C7  UNL     1      49.415  34.881  37.601  1.00  0.00     0.271 C 
HETATM   22  C8  UNL     1      50.406  36.221  39.238  1.00  0.00     0.271 C 
ENDBRANCH  18  19
ENDBRANCH   2  18
BRANCH   7  23
HETATM   23  O4  UNL     1      48.959  29.490  39.855  1.00  0.00    -0.392 OA
ATOM     24  H4  UNL     1      48.143  29.017  39.969  1.00  0.00     0.210 HD
ENDBRANCH   7  23
BRANCH   1  25
HETATM   25  C2  UNL     1      50.309  31.255  38.095  1.00  0.00    -0.028 C 
HETATM   26  C1  UNL     1      49.521  31.233  37.039  1.00  0.00     0.007 C 
ENDBRANCH   1  25
TORSDOF 8
ENDMDL
MODEL 4
REMARK VINA RESULT: -5.776843336      2.025      4.001
REMARK  8 active torsions:
REMARK  status: ('A' for Active; 'I' for Inactive)
REMARK    1  A    between atoms: C2_2  and  C3_3 
REMARK    2  A    between atoms: C4_4  and  C5_5 
REMARK    3  A    between atoms: C5_5  and  N1_6 
REMARK    4  A    between atoms: C9_12  and  N3_13 
REMARK    5  A    between atoms: N3_13  and  S1_15 
REMARK    6  A    between atoms: S1_15  and  N4_18 
REMARK    7  A    between atoms: C12_21  and  O3_22 
REMARK    8  A    between atoms: C13_24  and  O4_25 
ROOT
HETATM    1  C3  UNL     1      50.479  30.561  38.067  1.00  0.00     0.063 C 
HETATM    2  C4  UNL     1      49.502  31.688  37.821  1.00  0.00     0.115 C 
HETATM    3  N2  UNL     1      48.787  31.963  39.027  1.00  0.00    -0.392 N 
ATOM      4  H2  UNL     1      48.574  32.922  39.303  1.00  0.00     0.155 HD
HETATM    5  C9  UNL     1      48.385  30.881  39.818  1.00  0.00     0.220 C 
HETATM    6  C12 UNL     1      48.529  29.516  39.252  1.00  0.00     0.190 C 
HETATM    7  C13 UNL     1      49.677  29.328  38.311  1.00  0.00     0.160 C 
ENDROOT
BRANCH   5   8
HETATM    8  N3  UNL     1      49.067  30.955  41.103  1.00  0.00    -0.283 N 
ATOM      9  H3  UNL     1      49.499  30.150  41.555  1.00  0.00     0.175 HD
BRANCH   8  10
HETATM   10  S1  UNL     1      49.071  32.525  41.776  1.00  0.00     0.299 S 
HETATM   11  O1  UNL     1      50.090  33.423  41.179  1.00  0.00    -0.188 OA
HETATM   12  O2  UNL     1      47.712  33.142  41.505  1.00  0.00    -0.188 OA
BRANCH  10  13
HETATM   13  N4  UNL     1      49.297  32.492  43.494  1.00  0.00    -0.202 NA
HETATM   14  C10 UNL     1      48.060  32.066  44.130  1.00  0.00     0.130 C 
HETATM   15  C11 UNL     1      50.294  31.483  43.819  1.00  0.00     0.130 C 
ENDBRANCH  10  13
ENDBRANCH   8  10
ENDBRANCH   5   8
BRANCH   6  16
HETATM   16  O3  UNL     1      48.699  28.619  40.306  1.00  0.00    -0.389 OA
ATOM     17  H3  UNL     1      48.986  27.786  39.947  1.00  0.00     0.210 HD
ENDBRANCH   6  16
BRANCH   2  18
HETATM   18  C5  UNL     1      50.288  32.920  37.455  1.00  0.00     0.261 C 
BRANCH  18  19
HETATM   19  N1  UNL     1      49.866  33.585  36.261  1.00  0.00    -0.077 N 
HETATM   20  C6  UNL     1      48.935  34.665  36.632  1.00  0.00     0.271 C 
HETATM   21  C7  UNL     1      50.973  34.288  35.588  1.00  0.00     0.271 C 
HETATM   22  C8  UNL     1      49.211  32.785  35.282  1.00  0.00     0.271 C 
ENDBRANCH  18  19
ENDBRANCH   2  18
BRANCH   7  23
HETATM   23  O4  UNL     1      50.567  28.346  38.782  1.00  0.00    -0.392 OA
ATOM     24  H4  UNL     1      50.624  28.452  39.725  1.00  0.00     0.210 HD
ENDBRANCH   7  23
BRANCH   1  25
HETATM   25  C2  UNL     1      51.398  30.326  36.932  1.00  0.00    -0.028 C 
HETATM   26  C1  UNL     1      52.713  30.361  36.987  1.00  0.00     0.007 C 
ENDBRANCH   1  25
TORSDOF 8
ENDMDL
MODEL 5
REMARK VINA RESULT: -5.567237545      2.067      3.416
REMARK  8 active torsions:
REMARK  status: ('A' for Active; 'I' for Inactive)
REMARK    1  A    between atoms: C2_2  and  C3_3 
REMARK    2  A    between atoms: C4_4  and  C5_5 
REMARK    3  A    between atoms: C5_5  and  N1_6 
REMARK    4  A    between atoms: C9_12  and  N3_13 
REMARK    5  A    between atoms: N3_13  and  S1_15 
REMARK    6  A    between atoms: S1_15  and  N4_18 
REMARK    7  A    between atoms: C12_21  and  O3_22 
REMARK    8  A    between atoms: C13_24  and  O4_25 
ROOT
HETATM    1  C3  UNL     1      50.086  28.868  37.679  1.00  0.00     0.063 C 
HETATM    2  C4  UNL     1      50.814  30.171  37.444  1.00  0.00     0.115 C 
HETATM    3  N2  UNL     1      50.937  30.873  38.682  1.00  0.00    -0.392 N 
ATOM      4  H2  UNL     1      51.793  31.373  38.919  1.00  0.00     0.155 HD
HETATM    5  C9  UNL     1      49.847  30.856  39.561  1.00  0.00     0.220 C 
HETATM    6  C12 UNL     1      48.563  30.303  39.064  1.00  0.00     0.190 C 
HETATM    7  C13 UNL     1      48.683  29.208  38.052  1.00  0.00     0.160 C 
ENDROOT
BRANCH   5   8
HETATM    8  N3  UNL     1      50.238  30.170  40.785  1.00  0.00    -0.283 N 
ATOM      9  H3  UNL     1      50.435  29.170  40.828  1.00  0.00     0.175 HD
BRANCH   8  10
HETATM   10  S1  UNL     1      50.335  31.205  42.140  1.00  0.00     0.299 S 
HETATM   11  O1  UNL     1      51.302  30.747  43.168  1.00  0.00    -0.188 OA
HETATM   12  O2  UNL     1      50.810  32.559  41.646  1.00  0.00    -0.188 OA
BRANCH  10  13
HETATM   13  N4  UNL     1      48.790  31.434  42.892  1.00  0.00    -0.202 NA
HETATM   14  C10 UNL     1      48.986  31.719  44.305  1.00  0.00     0.130 C 
HETATM   15  C11 UNL     1      48.157  32.614  42.319  1.00  0.00     0.130 C 
ENDBRANCH  10  13
ENDBRANCH   8  10
ENDBRANCH   5   8
BRANCH   6  16
HETATM   16  O3  UNL     1      47.853  29.793  40.151  1.00  0.00    -0.389 OA
ATOM     17  H3  UNL     1      46.957  29.635  39.877  1.00  0.00     0.210 HD
ENDBRANCH   6  16
BRANCH   2  18
HETATM   18  C5  UNL     1      52.201  29.853  36.951  1.00  0.00     0.261 C 
BRANCH  18  19
HETATM   19  N1  UNL     1      52.587  30.506  35.739  1.00  0.00    -0.077 N 
HETATM   20  C6  UNL     1      53.753  31.363  36.020  1.00  0.00     0.271 C 
HETATM   21  C7  UNL     1      53.082  29.560  34.722  1.00  0.00     0.271 C 
HETATM   22  C8  UNL     1      51.604  31.326  35.114  1.00  0.00     0.271 C 
ENDBRANCH  18  19
ENDBRANCH   2  18
BRANCH   7  23
HETATM   23  O4  UNL     1      48.081  28.021  38.510  1.00  0.00    -0.392 OA
ATOM     24  H4  UNL     1      48.780  27.393  38.654  1.00  0.00     0.210 HD
ENDBRANCH   7  23
BRANCH   1  25
HETATM   25  C2  UNL     1      50.073  27.983  36.493  1.00  0.00    -0.028 C 
HETATM   26  C1  UNL     1      49.433  28.216  35.366  1.00  0.00     0.007 C 
ENDBRANCH   1  25
TORSDOF 8
ENDMDL
