MODEL 1
REMARK VINA RESULT: -6.500840516      0.000      0.000
REMARK  11 active torsions:
REMARK  status: ('A' for Active; 'I' for Inactive)
REMARK    1  A    between atoms: C2_2  and  C3_3 
REMARK    2  A    between atoms: C3_3  and  C4_4 
REMARK    3  A    between atoms: C4_4  and  C5_5 
REMARK    4  A    between atoms: C5_5  and  C6_6 
REMARK    5  A    between atoms: C8_8  and  C9_9 
REMARK    6  A    between atoms: C11_13  and  O2_14 
REMARK    7  A    between atoms: C12_16  and  O3_17 
REMARK    8  A    between atoms: C13_19  and  C14_20 
REMARK    9  A    between atoms: C13_19  and  C15_26 
REMARK   10  A    between atoms: N1_21  and  N2_23 
REMARK   11  A    between atoms: C15_26  and  N3_27 
ROOT
HETATM    1  C9  UNL     1      49.007  31.528  44.109  1.00  0.00    -0.069 C 
HETATM    2  C10 UNL     1      49.609  31.582  45.166  1.00  0.00     0.052 C 
HETATM    3  O1  UNL     1      50.291  31.630  46.352  1.00  0.00    -0.314 OA
ATOM      4  H1  UNL     1      50.761  31.672  47.176  1.00  0.00     0.230 HD
ENDROOT
BRANCH   1   5
HETATM    5  C8  UNL     1      48.275  31.454  42.843  1.00  0.00     0.099 C 
HETATM    6  C7  UNL     1      48.710  30.266  42.060  1.00  0.00     0.032 C 
HETATM    7  C6  UNL     1      50.056  30.373  41.418  1.00  0.00     0.058 C 
HETATM    8  C16 UNL     1      50.414  31.679  40.857  1.00  0.00     0.149 C 
HETATM    9  C13 UNL     1      49.685  32.720  40.089  1.00  0.00     0.106 C 
HETATM   10  O4  UNL     1      51.596  32.016  41.059  1.00  0.00    -0.296 OA
HETATM   11  C12 UNL     1      48.244  32.658  40.643  1.00  0.00     0.170 C 
HETATM   12  C11 UNL     1      48.417  32.766  42.140  1.00  0.00     0.164 C 
BRANCH   7  13
HETATM   13  C5  UNL     1      50.137  29.319  40.335  1.00  0.00     0.012 C 
BRANCH  13  14
HETATM   14  C4  UNL     1      48.918  28.424  40.341  1.00  0.00     0.001 C 
BRANCH  14  15
HETATM   15  C3  UNL     1      49.206  26.996  40.003  1.00  0.00    -0.000 C 
BRANCH  15  16
HETATM   16  C2  UNL     1      50.313  26.952  38.948  1.00  0.00    -0.005 C 
HETATM   17  C1  UNL     1      50.415  25.534  38.412  1.00  0.00     0.005 C 
ENDBRANCH  15  16
ENDBRANCH  14  15
ENDBRANCH  13  14
ENDBRANCH   7  13
BRANCH   9  18
HETATM   18  C14 UNL     1      50.162  34.103  40.398  1.00  0.00     0.101 C 
HETATM   19  N1  UNL     1      50.013  35.131  39.670  1.00  0.00    -0.321 N 
ATOM     20  H1  UNL     1      50.405  35.996  40.042  1.00  0.00     0.185 HD
BRANCH  19  21
HETATM   21  N2  UNL     1      49.391  35.236  38.442  1.00  0.00    -0.346 N 
ATOM     22  H22 UNL     1      49.236  34.346  37.969  1.00  0.00     0.176 HD
ATOM     23  H21 UNL     1      49.074  36.075  37.957  1.00  0.00     0.176 HD
ENDBRANCH  19  21
ENDBRANCH   9  18
BRANCH   9  24
HETATM   24  C15 UNL     1      49.624  32.450  38.606  1.00  0.00     0.255 C 
BRANCH  24  25
HETATM   25  N3  UNL     1      48.496  31.589  38.317  1.00  0.00    -0.078 N 
ATOM     26  H33 UNL     1      48.310  30.930  39.073  1.00  0.00     0.274 HD
ATOM     27  H32 UNL     1      47.610  32.093  38.342  1.00  0.00     0.274 HD
ATOM     28  H31 UNL     1      48.645  31.119  37.425  1.00  0.00     0.274 HD
ENDBRANCH  24  25
ENDBRANCH   9  24
BRANCH  11  29
HETATM   29  O3  UNL     1      47.602  33.791  40.158  1.00  0.00    -0.391 OA
ATOM     30  H3  UNL     1      47.859  34.550  40.667  1.00  0.00     0.210 HD
ENDBRANCH  11  29
BRANCH  12  31
HETATM   31  O2  UNL     1      47.419  33.621  42.605  1.00  0.00    -0.392 OA
ATOM     32  H2  UNL     1      47.698  34.515  42.452  1.00  0.00     0.210 HD
ENDBRANCH  12  31
ENDBRANCH   1   5
TORSDOF 11
ENDMDL
MODEL 2
REMARK VINA RESULT: -6.141275519      3.008      6.133
REMARK  11 active torsions:
REMARK  status: ('A' for Active; 'I' for Inactive)
REMARK    1  A    between atoms: C2_2  and  C3_3 
REMARK    2  A    between atoms: C3_3  and  C4_4 
REMARK    3  A    between atoms: C4_4  and  C5_5 
REMARK    4  A    between atoms: C5_5  and  C6_6 
REMARK    5  A    between atoms: C8_8  and  C9_9 
REMARK    6  A    between atoms: C11_13  and  O2_14 
REMARK    7  A    between atoms: C12_16  and  O3_17 
REMARK    8  A    between atoms: C13_19  and  C14_20 
REMARK    9  A    between atoms: C13_19  and  C15_26 
REMARK   10  A    between atoms: N1_21  and  N2_23 
REMARK   11  A    between atoms: C15_26  and  N3_27 
ROOT
HETATM    1  C9  UNL     1      50.039  31.517  37.036  1.00  0.00    -0.069 C 
HETATM    2  C10 UNL     1      50.902  31.108  36.281  1.00  0.00     0.052 C 
HETATM    3  O1  UNL     1      51.867  30.655  35.422  1.00  0.00    -0.314 OA
ATOM      4  H1  UNL     1      52.540  30.336  34.832  1.00  0.00     0.230 HD
ENDROOT
BRANCH   1   5
HETATM    5  C8  UNL     1      48.993  32.002  37.938  1.00  0.00     0.099 C 
HETATM    6  C7  UNL     1      49.249  33.419  38.315  1.00  0.00     0.032 C 
HETATM    7  C6  UNL     1      50.361  33.637  39.289  1.00  0.00     0.058 C 
HETATM    8  C16 UNL     1      50.497  32.651  40.365  1.00  0.00     0.149 C 
HETATM    9  C13 UNL     1      49.540  31.919  41.234  1.00  0.00     0.106 C 
HETATM   10  O4  UNL     1      51.673  32.338  40.627  1.00  0.00    -0.296 OA
HETATM   11  C12 UNL     1      48.310  31.686  40.330  1.00  0.00     0.170 C 
HETATM   12  C11 UNL     1      48.881  31.049  39.084  1.00  0.00     0.164 C 
BRANCH   7  13
HETATM   13  C5  UNL     1      50.189  35.017  39.887  1.00  0.00     0.012 C 
BRANCH  13  14
HETATM   14  C4  UNL     1      50.505  36.100  38.880  1.00  0.00     0.001 C 
BRANCH  14  15
HETATM   15  C3  UNL     1      51.841  35.952  38.223  1.00  0.00    -0.000 C 
BRANCH  15  16
HETATM   16  C2  UNL     1      51.649  35.966  36.705  1.00  0.00    -0.005 C 
HETATM   17  C1  UNL     1      52.110  34.631  36.146  1.00  0.00     0.005 C 
ENDBRANCH  15  16
ENDBRANCH  14  15
ENDBRANCH  13  14
ENDBRANCH   7  13
BRANCH   9  18
HETATM   18  C14 UNL     1      50.024  30.551  41.597  1.00  0.00     0.101 C 
HETATM   19  N1  UNL     1      50.887  30.269  42.484  1.00  0.00    -0.321 N 
ATOM     20  H1  UNL     1      51.095  29.277  42.596  1.00  0.00     0.185 HD
BRANCH  19  21
HETATM   21  N2  UNL     1      51.580  31.123  43.317  1.00  0.00    -0.346 N 
ATOM     22  H22 UNL     1      52.139  31.825  42.832  1.00  0.00     0.176 HD
ATOM     23  H21 UNL     1      51.604  31.141  44.336  1.00  0.00     0.176 HD
ENDBRANCH  19  21
ENDBRANCH   9  18
BRANCH   9  24
HETATM   24  C15 UNL     1      49.088  32.708  42.439  1.00  0.00     0.255 C 
BRANCH  24  25
HETATM   25  N3  UNL     1      47.877  33.434  42.115  1.00  0.00    -0.078 N 
ATOM     26  H33 UNL     1      47.847  33.714  41.135  1.00  0.00     0.274 HD
ATOM     27  H32 UNL     1      47.054  32.832  42.120  1.00  0.00     0.274 HD
ATOM     28  H31 UNL     1      47.777  34.228  42.746  1.00  0.00     0.274 HD
ENDBRANCH  24  25
ENDBRANCH   9  24
BRANCH  11  29
HETATM   29  O3  UNL     1      47.511  30.770  41.006  1.00  0.00    -0.391 OA
ATOM     30  H3  UNL     1      46.595  30.988  40.882  1.00  0.00     0.210 HD
ENDBRANCH  11  29
BRANCH  12  31
HETATM   31  O2  UNL     1      48.012  30.023  38.716  1.00  0.00    -0.392 OA
ATOM     32  H2  UNL     1      47.419  30.358  38.054  1.00  0.00     0.210 HD
ENDBRANCH  12  31
ENDBRANCH   1   5
TORSDOF 11
ENDMDL
MODEL 3
REMARK VINA RESULT: -6.045001274      3.072      5.519
REMARK  11 active torsions:
REMARK  status: ('A' for Active; 'I' for Inactive)
REMARK    1  A    between atoms: C2_2  and  C3_3 
REMARK    2  A    between atoms: C3_3  and  C4_4 
REMARK    3  A    between atoms: C4_4  and  C5_5 
REMARK    4  A    between atoms: C5_5  and  C6_6 
REMARK    5  A    between atoms: C8_8  and  C9_9 
REMARK    6  A    between atoms: C11_13  and  O2_14 
REMARK    7  A    between atoms: C12_16  and  O3_17 
REMARK    8  A    between atoms: C13_19  and  C14_20 
REMARK    9  A    between atoms: C13_19  and  C15_26 
REMARK   10  A    between atoms: N1_21  and  N2_23 
REMARK   11  A    between atoms: C15_26  and  N3_27 
ROOT
HETATM    1  C9  UNL     1      50.417  35.279  38.727  1.00  0.00    -0.069 C 
HETATM    2  C10 UNL     1      51.296  36.117  38.637  1.00  0.00     0.052 C 
HETATM    3  O1  UNL     1      52.280  37.064  38.548  1.00  0.00    -0.314 OA
ATOM      4  H1  UNL     1      52.966  37.718  38.478  1.00  0.00     0.230 HD
ENDROOT
BRANCH   1   5
HETATM    5  C8  UNL     1      49.352  34.281  38.833  1.00  0.00     0.099 C 
HETATM    6  C7  UNL     1      49.179  33.854  40.248  1.00  0.00     0.032 C 
HETATM    7  C6  UNL     1      50.245  32.955  40.787  1.00  0.00     0.058 C 
HETATM    8  C16 UNL     1      50.774  31.941  39.870  1.00  0.00     0.149 C 
HETATM    9  C13 UNL     1      50.174  31.041  38.851  1.00  0.00     0.106 C 
HETATM   10  O4  UNL     1      52.007  31.781  39.941  1.00  0.00    -0.296 OA
HETATM   11  C12 UNL     1      49.008  31.863  38.260  1.00  0.00     0.170 C 
HETATM   12  C11 UNL     1      49.643  33.177  37.867  1.00  0.00     0.164 C 
BRANCH   7  13
HETATM   13  C5  UNL     1      49.697  32.279  42.025  1.00  0.00     0.012 C 
BRANCH  13  14
HETATM   14  C4  UNL     1      48.279  32.717  42.313  1.00  0.00     0.001 C 
BRANCH  14  15
HETATM   15  C3  UNL     1      47.987  32.927  43.765  1.00  0.00    -0.000 C 
BRANCH  15  16
HETATM   16  C2  UNL     1      48.225  31.614  44.512  1.00  0.00    -0.005 C 
HETATM   17  C1  UNL     1      49.181  31.878  45.663  1.00  0.00     0.005 C 
ENDBRANCH  15  16
ENDBRANCH  14  15
ENDBRANCH  13  14
ENDBRANCH   7  13
BRANCH   9  18
HETATM   18  C14 UNL     1      51.093  30.782  37.700  1.00  0.00     0.101 C 
HETATM   19  N1  UNL     1      51.604  29.665  37.382  1.00  0.00    -0.321 N 
ATOM     20  H1  UNL     1      52.210  29.675  36.562  1.00  0.00     0.185 HD
BRANCH  19  21
HETATM   21  N2  UNL     1      51.449  28.438  37.995  1.00  0.00    -0.346 N 
ATOM     22  H22 UNL     1      51.963  28.336  38.870  1.00  0.00     0.176 HD
ATOM     23  H21 UNL     1      50.897  27.637  37.690  1.00  0.00     0.176 HD
ENDBRANCH  19  21
ENDBRANCH   9  18
BRANCH   9  24
HETATM   24  C15 UNL     1      49.601  29.769  39.427  1.00  0.00     0.255 C 
BRANCH  24  25
HETATM   25  N3  UNL     1      48.200  29.969  39.740  1.00  0.00    -0.078 N 
ATOM     26  H33 UNL     1      47.745  29.107  40.037  1.00  0.00     0.274 HD
ATOM     27  H32 UNL     1      48.070  30.506  40.597  1.00  0.00     0.274 HD
ATOM     28  H31 UNL     1      47.732  30.398  38.942  1.00  0.00     0.274 HD
ENDBRANCH  24  25
ENDBRANCH   9  24
BRANCH  11  29
HETATM   29  O3  UNL     1      48.599  31.177  37.123  1.00  0.00    -0.391 OA
ATOM     30  H3  UNL     1      47.650  31.140  37.092  1.00  0.00     0.210 HD
ENDBRANCH  11  29
BRANCH  12  31
HETATM   31  O2  UNL     1      49.114  33.531  36.627  1.00  0.00    -0.392 OA
ATOM     32  H2  UNL     1      49.642  33.125  35.951  1.00  0.00     0.210 HD
ENDBRANCH  12  31
ENDBRANCH   1   5
TORSDOF 11
ENDMDL
MODEL 4
REMARK VINA RESULT: -5.949177807      3.204      6.259
REMARK  11 active torsions:
REMARK  status: ('A' for Active; 'I' for Inactive)
REMARK    1  A    between atoms: C2_2  and  C3_3 
REMARK    2  A    between atoms: C3_3  and  C4_4 
REMARK    3  A    between atoms: C4_4  and  C5_5 
REMARK    4  A    between atoms: C5_5  and  C6_6 
REMARK    5  A    between atoms: C8_8  and  C9_9 
REMARK    6  A    between atoms: C11_13  and  O2_14 
REMARK    7  A    between atoms: C12_16  and  O3_17 
REMARK    8  A    between atoms: C13_19  and  C14_20 
REMARK    9  A    between atoms: C13_19  and  C15_26 
REMARK   10  A    between atoms: N1_21  and  N2_23 
REMARK   11  A    between atoms: C15_26  and  N3_27 
ROOT
HETATM    1  C9  UNL     1      50.068  30.141  38.020  1.00  0.00    -0.069 C 
HETATM    2  C10 UNL     1      50.956  29.653  37.345  1.00  0.00     0.052 C 
HETATM    3  O1  UNL     1      51.964  29.110  36.595  1.00  0.00    -0.314 OA
ATOM      4  H1  UNL     1      52.657  28.730  36.068  1.00  0.00     0.230 HD
ENDROOT
BRANCH   1   5
HETATM    5  C8  UNL     1      49.004  30.738  38.828  1.00  0.00     0.099 C 
HETATM    6  C7  UNL     1      48.945  32.209  38.603  1.00  0.00     0.032 C 
HETATM    7  C6  UNL     1      50.041  33.004  39.237  1.00  0.00     0.058 C 
HETATM    8  C16 UNL     1      50.480  32.574  40.567  1.00  0.00     0.149 C 
HETATM    9  C13 UNL     1      49.787  32.084  41.786  1.00  0.00     0.106 C 
HETATM   10  O4  UNL     1      51.713  32.620  40.739  1.00  0.00    -0.296 OA
HETATM   11  C12 UNL     1      48.585  31.281  41.241  1.00  0.00     0.170 C 
HETATM   12  C11 UNL     1      49.200  30.320  40.250  1.00  0.00     0.164 C 
BRANCH   7  13
HETATM   13  C5  UNL     1      49.591  34.447  39.295  1.00  0.00     0.012 C 
BRANCH  13  14
HETATM   14  C4  UNL     1      50.352  35.304  38.309  1.00  0.00     0.001 C 
BRANCH  14  15
HETATM   15  C3  UNL     1      50.992  36.513  38.914  1.00  0.00    -0.000 C 
BRANCH  15  16
HETATM   16  C2  UNL     1      52.269  36.838  38.137  1.00  0.00    -0.005 C 
HETATM   17  C1  UNL     1      52.494  38.339  38.180  1.00  0.00     0.005 C 
ENDBRANCH  15  16
ENDBRANCH  14  15
ENDBRANCH  13  14
ENDBRANCH   7  13
BRANCH   9  18
HETATM   18  C14 UNL     1      50.604  31.093  42.553  1.00  0.00     0.101 C 
HETATM   19  N1  UNL     1      50.628  30.952  43.813  1.00  0.00    -0.321 N 
ATOM     20  H1  UNL     1      51.247  30.221  44.164  1.00  0.00     0.185 HD
BRANCH  19  21
HETATM   21  N2  UNL     1      49.930  31.655  44.774  1.00  0.00    -0.346 N 
ATOM     22  H22 UNL     1      49.285  32.353  44.402  1.00  0.00     0.176 HD
ATOM     23  H21 UNL     1      49.975  31.566  45.789  1.00  0.00     0.176 HD
ENDBRANCH  19  21
ENDBRANCH   9  18
BRANCH   9  24
HETATM   24  C15 UNL     1      49.249  33.187  42.664  1.00  0.00     0.255 C 
BRANCH  24  25
HETATM   25  N3  UNL     1      47.842  33.388  42.380  1.00  0.00    -0.078 N 
ATOM     26  H33 UNL     1      47.646  33.379  41.380  1.00  0.00     0.274 HD
ATOM     27  H32 UNL     1      47.277  32.582  42.646  1.00  0.00     0.274 HD
ATOM     28  H31 UNL     1      47.524  34.246  42.828  1.00  0.00     0.274 HD
ENDBRANCH  24  25
ENDBRANCH   9  24
BRANCH  11  29
HETATM   29  O3  UNL     1      48.075  30.579  42.326  1.00  0.00    -0.391 OA
ATOM     30  H3  UNL     1      47.544  31.155  42.863  1.00  0.00     0.210 HD
ENDBRANCH  11  29
BRANCH  12  31
HETATM   31  O2  UNL     1      48.574  29.089  40.433  1.00  0.00    -0.392 OA
ATOM     32  H2  UNL     1      48.278  29.037  41.334  1.00  0.00     0.210 HD
ENDBRANCH  12  31
ENDBRANCH   1   5
TORSDOF 11
ENDMDL
MODEL 5
REMARK VINA RESULT: -5.893576774      2.540      4.879
REMARK  11 active torsions:
REMARK  status: ('A' for Active; 'I' for Inactive)
REMARK    1  A    between atoms: C2_2  and  C3_3 
REMARK    2  A    between atoms: C3_3  and  C4_4 
REMARK    3  A    between atoms: C4_4  and  C5_5 
REMARK    4  A    between atoms: C5_5  and  C6_6 
REMARK    5  A    between atoms: C8_8  and  C9_9 
REMARK    6  A    between atoms: C11_13  and  O2_14 
REMARK    7  A    between atoms: C12_16  and  O3_17 
REMARK    8  A    between atoms: C13_19  and  C14_20 
REMARK    9  A    between atoms: C13_19  and  C15_26 
REMARK   10  A    between atoms: N1_21  and  N2_23 
REMARK   11  A    between atoms: C15_26  and  N3_27 
ROOT
HETATM    1  C9  UNL     1      49.518  33.460  36.925  1.00  0.00    -0.069 C 
HETATM    2  C10 UNL     1      48.768  34.229  36.352  1.00  0.00     0.052 C 
HETATM    3  O1  UNL     1      47.935  35.102  35.706  1.00  0.00    -0.314 OA
ATOM      4  H1  UNL     1      47.349  35.702  35.259  1.00  0.00     0.230 HD
ENDROOT
BRANCH   1   5
HETATM    5  C8  UNL     1      50.420  32.544  37.625  1.00  0.00     0.099 C 
HETATM    6  C7  UNL     1      49.884  31.156  37.583  1.00  0.00     0.032 C 
HETATM    7  C6  UNL     1      48.718  30.886  38.478  1.00  0.00     0.058 C 
HETATM    8  C16 UNL     1      48.738  31.529  39.795  1.00  0.00     0.149 C 
HETATM    9  C13 UNL     1      49.787  31.780  40.817  1.00  0.00     0.106 C 
HETATM   10  O4  UNL     1      47.636  31.975  40.164  1.00  0.00    -0.296 OA
HETATM   11  C12 UNL     1      51.070  32.020  39.990  1.00  0.00     0.170 C 
HETATM   12  C11 UNL     1      50.675  33.086  38.994  1.00  0.00     0.164 C 
BRANCH   7  13
HETATM   13  C5  UNL     1      48.602  29.387  38.648  1.00  0.00     0.012 C 
BRANCH  13  14
HETATM   14  C4  UNL     1      49.924  28.698  38.398  1.00  0.00     0.001 C 
BRANCH  14  15
HETATM   15  C3  UNL     1      50.120  27.445  39.191  1.00  0.00    -0.000 C 
BRANCH  15  16
HETATM   16  C2  UNL     1      49.008  27.342  40.236  1.00  0.00    -0.005 C 
HETATM   17  C1  UNL     1      48.482  25.917  40.245  1.00  0.00     0.005 C 
ENDBRANCH  15  16
ENDBRANCH  14  15
ENDBRANCH  13  14
ENDBRANCH   7  13
BRANCH   9  18
HETATM   18  C14 UNL     1      49.563  33.053  41.569  1.00  0.00     0.101 C 
HETATM   19  N1  UNL     1      48.731  33.234  42.510  1.00  0.00    -0.321 N 
ATOM     20  H1  UNL     1      48.716  34.172  42.911  1.00  0.00     0.185 HD
BRANCH  19  21
HETATM   21  N2  UNL     1      47.846  32.333  43.066  1.00  0.00    -0.346 N 
ATOM     22  H22 UNL     1      48.233  31.774  43.827  1.00  0.00     0.176 HD
ATOM     23  H21 UNL     1      46.873  32.157  42.817  1.00  0.00     0.176 HD
ENDBRANCH  19  21
ENDBRANCH   9  18
BRANCH   9  24
HETATM   24  C15 UNL     1      50.038  30.607  41.732  1.00  0.00     0.255 C 
BRANCH  24  25
HETATM   25  N3  UNL     1      51.178  30.889  42.579  1.00  0.00    -0.078 N 
ATOM     26  H33 UNL     1      51.761  30.066  42.728  1.00  0.00     0.274 HD
ATOM     27  H32 UNL     1      51.869  31.475  42.112  1.00  0.00     0.274 HD
ATOM     28  H31 UNL     1      50.857  31.298  43.456  1.00  0.00     0.274 HD
ENDBRANCH  24  25
ENDBRANCH   9  24
BRANCH  11  29
HETATM   29  O3  UNL     1      52.006  32.530  40.882  1.00  0.00    -0.391 OA
ATOM     30  H3  UNL     1      52.879  32.441  40.520  1.00  0.00     0.210 HD
ENDBRANCH  11  29
BRANCH  12  31
HETATM   31  O2  UNL     1      51.736  33.986  38.917  1.00  0.00    -0.392 OA
ATOM     32  H2  UNL     1      51.577  34.688  39.536  1.00  0.00     0.210 HD
ENDBRANCH  12  31
ENDBRANCH   1   5
TORSDOF 11
ENDMDL
