MODEL 1
REMARK VINA RESULT: -7.241651942      0.000      0.000
REMARK  6 active torsions:
REMARK  status: ('A' for Active; 'I' for Inactive)
REMARK    1  A    between atoms: O1_2  and  C2_3 
REMARK    2  A    between atoms: C5_6  and  S1_7 
REMARK    3  A    between atoms: C6_8  and  C7_9 
REMARK    4  A    between atoms: C7_9  and  O2_10 
REMARK    5  A    between atoms: C9_12  and  C10_13 
REMARK    6  A    between atoms: C11_15  and  N1_16 
REMARK       I    between atoms: N1_16  and  C12_18 
ROOT
HETATM    1  S1  UNL     1      50.503  32.775  39.281  1.00  0.00    -0.165 SA
HETATM    2  C6  UNL     1      49.079  32.332  38.313  1.00  0.00     0.078 C 
HETATM    3  C9  UNL     1      49.750  33.058  37.141  1.00  0.00     0.094 C 
HETATM    4  C11 UNL     1      50.172  34.113  38.173  1.00  0.00     0.152 C 
ENDROOT
BRANCH   1   5
HETATM    5  C5  UNL     1      50.161  33.093  40.980  1.00  0.00     0.144 C 
HETATM    6  C4  UNL     1      50.439  31.933  41.879  1.00  0.00     0.081 C 
HETATM    7  C3  UNL     1      49.556  32.233  43.053  1.00  0.00     0.034 C 
HETATM    8  C2  UNL     1      49.757  31.943  44.324  1.00  0.00     0.146 C 
HETATM    9  C13 UNL     1      48.414  32.925  42.465  1.00  0.00     0.250 C 
HETATM   10  N3  UNL     1      48.738  33.302  41.133  1.00  0.00    -0.344 N 
HETATM   11  O5  UNL     1      47.335  33.124  43.100  1.00  0.00    -0.268 OA
ATOM     12  H3  UNL     1      48.093  33.651  40.423  1.00  0.00     0.164 HD
BRANCH   8  13
HETATM   13  O1  UNL     1      50.873  31.282  44.798  1.00  0.00    -0.367 OA
HETATM   14  C1  UNL     1      51.043  30.942  46.162  1.00  0.00     0.208 C 
ENDBRANCH   8  13
ENDBRANCH   1   5
BRANCH   2  15
HETATM   15  C7  UNL     1      48.919  30.854  38.101  1.00  0.00     0.182 C 
BRANCH  15  16
HETATM   16  O2  UNL     1      48.512  30.288  39.293  1.00  0.00    -0.395 OA
HETATM   17  C8  UNL     1      49.222  29.133  39.534  1.00  0.00     0.201 C 
ENDBRANCH  15  16
ENDBRANCH   2  15
BRANCH   4  18
HETATM   18  N1  UNL     1      51.313  34.881  37.792  1.00  0.00    -0.332 N 
HETATM   19  C12 UNL     1      51.706  36.026  38.526  1.00  0.00     0.329 C 
HETATM   20  N2  UNL     1      52.840  36.815  38.173  1.00  0.00    -0.040 NA
HETATM   21  O4  UNL     1      51.034  36.369  39.531  1.00  0.00    -0.251 OA
ATOM     22  H1  UNL     1      51.856  34.598  36.976  1.00  0.00     0.165 HD
ENDBRANCH   4  18
BRANCH   3  23
HETATM   23  C10 UNL     1      48.826  33.543  36.109  1.00  0.00     0.239 C 
HETATM   24  O3  UNL     1      48.606  32.848  35.135  1.00  0.00    -0.306 OA
ENDBRANCH   3  23
TORSDOF 6
ENDMDL
MODEL 2
REMARK VINA RESULT: -6.438498376      3.410      5.768
REMARK  6 active torsions:
REMARK  status: ('A' for Active; 'I' for Inactive)
REMARK    1  A    between atoms: O1_2  and  C2_3 
REMARK    2  A    between atoms: C5_6  and  S1_7 
REMARK    3  A    between atoms: C6_8  and  C7_9 
REMARK    4  A    between atoms: C7_9  and  O2_10 
REMARK    5  A    between atoms: C9_12  and  C10_13 
REMARK    6  A    between atoms: C11_15  and  N1_16 
REMARK       I    between atoms: N1_16  and  C12_18 
ROOT
HETATM    1  S1  UNL     1      48.697  29.629  38.585  1.00  0.00    -0.165 SA
HETATM    2  C6  UNL     1      49.795  29.527  37.190  1.00  0.00     0.078 C 
HETATM    3  C9  UNL     1      49.075  28.224  36.823  1.00  0.00     0.094 C 
HETATM    4  C11 UNL     1      49.077  27.921  38.328  1.00  0.00     0.152 C 
ENDROOT
BRANCH   1   5
HETATM    5  C5  UNL     1      49.410  30.356  40.023  1.00  0.00     0.144 C 
HETATM    6  C4  UNL     1      48.466  31.220  40.794  1.00  0.00     0.081 C 
HETATM    7  C3  UNL     1      49.408  32.123  41.535  1.00  0.00     0.034 C 
HETATM    8  C2  UNL     1      49.253  32.668  42.726  1.00  0.00     0.146 C 
HETATM    9  C13 UNL     1      50.544  32.262  40.630  1.00  0.00     0.250 C 
HETATM   10  N3  UNL     1      50.446  31.278  39.609  1.00  0.00    -0.344 N 
HETATM   11  O5  UNL     1      51.440  33.145  40.792  1.00  0.00    -0.268 OA
ATOM     12  H3  UNL     1      50.998  31.230  38.752  1.00  0.00     0.164 HD
BRANCH   8  13
HETATM   13  O1  UNL     1      48.138  32.482  43.521  1.00  0.00    -0.367 OA
HETATM   14  C1  UNL     1      48.148  31.674  44.683  1.00  0.00     0.208 C 
ENDBRANCH   8  13
ENDBRANCH   1   5
BRANCH   2  15
HETATM   15  C7  UNL     1      49.611  30.628  36.185  1.00  0.00     0.182 C 
BRANCH  15  16
HETATM   16  O2  UNL     1      48.892  31.643  36.785  1.00  0.00    -0.395 OA
HETATM   17  C8  UNL     1      49.387  32.866  36.390  1.00  0.00     0.201 C 
ENDBRANCH  15  16
ENDBRANCH   2  15
BRANCH   4  18
HETATM   18  N1  UNL     1      48.062  27.006  38.741  1.00  0.00    -0.332 N 
HETATM   19  C12 UNL     1      48.119  26.370  40.004  1.00  0.00     0.329 C 
HETATM   20  N2  UNL     1      47.123  25.450  40.448  1.00  0.00    -0.040 NA
HETATM   21  O4  UNL     1      49.083  26.618  40.772  1.00  0.00    -0.251 OA
ATOM     22  H1  UNL     1      47.282  26.808  38.115  1.00  0.00     0.165 HD
ENDBRANCH   4  18
BRANCH   3  23
HETATM   23  C10 UNL     1      49.867  27.294  36.008  1.00  0.00     0.239 C 
HETATM   24  O3  UNL     1      49.346  26.749  35.053  1.00  0.00    -0.306 OA
ENDBRANCH   3  23
TORSDOF 6
ENDMDL
MODEL 3
REMARK VINA RESULT: -6.394636745      2.987      5.202
REMARK  6 active torsions:
REMARK  status: ('A' for Active; 'I' for Inactive)
REMARK    1  A    between atoms: O1_2  and  C2_3 
REMARK    2  A    between atoms: C5_6  and  S1_7 
REMARK    3  A    between atoms: C6_8  and  C7_9 
REMARK    4  A    between atoms: C7_9  and  O2_10 
REMARK    5  A    between atoms: C9_12  and  C10_13 
REMARK    6  A    between atoms: C11_15  and  N1_16 
REMARK       I    between atoms: N1_16  and  C12_18 
ROOT
HETATM    1  S1  UNL     1      48.372  30.188  39.936  1.00  0.00    -0.165 SA
HETATM    2  C6  UNL     1      49.229  31.048  38.637  1.00  0.00     0.078 C 
HETATM    3  C9  UNL     1      48.617  30.027  37.669  1.00  0.00     0.094 C 
HETATM    4  C11 UNL     1      48.903  28.982  38.756  1.00  0.00     0.152 C 
ENDROOT
BRANCH   1   5
HETATM    5  C5  UNL     1      49.221  30.164  41.480  1.00  0.00     0.144 C 
HETATM    6  C4  UNL     1      48.650  31.096  42.497  1.00  0.00     0.081 C 
HETATM    7  C3  UNL     1      49.822  31.319  43.406  1.00  0.00     0.034 C 
HETATM    8  C2  UNL     1      49.820  31.546  44.705  1.00  0.00     0.146 C 
HETATM    9  C13 UNL     1      50.975  31.228  42.517  1.00  0.00     0.250 C 
HETATM   10  N3  UNL     1      50.561  30.671  41.276  1.00  0.00    -0.344 N 
HETATM   11  O5  UNL     1      52.135  31.605  42.864  1.00  0.00    -0.268 OA
ATOM     12  H3  UNL     1      51.102  30.635  40.412  1.00  0.00     0.164 HD
BRANCH   8  13
HETATM   13  O1  UNL     1      48.675  31.618  45.474  1.00  0.00    -0.367 OA
HETATM   14  C1  UNL     1      48.496  30.864  46.659  1.00  0.00     0.208 C 
ENDBRANCH   8  13
ENDBRANCH   1   5
BRANCH   2  15
HETATM   15  C7  UNL     1      48.753  32.455  38.417  1.00  0.00     0.182 C 
BRANCH  15  16
HETATM   16  O2  UNL     1      48.824  33.127  39.621  1.00  0.00    -0.395 OA
HETATM   17  C8  UNL     1      50.021  33.802  39.713  1.00  0.00     0.201 C 
ENDBRANCH  15  16
ENDBRANCH   2  15
BRANCH   4  18
HETATM   18  N1  UNL     1      48.086  27.814  38.674  1.00  0.00    -0.332 N 
HETATM   19  C12 UNL     1      48.311  26.700  39.517  1.00  0.00     0.329 C 
HETATM   20  N2  UNL     1      47.515  25.518  39.461  1.00  0.00    -0.040 NA
HETATM   21  O4  UNL     1      49.250  26.744  40.352  1.00  0.00    -0.251 OA
ATOM     22  H1  UNL     1      47.325  27.783  37.995  1.00  0.00     0.165 HD
ENDBRANCH   4  18
BRANCH   3  23
HETATM   23  C10 UNL     1      49.368  29.838  36.422  1.00  0.00     0.239 C 
HETATM   24  O3  UNL     1      48.815  30.046  35.358  1.00  0.00    -0.306 OA
ENDBRANCH   3  23
TORSDOF 6
ENDMDL
MODEL 4
REMARK VINA RESULT: -6.267231069      2.359      4.264
REMARK  6 active torsions:
REMARK  status: ('A' for Active; 'I' for Inactive)
REMARK    1  A    between atoms: O1_2  and  C2_3 
REMARK    2  A    between atoms: C5_6  and  S1_7 
REMARK    3  A    between atoms: C6_8  and  C7_9 
REMARK    4  A    between atoms: C7_9  and  O2_10 
REMARK    5  A    between atoms: C9_12  and  C10_13 
REMARK    6  A    between atoms: C11_15  and  N1_16 
REMARK       I    between atoms: N1_16  and  C12_18 
ROOT
HETATM    1  S1  UNL     1      49.545  32.673  39.512  1.00  0.00    -0.165 SA
HETATM    2  C6  UNL     1      51.062  33.074  38.677  1.00  0.00     0.078 C 
HETATM    3  C9  UNL     1      50.731  31.937  37.702  1.00  0.00     0.094 C 
HETATM    4  C11 UNL     1      50.255  31.159  38.936  1.00  0.00     0.152 C 
ENDROOT
BRANCH   1   5
HETATM    5  C5  UNL     1      49.585  32.915  41.257  1.00  0.00     0.144 C 
HETATM    6  C4  UNL     1      50.154  31.759  42.014  1.00  0.00     0.081 C 
HETATM    7  C3  UNL     1      49.549  31.952  43.372  1.00  0.00     0.034 C 
HETATM    8  C2  UNL     1      50.062  31.646  44.548  1.00  0.00     0.146 C 
HETATM    9  C13 UNL     1      48.251  32.559  43.095  1.00  0.00     0.250 C 
HETATM   10  N3  UNL     1      48.225  32.998  41.743  1.00  0.00    -0.344 N 
HETATM   11  O5  UNL     1      47.339  32.649  43.971  1.00  0.00    -0.268 OA
ATOM     12  H3  UNL     1      47.408  33.310  41.218  1.00  0.00     0.164 HD
BRANCH   8  13
HETATM   13  O1  UNL     1      51.305  31.069  44.722  1.00  0.00    -0.367 OA
HETATM   14  C1  UNL     1      51.751  30.562  45.966  1.00  0.00     0.208 C 
ENDBRANCH   8  13
ENDBRANCH   1   5
BRANCH   2  15
HETATM   15  C7  UNL     1      51.069  34.436  38.043  1.00  0.00     0.182 C 
BRANCH  15  16
HETATM   16  O2  UNL     1      51.530  35.343  38.976  1.00  0.00    -0.395 OA
HETATM   17  C8  UNL     1      50.566  36.294  39.224  1.00  0.00     0.201 C 
ENDBRANCH  15  16
ENDBRANCH   2  15
BRANCH   4  18
HETATM   18  N1  UNL     1      49.318  30.121  38.648  1.00  0.00    -0.332 N 
HETATM   19  C12 UNL     1      49.241  28.957  39.450  1.00  0.00     0.329 C 
HETATM   20  N2  UNL     1      48.318  27.902  39.189  1.00  0.00    -0.040 NA
HETATM   21  O4  UNL     1      50.015  28.840  40.433  1.00  0.00    -0.251 OA
ATOM     22  H1  UNL     1      48.692  30.221  37.848  1.00  0.00     0.165 HD
ENDBRANCH   4  18
BRANCH   3  23
HETATM   23  C10 UNL     1      51.894  31.356  37.020  1.00  0.00     0.239 C 
HETATM   24  O3  UNL     1      51.771  30.942  35.883  1.00  0.00    -0.306 OA
ENDBRANCH   3  23
TORSDOF 6
ENDMDL
MODEL 5
REMARK VINA RESULT: -6.259937047      2.507      4.503
REMARK  6 active torsions:
REMARK  status: ('A' for Active; 'I' for Inactive)
REMARK    1  A    between atoms: O1_2  and  C2_3 
REMARK    2  A    between atoms: C5_6  and  S1_7 
REMARK    3  A    between atoms: C6_8  and  C7_9 
REMARK    4  A    between atoms: C7_9  and  O2_10 
REMARK    5  A    between atoms: C9_12  and  C10_13 
REMARK    6  A    between atoms: C11_15  and  N1_16 
REMARK       I    between atoms: N1_16  and  C12_18 
ROOT
HETATM    1  S1  UNL     1      49.032  33.172  38.352  1.00  0.00    -0.165 SA
HETATM    2  C6  UNL     1      50.634  33.944  38.326  1.00  0.00     0.078 C 
HETATM    3  C9  UNL     1      50.623  33.727  36.808  1.00  0.00     0.094 C 
HETATM    4  C11 UNL     1      49.996  32.359  37.113  1.00  0.00     0.152 C 
ENDROOT
BRANCH   1   5
HETATM    5  C5  UNL     1      48.702  32.225  39.801  1.00  0.00     0.144 C 
HETATM    6  C4  UNL     1      49.571  32.576  40.963  1.00  0.00     0.081 C 
HETATM    7  C3  UNL     1      49.517  31.320  41.781  1.00  0.00     0.034 C 
HETATM    8  C2  UNL     1      49.580  31.194  43.092  1.00  0.00     0.146 C 
HETATM    9  C13 UNL     1      49.377  30.261  40.787  1.00  0.00     0.250 C 
HETATM   10  N3  UNL     1      49.039  30.843  39.535  1.00  0.00    -0.344 N 
HETATM   11  O5  UNL     1      49.544  29.036  41.068  1.00  0.00    -0.268 OA
ATOM     12  H3  UNL     1      49.036  30.378  38.627  1.00  0.00     0.164 HD
BRANCH   8  13
HETATM   13  O1  UNL     1      49.714  32.256  43.965  1.00  0.00    -0.367 OA
HETATM   14  C1  UNL     1      48.605  32.952  44.505  1.00  0.00     0.208 C 
ENDBRANCH   8  13
ENDBRANCH   1   5
BRANCH   2  15
HETATM   15  C7  UNL     1      50.623  35.389  38.733  1.00  0.00     0.182 C 
BRANCH  15  16
HETATM   16  O2  UNL     1      51.929  35.790  38.936  1.00  0.00    -0.395 OA
HETATM   17  C8  UNL     1      52.209  36.891  38.158  1.00  0.00     0.201 C 
ENDBRANCH  15  16
ENDBRANCH   2  15
BRANCH   4  18
HETATM   18  N1  UNL     1      49.249  31.803  36.031  1.00  0.00    -0.332 N 
HETATM   19  C12 UNL     1      49.099  30.403  35.885  1.00  0.00     0.329 C 
HETATM   20  N2  UNL     1      48.361  29.815  34.817  1.00  0.00    -0.040 NA
HETATM   21  O4  UNL     1      49.638  29.640  36.726  1.00  0.00    -0.251 OA
ATOM     22  H1  UNL     1      48.814  32.427  35.351  1.00  0.00     0.165 HD
ENDBRANCH   4  18
BRANCH   3  23
HETATM   23  C10 UNL     1      51.952  33.669  36.187  1.00  0.00     0.239 C 
HETATM   24  O3  UNL     1      52.254  34.500  35.352  1.00  0.00    -0.306 OA
ENDBRANCH   3  23
TORSDOF 6
ENDMDL
