MODEL 1
REMARK VINA RESULT: -4.894330028      0.000      0.000
REMARK  8 active torsions:
REMARK  status: ('A' for Active; 'I' for Inactive)
REMARK    1  A    between atoms: C2_2  and  N1_3 
REMARK    2  A    between atoms: C3_4  and  O1_5 
REMARK    3  A    between atoms: C4_7  and  C5_8 
REMARK    4  A    between atoms: C5_8  and  C6_9 
REMARK    5  A    between atoms: C11_22  and  C12_23 
REMARK    6  A    between atoms: C12_23  and  C13_24 
REMARK    7  A    between atoms: C13_24  and  C14_25 
REMARK    8  A    between atoms: C14_25  and  N5_26 
ROOT
HETATM    1  N1  UNL     1      49.365  31.121  39.905  1.00  0.00    -0.347 N 
HETATM    2  C3  UNL     1      49.087  32.349  39.327  1.00  0.00     0.162 C 
HETATM    3  C4  UNL     1      49.699  33.122  38.253  1.00  0.00     0.071 C 
HETATM    4  N3  UNL     1      50.994  32.755  37.778  1.00  0.00    -0.325 N 
ATOM      5  H3  UNL     1      51.569  33.562  37.537  1.00  0.00     0.169 HD
HETATM    6  C7  UNL     1      51.648  31.549  37.569  1.00  0.00     0.244 C 
HETATM    7  O3  UNL     1      52.756  31.312  38.198  1.00  0.00    -0.271 OA
HETATM    8  C8  UNL     1      51.302  30.397  36.702  1.00  0.00     0.172 C 
HETATM    9  C9  UNL     1      52.164  29.173  36.969  1.00  0.00     0.042 C 
HETATM   10  N4  UNL     1      49.902  30.054  36.678  1.00  0.00    -0.346 N 
ATOM     11  H4  UNL     1      49.455  29.941  35.768  1.00  0.00     0.163 HD
HETATM   12  C10 UNL     1      49.109  29.865  37.831  1.00  0.00     0.241 C 
HETATM   13  O4  UNL     1      47.874  29.690  37.644  1.00  0.00    -0.271 OA
HETATM   14  C11 UNL     1      49.605  29.855  39.209  1.00  0.00     0.178 C 
ENDROOT
BRANCH  14  15
HETATM   15  C12 UNL     1      48.954  28.678  39.952  1.00  0.00     0.036 C 
BRANCH  15  16
HETATM   16  C13 UNL     1      49.843  27.470  39.611  1.00  0.00     0.030 C 
BRANCH  16  17
HETATM   17  C14 UNL     1      48.943  26.231  39.524  1.00  0.00     0.230 C 
BRANCH  17  18
HETATM   18  N5  UNL     1      47.743  26.662  38.814  1.00  0.00    -0.079 N 
ATOM     19  H53 UNL     1      47.810  27.607  38.437  1.00  0.00     0.274 HD
ATOM     20  H52 UNL     1      47.601  26.185  37.924  1.00  0.00     0.274 HD
ATOM     21  H51 UNL     1      46.973  26.538  39.471  1.00  0.00     0.274 HD
ENDBRANCH  17  18
ENDBRANCH  16  17
ENDBRANCH  15  16
ENDBRANCH  14  15
BRANCH   1  22
HETATM   22  C2  UNL     1      49.419  31.028  41.366  1.00  0.00     0.121 C 
HETATM   23  C1  UNL     1      50.755  31.402  41.922  1.00  0.00     0.026 C 
ENDBRANCH   1  22
BRANCH   2  24
HETATM   24  O1  UNL     1      48.056  32.952  39.851  1.00  0.00    -0.345 OA
ATOM     25  H1  UNL     1      47.222  32.607  39.553  1.00  0.00     0.219 HD
ENDBRANCH   2  24
BRANCH   3  26
HETATM   26  C5  UNL     1      48.725  33.471  37.117  1.00  0.00     0.161 C 
BRANCH  26  27
HETATM   27  C6  UNL     1      49.497  33.640  35.848  1.00  0.00     0.236 C 
HETATM   28  N2  UNL     1      50.246  34.814  35.581  1.00  0.00    -0.062 NA
HETATM   29  O2  UNL     1      49.501  32.726  34.963  1.00  0.00    -0.277 OA
ENDBRANCH  26  27
ENDBRANCH   3  26
TORSDOF 8
ENDMDL
MODEL 2
REMARK VINA RESULT: -4.768645495      1.016      1.030
REMARK  8 active torsions:
REMARK  status: ('A' for Active; 'I' for Inactive)
REMARK    1  A    between atoms: C2_2  and  N1_3 
REMARK    2  A    between atoms: C3_4  and  O1_5 
REMARK    3  A    between atoms: C4_7  and  C5_8 
REMARK    4  A    between atoms: C5_8  and  C6_9 
REMARK    5  A    between atoms: C11_22  and  C12_23 
REMARK    6  A    between atoms: C12_23  and  C13_24 
REMARK    7  A    between atoms: C13_24  and  C14_25 
REMARK    8  A    between atoms: C14_25  and  N5_26 
ROOT
HETATM    1  N1  UNL     1      49.607  31.365  39.371  1.00  0.00    -0.347 N 
HETATM    2  C3  UNL     1      49.402  32.475  38.566  1.00  0.00     0.162 C 
HETATM    3  C4  UNL     1      50.030  32.968  37.346  1.00  0.00     0.071 C 
HETATM    4  N3  UNL     1      51.274  32.409  36.926  1.00  0.00    -0.325 N 
ATOM      5  H3  UNL     1      51.900  33.102  36.516  1.00  0.00     0.169 HD
HETATM    6  C7  UNL     1      51.825  31.136  36.947  1.00  0.00     0.244 C 
HETATM    7  O3  UNL     1      52.934  30.936  37.586  1.00  0.00    -0.271 OA
HETATM    8  C8  UNL     1      51.360  29.868  36.335  1.00  0.00     0.172 C 
HETATM    9  C9  UNL     1      52.135  28.653  36.821  1.00  0.00     0.042 C 
HETATM   10  N4  UNL     1      49.938  29.644  36.410  1.00  0.00    -0.346 N 
ATOM     11  H4  UNL     1      49.449  29.392  35.551  1.00  0.00     0.163 HD
HETATM   12  C10 UNL     1      49.176  29.752  37.595  1.00  0.00     0.241 C 
HETATM   13  O4  UNL     1      47.925  29.646  37.473  1.00  0.00    -0.271 OA
HETATM   14  C11 UNL     1      49.722  29.972  38.935  1.00  0.00     0.178 C 
ENDROOT
BRANCH  14  15
HETATM   15  C12 UNL     1      49.011  29.022  39.912  1.00  0.00     0.036 C 
BRANCH  15  16
HETATM   16  C13 UNL     1      49.718  27.671  39.717  1.00  0.00     0.030 C 
BRANCH  16  17
HETATM   17  C14 UNL     1      48.681  26.560  39.922  1.00  0.00     0.230 C 
BRANCH  17  18
HETATM   18  N5  UNL     1      47.735  26.693  38.819  1.00  0.00    -0.079 N 
ATOM     19  H53 UNL     1      47.569  27.659  38.538  1.00  0.00     0.274 HD
ATOM     20  H52 UNL     1      48.102  26.367  37.925  1.00  0.00     0.274 HD
ATOM     21  H51 UNL     1      46.891  26.204  39.117  1.00  0.00     0.274 HD
ENDBRANCH  17  18
ENDBRANCH  16  17
ENDBRANCH  15  16
ENDBRANCH  14  15
BRANCH   1  22
HETATM   22  C2  UNL     1      49.709  31.558  40.819  1.00  0.00     0.121 C 
HETATM   23  C1  UNL     1      51.082  31.952  41.257  1.00  0.00     0.026 C 
ENDBRANCH   1  22
BRANCH   2  24
HETATM   24  O1  UNL     1      48.440  33.252  38.982  1.00  0.00    -0.345 OA
ATOM     25  H1  UNL     1      48.679  33.784  39.731  1.00  0.00     0.219 HD
ENDBRANCH   2  24
BRANCH   3  26
HETATM   26  C5  UNL     1      49.043  33.166  36.185  1.00  0.00     0.161 C 
BRANCH  26  27
HETATM   27  C6  UNL     1      49.794  33.112  34.893  1.00  0.00     0.236 C 
HETATM   28  N2  UNL     1      49.744  31.974  34.049  1.00  0.00    -0.062 NA
HETATM   29  O2  UNL     1      50.505  34.095  34.513  1.00  0.00    -0.277 OA
ENDBRANCH  26  27
ENDBRANCH   3  26
TORSDOF 8
ENDMDL
MODEL 3
REMARK VINA RESULT: -4.721785747      2.337      4.998
REMARK  8 active torsions:
REMARK  status: ('A' for Active; 'I' for Inactive)
REMARK    1  A    between atoms: C2_2  and  N1_3 
REMARK    2  A    between atoms: C3_4  and  O1_5 
REMARK    3  A    between atoms: C4_7  and  C5_8 
REMARK    4  A    between atoms: C5_8  and  C6_9 
REMARK    5  A    between atoms: C11_22  and  C12_23 
REMARK    6  A    between atoms: C12_23  and  C13_24 
REMARK    7  A    between atoms: C13_24  and  C14_25 
REMARK    8  A    between atoms: C14_25  and  N5_26 
ROOT
HETATM    1  N1  UNL     1      49.366  30.295  36.211  1.00  0.00    -0.347 N 
HETATM    2  C3  UNL     1      49.335  30.473  37.584  1.00  0.00     0.162 C 
HETATM    3  C4  UNL     1      50.272  31.032  38.553  1.00  0.00     0.071 C 
HETATM    4  N3  UNL     1      51.625  31.262  38.163  1.00  0.00    -0.325 N 
ATOM      5  H3  UNL     1      52.290  31.063  38.910  1.00  0.00     0.169 HD
HETATM    6  C7  UNL     1      52.241  31.696  36.998  1.00  0.00     0.244 C 
HETATM    7  O3  UNL     1      53.108  30.929  36.416  1.00  0.00    -0.271 OA
HETATM    8  C8  UNL     1      52.093  32.960  36.237  1.00  0.00     0.172 C 
HETATM    9  C9  UNL     1      52.771  32.917  34.876  1.00  0.00     0.042 C 
HETATM   10  N4  UNL     1      50.741  33.448  36.130  1.00  0.00    -0.346 N 
ATOM     11  H4  UNL     1      50.567  34.424  36.372  1.00  0.00     0.163 HD
HETATM   12  C10 UNL     1      49.642  32.666  35.712  1.00  0.00     0.241 C 
HETATM   13  O4  UNL     1      48.504  33.205  35.790  1.00  0.00    -0.271 OA
HETATM   14  C11 UNL     1      49.722  31.296  35.202  1.00  0.00     0.178 C 
ENDROOT
BRANCH  14  15
HETATM   15  C12 UNL     1      48.820  31.184  33.963  1.00  0.00     0.036 C 
BRANCH  15  16
HETATM   16  C13 UNL     1      49.618  31.874  32.844  1.00  0.00     0.030 C 
BRANCH  16  17
HETATM   17  C14 UNL     1      48.656  32.787  32.072  1.00  0.00     0.230 C 
BRANCH  17  18
HETATM   18  N5  UNL     1      47.419  32.803  32.846  1.00  0.00    -0.079 N 
ATOM     19  H53 UNL     1      47.452  33.423  33.655  1.00  0.00     0.274 HD
ATOM     20  H52 UNL     1      46.645  33.264  32.369  1.00  0.00     0.274 HD
ATOM     21  H51 UNL     1      47.230  31.830  33.085  1.00  0.00     0.274 HD
ENDBRANCH  17  18
ENDBRANCH  16  17
ENDBRANCH  15  16
ENDBRANCH  14  15
BRANCH   1  22
HETATM   22  C2  UNL     1      48.996  28.988  35.662  1.00  0.00     0.121 C 
HETATM   23  C1  UNL     1      50.066  27.961  35.839  1.00  0.00     0.026 C 
ENDBRANCH   1  22
BRANCH   2  24
HETATM   24  O1  UNL     1      48.233  30.052  38.141  1.00  0.00    -0.345 OA
ATOM     25  H1  UNL     1      48.337  29.241  38.625  1.00  0.00     0.219 HD
ENDBRANCH   2  24
BRANCH   3  26
HETATM   26  C5  UNL     1      49.684  32.188  39.378  1.00  0.00     0.161 C 
BRANCH  26  27
HETATM   27  C6  UNL     1      50.801  33.048  39.875  1.00  0.00     0.236 C 
HETATM   28  N2  UNL     1      51.075  34.316  39.303  1.00  0.00    -0.062 NA
HETATM   29  O2  UNL     1      51.543  32.661  40.832  1.00  0.00    -0.277 OA
ENDBRANCH  26  27
ENDBRANCH   3  26
TORSDOF 8
ENDMDL
MODEL 4
REMARK VINA RESULT: -4.719514839      2.139      5.924
REMARK  8 active torsions:
REMARK  status: ('A' for Active; 'I' for Inactive)
REMARK    1  A    between atoms: C2_2  and  N1_3 
REMARK    2  A    between atoms: C3_4  and  O1_5 
REMARK    3  A    between atoms: C4_7  and  C5_8 
REMARK    4  A    between atoms: C5_8  and  C6_9 
REMARK    5  A    between atoms: C11_22  and  C12_23 
REMARK    6  A    between atoms: C12_23  and  C13_24 
REMARK    7  A    between atoms: C13_24  and  C14_25 
REMARK    8  A    between atoms: C14_25  and  N5_26 
ROOT
HETATM    1  N1  UNL     1      51.400  31.759  36.900  1.00  0.00    -0.347 N 
HETATM    2  C3  UNL     1      50.839  30.592  37.391  1.00  0.00     0.162 C 
HETATM    3  C4  UNL     1      50.257  30.212  38.673  1.00  0.00     0.071 C 
HETATM    4  N3  UNL     1      50.460  31.052  39.809  1.00  0.00    -0.325 N 
ATOM      5  H3  UNL     1      50.586  30.525  40.673  1.00  0.00     0.169 HD
HETATM    6  C7  UNL     1      50.526  32.424  40.005  1.00  0.00     0.244 C 
HETATM    7  O3  UNL     1      51.602  32.942  40.506  1.00  0.00    -0.271 OA
HETATM    8  C8  UNL     1      49.531  33.490  39.736  1.00  0.00     0.172 C 
HETATM    9  C9  UNL     1      50.110  34.890  39.863  1.00  0.00     0.042 C 
HETATM   10  N4  UNL     1      48.798  33.338  38.503  1.00  0.00    -0.346 N 
ATOM     11  H4  UNL     1      47.781  33.406  38.542  1.00  0.00     0.163 HD
HETATM   12  C10 UNL     1      49.395  33.103  37.245  1.00  0.00     0.241 C 
HETATM   13  O4  UNL     1      48.613  32.870  36.284  1.00  0.00    -0.271 OA
HETATM   14  C11 UNL     1      50.835  33.108  36.977  1.00  0.00     0.178 C 
ENDROOT
BRANCH  14  15
HETATM   15  C12 UNL     1      51.085  33.893  35.679  1.00  0.00     0.036 C 
BRANCH  15  16
HETATM   16  C13 UNL     1      51.264  35.348  36.140  1.00  0.00     0.030 C 
BRANCH  16  17
HETATM   17  C14 UNL     1      52.717  35.522  36.602  1.00  0.00     0.230 C 
BRANCH  17  18
HETATM   18  N5  UNL     1      52.661  36.411  37.757  1.00  0.00    -0.079 N 
ATOM     19  H53 UNL     1      53.472  36.336  38.371  1.00  0.00     0.274 HD
ATOM     20  H52 UNL     1      52.777  37.396  37.521  1.00  0.00     0.274 HD
ATOM     21  H51 UNL     1      51.776  36.205  38.223  1.00  0.00     0.274 HD
ENDBRANCH  17  18
ENDBRANCH  16  17
ENDBRANCH  15  16
ENDBRANCH  14  15
BRANCH   1  22
HETATM   22  C2  UNL     1      52.689  31.682  36.207  1.00  0.00     0.121 C 
HETATM   23  C1  UNL     1      53.711  30.902  36.969  1.00  0.00     0.026 C 
ENDBRANCH   1  22
BRANCH   2  24
HETATM   24  O1  UNL     1      50.823  29.615  36.527  1.00  0.00    -0.345 OA
ATOM     25  H1  UNL     1      51.471  29.706  35.838  1.00  0.00     0.219 HD
ENDBRANCH   2  24
BRANCH   3  26
HETATM   26  C5  UNL     1      48.813  29.698  38.563  1.00  0.00     0.161 C 
BRANCH  26  27
HETATM   27  C6  UNL     1      48.703  28.395  39.286  1.00  0.00     0.236 C 
HETATM   28  N2  UNL     1      49.056  28.269  40.654  1.00  0.00    -0.062 NA
HETATM   29  O2  UNL     1      48.287  27.352  38.688  1.00  0.00    -0.277 OA
ENDBRANCH  26  27
ENDBRANCH   3  26
TORSDOF 8
ENDMDL
MODEL 5
REMARK VINA RESULT: -4.706412046      2.598      3.731
REMARK  8 active torsions:
REMARK  status: ('A' for Active; 'I' for Inactive)
REMARK    1  A    between atoms: C2_2  and  N1_3 
REMARK    2  A    between atoms: C3_4  and  O1_5 
REMARK    3  A    between atoms: C4_7  and  C5_8 
REMARK    4  A    between atoms: C5_8  and  C6_9 
REMARK    5  A    between atoms: C11_22  and  C12_23 
REMARK    6  A    between atoms: C12_23  and  C13_24 
REMARK    7  A    between atoms: C13_24  and  C14_25 
REMARK    8  A    between atoms: C14_25  and  N5_26 
ROOT
HETATM    1  N1  UNL     1      50.024  34.492  38.214  1.00  0.00    -0.347 N 
HETATM    2  C3  UNL     1      49.334  34.703  37.031  1.00  0.00     0.162 C 
HETATM    3  C4  UNL     1      49.507  34.229  35.663  1.00  0.00     0.071 C 
HETATM    4  N3  UNL     1      50.734  33.602  35.290  1.00  0.00    -0.325 N 
ATOM      5  H3  UNL     1      51.027  33.839  34.343  1.00  0.00     0.169 HD
HETATM    6  C7  UNL     1      51.619  32.743  35.925  1.00  0.00     0.244 C 
HETATM    7  O3  UNL     1      52.852  33.108  36.086  1.00  0.00    -0.271 OA
HETATM    8  C8  UNL     1      51.415  31.389  36.493  1.00  0.00     0.172 C 
HETATM    9  C9  UNL     1      52.595  30.909  37.324  1.00  0.00     0.042 C 
HETATM   10  N4  UNL     1      50.172  31.208  37.200  1.00  0.00    -0.346 N 
ATOM     11  H4  UNL     1      49.599  30.400  36.957  1.00  0.00     0.163 HD
HETATM   12  C10 UNL     1      49.694  32.077  38.206  1.00  0.00     0.241 C 
HETATM   13  O4  UNL     1      48.532  31.851  38.642  1.00  0.00    -0.271 OA
HETATM   14  C11 UNL     1      50.436  33.204  38.774  1.00  0.00     0.178 C 
ENDROOT
BRANCH  14  15
HETATM   15  C12 UNL     1      50.264  33.179  40.302  1.00  0.00     0.036 C 
BRANCH  15  16
HETATM   16  C13 UNL     1      51.193  32.048  40.773  1.00  0.00     0.030 C 
BRANCH  16  17
HETATM   17  C14 UNL     1      50.483  31.296  41.907  1.00  0.00     0.230 C 
BRANCH  17  18
HETATM   18  N5  UNL     1      51.542  30.837  42.800  1.00  0.00    -0.079 N 
ATOM     19  H53 UNL     1      51.663  29.825  42.804  1.00  0.00     0.274 HD
ATOM     20  H52 UNL     1      52.480  31.072  42.476  1.00  0.00     0.274 HD
ATOM     21  H51 UNL     1      51.318  31.225  43.717  1.00  0.00     0.274 HD
ENDBRANCH  17  18
ENDBRANCH  16  17
ENDBRANCH  15  16
ENDBRANCH  14  15
BRANCH   1  22
HETATM   22  C2  UNL     1      50.384  35.652  39.033  1.00  0.00     0.121 C 
HETATM   23  C1  UNL     1      51.526  36.430  38.465  1.00  0.00     0.026 C 
ENDBRANCH   1  22
BRANCH   2  24
HETATM   24  O1  UNL     1      48.307  35.497  37.158  1.00  0.00    -0.345 OA
ATOM     25  H1  UNL     1      48.347  36.264  36.599  1.00  0.00     0.219 HD
ENDBRANCH   2  24
BRANCH   3  26
HETATM   26  C5  UNL     1      48.273  33.502  35.105  1.00  0.00     0.161 C 
BRANCH  26  27
HETATM   27  C6  UNL     1      48.716  32.505  34.083  1.00  0.00     0.236 C 
HETATM   28  N2  UNL     1      48.661  31.110  34.330  1.00  0.00    -0.062 NA
HETATM   29  O2  UNL     1      49.159  32.885  32.954  1.00  0.00    -0.277 OA
ENDBRANCH  26  27
ENDBRANCH   3  26
TORSDOF 8
ENDMDL
