MODEL 1
REMARK VINA RESULT: -6.402203569      0.000      0.000
REMARK  8 active torsions:
REMARK  status: ('A' for Active; 'I' for Inactive)
REMARK    1  A    between atoms: C3_4  and  C4_5 
REMARK    2  A    between atoms: C4_5  and  S1_6 
REMARK    3  A    between atoms: S1_6  and  C5_8 
REMARK    4  A    between atoms: N1_11  and  C9_13 
REMARK    5  A    between atoms: C9_13  and  C10_14 
REMARK    6  A    between atoms: C10_14  and  N2_15 
REMARK    7  A    between atoms: C13_21  and  O3_22 
REMARK    8  A    between atoms: C14_24  and  O4_25 
ROOT
HETATM    1  C5  UNL     1      49.995  32.223  41.052  1.00  0.00     0.082 C 
HETATM    2  C6  UNL     1      51.292  32.224  40.286  1.00  0.00     0.045 C 
HETATM    3  C7  UNL     1      51.095  32.117  38.796  1.00  0.00     0.238 C 
HETATM    4  N1  UNL     1      50.193  33.151  38.287  1.00  0.00    -0.069 N 
HETATM    5  C8  UNL     1      49.902  32.804  36.916  1.00  0.00     0.272 C 
HETATM    6  C11 UNL     1      48.939  33.155  39.008  1.00  0.00     0.238 C 
HETATM    7  C12 UNL     1      48.871  32.062  40.056  1.00  0.00     0.045 C 
ENDROOT
BRANCH   1   8
HETATM    8  S1  UNL     1      49.902  30.884  42.213  1.00  0.00     0.021 S 
HETATM    9  O2  UNL     1      49.153  29.583  41.445  1.00  0.00    -0.258 OA
BRANCH   8  10
HETATM   10  C4  UNL     1      48.838  31.382  43.545  1.00  0.00     0.143 C 
BRANCH  10  11
HETATM   11  C3  UNL     1      49.617  32.060  44.654  1.00  0.00     0.165 C 
HETATM   12  O1  UNL     1      50.918  31.583  44.608  1.00  0.00    -0.375 OA
HETATM   13  C2  UNL     1      51.011  30.548  45.516  1.00  0.00     0.149 C 
HETATM   14  C1  UNL     1      52.441  30.257  45.867  1.00  0.00     0.042 C 
HETATM   15  C14 UNL     1      50.217  31.048  46.695  1.00  0.00     0.178 C 
HETATM   16  C13 UNL     1      49.072  31.773  46.012  1.00  0.00     0.179 C 
BRANCH  15  17
HETATM   17  O4  UNL     1      50.950  31.909  47.502  1.00  0.00    -0.390 OA
ATOM     18  H4  UNL     1      51.291  31.478  48.277  1.00  0.00     0.210 HD
ENDBRANCH  15  17
BRANCH  16  19
HETATM   19  O3  UNL     1      47.962  30.935  45.991  1.00  0.00    -0.390 OA
ATOM     20  H3  UNL     1      47.717  30.617  46.852  1.00  0.00     0.210 HD
ENDBRANCH  16  19
ENDBRANCH  10  11
ENDBRANCH   8  10
ENDBRANCH   1   8
BRANCH   4  21
HETATM   21  C9  UNL     1      50.852  34.405  38.446  1.00  0.00     0.264 C 
BRANCH  21  22
HETATM   22  C10 UNL     1      49.951  35.584  38.605  1.00  0.00     0.257 C 
BRANCH  22  23
HETATM   23  N2  UNL     1      50.145  36.328  39.812  1.00  0.00    -0.078 N 
ATOM     24  H23 UNL     1      50.805  35.847  40.422  1.00  0.00     0.274 HD
ATOM     25  H22 UNL     1      50.671  37.181  39.621  1.00  0.00     0.274 HD
ATOM     26  H21 UNL     1      49.289  36.548  40.321  1.00  0.00     0.274 HD
ENDBRANCH  22  23
ENDBRANCH  21  22
ENDBRANCH   4  21
TORSDOF 8
ENDMDL
MODEL 2
REMARK VINA RESULT: -6.398623498      3.517      6.938
REMARK  8 active torsions:
REMARK  status: ('A' for Active; 'I' for Inactive)
REMARK    1  A    between atoms: C3_4  and  C4_5 
REMARK    2  A    between atoms: C4_5  and  S1_6 
REMARK    3  A    between atoms: S1_6  and  C5_8 
REMARK    4  A    between atoms: N1_11  and  C9_13 
REMARK    5  A    between atoms: C9_13  and  C10_14 
REMARK    6  A    between atoms: C10_14  and  N2_15 
REMARK    7  A    between atoms: C13_21  and  O3_22 
REMARK    8  A    between atoms: C14_24  and  O4_25 
ROOT
HETATM    1  C5  UNL     1      49.214  30.181  41.627  1.00  0.00     0.082 C 
HETATM    2  C6  UNL     1      50.365  31.096  41.955  1.00  0.00     0.045 C 
HETATM    3  C7  UNL     1      49.929  32.372  42.627  1.00  0.00     0.238 C 
HETATM    4  N1  UNL     1      49.118  32.113  43.819  1.00  0.00    -0.069 N 
HETATM    5  C8  UNL     1      48.574  33.386  44.229  1.00  0.00     0.272 C 
HETATM    6  C11 UNL     1      48.004  31.243  43.516  1.00  0.00     0.238 C 
HETATM    7  C12 UNL     1      47.939  30.874  42.047  1.00  0.00     0.045 C 
ENDROOT
BRANCH   1   8
HETATM    8  S1  UNL     1      49.108  29.831  39.890  1.00  0.00     0.021 S 
HETATM    9  O2  UNL     1      49.932  28.388  39.601  1.00  0.00    -0.258 OA
BRANCH   8  10
HETATM   10  C4  UNL     1      49.977  31.109  39.016  1.00  0.00     0.143 C 
BRANCH  10  11
HETATM   11  C3  UNL     1      49.087  32.307  38.755  1.00  0.00     0.165 C 
HETATM   12  O1  UNL     1      48.717  32.275  37.419  1.00  0.00    -0.375 OA
HETATM   13  C2  UNL     1      49.591  33.090  36.729  1.00  0.00     0.149 C 
HETATM   14  C1  UNL     1      49.036  33.474  35.389  1.00  0.00     0.042 C 
HETATM   15  C14 UNL     1      49.760  34.273  37.646  1.00  0.00     0.178 C 
HETATM   16  C13 UNL     1      49.767  33.609  39.011  1.00  0.00     0.179 C 
BRANCH  15  17
HETATM   17  O4  UNL     1      48.718  35.185  37.533  1.00  0.00    -0.390 OA
ATOM     18  H4  UNL     1      49.025  36.066  37.351  1.00  0.00     0.210 HD
ENDBRANCH  15  17
BRANCH  16  19
HETATM   19  O3  UNL     1      51.085  33.465  39.430  1.00  0.00    -0.390 OA
ATOM     20  H3  UNL     1      51.246  33.832  40.292  1.00  0.00     0.210 HD
ENDBRANCH  16  19
ENDBRANCH  10  11
ENDBRANCH   8  10
ENDBRANCH   1   8
BRANCH   4  21
HETATM   21  C9  UNL     1      49.969  31.501  44.785  1.00  0.00     0.264 C 
BRANCH  21  22
HETATM   22  C10 UNL     1      49.449  31.505  46.184  1.00  0.00     0.257 C 
BRANCH  22  23
HETATM   23  N2  UNL     1      50.459  31.504  47.199  1.00  0.00    -0.078 N 
ATOM     24  H23 UNL     1      50.995  32.370  47.164  1.00  0.00     0.274 HD
ATOM     25  H22 UNL     1      50.033  31.597  48.121  1.00  0.00     0.274 HD
ATOM     26  H21 UNL     1      51.084  30.699  47.178  1.00  0.00     0.274 HD
ENDBRANCH  22  23
ENDBRANCH  21  22
ENDBRANCH   4  21
TORSDOF 8
ENDMDL
MODEL 3
REMARK VINA RESULT: -6.376675136      1.168      1.322
REMARK  8 active torsions:
REMARK  status: ('A' for Active; 'I' for Inactive)
REMARK    1  A    between atoms: C3_4  and  C4_5 
REMARK    2  A    between atoms: C4_5  and  S1_6 
REMARK    3  A    between atoms: S1_6  and  C5_8 
REMARK    4  A    between atoms: N1_11  and  C9_13 
REMARK    5  A    between atoms: C9_13  and  C10_14 
REMARK    6  A    between atoms: C10_14  and  N2_15 
REMARK    7  A    between atoms: C13_21  and  O3_22 
REMARK    8  A    between atoms: C14_24  and  O4_25 
ROOT
HETATM    1  C5  UNL     1      48.808  33.074  41.142  1.00  0.00     0.082 C 
HETATM    2  C6  UNL     1      50.302  32.880  41.144  1.00  0.00     0.045 C 
HETATM    3  C7  UNL     1      50.811  32.222  39.889  1.00  0.00     0.238 C 
HETATM    4  N1  UNL     1      50.383  32.937  38.684  1.00  0.00    -0.069 N 
HETATM    5  C8  UNL     1      50.725  32.093  37.563  1.00  0.00     0.272 C 
HETATM    6  C11 UNL     1      48.950  33.122  38.665  1.00  0.00     0.238 C 
HETATM    7  C12 UNL     1      48.268  32.486  39.860  1.00  0.00     0.045 C 
ENDROOT
BRANCH   1   8
HETATM    8  S1  UNL     1      48.022  32.251  42.504  1.00  0.00     0.021 S 
HETATM    9  O2  UNL     1      47.560  33.426  43.623  1.00  0.00    -0.258 OA
BRANCH   8  10
HETATM   10  C4  UNL     1      49.232  31.225  43.300  1.00  0.00     0.143 C 
BRANCH  10  11
HETATM   11  C3  UNL     1      49.907  31.950  44.446  1.00  0.00     0.165 C 
HETATM   12  O1  UNL     1      51.200  31.459  44.554  1.00  0.00    -0.375 OA
HETATM   13  C2  UNL     1      51.187  30.470  45.517  1.00  0.00     0.149 C 
HETATM   14  C1  UNL     1      52.571  30.183  46.021  1.00  0.00     0.042 C 
HETATM   15  C14 UNL     1      50.289  31.037  46.585  1.00  0.00     0.178 C 
HETATM   16  C13 UNL     1      49.227  31.738  45.756  1.00  0.00     0.179 C 
BRANCH  15  17
HETATM   17  O4  UNL     1      50.951  31.930  47.417  1.00  0.00    -0.390 OA
ATOM     18  H4  UNL     1      51.452  32.576  46.932  1.00  0.00     0.210 HD
ENDBRANCH  15  17
BRANCH  16  19
HETATM   19  O3  UNL     1      48.112  30.910  45.666  1.00  0.00    -0.390 OA
ATOM     20  H3  UNL     1      48.227  30.193  45.053  1.00  0.00     0.210 HD
ENDBRANCH  16  19
ENDBRANCH  10  11
ENDBRANCH   8  10
ENDBRANCH   1   8
BRANCH   4  21
HETATM   21  C9  UNL     1      51.040  34.202  38.686  1.00  0.00     0.264 C 
BRANCH  21  22
HETATM   22  C10 UNL     1      50.142  35.386  38.542  1.00  0.00     0.257 C 
BRANCH  22  23
HETATM   23  N2  UNL     1      50.082  36.236  39.692  1.00  0.00    -0.078 N 
ATOM     24  H23 UNL     1      50.531  35.786  40.489  1.00  0.00     0.274 HD
ATOM     25  H22 UNL     1      50.701  37.038  39.571  1.00  0.00     0.274 HD
ATOM     26  H21 UNL     1      49.145  36.548  39.944  1.00  0.00     0.274 HD
ENDBRANCH  22  23
ENDBRANCH  21  22
ENDBRANCH   4  21
TORSDOF 8
ENDMDL
MODEL 4
REMARK VINA RESULT: -6.340775669      1.852      2.460
REMARK  8 active torsions:
REMARK  status: ('A' for Active; 'I' for Inactive)
REMARK    1  A    between atoms: C3_4  and  C4_5 
REMARK    2  A    between atoms: C4_5  and  S1_6 
REMARK    3  A    between atoms: S1_6  and  C5_8 
REMARK    4  A    between atoms: N1_11  and  C9_13 
REMARK    5  A    between atoms: C9_13  and  C10_14 
REMARK    6  A    between atoms: C10_14  and  N2_15 
REMARK    7  A    between atoms: C13_21  and  O3_22 
REMARK    8  A    between atoms: C14_24  and  O4_25 
ROOT
HETATM    1  C5  UNL     1      50.066  32.339  39.523  1.00  0.00     0.082 C 
HETATM    2  C6  UNL     1      51.384  32.569  38.830  1.00  0.00     0.045 C 
HETATM    3  C7  UNL     1      51.228  33.160  37.453  1.00  0.00     0.238 C 
HETATM    4  N1  UNL     1      50.432  34.389  37.471  1.00  0.00    -0.069 N 
HETATM    5  C8  UNL     1      50.159  34.722  36.093  1.00  0.00     0.272 C 
HETATM    6  C11 UNL     1      49.160  34.181  38.126  1.00  0.00     0.238 C 
HETATM    7  C12 UNL     1      48.966  32.744  38.570  1.00  0.00     0.045 C 
ENDROOT
BRANCH   1   8
HETATM    8  S1  UNL     1      49.823  30.636  39.958  1.00  0.00     0.021 S 
HETATM    9  O2  UNL     1      48.297  30.174  39.410  1.00  0.00    -0.258 OA
BRANCH   8  10
HETATM   10  C4  UNL     1      49.796  30.518  41.729  1.00  0.00     0.143 C 
BRANCH  10  11
HETATM   11  C3  UNL     1      49.808  31.887  42.377  1.00  0.00     0.165 C 
HETATM   12  O1  UNL     1      50.266  31.735  43.677  1.00  0.00    -0.375 OA
HETATM   13  C2  UNL     1      49.160  31.634  44.496  1.00  0.00     0.149 C 
HETATM   14  C1  UNL     1      49.515  31.905  45.928  1.00  0.00     0.042 C 
HETATM   15  C14 UNL     1      48.214  32.661  43.930  1.00  0.00     0.178 C 
HETATM   16  C13 UNL     1      48.459  32.518  42.439  1.00  0.00     0.179 C 
BRANCH  15  17
HETATM   17  O4  UNL     1      48.502  33.947  44.369  1.00  0.00    -0.390 OA
ATOM     18  H4  UNL     1      47.722  34.430  44.614  1.00  0.00     0.210 HD
ENDBRANCH  15  17
BRANCH  16  19
HETATM   19  O3  UNL     1      47.456  31.722  41.896  1.00  0.00    -0.390 OA
ATOM     20  H3  UNL     1      46.627  32.176  41.803  1.00  0.00     0.210 HD
ENDBRANCH  16  19
ENDBRANCH  10  11
ENDBRANCH   8  10
ENDBRANCH   1   8
BRANCH   4  21
HETATM   21  C9  UNL     1      51.188  35.373  38.173  1.00  0.00     0.264 C 
BRANCH  21  22
HETATM   22  C10 UNL     1      50.450  36.094  39.251  1.00  0.00     0.257 C 
BRANCH  22  23
HETATM   23  N2  UNL     1      50.783  37.480  39.382  1.00  0.00    -0.078 N 
ATOM     24  H23 UNL     1      51.795  37.598  39.427  1.00  0.00     0.274 HD
ATOM     25  H22 UNL     1      50.585  37.975  38.512  1.00  0.00     0.274 HD
ATOM     26  H21 UNL     1      50.337  37.954  40.167  1.00  0.00     0.274 HD
ENDBRANCH  22  23
ENDBRANCH  21  22
ENDBRANCH   4  21
TORSDOF 8
ENDMDL
MODEL 5
REMARK VINA RESULT: -6.095155923      3.462      5.394
REMARK  8 active torsions:
REMARK  status: ('A' for Active; 'I' for Inactive)
REMARK    1  A    between atoms: C3_4  and  C4_5 
REMARK    2  A    between atoms: C4_5  and  S1_6 
REMARK    3  A    between atoms: S1_6  and  C5_8 
REMARK    4  A    between atoms: N1_11  and  C9_13 
REMARK    5  A    between atoms: C9_13  and  C10_14 
REMARK    6  A    between atoms: C10_14  and  N2_15 
REMARK    7  A    between atoms: C13_21  and  O3_22 
REMARK    8  A    between atoms: C14_24  and  O4_25 
ROOT
HETATM    1  C5  UNL     1      50.903  34.455  36.359  1.00  0.00     0.082 C 
HETATM    2  C6  UNL     1      50.770  35.482  37.454  1.00  0.00     0.045 C 
HETATM    3  C7  UNL     1      52.100  35.971  37.966  1.00  0.00     0.238 C 
HETATM    4  N1  UNL     1      52.952  36.474  36.886  1.00  0.00    -0.069 N 
HETATM    5  C8  UNL     1      54.259  36.686  37.459  1.00  0.00     0.272 C 
HETATM    6  C11 UNL     1      53.095  35.494  35.832  1.00  0.00     0.238 C 
HETATM    7  C12 UNL     1      52.376  34.197  36.145  1.00  0.00     0.045 C 
ENDROOT
BRANCH   1   8
HETATM    8  S1  UNL     1      50.126  32.917  36.783  1.00  0.00     0.021 S 
HETATM    9  O2  UNL     1      48.708  32.786  35.878  1.00  0.00    -0.258 OA
BRANCH   8  10
HETATM   10  C4  UNL     1      49.646  32.994  38.490  1.00  0.00     0.143 C 
BRANCH  10  11
HETATM   11  C3  UNL     1      50.133  31.783  39.259  1.00  0.00     0.165 C 
HETATM   12  O1  UNL     1      49.019  31.124  39.758  1.00  0.00    -0.375 OA
HETATM   13  C2  UNL     1      48.829  31.557  41.054  1.00  0.00     0.149 C 
HETATM   14  C1  UNL     1      47.950  30.614  41.821  1.00  0.00     0.042 C 
HETATM   15  C14 UNL     1      50.229  31.622  41.607  1.00  0.00     0.178 C 
HETATM   16  C13 UNL     1      51.011  32.134  40.411  1.00  0.00     0.179 C 
BRANCH  15  17
HETATM   17  O4  UNL     1      50.694  30.381  42.022  1.00  0.00    -0.390 OA
ATOM     18  H4  UNL     1      51.006  30.391  42.919  1.00  0.00     0.210 HD
ENDBRANCH  15  17
BRANCH  16  19
HETATM   19  O3  UNL     1      51.202  33.504  40.557  1.00  0.00    -0.390 OA
ATOM     20  H3  UNL     1      51.463  33.755  41.436  1.00  0.00     0.210 HD
ENDBRANCH  16  19
ENDBRANCH  10  11
ENDBRANCH   8  10
ENDBRANCH   1   8
BRANCH   4  21
HETATM   21  C9  UNL     1      52.337  37.654  36.376  1.00  0.00     0.264 C 
BRANCH  21  22
HETATM   22  C10 UNL     1      52.576  38.893  37.174  1.00  0.00     0.257 C 
BRANCH  22  23
HETATM   23  N2  UNL     1      51.952  40.071  36.654  1.00  0.00    -0.078 N 
ATOM     24  H23 UNL     1      51.120  40.300  37.197  1.00  0.00     0.274 HD
ATOM     25  H22 UNL     1      52.525  40.892  36.853  1.00  0.00     0.274 HD
ATOM     26  H21 UNL     1      51.726  40.031  35.660  1.00  0.00     0.274 HD
ENDBRANCH  22  23
ENDBRANCH  21  22
ENDBRANCH   4  21
TORSDOF 8
ENDMDL
