MODEL 1
REMARK VINA RESULT: -6.455626261      0.000      0.000
REMARK  6 active torsions:
REMARK  status: ('A' for Active; 'I' for Inactive)
REMARK    1  A    between atoms: C2_2  and  N1_3 
REMARK    2  A    between atoms: C2_2  and  C8_11 
REMARK    3  A    between atoms: N1_3  and  C3_6 
REMARK    4  A    between atoms: C3_6  and  C4_7 
REMARK       I    between atoms: C8_11  and  N2_13 
REMARK    5  A    between atoms: N2_13  and  C9_15 
REMARK    6  A    between atoms: C9_15  and  C10_16 
ROOT
HETATM    1  C8  UNL     1      25.348  13.051  21.966  1.00  0.00     0.248 C 
HETATM    2  O1  UNL     1      26.548  13.063  21.604  1.00  0.00    -0.271 OA
HETATM    3  N2  UNL     1      24.238  12.895  21.143  1.00  0.00    -0.350 N 
ATOM      4  H2  UNL     1      23.320  12.901  21.586  1.00  0.00     0.163 HD
ENDROOT
BRANCH   1   5
HETATM    5  C2  UNL     1      25.179  13.233  23.468  1.00  0.00     0.273 C 
HETATM    6  C1  UNL     1      26.517  13.557  24.079  1.00  0.00     0.050 C 
BRANCH   5   7
HETATM    7  N1  UNL     1      24.575  12.067  24.072  1.00  0.00    -0.062 N 
ATOM      8  H12 UNL     1      24.618  11.257  23.454  1.00  0.00     0.278 HD
ATOM      9  H11 UNL     1      25.139  11.703  24.840  1.00  0.00     0.278 HD
BRANCH   7  10
HETATM   10  C3  UNL     1      23.237  12.348  24.485  1.00  0.00     0.242 C 
BRANCH  10  11
HETATM   11  C4  UNL     1      22.253  11.284  24.078  1.00  0.00    -0.020 A 
HETATM   12  C5  UNL     1      22.627   9.840  24.332  1.00  0.00     0.017 C 
HETATM   13  C6  UNL     1      21.419  11.505  22.854  1.00  0.00     0.011 A 
HETATM   14  C7  UNL     1      20.782  11.641  24.170  1.00  0.00     0.011 A 
ENDBRANCH  10  11
ENDBRANCH   7  10
ENDBRANCH   5   7
ENDBRANCH   1   5
BRANCH   3  15
HETATM   15  C9  UNL     1      24.288  12.725  19.710  1.00  0.00     0.040 A 
HETATM   16  C14 UNL     1      23.273  13.629  19.033  1.00  0.00     0.034 A 
HETATM   17  C15 UNL     1      24.733  13.975  19.018  1.00  0.00     0.034 A 
BRANCH  15  18
HETATM   18  C10 UNL     1      24.601  11.391  19.148  1.00  0.00     0.056 A 
HETATM   19  C11 UNL     1      25.795  10.552  19.472  1.00  0.00     0.054 A 
HETATM   20  C12 UNL     1      24.303  10.059  19.577  1.00  0.00     0.106 A 
HETATM   21  C13 UNL     1      23.989   9.540  20.929  1.00  0.00     0.052 C 
HETATM   22  F1  UNL     1      23.975   9.091  18.596  1.00  0.00    -0.243 F 
ENDBRANCH  15  18
ENDBRANCH   3  15
TORSDOF 6
ENDMDL
MODEL 2
REMARK VINA RESULT: -6.415850954      1.578      2.215
REMARK  6 active torsions:
REMARK  status: ('A' for Active; 'I' for Inactive)
REMARK    1  A    between atoms: C2_2  and  N1_3 
REMARK    2  A    between atoms: C2_2  and  C8_11 
REMARK    3  A    between atoms: N1_3  and  C3_6 
REMARK    4  A    between atoms: C3_6  and  C4_7 
REMARK       I    between atoms: C8_11  and  N2_13 
REMARK    5  A    between atoms: N2_13  and  C9_15 
REMARK    6  A    between atoms: C9_15  and  C10_16 
ROOT
HETATM    1  C8  UNL     1      25.108  12.691  21.975  1.00  0.00     0.248 C 
HETATM    2  O1  UNL     1      25.253  13.628  21.154  1.00  0.00    -0.271 OA
HETATM    3  N2  UNL     1      24.920  11.348  21.671  1.00  0.00    -0.350 N 
ATOM      4  H2  UNL     1      24.822  10.698  22.450  1.00  0.00     0.163 HD
ENDROOT
BRANCH   1   5
HETATM    5  C2  UNL     1      25.156  13.159  23.423  1.00  0.00     0.273 C 
HETATM    6  C1  UNL     1      26.581  13.468  23.796  1.00  0.00     0.050 C 
BRANCH   5   7
HETATM    7  N1  UNL     1      24.563  12.181  24.308  1.00  0.00    -0.062 N 
ATOM      8  H12 UNL     1      24.727  11.229  23.983  1.00  0.00     0.278 HD
ATOM      9  H11 UNL     1      25.059  12.127  25.198  1.00  0.00     0.278 HD
BRANCH   7  10
HETATM   10  C3  UNL     1      23.172  12.446  24.493  1.00  0.00     0.242 C 
BRANCH  10  11
HETATM   11  C4  UNL     1      22.286  11.322  24.025  1.00  0.00    -0.020 A 
HETATM   12  C5  UNL     1      22.772   9.905  24.234  1.00  0.00     0.017 C 
HETATM   13  C6  UNL     1      21.459  11.522  22.792  1.00  0.00     0.011 A 
HETATM   14  C7  UNL     1      20.789  11.555  24.099  1.00  0.00     0.011 A 
ENDBRANCH  10  11
ENDBRANCH   7  10
ENDBRANCH   5   7
ENDBRANCH   1   5
BRANCH   3  15
HETATM   15  C9  UNL     1      24.851  10.803  20.336  1.00  0.00     0.040 A 
HETATM   16  C14 UNL     1      23.673   9.853  20.210  1.00  0.00     0.034 A 
HETATM   17  C15 UNL     1      23.606  11.233  19.625  1.00  0.00     0.034 A 
BRANCH  15  18
HETATM   18  C10 UNL     1      26.105  10.551  19.589  1.00  0.00     0.056 A 
HETATM   19  C11 UNL     1      26.873  11.551  18.786  1.00  0.00     0.054 A 
HETATM   20  C12 UNL     1      27.487  10.670  19.939  1.00  0.00     0.106 A 
HETATM   21  C13 UNL     1      28.140  11.501  20.978  1.00  0.00     0.052 C 
HETATM   22  F1  UNL     1      28.391   9.692  19.458  1.00  0.00    -0.243 F 
ENDBRANCH  15  18
ENDBRANCH   3  15
TORSDOF 6
ENDMDL
MODEL 3
REMARK VINA RESULT: -6.186646492      2.516      3.608
REMARK  6 active torsions:
REMARK  status: ('A' for Active; 'I' for Inactive)
REMARK    1  A    between atoms: C2_2  and  N1_3 
REMARK    2  A    between atoms: C2_2  and  C8_11 
REMARK    3  A    between atoms: N1_3  and  C3_6 
REMARK    4  A    between atoms: C3_6  and  C4_7 
REMARK       I    between atoms: C8_11  and  N2_13 
REMARK    5  A    between atoms: N2_13  and  C9_15 
REMARK    6  A    between atoms: C9_15  and  C10_16 
ROOT
HETATM    1  C8  UNL     1      23.093  10.793  23.268  1.00  0.00     0.248 C 
HETATM    2  O1  UNL     1      23.752  11.859  23.263  1.00  0.00    -0.271 OA
HETATM    3  N2  UNL     1      22.711  10.052  22.156  1.00  0.00    -0.350 N 
ATOM      4  H2  UNL     1      22.179   9.197  22.319  1.00  0.00     0.163 HD
ENDROOT
BRANCH   1   5
HETATM    5  C2  UNL     1      22.714  10.337  24.671  1.00  0.00     0.273 C 
HETATM    6  C1  UNL     1      21.410   9.587  24.611  1.00  0.00     0.050 C 
BRANCH   5   7
HETATM    7  N1  UNL     1      22.657  11.454  25.587  1.00  0.00    -0.062 N 
ATOM      8  H12 UNL     1      23.120  11.242  26.470  1.00  0.00     0.278 HD
ATOM      9  H11 UNL     1      23.254  12.223  25.283  1.00  0.00     0.278 HD
BRANCH   7  10
HETATM   10  C3  UNL     1      21.307  11.876  25.783  1.00  0.00     0.242 C 
BRANCH  10  11
HETATM   11  C4  UNL     1      20.923  11.981  27.235  1.00  0.00    -0.020 A 
HETATM   12  C5  UNL     1      21.836  12.760  28.155  1.00  0.00     0.017 C 
HETATM   13  C6  UNL     1      20.230  10.820  27.881  1.00  0.00     0.011 A 
HETATM   14  C7  UNL     1      19.439  12.012  27.549  1.00  0.00     0.011 A 
ENDBRANCH  10  11
ENDBRANCH   7  10
ENDBRANCH   5   7
ENDBRANCH   1   5
BRANCH   3  15
HETATM   15  C9  UNL     1      23.010  10.400  20.787  1.00  0.00     0.040 A 
HETATM   16  C14 UNL     1      21.768  10.276  19.924  1.00  0.00     0.034 A 
HETATM   17  C15 UNL     1      22.268  11.624  20.351  1.00  0.00     0.034 A 
BRANCH  15  18
HETATM   18  C10 UNL     1      24.346  10.083  20.232  1.00  0.00     0.056 A 
HETATM   19  C11 UNL     1      24.897  10.557  18.926  1.00  0.00     0.054 A 
HETATM   20  C12 UNL     1      25.616  10.739  20.315  1.00  0.00     0.106 A 
HETATM   21  C13 UNL     1      25.939  12.160  20.584  1.00  0.00     0.052 C 
HETATM   22  F1  UNL     1      26.780   9.943  20.438  1.00  0.00    -0.243 F 
ENDBRANCH  15  18
ENDBRANCH   3  15
TORSDOF 6
ENDMDL
MODEL 4
REMARK VINA RESULT: -6.181687711      2.573      3.859
REMARK  6 active torsions:
REMARK  status: ('A' for Active; 'I' for Inactive)
REMARK    1  A    between atoms: C2_2  and  N1_3 
REMARK    2  A    between atoms: C2_2  and  C8_11 
REMARK    3  A    between atoms: N1_3  and  C3_6 
REMARK    4  A    between atoms: C3_6  and  C4_7 
REMARK       I    between atoms: C8_11  and  N2_13 
REMARK    5  A    between atoms: N2_13  and  C9_15 
REMARK    6  A    between atoms: C9_15  and  C10_16 
ROOT
HETATM    1  C8  UNL     1      24.402  10.192  20.291  1.00  0.00     0.248 C 
HETATM    2  O1  UNL     1      24.237   9.730  19.137  1.00  0.00    -0.271 OA
HETATM    3  N2  UNL     1      25.465  10.976  20.723  1.00  0.00    -0.350 N 
ATOM      4  H2  UNL     1      25.460  11.283  21.695  1.00  0.00     0.163 HD
ENDROOT
BRANCH   1   5
HETATM    5  C2  UNL     1      23.283   9.807  21.249  1.00  0.00     0.273 C 
HETATM    6  C1  UNL     1      21.975  10.323  20.713  1.00  0.00     0.050 C 
BRANCH   5   7
HETATM    7  N1  UNL     1      23.551  10.290  22.586  1.00  0.00    -0.062 N 
ATOM      8  H12 UNL     1      23.506   9.539  23.274  1.00  0.00     0.278 HD
ATOM      9  H11 UNL     1      24.530  10.549  22.706  1.00  0.00     0.278 HD
BRANCH   7  10
HETATM   10  C3  UNL     1      22.673  11.367  22.917  1.00  0.00     0.242 C 
BRANCH  10  11
HETATM   11  C4  UNL     1      21.895  11.131  24.184  1.00  0.00    -0.020 A 
HETATM   12  C5  UNL     1      21.770   9.708  24.683  1.00  0.00     0.017 C 
HETATM   13  C6  UNL     1      20.708  11.999  24.472  1.00  0.00     0.011 A 
HETATM   14  C7  UNL     1      21.944  12.226  25.232  1.00  0.00     0.011 A 
ENDBRANCH  10  11
ENDBRANCH   7  10
ENDBRANCH   5   7
ENDBRANCH   1   5
BRANCH   3  15
HETATM   15  C9  UNL     1      26.578  11.388  19.899  1.00  0.00     0.040 A 
HETATM   16  C14 UNL     1      27.855  11.437  20.718  1.00  0.00     0.034 A 
HETATM   17  C15 UNL     1      27.602  10.305  19.767  1.00  0.00     0.034 A 
BRANCH  15  18
HETATM   18  C10 UNL     1      26.349  12.357  18.803  1.00  0.00     0.056 A 
HETATM   19  C11 UNL     1      25.098  13.138  18.558  1.00  0.00     0.054 A 
HETATM   20  C12 UNL     1      26.532  13.773  18.701  1.00  0.00     0.106 A 
HETATM   21  C13 UNL     1      26.571  14.808  19.760  1.00  0.00     0.052 C 
HETATM   22  F1  UNL     1      27.020  14.304  17.482  1.00  0.00    -0.243 F 
ENDBRANCH  15  18
ENDBRANCH   3  15
TORSDOF 6
ENDMDL
MODEL 5
REMARK VINA RESULT: -6.159076580      1.931      3.529
REMARK  6 active torsions:
REMARK  status: ('A' for Active; 'I' for Inactive)
REMARK    1  A    between atoms: C2_2  and  N1_3 
REMARK    2  A    between atoms: C2_2  and  C8_11 
REMARK    3  A    between atoms: N1_3  and  C3_6 
REMARK    4  A    between atoms: C3_6  and  C4_7 
REMARK       I    between atoms: C8_11  and  N2_13 
REMARK    5  A    between atoms: N2_13  and  C9_15 
REMARK    6  A    between atoms: C9_15  and  C10_16 
ROOT
HETATM    1  C8  UNL     1      25.700  12.741  21.337  1.00  0.00     0.248 C 
HETATM    2  O1  UNL     1      26.361  11.904  20.679  1.00  0.00    -0.271 OA
HETATM    3  N2  UNL     1      24.367  13.080  21.141  1.00  0.00    -0.350 N 
ATOM      4  H2  UNL     1      23.962  13.779  21.763  1.00  0.00     0.163 HD
ENDROOT
BRANCH   1   5
HETATM    5  C2  UNL     1      26.515  13.406  22.439  1.00  0.00     0.273 C 
HETATM    6  C1  UNL     1      27.935  12.910  22.371  1.00  0.00     0.050 C 
BRANCH   5   7
HETATM    7  N1  UNL     1      25.922  13.179  23.737  1.00  0.00    -0.062 N 
ATOM      8  H12 UNL     1      24.915  13.337  23.725  1.00  0.00     0.278 HD
ATOM      9  H11 UNL     1      25.919  12.189  23.984  1.00  0.00     0.278 HD
BRANCH   7  10
HETATM   10  C3  UNL     1      26.571  13.971  24.733  1.00  0.00     0.242 C 
BRANCH  10  11
HETATM   11  C4  UNL     1      25.660  14.988  25.370  1.00  0.00    -0.020 A 
HETATM   12  C5  UNL     1      24.231  14.580  25.650  1.00  0.00     0.017 C 
HETATM   13  C6  UNL     1      25.840  16.433  25.020  1.00  0.00     0.011 A 
HETATM   14  C7  UNL     1      26.299  15.968  26.335  1.00  0.00     0.011 A 
ENDBRANCH  10  11
ENDBRANCH   7  10
ENDBRANCH   5   7
ENDBRANCH   1   5
BRANCH   3  15
HETATM   15  C9  UNL     1      23.511  12.517  20.124  1.00  0.00     0.040 A 
HETATM   16  C14 UNL     1      22.736  13.613  19.416  1.00  0.00     0.034 A 
HETATM   17  C15 UNL     1      23.913  12.962  18.753  1.00  0.00     0.034 A 
BRANCH  15  18
HETATM   18  C10 UNL     1      22.901  11.186  20.343  1.00  0.00     0.056 A 
HETATM   19  C11 UNL     1      23.350  10.158  21.332  1.00  0.00     0.054 A 
HETATM   20  C12 UNL     1      21.880  10.716  21.230  1.00  0.00     0.106 A 
HETATM   21  C13 UNL     1      21.411  11.270  22.522  1.00  0.00     0.052 C 
HETATM   22  F1  UNL     1      20.961   9.752  20.750  1.00  0.00    -0.243 F 
ENDBRANCH  15  18
ENDBRANCH   3  15
TORSDOF 6
ENDMDL
