MODEL 1
REMARK VINA RESULT: -6.590163251      0.000      0.000
REMARK  6 active torsions:
REMARK  status: ('A' for Active; 'I' for Inactive)
REMARK    1  A    between atoms: C1_2  and  C2_3 
REMARK       I    between atoms: C1_2  and  N1_9 
REMARK    2  A    between atoms: C2_3  and  C3_4 
REMARK    3  A    between atoms: C3_4  and  C4_5 
REMARK    4  A    between atoms: N1_9  and  C7_11 
REMARK    5  A    between atoms: C7_11  and  C8_12 
REMARK       I    between atoms: C8_12  and  N2_14 
REMARK    6  A    between atoms: N2_14  and  C9_16 
ROOT
HETATM    1  C7  UNL     1      22.888  11.459  24.021  1.00  0.00     0.225 C 
ENDROOT
BRANCH   1   2
HETATM    2  N1  UNL     1      22.415  11.690  22.681  1.00  0.00    -0.352 N 
HETATM    3  C1  UNL     1      22.711  10.667  21.707  1.00  0.00     0.217 C 
HETATM    4  O1  UNL     1      23.347   9.664  22.080  1.00  0.00    -0.274 OA
ATOM      5  H1  UNL     1      21.899  12.534  22.433  1.00  0.00     0.162 HD
BRANCH   3   6
HETATM    6  C2  UNL     1      22.232  10.891  20.325  1.00  0.00     0.103 C 
BRANCH   6   7
HETATM    7  C3  UNL     1      22.598  12.266  19.818  1.00  0.00     0.017 C 
BRANCH   7   8
HETATM    8  C4  UNL     1      24.096  12.268  19.551  1.00  0.00     0.023 A 
HETATM    9  C5  UNL     1      24.858  13.473  19.919  1.00  0.00     0.045 A 
HETATM   10  C6  UNL     1      24.538  13.261  18.483  1.00  0.00     0.174 A 
HETATM   11  F1  UNL     1      23.552  14.040  17.894  1.00  0.00    -0.249 F 
ENDBRANCH   7   8
ENDBRANCH   6   7
ENDBRANCH   3   6
ENDBRANCH   1   2
BRANCH   1  12
HETATM   12  C8  UNL     1      21.971  11.965  25.027  1.00  0.00     0.235 C 
HETATM   13  O2  UNL     1      20.946  12.604  24.580  1.00  0.00    -0.272 OA
HETATM   14  N2  UNL     1      22.102  11.822  26.400  1.00  0.00    -0.355 N 
ATOM     15  H2  UNL     1      22.905  11.320  26.780  1.00  0.00     0.162 HD
BRANCH  14  16
HETATM   16  C9  UNL     1      21.102  12.381  27.308  1.00  0.00     0.084 C 
HETATM   17  C10 UNL     1      21.735  13.075  28.471  1.00  0.00     0.025 C 
HETATM   18  C11 UNL     1      20.880  13.340  29.643  1.00  0.00     0.002 C 
HETATM   19  C12 UNL     1      19.665  12.492  29.812  1.00  0.00     0.000 C 
HETATM   20  C13 UNL     1      19.042  12.057  28.529  1.00  0.00     0.002 C 
HETATM   21  C14 UNL     1      20.105  11.325  27.734  1.00  0.00     0.025 C 
ENDBRANCH  14  16
ENDBRANCH   1  12
TORSDOF 6
ENDMDL
MODEL 2
REMARK VINA RESULT: -6.518963938      1.286      1.436
REMARK  6 active torsions:
REMARK  status: ('A' for Active; 'I' for Inactive)
REMARK    1  A    between atoms: C1_2  and  C2_3 
REMARK       I    between atoms: C1_2  and  N1_9 
REMARK    2  A    between atoms: C2_3  and  C3_4 
REMARK    3  A    between atoms: C3_4  and  C4_5 
REMARK    4  A    between atoms: N1_9  and  C7_11 
REMARK    5  A    between atoms: C7_11  and  C8_12 
REMARK       I    between atoms: C8_12  and  N2_14 
REMARK    6  A    between atoms: N2_14  and  C9_16 
ROOT
HETATM    1  C7  UNL     1      22.747  11.031  23.550  1.00  0.00     0.225 C 
ENDROOT
BRANCH   1   2
HETATM    2  N1  UNL     1      22.971  11.922  22.442  1.00  0.00    -0.352 N 
HETATM    3  C1  UNL     1      22.365  11.553  21.185  1.00  0.00     0.217 C 
HETATM    4  O1  UNL     1      21.698  10.502  21.138  1.00  0.00    -0.274 OA
ATOM      5  H1  UNL     1      23.529  12.770  22.540  1.00  0.00     0.162 HD
BRANCH   3   6
HETATM    6  C2  UNL     1      22.586  12.458  20.036  1.00  0.00     0.103 C 
BRANCH   6   7
HETATM    7  C3  UNL     1      24.055  12.660  19.752  1.00  0.00     0.017 C 
BRANCH   7   8
HETATM    8  C4  UNL     1      24.581  11.370  19.137  1.00  0.00     0.023 A 
HETATM    9  C5  UNL     1      25.772  10.754  19.746  1.00  0.00     0.045 A 
HETATM   10  C6  UNL     1      25.947  11.507  18.475  1.00  0.00     0.174 A 
HETATM   11  F1  UNL     1      26.549  12.756  18.514  1.00  0.00    -0.249 F 
ENDBRANCH   7   8
ENDBRANCH   6   7
ENDBRANCH   3   6
ENDBRANCH   1   2
BRANCH   1  12
HETATM   12  C8  UNL     1      21.929  11.633  24.589  1.00  0.00     0.235 C 
HETATM   13  O2  UNL     1      20.898  12.288  24.180  1.00  0.00    -0.272 OA
HETATM   14  N2  UNL     1      22.157  11.563  25.955  1.00  0.00    -0.355 N 
ATOM     15  H2  UNL     1      22.967  11.050  26.305  1.00  0.00     0.162 HD
BRANCH  14  16
HETATM   16  C9  UNL     1      21.251  12.215  26.897  1.00  0.00     0.084 C 
HETATM   17  C10 UNL     1      21.992  13.040  27.900  1.00  0.00     0.025 C 
HETATM   18  C11 UNL     1      21.263  13.431  29.121  1.00  0.00     0.002 C 
HETATM   19  C12 UNL     1      20.090  12.600  29.515  1.00  0.00     0.000 C 
HETATM   20  C13 UNL     1      19.341  12.018  28.365  1.00  0.00     0.002 C 
HETATM   21  C14 UNL     1      20.325  11.208  27.545  1.00  0.00     0.025 C 
ENDBRANCH  14  16
ENDBRANCH   1  12
TORSDOF 6
ENDMDL
MODEL 3
REMARK VINA RESULT: -6.495764912      3.313      8.363
REMARK  6 active torsions:
REMARK  status: ('A' for Active; 'I' for Inactive)
REMARK    1  A    between atoms: C1_2  and  C2_3 
REMARK       I    between atoms: C1_2  and  N1_9 
REMARK    2  A    between atoms: C2_3  and  C3_4 
REMARK    3  A    between atoms: C3_4  and  C4_5 
REMARK    4  A    between atoms: N1_9  and  C7_11 
REMARK    5  A    between atoms: C7_11  and  C8_12 
REMARK       I    between atoms: C8_12  and  N2_14 
REMARK    6  A    between atoms: N2_14  and  C9_16 
ROOT
HETATM    1  C7  UNL     1      21.547   9.436  24.925  1.00  0.00     0.225 C 
ENDROOT
BRANCH   1   2
HETATM    2  N1  UNL     1      21.118  10.330  25.968  1.00  0.00    -0.352 N 
HETATM    3  C1  UNL     1      19.792  10.884  25.838  1.00  0.00     0.217 C 
HETATM    4  O1  UNL     1      19.112  10.559  24.846  1.00  0.00    -0.274 OA
ATOM      5  H1  UNL     1      21.721  10.561  26.758  1.00  0.00     0.162 HD
BRANCH   3   6
HETATM    6  C2  UNL     1      19.336  11.806  26.902  1.00  0.00     0.103 C 
BRANCH   6   7
HETATM    7  C3  UNL     1      20.096  11.598  28.190  1.00  0.00     0.017 C 
BRANCH   7   8
HETATM    8  C4  UNL     1      19.125  11.848  29.336  1.00  0.00     0.023 A 
HETATM    9  C5  UNL     1      18.520  13.187  29.444  1.00  0.00     0.045 A 
HETATM   10  C6  UNL     1      19.629  12.844  30.373  1.00  0.00     0.174 A 
HETATM   11  F1  UNL     1      20.880  13.405  30.159  1.00  0.00    -0.249 F 
ENDBRANCH   7   8
ENDBRANCH   6   7
ENDBRANCH   3   6
ENDBRANCH   1   2
BRANCH   1  12
HETATM   12  C8  UNL     1      22.427  10.084  23.967  1.00  0.00     0.235 C 
HETATM   13  O2  UNL     1      23.305  10.883  24.464  1.00  0.00    -0.272 OA
HETATM   14  N2  UNL     1      22.403   9.916  22.591  1.00  0.00    -0.355 N 
ATOM     15  H2  UNL     1      21.718   9.288  22.171  1.00  0.00     0.162 HD
BRANCH  14  16
HETATM   16  C9  UNL     1      23.350  10.630  21.736  1.00  0.00     0.084 C 
HETATM   17  C10 UNL     1      22.666  11.645  20.878  1.00  0.00     0.025 C 
HETATM   18  C11 UNL     1      23.413  12.155  19.713  1.00  0.00     0.002 C 
HETATM   19  C12 UNL     1      24.516  11.305  19.180  1.00  0.00     0.000 C 
HETATM   20  C13 UNL     1      25.228  10.507  20.219  1.00  0.00     0.002 C 
HETATM   21  C14 UNL     1      24.191   9.661  20.931  1.00  0.00     0.025 C 
ENDBRANCH  14  16
ENDBRANCH   1  12
TORSDOF 6
ENDMDL
MODEL 4
REMARK VINA RESULT: -6.455361754      3.956      8.030
REMARK  6 active torsions:
REMARK  status: ('A' for Active; 'I' for Inactive)
REMARK    1  A    between atoms: C1_2  and  C2_3 
REMARK       I    between atoms: C1_2  and  N1_9 
REMARK    2  A    between atoms: C2_3  and  C3_4 
REMARK    3  A    between atoms: C3_4  and  C4_5 
REMARK    4  A    between atoms: N1_9  and  C7_11 
REMARK    5  A    between atoms: C7_11  and  C8_12 
REMARK       I    between atoms: C8_12  and  N2_14 
REMARK    6  A    between atoms: N2_14  and  C9_16 
ROOT
HETATM    1  C7  UNL     1      21.467   9.674  25.107  1.00  0.00     0.225 C 
ENDROOT
BRANCH   1   2
HETATM    2  N1  UNL     1      20.091  10.025  24.877  1.00  0.00    -0.352 N 
HETATM    3  C1  UNL     1      19.458  10.848  25.880  1.00  0.00     0.217 C 
HETATM    4  O1  UNL     1      20.132  11.197  26.867  1.00  0.00    -0.274 OA
ATOM      5  H1  UNL     1      19.588   9.708  24.048  1.00  0.00     0.162 HD
BRANCH   3   6
HETATM    6  C2  UNL     1      18.042  11.216  25.657  1.00  0.00     0.103 C 
BRANCH   6   7
HETATM    7  C3  UNL     1      17.213  10.032  25.222  1.00  0.00     0.017 C 
BRANCH   7   8
HETATM    8  C4  UNL     1      15.808  10.542  24.932  1.00  0.00     0.023 A 
HETATM    9  C5  UNL     1      14.677   9.649  25.237  1.00  0.00     0.045 A 
HETATM   10  C6  UNL     1      15.091   9.793  23.816  1.00  0.00     0.174 A 
HETATM   11  F1  UNL     1      15.776   8.750  23.210  1.00  0.00    -0.249 F 
ENDBRANCH   7   8
ENDBRANCH   6   7
ENDBRANCH   3   6
ENDBRANCH   1   2
BRANCH   1  12
HETATM   12  C8  UNL     1      22.357  10.231  24.102  1.00  0.00     0.235 C 
HETATM   13  O2  UNL     1      23.304  10.981  24.546  1.00  0.00    -0.272 OA
HETATM   14  N2  UNL     1      22.275  10.026  22.733  1.00  0.00    -0.355 N 
ATOM     15  H2  UNL     1      21.534   9.435  22.355  1.00  0.00     0.162 HD
BRANCH  14  16
HETATM   16  C9  UNL     1      23.239  10.647  21.827  1.00  0.00     0.084 C 
HETATM   17  C10 UNL     1      22.586  11.632  20.913  1.00  0.00     0.025 C 
HETATM   18  C11 UNL     1      23.339  12.038  19.711  1.00  0.00     0.002 C 
HETATM   19  C12 UNL     1      24.403  11.113  19.224  1.00  0.00     0.000 C 
HETATM   20  C13 UNL     1      25.094  10.355  20.305  1.00  0.00     0.002 C 
HETATM   21  C14 UNL     1      24.033   9.597  21.078  1.00  0.00     0.025 C 
ENDBRANCH  14  16
ENDBRANCH   1  12
TORSDOF 6
ENDMDL
MODEL 5
REMARK VINA RESULT: -6.439750512      3.379      8.510
REMARK  6 active torsions:
REMARK  status: ('A' for Active; 'I' for Inactive)
REMARK    1  A    between atoms: C1_2  and  C2_3 
REMARK       I    between atoms: C1_2  and  N1_9 
REMARK    2  A    between atoms: C2_3  and  C3_4 
REMARK    3  A    between atoms: C3_4  and  C4_5 
REMARK    4  A    between atoms: N1_9  and  C7_11 
REMARK    5  A    between atoms: C7_11  and  C8_12 
REMARK       I    between atoms: C8_12  and  N2_14 
REMARK    6  A    between atoms: N2_14  and  C9_16 
ROOT
HETATM    1  C7  UNL     1      22.669   9.888  24.319  1.00  0.00     0.225 C 
ENDROOT
BRANCH   1   2
HETATM    2  N1  UNL     1      22.584  10.979  25.253  1.00  0.00    -0.352 N 
HETATM    3  C1  UNL     1      21.278  11.259  25.801  1.00  0.00     0.217 C 
HETATM    4  O1  UNL     1      20.321  10.550  25.436  1.00  0.00    -0.274 OA
ATOM      5  H1  UNL     1      23.404  11.527  25.514  1.00  0.00     0.162 HD
BRANCH   3   6
HETATM    6  C2  UNL     1      21.174  12.379  26.763  1.00  0.00     0.103 C 
BRANCH   6   7
HETATM    7  C3  UNL     1      20.895  11.893  28.165  1.00  0.00     0.017 C 
BRANCH   7   8
HETATM    8  C4  UNL     1      19.411  12.100  28.431  1.00  0.00     0.023 A 
HETATM    9  C5  UNL     1      18.952  13.463  28.749  1.00  0.00     0.045 A 
HETATM   10  C6  UNL     1      19.083  12.491  29.867  1.00  0.00     0.174 A 
HETATM   11  F1  UNL     1      20.147  12.622  30.747  1.00  0.00    -0.249 F 
ENDBRANCH   7   8
ENDBRANCH   6   7
ENDBRANCH   3   6
ENDBRANCH   1   2
BRANCH   1  12
HETATM   12  C8  UNL     1      22.739  10.342  22.941  1.00  0.00     0.235 C 
HETATM   13  O2  UNL     1      21.609  10.500  22.344  1.00  0.00    -0.272 OA
HETATM   14  N2  UNL     1      23.896  10.617  22.228  1.00  0.00    -0.355 N 
ATOM     15  H2  UNL     1      24.805  10.501  22.677  1.00  0.00     0.162 HD
BRANCH  14  16
HETATM   16  C9  UNL     1      23.827  11.071  20.840  1.00  0.00     0.084 C 
HETATM   17  C10 UNL     1      24.728  10.276  19.950  1.00  0.00     0.025 C 
HETATM   18  C11 UNL     1      25.056  10.854  18.634  1.00  0.00     0.002 C 
HETATM   19  C12 UNL     1      24.920  12.331  18.481  1.00  0.00     0.000 C 
HETATM   20  C13 UNL     1      23.826  12.931  19.296  1.00  0.00     0.002 C 
HETATM   21  C14 UNL     1      24.083  12.560  20.744  1.00  0.00     0.025 C 
ENDBRANCH  14  16
ENDBRANCH   1  12
TORSDOF 6
ENDMDL
