MODEL 1
REMARK VINA RESULT: -6.482870562      0.000      0.000
REMARK  6 active torsions:
REMARK  status: ('A' for Active; 'I' for Inactive)
REMARK    1  A    between atoms: C2_2  and  C4_4 
REMARK    2  A    between atoms: C4_4  and  C5_5 
REMARK    3  A    between atoms: C5_5  and  C6_6 
REMARK    4  A    between atoms: C5_5  and  N1_8 
REMARK       I    between atoms: N1_8  and  C7_10 
REMARK       I    between atoms: C7_10  and  N2_12 
REMARK    5  A    between atoms: N2_12  and  C8_14 
REMARK    6  A    between atoms: C8_14  and  C10_16 
REMARK       I    between atoms: C10_16  and  N3_18 
ROOT
HETATM    1  N1  UNL     1      25.395  11.528  21.390  1.00  0.00    -0.336 N 
ATOM      2  H1  UNL     1      25.379  10.689  21.970  1.00  0.00     0.164 HD
HETATM    3  C7  UNL     1      25.748  12.781  21.958  1.00  0.00     0.317 C 
HETATM    4  O1  UNL     1      25.780  13.842  21.281  1.00  0.00    -0.247 OA
HETATM    5  N2  UNL     1      26.080  12.867  23.331  1.00  0.00    -0.330 N 
ATOM      6  H2  UNL     1      26.064  12.027  23.909  1.00  0.00     0.165 HD
ENDROOT
BRANCH   1   7
HETATM    7  C5  UNL     1      25.047  11.446  19.943  1.00  0.00     0.115 C 
BRANCH   7   8
HETATM    8  C4  UNL     1      23.725  10.866  19.873  1.00  0.00     0.031 C 
BRANCH   8   9
HETATM    9  C2  UNL     1      22.455  11.530  20.106  1.00  0.00    -0.021 C 
HETATM   10  C1  UNL     1      21.911  11.634  21.500  1.00  0.00     0.009 C 
HETATM   11  C3  UNL     1      22.655  13.004  19.653  1.00  0.00     0.009 C 
ENDBRANCH   8   9
ENDBRANCH   7   8
BRANCH   7  12
HETATM   12  C6  UNL     1      26.214  10.963  19.199  1.00  0.00     0.247 C 
HETATM   13  F1  UNL     1      26.635  11.679  18.117  1.00  0.00    -0.253 F 
ENDBRANCH   7  12
ENDBRANCH   1   7
BRANCH   5  14
HETATM   14  C8  UNL     1      26.437  14.125  23.916  1.00  0.00     0.174 C 
HETATM   15  C9  UNL     1      25.477  14.418  25.052  1.00  0.00     0.042 C 
BRANCH  14  16
HETATM   16  C10 UNL     1      27.829  14.131  24.443  1.00  0.00     0.242 C 
HETATM   17  O2  UNL     1      28.633  13.277  24.044  1.00  0.00    -0.271 OA
HETATM   18  N3  UNL     1      28.205  15.104  25.380  1.00  0.00    -0.350 N 
HETATM   19  C11 UNL     1      27.610  16.238  26.087  1.00  0.00     0.127 C 
HETATM   20  C13 UNL     1      29.438  15.410  26.095  1.00  0.00     0.127 C 
HETATM   21  C12 UNL     1      28.594  15.956  27.218  1.00  0.00     0.040 C 
ENDBRANCH  14  16
ENDBRANCH   5  14
TORSDOF 6
ENDMDL
MODEL 2
REMARK VINA RESULT: -6.406870937      4.504      5.650
REMARK  6 active torsions:
REMARK  status: ('A' for Active; 'I' for Inactive)
REMARK    1  A    between atoms: C2_2  and  C4_4 
REMARK    2  A    between atoms: C4_4  and  C5_5 
REMARK    3  A    between atoms: C5_5  and  C6_6 
REMARK    4  A    between atoms: C5_5  and  N1_8 
REMARK       I    between atoms: N1_8  and  C7_10 
REMARK       I    between atoms: C7_10  and  N2_12 
REMARK    5  A    between atoms: N2_12  and  C8_14 
REMARK    6  A    between atoms: C8_14  and  C10_16 
REMARK       I    between atoms: C10_16  and  N3_18 
ROOT
HETATM    1  N1  UNL     1      24.144  12.674  20.955  1.00  0.00    -0.336 N 
ATOM      2  H1  UNL     1      24.936  13.167  21.368  1.00  0.00     0.164 HD
HETATM    3  C7  UNL     1      23.200  12.017  21.788  1.00  0.00     0.317 C 
HETATM    4  O1  UNL     1      22.209  11.397  21.323  1.00  0.00    -0.247 OA
HETATM    5  N2  UNL     1      23.356  12.046  23.194  1.00  0.00    -0.330 N 
ATOM      6  H2  UNL     1      24.148  12.540  23.605  1.00  0.00     0.165 HD
ENDROOT
BRANCH   1   7
HETATM    7  C5  UNL     1      23.972  12.640  19.475  1.00  0.00     0.115 C 
BRANCH   7   8
HETATM    8  C4  UNL     1      25.275  12.352  18.919  1.00  0.00     0.031 C 
BRANCH   8   9
HETATM    9  C2  UNL     1      25.888  11.049  18.731  1.00  0.00    -0.021 C 
HETATM   10  C1  UNL     1      26.914  10.558  19.709  1.00  0.00     0.009 C 
HETATM   11  C3  UNL     1      24.730  10.016  18.827  1.00  0.00     0.009 C 
ENDBRANCH   8   9
ENDBRANCH   7   8
BRANCH   7  12
HETATM   12  C6  UNL     1      23.116  13.758  19.068  1.00  0.00     0.247 C 
HETATM   13  F1  UNL     1      21.817  13.497  18.748  1.00  0.00    -0.253 F 
ENDBRANCH   7  12
ENDBRANCH   1   7
BRANCH   5  14
HETATM   14  C8  UNL     1      22.410  11.387  24.045  1.00  0.00     0.174 C 
HETATM   15  C9  UNL     1      22.913   9.984  24.327  1.00  0.00     0.042 C 
BRANCH  14  16
HETATM   16  C10 UNL     1      22.215  12.101  25.336  1.00  0.00     0.242 C 
HETATM   17  O2  UNL     1      23.037  12.959  25.686  1.00  0.00    -0.271 OA
HETATM   18  N3  UNL     1      21.102  11.791  26.131  1.00  0.00    -0.350 N 
HETATM   19  C11 UNL     1      19.945  10.896  26.103  1.00  0.00     0.127 C 
HETATM   20  C13 UNL     1      20.599  12.267  27.414  1.00  0.00     0.127 C 
HETATM   21  C12 UNL     1      19.994  10.903  27.627  1.00  0.00     0.040 C 
ENDBRANCH  14  16
ENDBRANCH   5  14
TORSDOF 6
ENDMDL
MODEL 3
REMARK VINA RESULT: -6.387099609      1.143      1.145
REMARK  6 active torsions:
REMARK  status: ('A' for Active; 'I' for Inactive)
REMARK    1  A    between atoms: C2_2  and  C4_4 
REMARK    2  A    between atoms: C4_4  and  C5_5 
REMARK    3  A    between atoms: C5_5  and  C6_6 
REMARK    4  A    between atoms: C5_5  and  N1_8 
REMARK       I    between atoms: N1_8  and  C7_10 
REMARK       I    between atoms: C7_10  and  N2_12 
REMARK    5  A    between atoms: N2_12  and  C8_14 
REMARK    6  A    between atoms: C8_14  and  C10_16 
REMARK       I    between atoms: C10_16  and  N3_18 
ROOT
HETATM    1  N1  UNL     1      25.336  11.427  21.286  1.00  0.00    -0.336 N 
ATOM      2  H1  UNL     1      25.340  10.625  21.916  1.00  0.00     0.164 HD
HETATM    3  C7  UNL     1      25.770  12.698  21.746  1.00  0.00     0.317 C 
HETATM    4  O1  UNL     1      25.782  13.715  21.005  1.00  0.00    -0.247 OA
HETATM    5  N2  UNL     1      26.210  12.855  23.082  1.00  0.00    -0.330 N 
ATOM      6  H2  UNL     1      26.214  12.052  23.711  1.00  0.00     0.165 HD
ENDROOT
BRANCH   1   7
HETATM    7  C5  UNL     1      24.875  11.271  19.877  1.00  0.00     0.115 C 
BRANCH   7   8
HETATM    8  C4  UNL     1      23.542  10.716  19.943  1.00  0.00     0.031 C 
BRANCH   8   9
HETATM    9  C2  UNL     1      22.303  11.421  20.216  1.00  0.00    -0.021 C 
HETATM   10  C1  UNL     1      21.823  11.568  21.630  1.00  0.00     0.009 C 
HETATM   11  C3  UNL     1      22.525  12.879  19.725  1.00  0.00     0.009 C 
ENDBRANCH   8   9
ENDBRANCH   7   8
BRANCH   7  12
HETATM   12  C6  UNL     1      25.972  10.723  19.074  1.00  0.00     0.247 C 
HETATM   13  F1  UNL     1      26.718  11.583  18.322  1.00  0.00    -0.253 F 
ENDBRANCH   7  12
ENDBRANCH   1   7
BRANCH   5  14
HETATM   14  C8  UNL     1      26.649  14.133  23.559  1.00  0.00     0.174 C 
HETATM   15  C9  UNL     1      25.963  14.415  24.881  1.00  0.00     0.042 C 
BRANCH  14  16
HETATM   16  C10 UNL     1      28.124  14.188  23.756  1.00  0.00     0.242 C 
HETATM   17  O2  UNL     1      28.763  13.131  23.851  1.00  0.00    -0.271 OA
HETATM   18  N3  UNL     1      28.761  15.435  23.828  1.00  0.00    -0.350 N 
HETATM   19  C11 UNL     1      28.411  16.854  23.767  1.00  0.00     0.127 C 
HETATM   20  C13 UNL     1      30.141  15.867  24.009  1.00  0.00     0.127 C 
HETATM   21  C12 UNL     1      29.613  17.114  24.670  1.00  0.00     0.040 C 
ENDBRANCH  14  16
ENDBRANCH   5  14
TORSDOF 6
ENDMDL
MODEL 4
REMARK VINA RESULT: -6.356842926      4.989      6.323
REMARK  6 active torsions:
REMARK  status: ('A' for Active; 'I' for Inactive)
REMARK    1  A    between atoms: C2_2  and  C4_4 
REMARK    2  A    between atoms: C4_4  and  C5_5 
REMARK    3  A    between atoms: C5_5  and  C6_6 
REMARK    4  A    between atoms: C5_5  and  N1_8 
REMARK       I    between atoms: N1_8  and  C7_10 
REMARK       I    between atoms: C7_10  and  N2_12 
REMARK    5  A    between atoms: N2_12  and  C8_14 
REMARK    6  A    between atoms: C8_14  and  C10_16 
REMARK       I    between atoms: C10_16  and  N3_18 
ROOT
HETATM    1  N1  UNL     1      21.351  12.091  22.990  1.00  0.00    -0.336 N 
ATOM      2  H1  UNL     1      20.634  12.734  22.657  1.00  0.00     0.164 HD
HETATM    3  C7  UNL     1      21.927  12.267  24.276  1.00  0.00     0.317 C 
HETATM    4  O1  UNL     1      22.814  11.498  24.729  1.00  0.00    -0.247 OA
HETATM    5  N2  UNL     1      21.505  13.339  25.099  1.00  0.00    -0.330 N 
ATOM      6  H2  UNL     1      20.787  13.982  24.764  1.00  0.00     0.165 HD
ENDROOT
BRANCH   1   7
HETATM    7  C5  UNL     1      21.800  10.959  22.130  1.00  0.00     0.115 C 
BRANCH   7   8
HETATM    8  C4  UNL     1      22.044  11.515  20.818  1.00  0.00     0.031 C 
BRANCH   8   9
HETATM    9  C2  UNL     1      23.213  12.250  20.372  1.00  0.00    -0.021 C 
HETATM   10  C1  UNL     1      24.235  11.575  19.506  1.00  0.00     0.009 C 
HETATM   11  C3  UNL     1      22.674  13.420  19.501  1.00  0.00     0.009 C 
ENDBRANCH   8   9
ENDBRANCH   7   8
BRANCH   7  12
HETATM   12  C6  UNL     1      20.960   9.790  22.402  1.00  0.00     0.247 C 
HETATM   13  F1  UNL     1      20.478   9.077  21.344  1.00  0.00    -0.253 F 
ENDBRANCH   7  12
ENDBRANCH   1   7
BRANCH   5  14
HETATM   14  C8  UNL     1      22.078  13.528  26.398  1.00  0.00     0.174 C 
HETATM   15  C9  UNL     1      23.277  14.447  26.266  1.00  0.00     0.042 C 
BRANCH  14  16
HETATM   16  C10 UNL     1      21.113  14.125  27.362  1.00  0.00     0.242 C 
HETATM   17  O2  UNL     1      21.201  15.328  27.642  1.00  0.00    -0.271 OA
HETATM   18  N3  UNL     1      20.122  13.313  27.933  1.00  0.00    -0.350 N 
HETATM   19  C11 UNL     1      19.679  11.920  27.886  1.00  0.00     0.127 C 
HETATM   20  C13 UNL     1      19.040  13.540  28.883  1.00  0.00     0.127 C 
HETATM   21  C12 UNL     1      19.188  12.104  29.318  1.00  0.00     0.040 C 
ENDBRANCH  14  16
ENDBRANCH   5  14
TORSDOF 6
ENDMDL
MODEL 5
REMARK VINA RESULT: -6.325462721      5.200      6.509
REMARK  6 active torsions:
REMARK  status: ('A' for Active; 'I' for Inactive)
REMARK    1  A    between atoms: C2_2  and  C4_4 
REMARK    2  A    between atoms: C4_4  and  C5_5 
REMARK    3  A    between atoms: C5_5  and  C6_6 
REMARK    4  A    between atoms: C5_5  and  N1_8 
REMARK       I    between atoms: N1_8  and  C7_10 
REMARK       I    between atoms: C7_10  and  N2_12 
REMARK    5  A    between atoms: N2_12  and  C8_14 
REMARK    6  A    between atoms: C8_14  and  C10_16 
REMARK       I    between atoms: C10_16  and  N3_18 
ROOT
HETATM    1  N1  UNL     1      21.408  11.967  22.592  1.00  0.00    -0.336 N 
ATOM      2  H1  UNL     1      20.730  12.520  22.069  1.00  0.00     0.164 HD
HETATM    3  C7  UNL     1      21.572  12.173  23.988  1.00  0.00     0.317 C 
HETATM    4  O1  UNL     1      22.396  11.515  24.674  1.00  0.00    -0.247 OA
HETATM    5  N2  UNL     1      20.792  13.148  24.656  1.00  0.00    -0.330 N 
ATOM      6  H2  UNL     1      20.113  13.699  24.131  1.00  0.00     0.165 HD
ENDROOT
BRANCH   1   7
HETATM    7  C5  UNL     1      22.232  10.939  21.897  1.00  0.00     0.115 C 
BRANCH   7   8
HETATM    8  C4  UNL     1      23.192  11.661  21.092  1.00  0.00     0.031 C 
BRANCH   8   9
HETATM    9  C2  UNL     1      23.024  12.134  19.729  1.00  0.00    -0.021 C 
HETATM   10  C1  UNL     1      22.643  13.563  19.477  1.00  0.00     0.009 C 
HETATM   11  C3  UNL     1      24.413  11.974  19.049  1.00  0.00     0.009 C 
ENDBRANCH   8   9
ENDBRANCH   7   8
BRANCH   7  12
HETATM   12  C6  UNL     1      21.353   9.877  21.401  1.00  0.00     0.247 C 
HETATM   13  F1  UNL     1      21.025   9.871  20.078  1.00  0.00    -0.253 F 
ENDBRANCH   7  12
ENDBRANCH   1   7
BRANCH   5  14
HETATM   14  C8  UNL     1      20.948  13.365  26.063  1.00  0.00     0.174 C 
HETATM   15  C9  UNL     1      21.247  14.833  26.293  1.00  0.00     0.042 C 
BRANCH  14  16
HETATM   16  C10 UNL     1      19.730  12.992  26.833  1.00  0.00     0.242 C 
HETATM   17  O2  UNL     1      18.628  12.999  26.267  1.00  0.00    -0.271 OA
HETATM   18  N3  UNL     1      19.853  12.636  28.184  1.00  0.00    -0.350 N 
HETATM   19  C11 UNL     1      20.903  12.499  29.194  1.00  0.00     0.127 C 
HETATM   20  C13 UNL     1      18.915  12.226  29.221  1.00  0.00     0.127 C 
HETATM   21  C12 UNL     1      19.844  12.843  30.236  1.00  0.00     0.040 C 
ENDBRANCH  14  16
ENDBRANCH   5  14
TORSDOF 6
ENDMDL
