MODEL 1
REMARK VINA RESULT: -6.335587960      0.000      0.000
REMARK  6 active torsions:
REMARK  status: ('A' for Active; 'I' for Inactive)
REMARK    1  A    between atoms: C2_2  and  C4_4 
REMARK    2  A    between atoms: N1_9  and  C8_10 
REMARK    3  A    between atoms: C8_10  and  C9_11 
REMARK    4  A    between atoms: C9_11  and  N2_13 
REMARK       I    between atoms: N2_13  and  C11_15 
REMARK    5  A    between atoms: C11_15  and  C12_17 
REMARK    6  A    between atoms: C12_17  and  N3_18 
ROOT
HETATM    1  C8  UNL     1      26.272  12.831  19.548  1.00  0.00     0.141 C 
ENDROOT
BRANCH   1   2
HETATM    2  N1  UNL     1      25.017  13.364  19.940  1.00  0.00    -0.407 N 
HETATM    3  C7  UNL     1      24.084  13.603  18.897  1.00  0.00     0.117 C 
HETATM    4  C6  UNL     1      22.677  13.501  19.508  1.00  0.00     0.023 C 
HETATM    5  C5  UNL     1      22.485  12.017  19.773  1.00  0.00     0.052 C 
HETATM    6  C4  UNL     1      23.509  11.630  20.815  1.00  0.00     0.141 C 
HETATM    7  F1  UNL     1      24.274  10.546  20.378  1.00  0.00    -0.236 F 
HETATM    8  C14 UNL     1      24.478  12.740  21.113  1.00  0.00     0.165 C 
BRANCH   6   9
HETATM    9  C2  UNL     1      22.787  11.255  22.044  1.00  0.00    -0.052 C 
HETATM   10  C1  UNL     1      23.286  11.540  23.222  1.00  0.00     0.017 C 
HETATM   11  C3  UNL     1      21.488  10.557  21.951  1.00  0.00     0.046 C 
ENDBRANCH   6   9
ENDBRANCH   1   2
BRANCH   1  12
HETATM   12  C9  UNL     1      27.382  13.006  20.545  1.00  0.00     0.098 C 
HETATM   13  C10 UNL     1      28.199  14.206  20.139  1.00  0.00     0.034 C 
BRANCH  12  14
HETATM   14  N2  UNL     1      28.199  11.811  20.666  1.00  0.00    -0.354 N 
HETATM   15  C11 UNL     1      28.886  11.478  21.879  1.00  0.00     0.243 C 
HETATM   16  O1  UNL     1      28.816  12.203  22.903  1.00  0.00    -0.272 OA
ATOM     17  H2  UNL     1      28.286  11.190  19.861  1.00  0.00     0.162 HD
BRANCH  15  18
HETATM   18  C12 UNL     1      29.708  10.259  21.968  1.00  0.00     0.334 C 
BRANCH  18  19
HETATM   19  N3  UNL     1      30.041   9.923  23.339  1.00  0.00    -0.071 N 
HETATM   20  C13 UNL     1      29.999   8.483  23.482  1.00  0.00     0.267 C 
ATOM     21  H32 UNL     1      30.933  10.320  23.634  1.00  0.00     0.277 HD
ATOM     22  H31 UNL     1      29.445  10.401  24.014  1.00  0.00     0.277 HD
ENDBRANCH  18  19
ENDBRANCH  15  18
ENDBRANCH  12  14
ENDBRANCH   1  12
TORSDOF 6
ENDMDL
MODEL 2
REMARK VINA RESULT: -6.224941643      3.147      6.024
REMARK  6 active torsions:
REMARK  status: ('A' for Active; 'I' for Inactive)
REMARK    1  A    between atoms: C2_2  and  C4_4 
REMARK    2  A    between atoms: N1_9  and  C8_10 
REMARK    3  A    between atoms: C8_10  and  C9_11 
REMARK    4  A    between atoms: C9_11  and  N2_13 
REMARK       I    between atoms: N2_13  and  C11_15 
REMARK    5  A    between atoms: C11_15  and  C12_17 
REMARK    6  A    between atoms: C12_17  and  N3_18 
ROOT
HETATM    1  C8  UNL     1      23.783  11.932  21.289  1.00  0.00     0.141 C 
ENDROOT
BRANCH   1   2
HETATM    2  N1  UNL     1      24.462  11.337  20.194  1.00  0.00    -0.407 N 
HETATM    3  C7  UNL     1      24.457  12.071  18.978  1.00  0.00     0.117 C 
HETATM    4  C6  UNL     1      25.717  11.672  18.195  1.00  0.00     0.023 C 
HETATM    5  C5  UNL     1      26.859  12.325  18.957  1.00  0.00     0.052 C 
HETATM    6  C4  UNL     1      26.895  11.675  20.321  1.00  0.00     0.141 C 
HETATM    7  F1  UNL     1      26.850  12.640  21.330  1.00  0.00    -0.236 F 
HETATM    8  C14 UNL     1      25.724  10.761  20.555  1.00  0.00     0.165 C 
BRANCH   6   9
HETATM    9  C2  UNL     1      28.152  10.913  20.428  1.00  0.00    -0.052 C 
HETATM   10  C1  UNL     1      28.204   9.660  20.050  1.00  0.00     0.017 C 
HETATM   11  C3  UNL     1      29.365  11.565  20.965  1.00  0.00     0.046 C 
ENDBRANCH   6   9
ENDBRANCH   1   2
BRANCH   1  12
HETATM   12  C9  UNL     1      22.782  11.049  21.977  1.00  0.00     0.098 C 
HETATM   13  C10 UNL     1      21.854  10.481  20.933  1.00  0.00     0.034 C 
BRANCH  12  14
HETATM   14  N2  UNL     1      22.057  11.757  23.017  1.00  0.00    -0.354 N 
HETATM   15  C11 UNL     1      22.459  11.711  24.393  1.00  0.00     0.243 C 
HETATM   16  O1  UNL     1      23.463  11.056  24.770  1.00  0.00    -0.272 OA
ATOM     17  H2  UNL     1      21.235  12.304  22.761  1.00  0.00     0.162 HD
BRANCH  15  18
HETATM   18  C12 UNL     1      21.701  12.439  25.423  1.00  0.00     0.334 C 
BRANCH  18  19
HETATM   19  N3  UNL     1      22.235  12.217  26.753  1.00  0.00    -0.071 N 
HETATM   20  C13 UNL     1      21.144  12.283  27.703  1.00  0.00     0.267 C 
ATOM     21  H32 UNL     1      22.763  11.347  26.824  1.00  0.00     0.277 HD
ATOM     22  H31 UNL     1      22.993  12.859  26.983  1.00  0.00     0.277 HD
ENDBRANCH  18  19
ENDBRANCH  15  18
ENDBRANCH  12  14
ENDBRANCH   1  12
TORSDOF 6
ENDMDL
MODEL 3
REMARK VINA RESULT: -6.206758205      2.022      2.728
REMARK  6 active torsions:
REMARK  status: ('A' for Active; 'I' for Inactive)
REMARK    1  A    between atoms: C2_2  and  C4_4 
REMARK    2  A    between atoms: N1_9  and  C8_10 
REMARK    3  A    between atoms: C8_10  and  C9_11 
REMARK    4  A    between atoms: C9_11  and  N2_13 
REMARK       I    between atoms: N2_13  and  C11_15 
REMARK    5  A    between atoms: C11_15  and  C12_17 
REMARK    6  A    between atoms: C12_17  and  N3_18 
ROOT
HETATM    1  C8  UNL     1      26.052  10.858  19.942  1.00  0.00     0.141 C 
ENDROOT
BRANCH   1   2
HETATM    2  N1  UNL     1      25.149  11.841  20.424  1.00  0.00    -0.407 N 
HETATM    3  C7  UNL     1      24.708  12.805  19.479  1.00  0.00     0.117 C 
HETATM    4  C6  UNL     1      23.325  13.296  19.935  1.00  0.00     0.023 C 
HETATM    5  C5  UNL     1      22.396  12.126  19.655  1.00  0.00     0.052 C 
HETATM    6  C4  UNL     1      22.843  10.996  20.553  1.00  0.00     0.141 C 
HETATM    7  F1  UNL     1      23.077   9.837  19.810  1.00  0.00    -0.236 F 
HETATM    8  C14 UNL     1      24.127  11.305  21.273  1.00  0.00     0.165 C 
BRANCH   6   9
HETATM    9  C2  UNL     1      21.771  10.742  21.532  1.00  0.00    -0.052 C 
HETATM   10  C1  UNL     1      21.057   9.645  21.465  1.00  0.00     0.017 C 
HETATM   11  C3  UNL     1      21.500  11.727  22.599  1.00  0.00     0.046 C 
ENDBRANCH   6   9
ENDBRANCH   1   2
BRANCH   1  12
HETATM   12  C9  UNL     1      27.502  11.125  20.228  1.00  0.00     0.098 C 
HETATM   13  C10 UNL     1      28.283   9.870  19.926  1.00  0.00     0.034 C 
BRANCH  12  14
HETATM   14  N2  UNL     1      27.714  11.578  21.592  1.00  0.00    -0.354 N 
HETATM   15  C11 UNL     1      28.043  12.939  21.899  1.00  0.00     0.243 C 
HETATM   16  O1  UNL     1      28.164  13.812  21.004  1.00  0.00    -0.272 OA
ATOM     17  H2  UNL     1      27.625  10.906  22.354  1.00  0.00     0.162 HD
BRANCH  15  18
HETATM   18  C12 UNL     1      28.252  13.366  23.293  1.00  0.00     0.334 C 
BRANCH  18  19
HETATM   19  N3  UNL     1      29.358  14.295  23.420  1.00  0.00    -0.071 N 
HETATM   20  C13 UNL     1      29.131  15.122  24.587  1.00  0.00     0.267 C 
ATOM     21  H32 UNL     1      30.263  13.826  23.442  1.00  0.00     0.277 HD
ATOM     22  H31 UNL     1      29.506  14.845  22.573  1.00  0.00     0.277 HD
ENDBRANCH  18  19
ENDBRANCH  15  18
ENDBRANCH  12  14
ENDBRANCH   1  12
TORSDOF 6
ENDMDL
MODEL 4
REMARK VINA RESULT: -6.205821976      1.893      2.633
REMARK  6 active torsions:
REMARK  status: ('A' for Active; 'I' for Inactive)
REMARK    1  A    between atoms: C2_2  and  C4_4 
REMARK    2  A    between atoms: N1_9  and  C8_10 
REMARK    3  A    between atoms: C8_10  and  C9_11 
REMARK    4  A    between atoms: C9_11  and  N2_13 
REMARK       I    between atoms: N2_13  and  C11_15 
REMARK    5  A    between atoms: C11_15  and  C12_17 
REMARK    6  A    between atoms: C12_17  and  N3_18 
ROOT
HETATM    1  C8  UNL     1      26.130  10.907  19.829  1.00  0.00     0.141 C 
ENDROOT
BRANCH   1   2
HETATM    2  N1  UNL     1      25.254  11.899  20.342  1.00  0.00    -0.407 N 
HETATM    3  C7  UNL     1      24.826  12.893  19.422  1.00  0.00     0.117 C 
HETATM    4  C6  UNL     1      23.459  13.404  19.903  1.00  0.00     0.023 C 
HETATM    5  C5  UNL     1      22.501  12.262  19.606  1.00  0.00     0.052 C 
HETATM    6  C4  UNL     1      22.931  11.102  20.474  1.00  0.00     0.141 C 
HETATM    7  F1  UNL     1      23.132   9.955  19.703  1.00  0.00    -0.236 F 
HETATM    8  C14 UNL     1      24.228  11.366  21.188  1.00  0.00     0.165 C 
BRANCH   6   9
HETATM    9  C2  UNL     1      21.863  10.849  21.457  1.00  0.00    -0.052 C 
HETATM   10  C1  UNL     1      21.604  11.724  22.398  1.00  0.00     0.017 C 
HETATM   11  C3  UNL     1      21.073   9.603  21.382  1.00  0.00     0.046 C 
ENDBRANCH   6   9
ENDBRANCH   1   2
BRANCH   1  12
HETATM   12  C9  UNL     1      27.576  11.080  20.194  1.00  0.00     0.098 C 
HETATM   13  C10 UNL     1      28.276   9.759  19.994  1.00  0.00     0.034 C 
BRANCH  12  14
HETATM   14  N2  UNL     1      27.741  11.579  21.547  1.00  0.00    -0.354 N 
HETATM   15  C11 UNL     1      28.132  12.931  21.818  1.00  0.00     0.243 C 
HETATM   16  O1  UNL     1      28.352  13.757  20.896  1.00  0.00    -0.272 OA
ATOM     17  H2  UNL     1      27.572  10.948  22.331  1.00  0.00     0.162 HD
BRANCH  15  18
HETATM   18  C12 UNL     1      28.291  13.406  23.203  1.00  0.00     0.334 C 
BRANCH  18  19
HETATM   19  N3  UNL     1      27.132  13.102  24.021  1.00  0.00    -0.071 N 
HETATM   20  C13 UNL     1      26.045  13.970  23.619  1.00  0.00     0.267 C 
ATOM     21  H32 UNL     1      26.877  12.115  23.987  1.00  0.00     0.277 HD
ATOM     22  H31 UNL     1      27.332  13.160  25.019  1.00  0.00     0.277 HD
ENDBRANCH  18  19
ENDBRANCH  15  18
ENDBRANCH  12  14
ENDBRANCH   1  12
TORSDOF 6
ENDMDL
MODEL 5
REMARK VINA RESULT: -6.174885806      2.508      3.516
REMARK  6 active torsions:
REMARK  status: ('A' for Active; 'I' for Inactive)
REMARK    1  A    between atoms: C2_2  and  C4_4 
REMARK    2  A    between atoms: N1_9  and  C8_10 
REMARK    3  A    between atoms: C8_10  and  C9_11 
REMARK    4  A    between atoms: C9_11  and  N2_13 
REMARK       I    between atoms: N2_13  and  C11_15 
REMARK    5  A    between atoms: C11_15  and  C12_17 
REMARK    6  A    between atoms: C12_17  and  N3_18 
ROOT
HETATM    1  C8  UNL     1      27.533  12.151  21.271  1.00  0.00     0.141 C 
ENDROOT
BRANCH   1   2
HETATM    2  N1  UNL     1      26.768  12.381  20.099  1.00  0.00    -0.407 N 
HETATM    3  C7  UNL     1      26.889  11.408  19.071  1.00  0.00     0.117 C 
HETATM    4  C6  UNL     1      25.581  11.428  18.265  1.00  0.00     0.023 C 
HETATM    5  C5  UNL     1      24.556  10.790  19.189  1.00  0.00     0.052 C 
HETATM    6  C4  UNL     1      24.419  11.709  20.380  1.00  0.00     0.141 C 
HETATM    7  F1  UNL     1      24.616  11.007  21.572  1.00  0.00    -0.236 F 
HETATM    8  C14 UNL     1      25.432  12.821  20.371  1.00  0.00     0.165 C 
BRANCH   6   9
HETATM    9  C2  UNL     1      23.058  12.274  20.365  1.00  0.00    -0.052 C 
HETATM   10  C1  UNL     1      22.104  11.730  21.080  1.00  0.00     0.017 C 
HETATM   11  C3  UNL     1      22.764  13.464  19.540  1.00  0.00     0.046 C 
ENDBRANCH   6   9
ENDBRANCH   1   2
BRANCH   1  12
HETATM   12  C9  UNL     1      29.011  12.000  21.052  1.00  0.00     0.098 C 
HETATM   13  C10 UNL     1      29.403  10.590  21.420  1.00  0.00     0.034 C 
BRANCH  12  14
HETATM   14  N2  UNL     1      29.775  12.985  21.798  1.00  0.00    -0.354 N 
HETATM   15  C11 UNL     1      30.069  14.283  21.265  1.00  0.00     0.243 C 
HETATM   16  O1  UNL     1      29.678  14.637  20.124  1.00  0.00    -0.272 OA
ATOM     17  H2  UNL     1      30.114  12.745  22.730  1.00  0.00     0.162 HD
BRANCH  15  18
HETATM   18  C12 UNL     1      30.847  15.258  22.047  1.00  0.00     0.334 C 
BRANCH  18  19
HETATM   19  N3  UNL     1      32.097  14.701  22.527  1.00  0.00    -0.071 N 
HETATM   20  C13 UNL     1      32.742  15.683  23.374  1.00  0.00     0.267 C 
ATOM     21  H32 UNL     1      31.972  13.803  22.994  1.00  0.00     0.277 HD
ATOM     22  H31 UNL     1      32.700  14.381  21.769  1.00  0.00     0.277 HD
ENDBRANCH  18  19
ENDBRANCH  15  18
ENDBRANCH  12  14
ENDBRANCH   1  12
TORSDOF 6
ENDMDL
