MODEL 1
REMARK VINA RESULT: -6.259317219      0.000      0.000
REMARK  4 active torsions:
REMARK  status: ('A' for Active; 'I' for Inactive)
REMARK    1  A    between atoms: N1_4  and  N2_6 
REMARK       I    between atoms: N2_6  and  C3_8 
REMARK    2  A    between atoms: C3_8  and  C4_10 
REMARK    3  A    between atoms: C4_10  and  C7_13 
REMARK    4  A    between atoms: C7_13  and  C8_14 
ROOT
HETATM    1  N2  UNL     1      24.744  11.089  21.146  1.00  0.00    -0.269 N 
ATOM      2  H2  UNL     1      24.695  11.733  21.935  1.00  0.00     0.190 HD
HETATM    3  C3  UNL     1      23.620  10.864  20.308  1.00  0.00     0.244 C 
HETATM    4  O1  UNL     1      23.671  10.071  19.333  1.00  0.00    -0.271 OA
ENDROOT
BRANCH   3   5
HETATM    5  C4  UNL     1      22.374  11.633  20.661  1.00  0.00     0.036 C 
HETATM    6  C5  UNL     1      21.483  10.648  21.374  1.00  0.00     0.025 C 
HETATM    7  C6  UNL     1      22.808  12.676  21.633  1.00  0.00     0.025 C 
BRANCH   5   8
HETATM    8  C7  UNL     1      21.842  12.130  19.379  1.00  0.00     0.026 C 
BRANCH   8   9
HETATM    9  C8  UNL     1      22.165  13.489  18.929  1.00  0.00    -0.050 C 
HETATM   10  C9  UNL     1      21.914  14.609  19.882  1.00  0.00     0.014 C 
HETATM   11  C10 UNL     1      23.554  13.662  18.366  1.00  0.00     0.014 C 
HETATM   12  C11 UNL     1      21.214  13.767  17.744  1.00  0.00     0.014 C 
ENDBRANCH   8   9
ENDBRANCH   5   8
ENDBRANCH   3   5
BRANCH   1  13
HETATM   13  N1  UNL     1      25.920  10.392  20.849  1.00  0.00    -0.291 N 
HETATM   14  C2  UNL     1      26.876  10.869  20.156  1.00  0.00     0.091 C 
HETATM   15  C1  UNL     1      28.070  10.041  19.906  1.00  0.00     0.083 C 
HETATM   16 CL1  UNL     1      26.810  12.473  19.495  1.00  0.00    -0.068 Cl
ATOM     17  H1  UNL     1      26.018   9.444  21.209  1.00  0.00     0.187 HD
ENDBRANCH   1  13
TORSDOF 4
ENDMDL
MODEL 2
REMARK VINA RESULT: -6.131707828      2.104      3.146
REMARK  4 active torsions:
REMARK  status: ('A' for Active; 'I' for Inactive)
REMARK    1  A    between atoms: N1_4  and  N2_6 
REMARK       I    between atoms: N2_6  and  C3_8 
REMARK    2  A    between atoms: C3_8  and  C4_10 
REMARK    3  A    between atoms: C4_10  and  C7_13 
REMARK    4  A    between atoms: C7_13  and  C8_14 
ROOT
HETATM    1  N2  UNL     1      26.417  11.490  20.914  1.00  0.00    -0.269 N 
ATOM      2  H2  UNL     1      25.700  10.851  21.256  1.00  0.00     0.190 HD
HETATM    3  C3  UNL     1      26.150  12.398  19.856  1.00  0.00     0.244 C 
HETATM    4  O1  UNL     1      27.030  13.190  19.428  1.00  0.00    -0.271 OA
ENDROOT
BRANCH   3   5
HETATM    5  C4  UNL     1      24.757  12.351  19.286  1.00  0.00     0.036 C 
HETATM    6  C5  UNL     1      24.731  13.403  18.205  1.00  0.00     0.025 C 
HETATM    7  C6  UNL     1      24.628  11.009  18.652  1.00  0.00     0.025 C 
BRANCH   5   8
HETATM    8  C7  UNL     1      23.858  12.615  20.423  1.00  0.00     0.026 C 
BRANCH   8   9
HETATM    9  C8  UNL     1      22.404  12.631  20.219  1.00  0.00    -0.050 C 
HETATM   10  C9  UNL     1      21.886  13.311  18.996  1.00  0.00     0.014 C 
HETATM   11  C10 UNL     1      21.730  11.285  20.320  1.00  0.00     0.014 C 
HETATM   12  C11 UNL     1      21.832  13.455  21.393  1.00  0.00     0.014 C 
ENDBRANCH   8   9
ENDBRANCH   5   8
ENDBRANCH   3   5
BRANCH   1  13
HETATM   13  N1  UNL     1      27.701  11.506  21.470  1.00  0.00    -0.291 N 
HETATM   14  C2  UNL     1      28.660  10.767  21.074  1.00  0.00     0.091 C 
HETATM   15  C1  UNL     1      29.972  10.870  21.737  1.00  0.00     0.083 C 
HETATM   16 CL1  UNL     1      28.460   9.637  19.772  1.00  0.00    -0.068 Cl
ATOM     17  H1  UNL     1      27.881  12.150  22.240  1.00  0.00     0.187 HD
ENDBRANCH   1  13
TORSDOF 4
ENDMDL
MODEL 3
REMARK VINA RESULT: -6.079668681      4.839      6.053
REMARK  4 active torsions:
REMARK  status: ('A' for Active; 'I' for Inactive)
REMARK    1  A    between atoms: N1_4  and  N2_6 
REMARK       I    between atoms: N2_6  and  C3_8 
REMARK    2  A    between atoms: C3_8  and  C4_10 
REMARK    3  A    between atoms: C4_10  and  C7_13 
REMARK    4  A    between atoms: C7_13  and  C8_14 
ROOT
HETATM    1  N2  UNL     1      22.259  12.019  25.584  1.00  0.00    -0.269 N 
ATOM      2  H2  UNL     1      22.629  11.083  25.418  1.00  0.00     0.190 HD
HETATM    3  C3  UNL     1      21.750  12.809  24.521  1.00  0.00     0.244 C 
HETATM    4  O1  UNL     1      21.293  13.965  24.717  1.00  0.00    -0.271 OA
ENDROOT
BRANCH   3   5
HETATM    5  C4  UNL     1      21.793  12.178  23.155  1.00  0.00     0.036 C 
HETATM    6  C5  UNL     1      23.084  11.400  23.113  1.00  0.00     0.025 C 
HETATM    7  C6  UNL     1      20.654  11.217  23.121  1.00  0.00     0.025 C 
BRANCH   5   8
HETATM    8  C7  UNL     1      21.719  13.298  22.200  1.00  0.00     0.026 C 
BRANCH   8   9
HETATM    9  C8  UNL     1      22.354  13.180  20.881  1.00  0.00    -0.050 C 
HETATM   10  C9  UNL     1      23.841  13.267  20.821  1.00  0.00     0.014 C 
HETATM   11  C10 UNL     1      21.927  11.980  20.073  1.00  0.00     0.014 C 
HETATM   12  C11 UNL     1      21.860  14.402  20.076  1.00  0.00     0.014 C 
ENDBRANCH   8   9
ENDBRANCH   5   8
ENDBRANCH   3   5
BRANCH   1  13
HETATM   13  N1  UNL     1      22.235  12.572  26.869  1.00  0.00    -0.291 N 
HETATM   14  C2  UNL     1      21.335  12.325  27.736  1.00  0.00     0.091 C 
HETATM   15  C1  UNL     1      21.413  12.968  29.061  1.00  0.00     0.083 C 
HETATM   16 CL1  UNL     1      20.017  11.248  27.398  1.00  0.00    -0.068 Cl
ATOM     17  H1  UNL     1      22.984  13.214  27.128  1.00  0.00     0.187 HD
ENDBRANCH   1  13
TORSDOF 4
ENDMDL
MODEL 4
REMARK VINA RESULT: -5.912594351      1.970      2.725
REMARK  4 active torsions:
REMARK  status: ('A' for Active; 'I' for Inactive)
REMARK    1  A    between atoms: N1_4  and  N2_6 
REMARK       I    between atoms: N2_6  and  C3_8 
REMARK    2  A    between atoms: C3_8  and  C4_10 
REMARK    3  A    between atoms: C4_10  and  C7_13 
REMARK    4  A    between atoms: C7_13  and  C8_14 
ROOT
HETATM    1  N2  UNL     1      26.385  11.386  21.128  1.00  0.00    -0.269 N 
ATOM      2  H2  UNL     1      25.766  11.283  21.933  1.00  0.00     0.190 HD
HETATM    3  C3  UNL     1      25.894  11.271  19.801  1.00  0.00     0.244 C 
HETATM    4  O1  UNL     1      26.650  11.397  18.804  1.00  0.00    -0.271 OA
ENDROOT
BRANCH   3   5
HETATM    5  C4  UNL     1      24.420  10.993  19.669  1.00  0.00     0.036 C 
HETATM    6  C5  UNL     1      24.299  10.007  18.534  1.00  0.00     0.025 C 
HETATM    7  C6  UNL     1      24.024  10.315  20.936  1.00  0.00     0.025 C 
BRANCH   5   8
HETATM    8  C7  UNL     1      23.793  12.302  19.416  1.00  0.00     0.026 C 
BRANCH   8   9
HETATM    9  C8  UNL     1      22.371  12.504  19.722  1.00  0.00    -0.050 C 
HETATM   10  C9  UNL     1      21.449  11.349  19.513  1.00  0.00     0.014 C 
HETATM   11  C10 UNL     1      22.086  13.083  21.085  1.00  0.00     0.014 C 
HETATM   12  C11 UNL     1      21.883  13.575  18.721  1.00  0.00     0.014 C 
ENDBRANCH   8   9
ENDBRANCH   5   8
ENDBRANCH   3   5
BRANCH   1  13
HETATM   13  N1  UNL     1      27.750  11.646  21.291  1.00  0.00    -0.291 N 
HETATM   14  C2  UNL     1      28.642  10.744  21.396  1.00  0.00     0.091 C 
HETATM   15  C1  UNL     1      30.053  11.138  21.564  1.00  0.00     0.083 C 
HETATM   16 CL1  UNL     1      28.239   9.056  21.345  1.00  0.00    -0.068 Cl
ATOM     17  H1  UNL     1      28.050  12.621  21.328  1.00  0.00     0.187 HD
ENDBRANCH   1  13
TORSDOF 4
ENDMDL
MODEL 5
REMARK VINA RESULT: -5.861113711      1.494      3.379
REMARK  4 active torsions:
REMARK  status: ('A' for Active; 'I' for Inactive)
REMARK    1  A    between atoms: N1_4  and  N2_6 
REMARK       I    between atoms: N2_6  and  C3_8 
REMARK    2  A    between atoms: C3_8  and  C4_10 
REMARK    3  A    between atoms: C4_10  and  C7_13 
REMARK    4  A    between atoms: C7_13  and  C8_14 
ROOT
HETATM    1  N2  UNL     1      24.773  11.615  21.019  1.00  0.00    -0.269 N 
ATOM      2  H2  UNL     1      24.740  12.633  21.075  1.00  0.00     0.190 HD
HETATM    3  C3  UNL     1      23.585  10.841  20.955  1.00  0.00     0.244 C 
HETATM    4  O1  UNL     1      23.618   9.585  20.886  1.00  0.00    -0.271 OA
ENDROOT
BRANCH   3   5
HETATM    5  C4  UNL     1      22.295  11.617  20.972  1.00  0.00     0.036 C 
HETATM    6  C5  UNL     1      22.635  12.947  21.596  1.00  0.00     0.025 C 
HETATM    7  C6  UNL     1      21.939  11.837  19.542  1.00  0.00     0.025 C 
BRANCH   5   8
HETATM    8  C7  UNL     1      21.351  10.795  21.750  1.00  0.00     0.026 C 
BRANCH   8   9
HETATM    9  C8  UNL     1      21.211  11.012  23.196  1.00  0.00    -0.050 C 
HETATM   10  C9  UNL     1      22.364  10.634  24.065  1.00  0.00     0.014 C 
HETATM   11  C10 UNL     1      20.765  12.396  23.594  1.00  0.00     0.014 C 
HETATM   12  C11 UNL     1      20.066  10.077  23.643  1.00  0.00     0.014 C 
ENDBRANCH   8   9
ENDBRANCH   5   8
ENDBRANCH   3   5
BRANCH   1  13
HETATM   13  N1  UNL     1      25.993  10.928  21.004  1.00  0.00    -0.291 N 
HETATM   14  C2  UNL     1      26.749  10.838  19.983  1.00  0.00     0.091 C 
HETATM   15  C1  UNL     1      28.013  10.087  20.085  1.00  0.00     0.083 C 
HETATM   16 CL1  UNL     1      26.328  11.579  18.471  1.00  0.00    -0.068 Cl
ATOM     17  H1  UNL     1      26.295  10.471  21.864  1.00  0.00     0.187 HD
ENDBRANCH   1  13
TORSDOF 4
ENDMDL
