MODEL 1
REMARK VINA RESULT: -5.452315373      0.000      0.000
REMARK  4 active torsions:
REMARK  status: ('A' for Active; 'I' for Inactive)
REMARK    1  A    between atoms: C2_2  and  N1_3 
REMARK    2  A    between atoms: N1_3  and  C3_4 
REMARK    3  A    between atoms: N1_3  and  C10_15 
REMARK    4  A    between atoms: C6_9  and  C7_10 
ROOT
HETATM    1  C3  UNL     1      22.817  11.813  19.960  1.00  0.00     0.673 C 
HETATM    2  N2  UNL     1      22.094  10.761  19.780  1.00  0.00    -0.226 N 
ATOM      3  H2  UNL     1      22.200  10.278  18.887  1.00  0.00     0.177 HD
HETATM    4  C4  UNL     1      21.153  10.198  20.712  1.00  0.00     0.140 C 
HETATM    5  C5  UNL     1      21.283  10.764  22.105  1.00  0.00     0.046 C 
HETATM    6  C6  UNL     1      21.408  12.282  21.897  1.00  0.00     0.104 C 
HETATM    7  N3  UNL     1      22.653  12.475  21.221  1.00  0.00    -0.221 N 
ATOM      8  H3  UNL     1      23.391  13.058  21.619  1.00  0.00     0.178 HD
ENDROOT
BRANCH   1   9
HETATM    9  N1  UNL     1      23.721  12.296  18.980  1.00  0.00    -0.201 N 
BRANCH   9  10
HETATM   10  C2  UNL     1      24.762  11.423  18.489  1.00  0.00     0.138 C 
HETATM   11  C1  UNL     1      25.731  11.003  19.555  1.00  0.00     0.027 C 
ENDBRANCH   9  10
BRANCH   9  12
HETATM   12  C10 UNL     1      23.722  13.608  18.392  1.00  0.00     0.195 C 
HETATM   13  C11 UNL     1      24.501  14.625  19.161  1.00  0.00     0.050 C 
HETATM   14 CL1  UNL     1      22.039  14.099  18.140  1.00  0.00    -0.102 Cl
ENDBRANCH   9  12
ENDBRANCH   1   9
BRANCH   6  15
HETATM   15  C7  UNL     1      21.317  13.002  23.215  1.00  0.00     0.001 C 
HETATM   16  C8  UNL     1      20.467  12.222  24.190  1.00  0.00     0.011 C 
HETATM   17  C9  UNL     1      22.638  13.307  23.824  1.00  0.00     0.011 C 
ENDBRANCH   6  15
TORSDOF 4
ENDMDL
MODEL 2
REMARK VINA RESULT: -5.429840506      2.197      2.677
REMARK  4 active torsions:
REMARK  status: ('A' for Active; 'I' for Inactive)
REMARK    1  A    between atoms: C2_2  and  N1_3 
REMARK    2  A    between atoms: N1_3  and  C3_4 
REMARK    3  A    between atoms: N1_3  and  C10_15 
REMARK    4  A    between atoms: C6_9  and  C7_10 
ROOT
HETATM    1  C3  UNL     1      25.000  11.135  20.711  1.00  0.00     0.673 C 
HETATM    2  N2  UNL     1      24.703   9.972  21.180  1.00  0.00    -0.226 N 
ATOM      3  H2  UNL     1      25.391   9.231  21.039  1.00  0.00     0.177 HD
HETATM    4  C4  UNL     1      23.499   9.613  21.882  1.00  0.00     0.140 C 
HETATM    5  C5  UNL     1      22.690  10.806  22.326  1.00  0.00     0.046 C 
HETATM    6  C6  UNL     1      22.668  11.737  21.103  1.00  0.00     0.104 C 
HETATM    7  N3  UNL     1      24.020  12.162  20.920  1.00  0.00    -0.221 N 
ATOM      8  H3  UNL     1      24.277  13.149  20.936  1.00  0.00     0.178 HD
ENDROOT
BRANCH   1   9
HETATM    9  N1  UNL     1      26.215  11.397  20.028  1.00  0.00    -0.201 N 
BRANCH   9  10
HETATM   10  C2  UNL     1      27.466  11.028  20.650  1.00  0.00     0.138 C 
HETATM   11  C1  UNL     1      28.271  10.064  19.832  1.00  0.00     0.027 C 
ENDBRANCH   9  10
BRANCH   9  12
HETATM   12  C10 UNL     1      26.355  12.011  18.736  1.00  0.00     0.195 C 
HETATM   13  C11 UNL     1      26.522  13.496  18.777  1.00  0.00     0.050 C 
HETATM   14 CL1  UNL     1      24.975  11.517  17.742  1.00  0.00    -0.102 Cl
ENDBRANCH   9  12
ENDBRANCH   1   9
BRANCH   6  15
HETATM   15  C7  UNL     1      21.703  12.870  21.324  1.00  0.00     0.001 C 
HETATM   16  C8  UNL     1      21.650  13.249  22.785  1.00  0.00     0.011 C 
HETATM   17  C9  UNL     1      21.990  14.072  20.498  1.00  0.00     0.011 C 
ENDBRANCH   6  15
TORSDOF 4
ENDMDL
MODEL 3
REMARK VINA RESULT: -5.395843043      1.701      4.984
REMARK  4 active torsions:
REMARK  status: ('A' for Active; 'I' for Inactive)
REMARK    1  A    between atoms: C2_2  and  N1_3 
REMARK    2  A    between atoms: N1_3  and  C3_4 
REMARK    3  A    between atoms: N1_3  and  C10_15 
REMARK    4  A    between atoms: C6_9  and  C7_10 
ROOT
HETATM    1  C3  UNL     1      23.999  11.713  20.494  1.00  0.00     0.673 C 
HETATM    2  N2  UNL     1      23.851  11.605  19.217  1.00  0.00    -0.226 N 
ATOM      3  H2  UNL     1      22.905  11.725  18.854  1.00  0.00     0.177 HD
HETATM    4  C4  UNL     1      24.886  11.333  18.255  1.00  0.00     0.140 C 
HETATM    5  C5  UNL     1      26.277  11.486  18.817  1.00  0.00     0.046 C 
HETATM    6  C6  UNL     1      26.227  10.771  20.176  1.00  0.00     0.104 C 
HETATM    7  N3  UNL     1      25.336  11.543  20.984  1.00  0.00    -0.221 N 
ATOM      8  H3  UNL     1      25.637  11.954  21.868  1.00  0.00     0.178 HD
ENDROOT
BRANCH   1   9
HETATM    9  N1  UNL     1      22.916  11.984  21.369  1.00  0.00    -0.201 N 
BRANCH   9  10
HETATM   10  C2  UNL     1      22.177  10.880  21.938  1.00  0.00     0.138 C 
HETATM   11  C1  UNL     1      21.249  10.224  20.959  1.00  0.00     0.027 C 
ENDBRANCH   9  10
BRANCH   9  12
HETATM   12  C10 UNL     1      22.449  13.281  21.773  1.00  0.00     0.195 C 
HETATM   13  C11 UNL     1      21.424  13.253  22.860  1.00  0.00     0.050 C 
HETATM   14 CL1  UNL     1      21.875  14.133  20.329  1.00  0.00    -0.102 Cl
ENDBRANCH   9  12
ENDBRANCH   1   9
BRANCH   6  15
HETATM   15  C7  UNL     1      27.611  10.644  20.754  1.00  0.00     0.001 C 
HETATM   16  C8  UNL     1      28.482   9.784  19.869  1.00  0.00     0.011 C 
HETATM   17  C9  UNL     1      28.277  11.949  21.007  1.00  0.00     0.011 C 
ENDBRANCH   6  15
TORSDOF 4
ENDMDL
MODEL 4
REMARK VINA RESULT: -5.390661056      2.381      5.301
REMARK  4 active torsions:
REMARK  status: ('A' for Active; 'I' for Inactive)
REMARK    1  A    between atoms: C2_2  and  N1_3 
REMARK    2  A    between atoms: N1_3  and  C3_4 
REMARK    3  A    between atoms: N1_3  and  C10_15 
REMARK    4  A    between atoms: C6_9  and  C7_10 
ROOT
HETATM    1  C3  UNL     1      24.340  11.395  20.786  1.00  0.00     0.673 C 
HETATM    2  N2  UNL     1      23.938  11.516  19.566  1.00  0.00    -0.226 N 
ATOM      3  H2  UNL     1      22.933  11.613  19.422  1.00  0.00     0.177 HD
HETATM    4  C4  UNL     1      24.766  11.526  18.389  1.00  0.00     0.140 C 
HETATM    5  C5  UNL     1      26.234  11.697  18.694  1.00  0.00     0.046 C 
HETATM    6  C6  UNL     1      26.502  10.738  19.864  1.00  0.00     0.104 C 
HETATM    7  N3  UNL     1      25.756  11.259  20.966  1.00  0.00    -0.221 N 
ATOM      8  H3  UNL     1      26.210  11.523  21.842  1.00  0.00     0.178 HD
ENDROOT
BRANCH   1   9
HETATM    9  N1  UNL     1      23.447  11.395  21.888  1.00  0.00    -0.201 N 
BRANCH   9  10
HETATM   10  C2  UNL     1      22.981  10.135  22.418  1.00  0.00     0.138 C 
HETATM   11  C1  UNL     1      22.719  10.176  23.894  1.00  0.00     0.027 C 
ENDBRANCH   9  10
BRANCH   9  12
HETATM   12  C10 UNL     1      22.930  12.551  22.568  1.00  0.00     0.195 C 
HETATM   13  C11 UNL     1      21.828  13.250  21.840  1.00  0.00     0.050 C 
HETATM   14 CL1  UNL     1      24.289  13.630  22.927  1.00  0.00    -0.102 Cl
ENDBRANCH   9  12
ENDBRANCH   1   9
BRANCH   6  15
HETATM   15  C7  UNL     1      27.979  10.633  20.129  1.00  0.00     0.001 C 
HETATM   16  C8  UNL     1      28.506  11.917  20.725  1.00  0.00     0.011 C 
HETATM   17  C9  UNL     1      28.354   9.482  20.992  1.00  0.00     0.011 C 
ENDBRANCH   6  15
TORSDOF 4
ENDMDL
MODEL 5
REMARK VINA RESULT: -5.343705817      2.604      5.574
REMARK  4 active torsions:
REMARK  status: ('A' for Active; 'I' for Inactive)
REMARK    1  A    between atoms: C2_2  and  N1_3 
REMARK    2  A    between atoms: N1_3  and  C3_4 
REMARK    3  A    between atoms: N1_3  and  C10_15 
REMARK    4  A    between atoms: C6_9  and  C7_10 
ROOT
HETATM    1  C3  UNL     1      24.321  11.309  20.642  1.00  0.00     0.673 C 
HETATM    2  N2  UNL     1      23.969  11.403  19.405  1.00  0.00    -0.226 N 
ATOM      3  H2  UNL     1      22.968  11.458  19.215  1.00  0.00     0.177 HD
HETATM    4  C4  UNL     1      24.848  11.439  18.265  1.00  0.00     0.140 C 
HETATM    5  C5  UNL     1      26.293  11.673  18.634  1.00  0.00     0.046 C 
HETATM    6  C6  UNL     1      26.547  10.735  19.825  1.00  0.00     0.104 C 
HETATM    7  N3  UNL     1      25.731  11.234  20.887  1.00  0.00    -0.221 N 
ATOM      8  H3  UNL     1      26.134  11.523  21.780  1.00  0.00     0.178 HD
ENDROOT
BRANCH   1   9
HETATM    9  N1  UNL     1      23.380  11.280  21.703  1.00  0.00    -0.201 N 
BRANCH   9  10
HETATM   10  C2  UNL     1      23.148  12.481  22.473  1.00  0.00     0.138 C 
HETATM   11  C1  UNL     1      22.197  13.433  21.810  1.00  0.00     0.027 C 
ENDBRANCH   9  10
BRANCH   9  12
HETATM   12  C10 UNL     1      22.596  10.150  22.120  1.00  0.00     0.195 C 
HETATM   13  C11 UNL     1      21.192  10.154  21.608  1.00  0.00     0.050 C 
HETATM   14 CL1  UNL     1      22.669  10.053  23.887  1.00  0.00    -0.102 Cl
ENDBRANCH   9  12
ENDBRANCH   1   9
BRANCH   6  15
HETATM   15  C7  UNL     1      28.014  10.694  20.156  1.00  0.00     0.001 C 
HETATM   16  C8  UNL     1      28.448  11.981  20.816  1.00  0.00     0.011 C 
HETATM   17  C9  UNL     1      28.406   9.534  21.000  1.00  0.00     0.011 C 
ENDBRANCH   6  15
TORSDOF 4
ENDMDL
