MODEL 1
REMARK VINA RESULT: -6.720088723      0.000      0.000
REMARK  3 active torsions:
REMARK  status: ('A' for Active; 'I' for Inactive)
REMARK    1  A    between atoms: C2_2  and  C3_3 
REMARK    2  A    between atoms: C3_3  and  C4_4 
REMARK       I    between atoms: C4_4  and  N1_6 
REMARK    3  A    between atoms: N1_6  and  N2_8 
ROOT
HETATM    1  N2  UNL     1      24.584  10.700  20.301  1.00  0.00    -0.306 N 
ATOM      2  H2  UNL     1      24.221  10.079  19.578  1.00  0.00     0.186 HD
HETATM    3  C5  UNL     1      23.811  11.625  20.745  1.00  0.00     0.008 C 
HETATM    4  C6  UNL     1      24.307  12.525  21.779  1.00  0.00     0.055 C 
HETATM    5  C7  UNL     1      23.240  13.278  22.514  1.00  0.00     0.010 C 
HETATM    6  C8  UNL     1      21.876  13.164  21.901  1.00  0.00    -0.013 C 
HETATM    7  C9  UNL     1      21.856  14.004  20.652  1.00  0.00     0.009 C 
HETATM    8  C10 UNL     1      22.146  13.045  19.545  1.00  0.00    -0.009 C 
HETATM    9  C11 UNL     1      23.150  13.507  18.549  1.00  0.00     0.011 C 
HETATM   10  C12 UNL     1      22.445  11.708  20.172  1.00  0.00     0.037 C 
HETATM   11  C13 UNL     1      21.527  11.790  21.408  1.00  0.00     0.015 C 
ENDROOT
BRANCH   1  12
HETATM   12  N1  UNL     1      25.898  10.492  20.749  1.00  0.00    -0.270 N 
HETATM   13  C4  UNL     1      26.963  10.766  19.869  1.00  0.00     0.235 C 
HETATM   14  O1  UNL     1      26.734  11.186  18.712  1.00  0.00    -0.272 OA
ATOM     15  H1  UNL     1      26.078  10.150  21.693  1.00  0.00     0.190 HD
BRANCH  13  16
HETATM   16  C3  UNL     1      28.351  10.550  20.331  1.00  0.00     0.104 C 
BRANCH  16  17
HETATM   17  C2  UNL     1      28.488   9.402  21.282  1.00  0.00     0.005 C 
HETATM   18  C1  UNL     1      29.406   9.798  22.409  1.00  0.00     0.005 C 
ENDBRANCH  16  17
ENDBRANCH  13  16
ENDBRANCH   1  12
TORSDOF 3
ENDMDL
MODEL 2
REMARK VINA RESULT: -6.607398462      1.102      2.110
REMARK  3 active torsions:
REMARK  status: ('A' for Active; 'I' for Inactive)
REMARK    1  A    between atoms: C2_2  and  C3_3 
REMARK    2  A    between atoms: C3_3  and  C4_4 
REMARK       I    between atoms: C4_4  and  N1_6 
REMARK    3  A    between atoms: N1_6  and  N2_8 
ROOT
HETATM    1  N2  UNL     1      25.208  12.171  20.749  1.00  0.00    -0.306 N 
ATOM      2  H2  UNL     1      25.363  13.137  20.460  1.00  0.00     0.186 HD
HETATM    3  C5  UNL     1      24.002  11.802  20.990  1.00  0.00     0.008 C 
HETATM    4  C6  UNL     1      23.753  10.426  21.405  1.00  0.00     0.055 C 
HETATM    5  C7  UNL     1      22.330   9.980  21.262  1.00  0.00     0.010 C 
HETATM    6  C8  UNL     1      21.368  11.088  20.953  1.00  0.00    -0.013 C 
HETATM    7  C9  UNL     1      21.173  11.898  22.208  1.00  0.00     0.009 C 
HETATM    8  C10 UNL     1      22.125  13.041  22.073  1.00  0.00    -0.009 C 
HETATM    9  C11 UNL     1      22.930  13.344  23.287  1.00  0.00     0.011 C 
HETATM   10  C12 UNL     1      22.929  12.813  20.820  1.00  0.00     0.037 C 
HETATM   11  C13 UNL     1      21.872  12.093  19.960  1.00  0.00     0.015 C 
ENDROOT
BRANCH   1  12
HETATM   12  N1  UNL     1      26.325  11.328  20.859  1.00  0.00    -0.270 N 
HETATM   13  C4  UNL     1      27.021  10.973  19.688  1.00  0.00     0.235 C 
HETATM   14  O1  UNL     1      26.645  11.404  18.574  1.00  0.00    -0.272 OA
ATOM     15  H1  UNL     1      26.627  10.979  21.769  1.00  0.00     0.190 HD
BRANCH  13  16
HETATM   16  C3  UNL     1      28.198  10.085  19.792  1.00  0.00     0.104 C 
BRANCH  16  17
HETATM   17  C2  UNL     1      28.707   9.936  21.193  1.00  0.00     0.005 C 
HETATM   18  C1  UNL     1      29.780  10.962  21.444  1.00  0.00     0.005 C 
ENDBRANCH  16  17
ENDBRANCH  13  16
ENDBRANCH   1  12
TORSDOF 3
ENDMDL
MODEL 3
REMARK VINA RESULT: -6.375562128      5.248      7.263
REMARK  3 active torsions:
REMARK  status: ('A' for Active; 'I' for Inactive)
REMARK    1  A    between atoms: C2_2  and  C3_3 
REMARK    2  A    between atoms: C3_3  and  C4_4 
REMARK       I    between atoms: C4_4  and  N1_6 
REMARK    3  A    between atoms: N1_6  and  N2_8 
ROOT
HETATM    1  N2  UNL     1      22.576  12.110  25.699  1.00  0.00    -0.306 N 
ATOM      2  H2  UNL     1      23.523  12.478  25.614  1.00  0.00     0.186 HD
HETATM    3  C5  UNL     1      22.047  11.561  24.666  1.00  0.00     0.008 C 
HETATM    4  C6  UNL     1      20.694  11.028  24.763  1.00  0.00     0.055 C 
HETATM    5  C7  UNL     1      20.324  10.064  23.677  1.00  0.00     0.010 C 
HETATM    6  C8  UNL     1      21.312  10.002  22.550  1.00  0.00    -0.013 C 
HETATM    7  C9  UNL     1      21.162  11.256  21.731  1.00  0.00     0.009 C 
HETATM    8  C10 UNL     1      22.214  12.179  22.253  1.00  0.00    -0.009 C 
HETATM    9  C11 UNL     1      21.766  13.575  22.505  1.00  0.00     0.011 C 
HETATM   10  C12 UNL     1      22.865  11.500  23.429  1.00  0.00     0.037 C 
HETATM   11  C13 UNL     1      22.750  10.031  22.979  1.00  0.00     0.015 C 
ENDROOT
BRANCH   1  12
HETATM   12  N1  UNL     1      21.930  12.236  26.940  1.00  0.00    -0.270 N 
HETATM   13  C4  UNL     1      22.292  13.303  27.784  1.00  0.00     0.235 C 
HETATM   14  O1  UNL     1      23.173  14.118  27.430  1.00  0.00    -0.272 OA
ATOM     15  H1  UNL     1      21.212  11.568  27.223  1.00  0.00     0.190 HD
BRANCH  13  16
HETATM   16  C3  UNL     1      21.618  13.444  29.092  1.00  0.00     0.104 C 
BRANCH  16  17
HETATM   17  C2  UNL     1      20.463  12.507  29.270  1.00  0.00     0.005 C 
HETATM   18  C1  UNL     1      19.743  12.844  30.549  1.00  0.00     0.005 C 
ENDBRANCH  16  17
ENDBRANCH  13  16
ENDBRANCH   1  12
TORSDOF 3
ENDMDL
MODEL 4
REMARK VINA RESULT: -6.266305686      2.361      3.482
REMARK  3 active torsions:
REMARK  status: ('A' for Active; 'I' for Inactive)
REMARK    1  A    between atoms: C2_2  and  C3_3 
REMARK    2  A    between atoms: C3_3  and  C4_4 
REMARK       I    between atoms: C4_4  and  N1_6 
REMARK    3  A    between atoms: N1_6  and  N2_8 
ROOT
HETATM    1  N2  UNL     1      22.201  10.640  20.682  1.00  0.00    -0.306 N 
ATOM      2  H2  UNL     1      21.426  10.933  20.088  1.00  0.00     0.186 HD
HETATM    3  C5  UNL     1      22.021  10.642  21.954  1.00  0.00     0.008 C 
HETATM    4  C6  UNL     1      23.115  10.227  22.823  1.00  0.00     0.055 C 
HETATM    5  C7  UNL     1      22.701   9.867  24.218  1.00  0.00     0.010 C 
HETATM    6  C8  UNL     1      21.283  10.227  24.548  1.00  0.00    -0.013 C 
HETATM    7  C9  UNL     1      21.211  11.721  24.723  1.00  0.00     0.009 C 
HETATM    8  C10 UNL     1      20.756  12.237  23.398  1.00  0.00    -0.009 C 
HETATM    9  C11 UNL     1      21.508  13.413  22.881  1.00  0.00     0.011 C 
HETATM   10  C12 UNL     1      20.690  11.064  22.455  1.00  0.00     0.037 C 
HETATM   11  C13 UNL     1      20.298   9.954  23.450  1.00  0.00     0.015 C 
ENDROOT
BRANCH   1  12
HETATM   12  N1  UNL     1      23.401  10.260  20.059  1.00  0.00    -0.270 N 
HETATM   13  C4  UNL     1      24.042  11.183  19.209  1.00  0.00     0.235 C 
HETATM   14  O1  UNL     1      23.545  12.316  19.018  1.00  0.00    -0.272 OA
ATOM     15  H1  UNL     1      23.801   9.336  20.219  1.00  0.00     0.190 HD
BRANCH  13  16
HETATM   16  C3  UNL     1      25.305  10.793  18.548  1.00  0.00     0.104 C 
BRANCH  16  17
HETATM   17  C2  UNL     1      26.504  11.507  19.092  1.00  0.00     0.005 C 
HETATM   18  C1  UNL     1      27.493  10.495  19.608  1.00  0.00     0.005 C 
ENDBRANCH  16  17
ENDBRANCH  13  16
ENDBRANCH   1  12
TORSDOF 3
ENDMDL
MODEL 5
REMARK VINA RESULT: -6.263728720      1.274      2.456
REMARK  3 active torsions:
REMARK  status: ('A' for Active; 'I' for Inactive)
REMARK    1  A    between atoms: C2_2  and  C3_3 
REMARK    2  A    between atoms: C3_3  and  C4_4 
REMARK       I    between atoms: C4_4  and  N1_6 
REMARK    3  A    between atoms: N1_6  and  N2_8 
ROOT
HETATM    1  N2  UNL     1      25.418  12.051  21.242  1.00  0.00    -0.306 N 
ATOM      2  H2  UNL     1      25.431  12.488  22.163  1.00  0.00     0.186 HD
HETATM    3  C5  UNL     1      24.634  12.545  20.352  1.00  0.00     0.008 C 
HETATM    4  C6  UNL     1      24.598  11.937  19.027  1.00  0.00     0.055 C 
HETATM    5  C7  UNL     1      23.993  12.801  17.963  1.00  0.00     0.010 C 
HETATM    6  C8  UNL     1      23.312  14.031  18.484  1.00  0.00    -0.013 C 
HETATM    7  C9  UNL     1      22.017  13.610  19.125  1.00  0.00     0.009 C 
HETATM    8  C10 UNL     1      22.335  13.489  20.579  1.00  0.00    -0.009 C 
HETATM    9  C11 UNL     1      21.818  12.261  21.242  1.00  0.00     0.011 C 
HETATM   10  C12 UNL     1      23.814  13.720  20.738  1.00  0.00     0.037 C 
HETATM   11  C13 UNL     1      24.045  14.726  19.594  1.00  0.00     0.015 C 
ENDROOT
BRANCH   1  12
HETATM   12  N1  UNL     1      26.258  10.947  21.024  1.00  0.00    -0.270 N 
HETATM   13  C4  UNL     1      27.597  11.180  20.657  1.00  0.00     0.235 C 
HETATM   14  O1  UNL     1      28.023  12.350  20.529  1.00  0.00    -0.272 OA
ATOM     15  H1  UNL     1      25.905   9.996  21.131  1.00  0.00     0.190 HD
BRANCH  13  16
HETATM   16  C3  UNL     1      28.490  10.025  20.425  1.00  0.00     0.104 C 
BRANCH  16  17
HETATM   17  C2  UNL     1      28.663   9.156  21.633  1.00  0.00     0.005 C 
HETATM   18  C1  UNL     1      29.519   9.876  22.642  1.00  0.00     0.005 C 
ENDBRANCH  16  17
ENDBRANCH  13  16
ENDBRANCH   1  12
TORSDOF 3
ENDMDL
