MODEL 1
REMARK VINA RESULT: -5.628969791      0.000      0.000
REMARK  4 active torsions:
REMARK  status: ('A' for Active; 'I' for Inactive)
REMARK    1  A    between atoms: C2_2  and  C3_3 
REMARK    2  A    between atoms: C2_2  and  C9_12 
REMARK    3  A    between atoms: C3_3  and  N1_5 
REMARK    4  A    between atoms: N1_5  and  C4_7 
ROOT
HETATM    1  C3  UNL     1      23.163  11.416  21.911  1.00  0.00     0.082 C 
HETATM    2  S1  UNL     1      23.257  12.201  23.395  1.00  0.00    -0.065 SA
ENDROOT
BRANCH   1   3
HETATM    3  C2  UNL     1      21.871  11.562  21.247  1.00  0.00     0.077 C 
HETATM    4  C1  UNL     1      21.290  10.366  20.587  1.00  0.00     0.022 C 
BRANCH   3   5
HETATM    5  C9  UNL     1      21.893  12.785  20.384  1.00  0.00    -0.024 A 
HETATM    6  C10 UNL     1      21.890  12.793  18.987  1.00  0.00     0.034 A 
HETATM    7  C11 UNL     1      21.918  14.101  18.546  1.00  0.00     0.142 A 
HETATM    8  O1  UNL     1      21.937  14.853  19.606  1.00  0.00    -0.334 OA
HETATM    9  C12 UNL     1      21.923  14.114  20.713  1.00  0.00     0.149 A 
ENDBRANCH   3   5
ENDBRANCH   1   3
BRANCH   1  10
HETATM   10  N1  UNL     1      24.320  10.753  21.524  1.00  0.00    -0.379 N 
ATOM     11  H1  UNL     1      24.530   9.892  22.029  1.00  0.00     0.160 HD
BRANCH  10  12
HETATM   12  C4  UNL     1      25.248  11.124  20.515  1.00  0.00     0.082 C 
HETATM   13  C5  UNL     1      25.372  12.614  20.303  1.00  0.00     0.025 C 
HETATM   14  C6  UNL     1      26.338  12.597  19.105  1.00  0.00     0.002 C 
HETATM   15  C7  UNL     1      25.742  11.499  18.248  1.00  0.00     0.002 C 
HETATM   16  C8  UNL     1      24.772  10.722  19.112  1.00  0.00     0.025 C 
ENDBRANCH  10  12
ENDBRANCH   1  10
TORSDOF 4
ENDMDL
MODEL 2
REMARK VINA RESULT: -5.593965841      1.690      3.709
REMARK  4 active torsions:
REMARK  status: ('A' for Active; 'I' for Inactive)
REMARK    1  A    between atoms: C2_2  and  C3_3 
REMARK    2  A    between atoms: C2_2  and  C9_12 
REMARK    3  A    between atoms: C3_3  and  N1_5 
REMARK    4  A    between atoms: N1_5  and  C4_7 
ROOT
HETATM    1  C3  UNL     1      24.592  11.591  20.827  1.00  0.00     0.082 C 
HETATM    2  S1  UNL     1      26.020  12.478  20.857  1.00  0.00    -0.065 SA
ENDROOT
BRANCH   1   3
HETATM    3  C2  UNL     1      24.069  11.359  19.484  1.00  0.00     0.077 C 
HETATM    4  C1  UNL     1      24.995  10.803  18.465  1.00  0.00     0.022 C 
BRANCH   3   5
HETATM    5  C9  UNL     1      23.319  12.573  19.029  1.00  0.00    -0.024 A 
HETATM    6  C10 UNL     1      21.935  12.749  19.110  1.00  0.00     0.034 A 
HETATM    7  C11 UNL     1      21.611  13.987  18.593  1.00  0.00     0.142 A 
HETATM    8  O1  UNL     1      22.725  14.540  18.216  1.00  0.00    -0.334 OA
HETATM    9  C12 UNL     1      23.759  13.736  18.458  1.00  0.00     0.149 A 
ENDBRANCH   3   5
ENDBRANCH   1   3
BRANCH   1  10
HETATM   10  N1  UNL     1      24.121  11.198  22.073  1.00  0.00    -0.379 N 
ATOM     11  H1  UNL     1      24.659  10.471  22.544  1.00  0.00     0.160 HD
BRANCH  10  12
HETATM   12  C4  UNL     1      22.983  11.680  22.773  1.00  0.00     0.082 C 
HETATM   13  C5  UNL     1      21.668  11.129  22.276  1.00  0.00     0.025 C 
HETATM   14  C6  UNL     1      20.722  11.947  23.172  1.00  0.00     0.002 C 
HETATM   15  C7  UNL     1      21.337  13.329  23.083  1.00  0.00     0.002 C 
HETATM   16  C8  UNL     1      22.730  13.173  22.512  1.00  0.00     0.025 C 
ENDBRANCH  10  12
ENDBRANCH   1  10
TORSDOF 4
ENDMDL
MODEL 3
REMARK VINA RESULT: -5.511589463      2.532      3.192
REMARK  4 active torsions:
REMARK  status: ('A' for Active; 'I' for Inactive)
REMARK    1  A    between atoms: C2_2  and  C3_3 
REMARK    2  A    between atoms: C2_2  and  C9_12 
REMARK    3  A    between atoms: C3_3  and  N1_5 
REMARK    4  A    between atoms: N1_5  and  C4_7 
ROOT
HETATM    1  C3  UNL     1      22.337  11.263  21.594  1.00  0.00     0.082 C 
HETATM    2  S1  UNL     1      21.161  10.088  21.342  1.00  0.00    -0.065 SA
ENDROOT
BRANCH   1   3
HETATM    3  C2  UNL     1      21.805  12.620  21.685  1.00  0.00     0.077 C 
HETATM    4  C1  UNL     1      22.286  13.623  20.702  1.00  0.00     0.022 C 
BRANCH   3   5
HETATM    5  C9  UNL     1      21.868  13.080  23.109  1.00  0.00    -0.024 A 
HETATM    6  C10 UNL     1      20.769  13.283  23.947  1.00  0.00     0.034 A 
HETATM    7  C11 UNL     1      21.218  13.709  25.180  1.00  0.00     0.142 A 
HETATM    8  O1  UNL     1      22.514  13.766  25.108  1.00  0.00    -0.334 OA
HETATM    9  C12 UNL     1      22.939  13.402  23.900  1.00  0.00     0.149 A 
ENDBRANCH   3   5
ENDBRANCH   1   3
BRANCH   1  10
HETATM   10  N1  UNL     1      23.636  10.781  21.688  1.00  0.00    -0.379 N 
ATOM     11  H1  UNL     1      23.923  10.453  22.609  1.00  0.00     0.160 HD
BRANCH  10  12
HETATM   12  C4  UNL     1      24.614  10.688  20.662  1.00  0.00     0.082 C 
HETATM   13  C5  UNL     1      25.563  11.862  20.602  1.00  0.00     0.025 C 
HETATM   14  C6  UNL     1      26.354  11.454  19.346  1.00  0.00     0.002 C 
HETATM   15  C7  UNL     1      25.242  11.004  18.420  1.00  0.00     0.002 C 
HETATM   16  C8  UNL     1      23.999  10.807  19.260  1.00  0.00     0.025 C 
ENDBRANCH  10  12
ENDBRANCH   1  10
TORSDOF 4
ENDMDL
MODEL 4
REMARK VINA RESULT: -5.500071993      1.876      3.851
REMARK  4 active torsions:
REMARK  status: ('A' for Active; 'I' for Inactive)
REMARK    1  A    between atoms: C2_2  and  C3_3 
REMARK    2  A    between atoms: C2_2  and  C9_12 
REMARK    3  A    between atoms: C3_3  and  N1_5 
REMARK    4  A    between atoms: N1_5  and  C4_7 
ROOT
HETATM    1  C3  UNL     1      23.916  10.911  20.879  1.00  0.00     0.082 C 
HETATM    2  S1  UNL     1      24.114   9.269  21.184  1.00  0.00    -0.065 SA
ENDROOT
BRANCH   1   3
HETATM    3  C2  UNL     1      23.792  11.237  19.461  1.00  0.00     0.077 C 
HETATM    4  C1  UNL     1      24.926  10.889  18.567  1.00  0.00     0.022 C 
BRANCH   3   5
HETATM    5  C9  UNL     1      23.312  12.647  19.317  1.00  0.00    -0.024 A 
HETATM    6  C10 UNL     1      21.976  13.044  19.211  1.00  0.00     0.034 A 
HETATM    7  C11 UNL     1      21.925  14.417  19.092  1.00  0.00     0.142 A 
HETATM    8  O1  UNL     1      23.152  14.843  19.122  1.00  0.00    -0.334 OA
HETATM    9  C12 UNL     1      24.003  13.827  19.255  1.00  0.00     0.149 A 
ENDBRANCH   3   5
ENDBRANCH   1   3
BRANCH   1  10
HETATM   10  N1  UNL     1      23.887  11.717  22.009  1.00  0.00    -0.379 N 
ATOM     11  H1  UNL     1      24.758  12.195  22.237  1.00  0.00     0.160 HD
BRANCH  10  12
HETATM   12  C4  UNL     1      22.796  11.961  22.886  1.00  0.00     0.082 C 
HETATM   13  C5  UNL     1      21.496  11.327  22.450  1.00  0.00     0.025 C 
HETATM   14  C6  UNL     1      20.582  11.897  23.549  1.00  0.00     0.002 C 
HETATM   15  C7  UNL     1      21.036  13.342  23.603  1.00  0.00     0.002 C 
HETATM   16  C8  UNL     1      22.359  13.433  22.875  1.00  0.00     0.025 C 
ENDBRANCH  10  12
ENDBRANCH   1  10
TORSDOF 4
ENDMDL
MODEL 5
REMARK VINA RESULT: -5.418334304      2.054      2.632
REMARK  4 active torsions:
REMARK  status: ('A' for Active; 'I' for Inactive)
REMARK    1  A    between atoms: C2_2  and  C3_3 
REMARK    2  A    between atoms: C2_2  and  C9_12 
REMARK    3  A    between atoms: C3_3  and  N1_5 
REMARK    4  A    between atoms: N1_5  and  C4_7 
ROOT
HETATM    1  C3  UNL     1      23.499  12.462  22.391  1.00  0.00     0.082 C 
HETATM    2  S1  UNL     1      24.103  13.397  23.650  1.00  0.00    -0.065 SA
ENDROOT
BRANCH   1   3
HETATM    3  C2  UNL     1      22.086  12.697  22.107  1.00  0.00     0.077 C 
HETATM    4  C1  UNL     1      21.264  13.346  23.160  1.00  0.00     0.022 C 
BRANCH   3   5
HETATM    5  C9  UNL     1      21.480  11.450  21.542  1.00  0.00    -0.024 A 
HETATM    6  C10 UNL     1      21.448  11.103  20.189  1.00  0.00     0.034 A 
HETATM    7  C11 UNL     1      20.808   9.889  20.052  1.00  0.00     0.142 A 
HETATM    8  O1  UNL     1      20.466   9.509  21.247  1.00  0.00    -0.334 OA
HETATM    9  C12 UNL     1      20.846  10.404  22.157  1.00  0.00     0.149 A 
ENDBRANCH   3   5
ENDBRANCH   1   3
BRANCH   1  10
HETATM   10  N1  UNL     1      24.422  11.612  21.796  1.00  0.00    -0.379 N 
ATOM     11  H1  UNL     1      24.573  10.720  22.266  1.00  0.00     0.160 HD
BRANCH  10  12
HETATM   12  C4  UNL     1      25.183  11.830  20.617  1.00  0.00     0.082 C 
HETATM   13  C5  UNL     1      24.720  13.004  19.788  1.00  0.00     0.025 C 
HETATM   14  C6  UNL     1      25.680  12.838  18.597  1.00  0.00     0.002 C 
HETATM   15  C7  UNL     1      25.613  11.343  18.359  1.00  0.00     0.002 C 
HETATM   16  C8  UNL     1      24.982  10.714  19.582  1.00  0.00     0.025 C 
ENDBRANCH  10  12
ENDBRANCH   1  10
TORSDOF 4
ENDMDL
