MODEL 1
REMARK VINA RESULT: -4.075305576      0.000      0.000
REMARK  5 active torsions:
REMARK  status: ('A' for Active; 'I' for Inactive)
REMARK    1  A    between atoms: C2_2  and  N1_4 
REMARK    2  A    between atoms: C2_2  and  C4_8 
REMARK    3  A    between atoms: C4_8  and  N2_9 
REMARK    4  A    between atoms: C4_8  and  N3_13 
REMARK    5  A    between atoms: N3_13  and  N4_14 
REMARK       I    between atoms: N4_14  and  C5_16 
ROOT
HETATM    1  C4  UNL     1      18.947  15.529  53.296  1.00  0.00     0.330 C 
ENDROOT
BRANCH   1   2
HETATM    2  C2  UNL     1      19.956  15.246  52.229  1.00  0.00     0.160 C 
HETATM    3  C1  UNL     1      21.214  16.046  52.376  1.00  0.00     0.049 C 
HETATM    4  C3  UNL     1      19.327  15.453  50.880  1.00  0.00     0.049 C 
BRANCH   2   5
HETATM    5  N1  UNL     1      20.376  13.841  52.254  1.00  0.00    -0.068 N 
ATOM      6  H13 UNL     1      20.764  13.514  51.370  1.00  0.00     0.275 HD
ATOM      7  H12 UNL     1      21.207  13.673  52.821  1.00  0.00     0.275 HD
ATOM      8  H11 UNL     1      19.558  13.315  52.560  1.00  0.00     0.275 HD
ENDBRANCH   2   5
ENDBRANCH   1   2
BRANCH   1   9
HETATM    9  N2  UNL     1      17.635  15.843  52.712  1.00  0.00    -0.057 N 
ATOM     10  H23 UNL     1      17.667  15.839  51.693  1.00  0.00     0.276 HD
ATOM     11  H22 UNL     1      16.970  15.081  52.851  1.00  0.00     0.276 HD
ATOM     12  H21 UNL     1      17.274  16.726  53.074  1.00  0.00     0.276 HD
ENDBRANCH   1   9
BRANCH   1  13
HETATM   13  N3  UNL     1      18.727  14.324  54.136  1.00  0.00    -0.102 NA
BRANCH  13  14
HETATM   14  N4  UNL     1      18.578  14.813  55.446  1.00  0.00    -0.256 N 
HETATM   15  C5  UNL     1      17.361  14.537  56.150  1.00  0.00     0.344 C 
HETATM   16  N5  UNL     1      17.166  15.011  57.485  1.00  0.00    -0.039 NA
HETATM   17  O1  UNL     1      16.427  13.879  55.645  1.00  0.00    -0.250 OA
ATOM     18  H4  UNL     1      19.323  15.354  55.887  1.00  0.00     0.186 HD
ENDBRANCH  13  14
ENDBRANCH   1  13
TORSDOF 5
ENDMDL
MODEL 2
REMARK VINA RESULT: -3.973750784      1.553      1.836
REMARK  5 active torsions:
REMARK  status: ('A' for Active; 'I' for Inactive)
REMARK    1  A    between atoms: C2_2  and  N1_4 
REMARK    2  A    between atoms: C2_2  and  C4_8 
REMARK    3  A    between atoms: C4_8  and  N2_9 
REMARK    4  A    between atoms: C4_8  and  N3_13 
REMARK    5  A    between atoms: N3_13  and  N4_14 
REMARK       I    between atoms: N4_14  and  C5_16 
ROOT
HETATM    1  C4  UNL     1      18.091  15.036  53.860  1.00  0.00     0.330 C 
ENDROOT
BRANCH   1   2
HETATM    2  C2  UNL     1      19.167  15.390  52.882  1.00  0.00     0.160 C 
HETATM    3  C1  UNL     1      20.166  16.364  53.427  1.00  0.00     0.049 C 
HETATM    4  C3  UNL     1      18.541  15.898  51.613  1.00  0.00     0.049 C 
BRANCH   2   5
HETATM    5  N1  UNL     1      19.939  14.207  52.491  1.00  0.00    -0.068 N 
ATOM      6  H13 UNL     1      20.469  14.331  51.628  1.00  0.00     0.275 HD
ATOM      7  H12 UNL     1      20.737  14.021  53.098  1.00  0.00     0.275 HD
ATOM      8  H11 UNL     1      19.268  13.441  52.451  1.00  0.00     0.275 HD
ENDBRANCH   2   5
ENDBRANCH   1   2
BRANCH   1   9
HETATM    9  N2  UNL     1      18.553  14.010  54.805  1.00  0.00    -0.057 N 
ATOM     10  H23 UNL     1      19.569  13.918  54.793  1.00  0.00     0.276 HD
ATOM     11  H22 UNL     1      18.435  14.310  55.773  1.00  0.00     0.276 HD
ATOM     12  H21 UNL     1      18.092  13.116  54.630  1.00  0.00     0.276 HD
ENDBRANCH   1   9
BRANCH   1  13
HETATM   13  N3  UNL     1      17.741  16.212  54.695  1.00  0.00    -0.102 NA
BRANCH  13  14
HETATM   14  N4  UNL     1      17.777  15.744  56.020  1.00  0.00    -0.256 N 
HETATM   15  C5  UNL     1      16.746  16.159  56.926  1.00  0.00     0.344 C 
HETATM   16  N5  UNL     1      16.741  15.707  58.282  1.00  0.00    -0.039 NA
HETATM   17  O1  UNL     1      15.818  16.921  56.583  1.00  0.00    -0.250 OA
ATOM     18  H4  UNL     1      18.522  15.120  56.331  1.00  0.00     0.186 HD
ENDBRANCH  13  14
ENDBRANCH   1  13
TORSDOF 5
ENDMDL
MODEL 3
REMARK VINA RESULT: -3.958966256      4.040      6.058
REMARK  5 active torsions:
REMARK  status: ('A' for Active; 'I' for Inactive)
REMARK    1  A    between atoms: C2_2  and  N1_4 
REMARK    2  A    between atoms: C2_2  and  C4_8 
REMARK    3  A    between atoms: C4_8  and  N2_9 
REMARK    4  A    between atoms: C4_8  and  N3_13 
REMARK    5  A    between atoms: N3_13  and  N4_14 
REMARK       I    between atoms: N4_14  and  C5_16 
ROOT
HETATM    1  C4  UNL     1      17.671  17.364  57.895  1.00  0.00     0.330 C 
ENDROOT
BRANCH   1   2
HETATM    2  C2  UNL     1      17.226  18.595  58.619  1.00  0.00     0.160 C 
HETATM    3  C1  UNL     1      16.118  19.325  57.922  1.00  0.00     0.049 C 
HETATM    4  C3  UNL     1      18.410  19.491  58.855  1.00  0.00     0.049 C 
BRANCH   2   5
HETATM    5  N1  UNL     1      16.709  18.270  59.952  1.00  0.00    -0.068 N 
ATOM      6  H13 UNL     1      16.060  17.484  59.959  1.00  0.00     0.275 HD
ATOM      7  H12 UNL     1      17.407  17.857  60.570  1.00  0.00     0.275 HD
ATOM      8  H11 UNL     1      16.306  19.136  60.309  1.00  0.00     0.275 HD
ENDBRANCH   2   5
ENDBRANCH   1   2
BRANCH   1   9
HETATM    9  N2  UNL     1      19.125  17.181  58.010  1.00  0.00    -0.057 N 
ATOM     10  H23 UNL     1      19.375  16.194  58.075  1.00  0.00     0.276 HD
ATOM     11  H22 UNL     1      19.601  17.405  57.136  1.00  0.00     0.276 HD
ATOM     12  H21 UNL     1      19.501  17.717  58.792  1.00  0.00     0.276 HD
ENDBRANCH   1   9
BRANCH   1  13
HETATM   13  N3  UNL     1      17.071  16.154  58.511  1.00  0.00    -0.102 NA
BRANCH  13  14
HETATM   14  N4  UNL     1      16.402  15.502  57.461  1.00  0.00    -0.256 N 
HETATM   15  C5  UNL     1      17.125  14.547  56.672  1.00  0.00     0.344 C 
HETATM   16  N5  UNL     1      16.486  13.858  55.595  1.00  0.00    -0.039 NA
HETATM   17  O1  UNL     1      18.325  14.275  56.882  1.00  0.00    -0.250 OA
ATOM     18  H4  UNL     1      15.422  15.703  57.264  1.00  0.00     0.186 HD
ENDBRANCH  13  14
ENDBRANCH   1  13
TORSDOF 5
ENDMDL
MODEL 4
REMARK VINA RESULT: -3.939808354      3.287      5.384
REMARK  5 active torsions:
REMARK  status: ('A' for Active; 'I' for Inactive)
REMARK    1  A    between atoms: C2_2  and  N1_4 
REMARK    2  A    between atoms: C2_2  and  C4_8 
REMARK    3  A    between atoms: C4_8  and  N2_9 
REMARK    4  A    between atoms: C4_8  and  N3_13 
REMARK    5  A    between atoms: N3_13  and  N4_14 
REMARK       I    between atoms: N4_14  and  C5_16 
ROOT
HETATM    1  C4  UNL     1      18.454  17.526  57.176  1.00  0.00     0.330 C 
ENDROOT
BRANCH   1   2
HETATM    2  C2  UNL     1      17.111  17.738  57.800  1.00  0.00     0.160 C 
HETATM    3  C1  UNL     1      15.987  17.714  56.810  1.00  0.00     0.049 C 
HETATM    4  C3  UNL     1      17.123  19.019  58.587  1.00  0.00     0.049 C 
BRANCH   2   5
HETATM    5  N1  UNL     1      16.805  16.684  58.772  1.00  0.00    -0.068 N 
ATOM      6  H13 UNL     1      16.871  15.742  58.389  1.00  0.00     0.275 HD
ATOM      7  H12 UNL     1      17.519  16.573  59.492  1.00  0.00     0.275 HD
ATOM      8  H11 UNL     1      15.882  16.911  59.143  1.00  0.00     0.275 HD
ENDBRANCH   2   5
ENDBRANCH   1   2
BRANCH   1   9
HETATM    9  N2  UNL     1      19.417  18.536  57.639  1.00  0.00    -0.057 N 
ATOM     10  H23 UNL     1      18.982  19.455  57.730  1.00  0.00     0.276 HD
ATOM     11  H22 UNL     1      19.676  18.388  58.614  1.00  0.00     0.276 HD
ATOM     12  H21 UNL     1      20.236  18.566  57.032  1.00  0.00     0.276 HD
ENDBRANCH   1   9
BRANCH   1  13
HETATM   13  N3  UNL     1      19.021  16.220  57.595  1.00  0.00    -0.102 NA
BRANCH  13  14
HETATM   14  N4  UNL     1      19.117  15.466  56.413  1.00  0.00    -0.256 N 
HETATM   15  C5  UNL     1      18.130  14.458  56.156  1.00  0.00     0.344 C 
HETATM   16  N5  UNL     1      18.186  13.668  54.965  1.00  0.00    -0.039 NA
HETATM   17  O1  UNL     1      17.189  14.225  56.943  1.00  0.00    -0.250 OA
ATOM     18  H4  UNL     1      19.874  15.633  55.749  1.00  0.00     0.186 HD
ENDBRANCH  13  14
ENDBRANCH   1  13
TORSDOF 5
ENDMDL
MODEL 5
REMARK VINA RESULT: -3.844007895      3.102      4.876
REMARK  5 active torsions:
REMARK  status: ('A' for Active; 'I' for Inactive)
REMARK    1  A    between atoms: C2_2  and  N1_4 
REMARK    2  A    between atoms: C2_2  and  C4_8 
REMARK    3  A    between atoms: C4_8  and  N2_9 
REMARK    4  A    between atoms: C4_8  and  N3_13 
REMARK    5  A    between atoms: N3_13  and  N4_14 
REMARK       I    between atoms: N4_14  and  C5_16 
ROOT
HETATM    1  C4  UNL     1      17.379  16.621  57.632  1.00  0.00     0.330 C 
ENDROOT
BRANCH   1   2
HETATM    2  C2  UNL     1      17.714  17.873  56.886  1.00  0.00     0.160 C 
HETATM    3  C1  UNL     1      19.126  17.906  56.385  1.00  0.00     0.049 C 
HETATM    4  C3  UNL     1      17.411  19.065  57.750  1.00  0.00     0.049 C 
BRANCH   2   5
HETATM    5  N1  UNL     1      16.869  18.026  55.697  1.00  0.00    -0.068 N 
ATOM      6  H13 UNL     1      15.882  18.162  55.912  1.00  0.00     0.275 HD
ATOM      7  H12 UNL     1      17.009  18.910  55.207  1.00  0.00     0.275 HD
ATOM      8  H11 UNL     1      17.053  17.205  55.121  1.00  0.00     0.275 HD
ENDBRANCH   2   5
ENDBRANCH   1   2
BRANCH   1   9
HETATM    9  N2  UNL     1      16.736  16.928  58.917  1.00  0.00    -0.057 N 
ATOM     10  H23 UNL     1      17.373  17.415  59.549  1.00  0.00     0.276 HD
ATOM     11  H22 UNL     1      16.028  17.655  58.819  1.00  0.00     0.276 HD
ATOM     12  H21 UNL     1      16.353  16.085  59.345  1.00  0.00     0.276 HD
ENDBRANCH   1   9
BRANCH   1  13
HETATM   13  N3  UNL     1      16.386  15.816  56.876  1.00  0.00    -0.102 NA
BRANCH  13  14
HETATM   14  N4  UNL     1      17.040  14.606  56.587  1.00  0.00    -0.256 N 
HETATM   15  C5  UNL     1      17.597  14.420  55.279  1.00  0.00     0.344 C 
HETATM   16  N5  UNL     1      18.273  13.206  54.939  1.00  0.00    -0.039 NA
HETATM   17  O1  UNL     1      17.523  15.291  54.388  1.00  0.00    -0.250 OA
ATOM     18  H4  UNL     1      17.116  13.874  57.293  1.00  0.00     0.186 HD
ENDBRANCH  13  14
ENDBRANCH   1  13
TORSDOF 5
ENDMDL
