MODEL 1
REMARK VINA RESULT: -4.348422515      0.000      0.000
REMARK  3 active torsions:
REMARK  status: ('A' for Active; 'I' for Inactive)
REMARK    1  A    between atoms: C2_2  and  N1_3 
REMARK    2  A    between atoms: C2_2  and  C3_7 
REMARK       I    between atoms: C3_7  and  N2_9 
REMARK    3  A    between atoms: N2_9  and  N3_11 
ROOT
HETATM    1  C3  UNL     1      18.615  15.230  52.939  1.00  0.00     0.266 C 
HETATM    2  O1  UNL     1      17.582  15.934  52.813  1.00  0.00    -0.269 OA
HETATM    3  N2  UNL     1      18.756  14.346  54.043  1.00  0.00    -0.266 N 
ATOM      4  H2  UNL     1      19.605  13.786  54.122  1.00  0.00     0.190 HD
ENDROOT
BRANCH   1   5
HETATM    5  C2  UNL     1      19.660  15.363  51.900  1.00  0.00     0.272 C 
HETATM    6  C1  UNL     1      18.988  15.424  50.524  1.00  0.00     0.050 C 
BRANCH   5   7
HETATM    7  N1  UNL     1      20.531  14.225  51.887  1.00  0.00    -0.067 N 
ATOM      8  H13 UNL     1      20.840  13.945  52.816  1.00  0.00     0.275 HD
ATOM      9  H12 UNL     1      20.054  13.358  51.643  1.00  0.00     0.275 HD
ATOM     10  H11 UNL     1      21.302  14.452  51.258  1.00  0.00     0.275 HD
ENDBRANCH   5   7
ENDBRANCH   1   5
BRANCH   3  11
HETATM   11  N3  UNL     1      17.769  14.221  55.023  1.00  0.00    -0.273 N 
HETATM   12  C4  UNL     1      18.064  14.527  56.238  1.00  0.00     0.215 C 
HETATM   13  N4  UNL     1      19.351  14.987  56.632  1.00  0.00    -0.065 NA
HETATM   14  N5  UNL     1      17.045  14.392  57.223  1.00  0.00    -0.065 NA
ATOM     15  H3  UNL     1      16.833  13.894  54.781  1.00  0.00     0.189 HD
ENDBRANCH   3  11
TORSDOF 3
ENDMDL
MODEL 2
REMARK VINA RESULT: -4.087679656      4.166      6.481
REMARK  3 active torsions:
REMARK  status: ('A' for Active; 'I' for Inactive)
REMARK    1  A    between atoms: C2_2  and  N1_3 
REMARK    2  A    between atoms: C2_2  and  C3_7 
REMARK       I    between atoms: C3_7  and  N2_9 
REMARK    3  A    between atoms: N2_9  and  N3_11 
ROOT
HETATM    1  C3  UNL     1      16.677  18.061  58.579  1.00  0.00     0.266 C 
HETATM    2  O1  UNL     1      16.179  18.588  57.553  1.00  0.00    -0.269 OA
HETATM    3  N2  UNL     1      16.737  16.646  58.708  1.00  0.00    -0.266 N 
ATOM      4  H2  UNL     1      17.146  16.243  59.551  1.00  0.00     0.190 HD
ENDROOT
BRANCH   1   5
HETATM    5  C2  UNL     1      17.189  18.967  59.630  1.00  0.00     0.272 C 
HETATM    6  C1  UNL     1      18.615  18.545  59.998  1.00  0.00     0.050 C 
BRANCH   5   7
HETATM    7  N1  UNL     1      16.407  18.874  60.827  1.00  0.00    -0.067 N 
ATOM      8  H13 UNL     1      16.242  17.913  61.126  1.00  0.00     0.275 HD
ATOM      9  H12 UNL     1      16.908  19.183  61.659  1.00  0.00     0.275 HD
ATOM     10  H11 UNL     1      15.546  19.395  60.659  1.00  0.00     0.275 HD
ENDBRANCH   5   7
ENDBRANCH   1   5
BRANCH   3  11
HETATM   11  N3  UNL     1      16.254  15.791  57.715  1.00  0.00    -0.273 N 
HETATM   12  C4  UNL     1      17.098  15.213  56.934  1.00  0.00     0.215 C 
HETATM   13  N4  UNL     1      18.504  15.405  57.034  1.00  0.00    -0.065 NA
HETATM   14  N5  UNL     1      16.586  14.346  55.928  1.00  0.00    -0.065 NA
ATOM     15  H3  UNL     1      15.252  15.628  57.610  1.00  0.00     0.189 HD
ENDBRANCH   3  11
TORSDOF 3
ENDMDL
MODEL 3
REMARK VINA RESULT: -4.074773961      5.998      8.465
REMARK  3 active torsions:
REMARK  status: ('A' for Active; 'I' for Inactive)
REMARK    1  A    between atoms: C2_2  and  N1_3 
REMARK    2  A    between atoms: C2_2  and  C3_7 
REMARK       I    between atoms: C3_7  and  N2_9 
REMARK    3  A    between atoms: N2_9  and  N3_11 
ROOT
HETATM    1  C3  UNL     1      16.289  19.553  60.558  1.00  0.00     0.266 C 
HETATM    2  O1  UNL     1      15.694  20.536  60.050  1.00  0.00    -0.269 OA
HETATM    3  N2  UNL     1      16.566  18.395  59.781  1.00  0.00    -0.266 N 
ATOM      4  H2  UNL     1      17.050  17.610  60.217  1.00  0.00     0.190 HD
ENDROOT
BRANCH   1   5
HETATM    5  C2  UNL     1      16.681  19.655  61.981  1.00  0.00     0.272 C 
HETATM    6  C1  UNL     1      18.137  19.200  62.129  1.00  0.00     0.050 C 
BRANCH   5   7
HETATM    7  N1  UNL     1      15.890  18.790  62.805  1.00  0.00    -0.067 N 
ATOM      8  H13 UNL     1      15.915  19.042  63.792  1.00  0.00     0.275 HD
ATOM      9  H12 UNL     1      14.887  18.910  62.667  1.00  0.00     0.275 HD
ATOM     10  H11 UNL     1      16.211  17.838  62.626  1.00  0.00     0.275 HD
ENDBRANCH   5   7
ENDBRANCH   1   5
BRANCH   3  11
HETATM   11  N3  UNL     1      16.195  18.299  58.438  1.00  0.00    -0.273 N 
HETATM   12  C4  UNL     1      16.338  17.169  57.838  1.00  0.00     0.215 C 
HETATM   13  N4  UNL     1      16.856  16.010  58.479  1.00  0.00    -0.065 NA
HETATM   14  N5  UNL     1      15.955  17.092  56.469  1.00  0.00    -0.065 NA
ATOM     15  H3  UNL     1      15.820  19.108  57.942  1.00  0.00     0.189 HD
ENDBRANCH   3  11
TORSDOF 3
ENDMDL
MODEL 4
REMARK VINA RESULT: -4.053630339      3.156      5.238
REMARK  3 active torsions:
REMARK  status: ('A' for Active; 'I' for Inactive)
REMARK    1  A    between atoms: C2_2  and  N1_3 
REMARK    2  A    between atoms: C2_2  and  C3_7 
REMARK       I    between atoms: C3_7  and  N2_9 
REMARK    3  A    between atoms: N2_9  and  N3_11 
ROOT
HETATM    1  C3  UNL     1      16.486  17.070  57.114  1.00  0.00     0.266 C 
HETATM    2  O1  UNL     1      16.167  17.360  55.934  1.00  0.00    -0.269 OA
HETATM    3  N2  UNL     1      16.883  15.747  57.450  1.00  0.00    -0.266 N 
ATOM      4  H2  UNL     1      17.138  15.537  58.415  1.00  0.00     0.190 HD
ENDROOT
BRANCH   1   5
HETATM    5  C2  UNL     1      16.431  18.153  58.120  1.00  0.00     0.272 C 
HETATM    6  C1  UNL     1      17.422  19.252  57.721  1.00  0.00     0.050 C 
BRANCH   5   7
HETATM    7  N1  UNL     1      16.830  17.685  59.414  1.00  0.00    -0.067 N 
ATOM      8  H13 UNL     1      16.500  18.277  60.175  1.00  0.00     0.275 HD
ATOM      9  H12 UNL     1      16.350  16.831  59.698  1.00  0.00     0.275 HD
ATOM     10  H11 UNL     1      17.846  17.587  59.393  1.00  0.00     0.275 HD
ENDBRANCH   5   7
ENDBRANCH   1   5
BRANCH   3  11
HETATM   11  N3  UNL     1      16.935  14.725  56.499  1.00  0.00    -0.273 N 
HETATM   12  C4  UNL     1      18.086  14.342  56.069  1.00  0.00     0.215 C 
HETATM   13  N4  UNL     1      19.311  14.910  56.516  1.00  0.00    -0.065 NA
HETATM   14  N5  UNL     1      18.119  13.300  55.099  1.00  0.00    -0.065 NA
ATOM     15  H3  UNL     1      16.079  14.292  56.153  1.00  0.00     0.189 HD
ENDBRANCH   3  11
TORSDOF 3
ENDMDL
MODEL 5
REMARK VINA RESULT: -4.046866971      2.558      5.087
REMARK  3 active torsions:
REMARK  status: ('A' for Active; 'I' for Inactive)
REMARK    1  A    between atoms: C2_2  and  N1_3 
REMARK    2  A    between atoms: C2_2  and  C3_7 
REMARK       I    between atoms: C3_7  and  N2_9 
REMARK    3  A    between atoms: N2_9  and  N3_11 
ROOT
HETATM    1  C3  UNL     1      17.259  15.571  56.756  1.00  0.00     0.266 C 
HETATM    2  O1  UNL     1      17.294  14.346  57.030  1.00  0.00    -0.269 OA
HETATM    3  N2  UNL     1      18.079  16.104  55.723  1.00  0.00    -0.266 N 
ATOM      4  H2  UNL     1      18.033  17.102  55.520  1.00  0.00     0.190 HD
ENDROOT
BRANCH   1   5
HETATM    5  C2  UNL     1      16.340  16.420  57.544  1.00  0.00     0.272 C 
HETATM    6  C1  UNL     1      16.140  17.750  56.811  1.00  0.00     0.050 C 
BRANCH   5   7
HETATM    7  N1  UNL     1      16.891  16.734  58.829  1.00  0.00    -0.067 N 
ATOM      8  H13 UNL     1      17.907  16.827  58.819  1.00  0.00     0.275 HD
ATOM      9  H12 UNL     1      16.679  17.682  59.136  1.00  0.00     0.275 HD
ATOM     10  H11 UNL     1      16.560  16.017  59.476  1.00  0.00     0.275 HD
ENDBRANCH   5   7
ENDBRANCH   1   5
BRANCH   3  11
HETATM   11  N3  UNL     1      18.947  15.302  54.978  1.00  0.00    -0.273 N 
HETATM   12  C4  UNL     1      18.718  15.149  53.721  1.00  0.00     0.215 C 
HETATM   13  N4  UNL     1      17.621  15.758  53.052  1.00  0.00    -0.065 NA
HETATM   14  N5  UNL     1      19.613  14.327  52.979  1.00  0.00    -0.065 NA
ATOM     15  H3  UNL     1      19.745  14.846  55.422  1.00  0.00     0.189 HD
ENDBRANCH   3  11
TORSDOF 3
ENDMDL
