MODEL 1
REMARK VINA RESULT: -3.979294698      0.000      0.000
REMARK  1 active torsions:
REMARK  status: ('A' for Active; 'I' for Inactive)
REMARK       I    between atoms: C1_2  and  N2_4 
REMARK       I    between atoms: N2_4  and  C2_5 
REMARK    1  A    between atoms: N2_4  and  C3_14 
REMARK       I    between atoms: C2_5  and  N3_6 
REMARK       I    between atoms: C2_5  and  N4_10 
ROOT
HETATM    1  N1  UNL     1      16.441  13.819  55.815  1.00  0.00    -0.040 NA
HETATM    2  C1  UNL     1      17.640  14.521  55.616  1.00  0.00     0.335 C 
HETATM    3  O1  UNL     1      18.549  13.852  54.988  1.00  0.00    -0.251 OA
HETATM    4  N2  UNL     1      17.968  15.826  56.004  1.00  0.00    -0.255 N 
HETATM    5  C2  UNL     1      19.291  16.360  55.677  1.00  0.00     0.487 C 
HETATM    6  N3  UNL     1      20.342  15.585  56.290  1.00  0.00    -0.033 N 
ATOM      7  H31 UNL     1      21.263  15.957  56.062  1.00  0.00     0.278 HD
ATOM      8  H32 UNL     1      20.268  14.598  56.047  1.00  0.00     0.278 HD
ATOM      9  H33 UNL     1      20.210  15.510  57.299  1.00  0.00     0.278 HD
HETATM   10  N4  UNL     1      19.407  16.348  54.246  1.00  0.00    -0.033 N 
ATOM     11  H41 UNL     1      20.328  16.720  54.017  1.00  0.00     0.278 HD
ATOM     12  H42 UNL     1      18.647  16.843  53.778  1.00  0.00     0.278 HD
ATOM     13  H43 UNL     1      19.234  15.429  53.837  1.00  0.00     0.278 HD
ENDROOT
BRANCH   4  14
HETATM   14  C3  UNL     1      17.080  16.686  56.722  1.00  0.00     0.318 A 
HETATM   15  C4  UNL     1      17.315  16.730  58.227  1.00  0.00     0.289 A 
HETATM   16  N5  UNL     1      16.094  16.264  57.644  1.00  0.00    -0.049 N 
ATOM     17  H52 UNL     1      15.120  16.536  57.780  1.00  0.00     0.279 HD
ATOM     18  H51 UNL     1      15.575  15.391  57.742  1.00  0.00     0.279 HD
ENDBRANCH   4  14
TORSDOF 1
ENDMDL
MODEL 2
REMARK VINA RESULT: -3.952759531      1.490      2.503
REMARK  1 active torsions:
REMARK  status: ('A' for Active; 'I' for Inactive)
REMARK       I    between atoms: C1_2  and  N2_4 
REMARK       I    between atoms: N2_4  and  C2_5 
REMARK    1  A    between atoms: N2_4  and  C3_14 
REMARK       I    between atoms: C2_5  and  N3_6 
REMARK       I    between atoms: C2_5  and  N4_10 
ROOT
HETATM    1  N1  UNL     1      19.694  16.236  57.772  1.00  0.00    -0.040 NA
HETATM    2  C1  UNL     1      19.222  15.657  56.585  1.00  0.00     0.335 C 
HETATM    3  O1  UNL     1      20.141  15.403  55.714  1.00  0.00    -0.251 OA
HETATM    4  N2  UNL     1      17.907  15.328  56.231  1.00  0.00    -0.255 N 
HETATM    5  C2  UNL     1      17.647  14.715  54.928  1.00  0.00     0.487 C 
HETATM    6  N3  UNL     1      18.046  15.582  53.846  1.00  0.00    -0.033 N 
ATOM      7  H31 UNL     1      17.864  15.155  52.938  1.00  0.00     0.278 HD
ATOM      8  H32 UNL     1      19.021  15.866  53.936  1.00  0.00     0.278 HD
ATOM      9  H33 UNL     1      17.606  16.499  53.921  1.00  0.00     0.278 HD
HETATM   10  N4  UNL     1      18.372  13.476  54.893  1.00  0.00    -0.033 N 
ATOM     11  H41 UNL     1      18.191  13.049  53.985  1.00  0.00     0.278 HD
ATOM     12  H42 UNL     1      18.152  12.861  55.676  1.00  0.00     0.278 HD
ATOM     13  H43 UNL     1      19.366  13.588  55.091  1.00  0.00     0.278 HD
ENDROOT
BRANCH   4  14
HETATM   14  C3  UNL     1      16.777  15.563  57.076  1.00  0.00     0.318 A 
HETATM   15  C4  UNL     1      16.233  16.986  57.027  1.00  0.00     0.289 A 
HETATM   16  N5  UNL     1      16.765  16.396  58.218  1.00  0.00    -0.049 N 
ATOM     17  H52 UNL     1      16.379  16.272  59.154  1.00  0.00     0.279 HD
ATOM     18  H51 UNL     1      17.501  16.691  58.861  1.00  0.00     0.279 HD
ENDBRANCH   4  14
TORSDOF 1
ENDMDL
MODEL 3
REMARK VINA RESULT: -3.765357568      1.479      3.328
REMARK  1 active torsions:
REMARK  status: ('A' for Active; 'I' for Inactive)
REMARK       I    between atoms: C1_2  and  N2_4 
REMARK       I    between atoms: N2_4  and  C2_5 
REMARK    1  A    between atoms: N2_4  and  C3_14 
REMARK       I    between atoms: C2_5  and  N3_6 
REMARK       I    between atoms: C2_5  and  N4_10 
ROOT
HETATM    1  N1  UNL     1      18.340  13.856  55.688  1.00  0.00    -0.040 NA
HETATM    2  C1  UNL     1      17.700  14.941  56.306  1.00  0.00     0.335 C 
HETATM    3  O1  UNL     1      16.414  14.839  56.362  1.00  0.00    -0.251 OA
HETATM    4  N2  UNL     1      18.268  16.096  56.858  1.00  0.00    -0.255 N 
HETATM    5  C2  UNL     1      17.398  17.103  57.467  1.00  0.00     0.487 C 
HETATM    6  N3  UNL     1      16.467  17.648  56.509  1.00  0.00    -0.033 N 
ATOM      7  H31 UNL     1      15.860  18.349  56.934  1.00  0.00     0.278 HD
ATOM      8  H32 UNL     1      15.926  16.912  56.056  1.00  0.00     0.278 HD
ATOM      9  H33 UNL     1      16.948  18.018  55.690  1.00  0.00     0.278 HD
HETATM   10  N4  UNL     1      16.708  16.461  58.551  1.00  0.00    -0.033 N 
ATOM     11  H41 UNL     1      16.102  17.162  58.976  1.00  0.00     0.278 HD
ATOM     12  H42 UNL     1      17.339  16.019  59.220  1.00  0.00     0.278 HD
ATOM     13  H43 UNL     1      16.209  15.619  58.267  1.00  0.00     0.278 HD
ENDROOT
BRANCH   4  14
HETATM   14  C3  UNL     1      19.673  16.366  56.858  1.00  0.00     0.318 A 
HETATM   15  C4  UNL     1      20.193  17.024  55.585  1.00  0.00     0.289 A 
HETATM   16  N5  UNL     1      20.630  15.735  56.030  1.00  0.00    -0.049 N 
ATOM     17  H52 UNL     1      21.556  15.352  56.221  1.00  0.00     0.279 HD
ATOM     18  H51 UNL     1      20.649  14.822  55.576  1.00  0.00     0.279 HD
ENDBRANCH   4  14
TORSDOF 1
ENDMDL
MODEL 4
REMARK VINA RESULT: -3.751642925      1.864      3.631
REMARK  1 active torsions:
REMARK  status: ('A' for Active; 'I' for Inactive)
REMARK       I    between atoms: C1_2  and  N2_4 
REMARK       I    between atoms: N2_4  and  C2_5 
REMARK    1  A    between atoms: N2_4  and  C3_14 
REMARK       I    between atoms: C2_5  and  N3_6 
REMARK       I    between atoms: C2_5  and  N4_10 
ROOT
HETATM    1  N1  UNL     1      20.477  15.611  56.546  1.00  0.00    -0.040 NA
HETATM    2  C1  UNL     1      19.201  16.083  56.887  1.00  0.00     0.335 C 
HETATM    3  O1  UNL     1      19.158  16.748  57.993  1.00  0.00    -0.251 OA
HETATM    4  N2  UNL     1      17.994  15.928  56.193  1.00  0.00    -0.255 N 
HETATM    5  C2  UNL     1      16.772  16.523  56.739  1.00  0.00     0.487 C 
HETATM    6  N3  UNL     1      16.452  15.980  58.036  1.00  0.00    -0.033 N 
ATOM      7  H31 UNL     1      15.601  16.395  58.415  1.00  0.00     0.278 HD
ATOM      8  H32 UNL     1      17.234  16.075  58.683  1.00  0.00     0.278 HD
ATOM      9  H33 UNL     1      16.391  14.962  58.009  1.00  0.00     0.278 HD
HETATM   10  N4  UNL     1      16.991  17.940  56.810  1.00  0.00    -0.033 N 
ATOM     11  H41 UNL     1      16.140  18.355  57.190  1.00  0.00     0.278 HD
ATOM     12  H42 UNL     1      17.272  18.348  55.918  1.00  0.00     0.278 HD
ATOM     13  H43 UNL     1      17.828  18.191  57.337  1.00  0.00     0.278 HD
ENDROOT
BRANCH   4  14
HETATM   14  C3  UNL     1      17.872  15.204  54.966  1.00  0.00     0.318 A 
HETATM   15  C4  UNL     1      17.806  13.690  55.126  1.00  0.00     0.289 A 
HETATM   16  N5  UNL     1      18.857  14.353  54.414  1.00  0.00    -0.049 N 
ATOM     17  H52 UNL     1      19.218  14.245  53.466  1.00  0.00     0.279 HD
ATOM     18  H51 UNL     1      19.872  14.327  54.508  1.00  0.00     0.279 HD
ENDBRANCH   4  14
TORSDOF 1
ENDMDL
MODEL 5
REMARK VINA RESULT: -3.655269244      3.156      4.105
REMARK  1 active torsions:
REMARK  status: ('A' for Active; 'I' for Inactive)
REMARK       I    between atoms: C1_2  and  N2_4 
REMARK       I    between atoms: N2_4  and  C2_5 
REMARK    1  A    between atoms: N2_4  and  C3_14 
REMARK       I    between atoms: C2_5  and  N3_6 
REMARK       I    between atoms: C2_5  and  N4_10 
ROOT
HETATM    1  N1  UNL     1      16.738  15.734  58.257  1.00  0.00    -0.040 NA
HETATM    2  C1  UNL     1      16.447  16.979  57.680  1.00  0.00     0.335 C 
HETATM    3  O1  UNL     1      15.724  16.915  56.612  1.00  0.00    -0.251 OA
HETATM    4  N2  UNL     1      16.834  18.256  58.106  1.00  0.00    -0.255 N 
HETATM    5  C2  UNL     1      16.401  19.429  57.345  1.00  0.00     0.487 C 
HETATM    6  N3  UNL     1      16.898  19.395  55.991  1.00  0.00    -0.033 N 
ATOM      7  H31 UNL     1      16.596  20.212  55.460  1.00  0.00     0.278 HD
ATOM      8  H32 UNL     1      16.639  18.528  55.520  1.00  0.00     0.278 HD
ATOM      9  H33 UNL     1      17.912  19.290  55.969  1.00  0.00     0.278 HD
HETATM   10  N4  UNL     1      14.965  19.438  57.368  1.00  0.00    -0.033 N 
ATOM     11  H41 UNL     1      14.662  20.255  56.838  1.00  0.00     0.278 HD
ATOM     12  H42 UNL     1      14.580  19.408  58.313  1.00  0.00     0.278 HD
ATOM     13  H43 UNL     1      14.553  18.568  57.033  1.00  0.00     0.278 HD
ENDROOT
BRANCH   4  14
HETATM   14  C3  UNL     1      17.649  18.494  59.257  1.00  0.00     0.318 A 
HETATM   15  C4  UNL     1      19.150  18.470  58.989  1.00  0.00     0.289 A 
HETATM   16  N5  UNL     1      18.501  17.546  59.870  1.00  0.00    -0.049 N 
ATOM     17  H52 UNL     1      18.663  17.299  60.846  1.00  0.00     0.279 HD
ATOM     18  H51 UNL     1      18.482  16.527  59.903  1.00  0.00     0.279 HD
ENDBRANCH   4  14
TORSDOF 1
ENDMDL
