MODEL 1
REMARK VINA RESULT: -7.157676923      0.000      0.000
REMARK  8 active torsions:
REMARK  status: ('A' for Active; 'I' for Inactive)
REMARK    1  A    between atoms: N3_4  and  C2_6 
REMARK    2  A    between atoms: C2_6  and  C3_7 
REMARK    3  A    between atoms: C3_7  and  C4_8 
REMARK    4  A    between atoms: C4_8  and  C5_9 
REMARK    5  A    between atoms: C5_9  and  C6_10 
REMARK    6  A    between atoms: C6_10  and  C7_11 
REMARK    7  A    between atoms: C7_11  and  C8_12 
REMARK       I    between atoms: C8_12  and  N4_14 
REMARK    8  A    between atoms: N4_14  and  C9_16 
ROOT
HETATM    1  C8  UNL     1      86.662  75.281  29.940  1.00  0.00     0.219 C 
HETATM    2  O1  UNL     1      87.323  76.321  29.686  1.00  0.00    -0.274 OA
HETATM    3  N4  UNL     1      87.261  74.000  30.056  1.00  0.00    -0.340 N 
ATOM      4  H4  UNL     1      86.688  73.183  30.264  1.00  0.00     0.164 HD
ENDROOT
BRANCH   1   5
HETATM    5  C7  UNL     1      85.183  75.478  30.115  1.00  0.00     0.103 C 
BRANCH   5   6
HETATM    6  C6  UNL     1      84.672  74.832  31.352  1.00  0.00     0.009 C 
BRANCH   6   7
HETATM    7  C5  UNL     1      83.201  74.545  31.204  1.00  0.00     0.001 C 
BRANCH   7   8
HETATM    8  C4  UNL     1      82.682  73.587  32.231  1.00  0.00     0.002 C 
BRANCH   8   9
HETATM    9  C3  UNL     1      82.048  72.363  31.569  1.00  0.00     0.020 C 
BRANCH   9  10
HETATM   10  C2  UNL     1      82.999  71.197  31.550  1.00  0.00     0.122 C 
BRANCH  10  11
HETATM   11  N3  UNL     1      83.418  70.979  30.185  1.00  0.00    -0.367 N 
HETATM   12  C1  UNL     1      84.621  71.137  29.807  1.00  0.00     0.196 C 
HETATM   13  N1  UNL     1      85.647  71.539  30.694  1.00  0.00    -0.067 NA
HETATM   14  N2  UNL     1      84.985  70.909  28.450  1.00  0.00    -0.067 NA
ATOM     15  H3  UNL     1      82.722  70.686  29.499  1.00  0.00     0.161 HD
ENDBRANCH  10  11
ENDBRANCH   9  10
ENDBRANCH   8   9
ENDBRANCH   7   8
ENDBRANCH   6   7
ENDBRANCH   5   6
ENDBRANCH   1   5
BRANCH   3  16
HETATM   16  C9  UNL     1      88.663  73.864  29.881  1.00  0.00     0.183 C 
HETATM   17  N5  UNL     1      89.459  74.767  30.665  1.00  0.00    -0.396 N 
HETATM   18  C10 UNL     1      90.731  74.296  31.058  1.00  0.00     0.086 C 
ATOM     19  H5  UNL     1      89.124  75.695  30.924  1.00  0.00     0.155 HD
HETATM   20  C11 UNL     1      91.409  73.336  30.155  1.00  0.00     0.009 C 
HETATM   21  C15 UNL     1      90.647  73.164  32.092  1.00  0.00     0.009 C 
HETATM   22  C12 UNL     1      90.482  72.337  29.506  1.00  0.00     0.015 C 
HETATM   23  C16 UNL     1      91.917  72.620  31.420  1.00  0.00     0.013 C 
HETATM   24  C13 UNL     1      89.149  72.452  30.245  1.00  0.00     0.029 C 
HETATM   25  C14 UNL     1      89.446  72.342  31.720  1.00  0.00     0.015 C 
ENDBRANCH   3  16
TORSDOF 8
ENDMDL
MODEL 2
REMARK VINA RESULT: -6.869401930      0.870      1.016
REMARK  8 active torsions:
REMARK  status: ('A' for Active; 'I' for Inactive)
REMARK    1  A    between atoms: N3_4  and  C2_6 
REMARK    2  A    between atoms: C2_6  and  C3_7 
REMARK    3  A    between atoms: C3_7  and  C4_8 
REMARK    4  A    between atoms: C4_8  and  C5_9 
REMARK    5  A    between atoms: C5_9  and  C6_10 
REMARK    6  A    between atoms: C6_10  and  C7_11 
REMARK    7  A    between atoms: C7_11  and  C8_12 
REMARK       I    between atoms: C8_12  and  N4_14 
REMARK    8  A    between atoms: N4_14  and  C9_16 
ROOT
HETATM    1  C8  UNL     1      86.689  75.425  30.075  1.00  0.00     0.219 C 
HETATM    2  O1  UNL     1      87.371  76.402  29.672  1.00  0.00    -0.274 OA
HETATM    3  N4  UNL     1      87.241  74.134  30.278  1.00  0.00    -0.340 N 
ATOM      4  H4  UNL     1      86.651  73.369  30.606  1.00  0.00     0.164 HD
ENDROOT
BRANCH   1   5
HETATM    5  C7  UNL     1      85.236  75.709  30.331  1.00  0.00     0.103 C 
BRANCH   5   6
HETATM    6  C6  UNL     1      84.380  74.515  30.108  1.00  0.00     0.009 C 
BRANCH   6   7
HETATM    7  C5  UNL     1      83.344  74.423  31.197  1.00  0.00     0.001 C 
BRANCH   7   8
HETATM    8  C4  UNL     1      82.933  73.015  31.501  1.00  0.00     0.002 C 
BRANCH   8   9
HETATM    9  C3  UNL     1      84.021  72.024  31.090  1.00  0.00     0.020 C 
BRANCH   9  10
HETATM   10  C2  UNL     1      83.469  70.939  30.205  1.00  0.00     0.122 C 
BRANCH  10  11
HETATM   11  N3  UNL     1      84.203  70.954  28.961  1.00  0.00    -0.367 N 
HETATM   12  C1  UNL     1      85.164  70.157  28.725  1.00  0.00     0.196 C 
HETATM   13  N1  UNL     1      85.593  69.190  29.665  1.00  0.00    -0.067 NA
HETATM   14  N2  UNL     1      85.856  70.211  27.483  1.00  0.00    -0.067 NA
ATOM     15  H3  UNL     1      83.939  71.630  28.244  1.00  0.00     0.161 HD
ENDBRANCH  10  11
ENDBRANCH   9  10
ENDBRANCH   8   9
ENDBRANCH   7   8
ENDBRANCH   6   7
ENDBRANCH   5   6
ENDBRANCH   1   5
BRANCH   3  16
HETATM   16  C9  UNL     1      88.619  73.914  30.021  1.00  0.00     0.183 C 
HETATM   17  N5  UNL     1      89.512  74.788  30.729  1.00  0.00    -0.396 N 
HETATM   18  C10 UNL     1      90.778  74.256  31.056  1.00  0.00     0.086 C 
ATOM     19  H5  UNL     1      89.246  75.740  30.982  1.00  0.00     0.155 HD
HETATM   20  C11 UNL     1      91.343  73.237  30.140  1.00  0.00     0.009 C 
HETATM   21  C15 UNL     1      90.697  73.156  32.124  1.00  0.00     0.009 C 
HETATM   22  C12 UNL     1      90.324  72.277  29.577  1.00  0.00     0.015 C 
HETATM   23  C16 UNL     1      91.889  72.524  31.391  1.00  0.00     0.013 C 
HETATM   24  C13 UNL     1      89.048  72.486  30.393  1.00  0.00     0.029 C 
HETATM   25  C14 UNL     1      89.431  72.396  31.849  1.00  0.00     0.015 C 
ENDBRANCH   3  16
TORSDOF 8
ENDMDL
MODEL 3
REMARK VINA RESULT: -6.857578750      1.946      3.531
REMARK  8 active torsions:
REMARK  status: ('A' for Active; 'I' for Inactive)
REMARK    1  A    between atoms: N3_4  and  C2_6 
REMARK    2  A    between atoms: C2_6  and  C3_7 
REMARK    3  A    between atoms: C3_7  and  C4_8 
REMARK    4  A    between atoms: C4_8  and  C5_9 
REMARK    5  A    between atoms: C5_9  and  C6_10 
REMARK    6  A    between atoms: C6_10  and  C7_11 
REMARK    7  A    between atoms: C7_11  and  C8_12 
REMARK       I    between atoms: C8_12  and  N4_14 
REMARK    8  A    between atoms: N4_14  and  C9_16 
ROOT
HETATM    1  C8  UNL     1      85.606  70.705  29.296  1.00  0.00     0.219 C 
HETATM    2  O1  UNL     1      85.988  70.451  28.125  1.00  0.00    -0.274 OA
HETATM    3  N4  UNL     1      86.503  71.046  30.340  1.00  0.00    -0.340 N 
ATOM      4  H4  UNL     1      86.150  71.245  31.276  1.00  0.00     0.164 HD
ENDROOT
BRANCH   1   5
HETATM    5  C7  UNL     1      84.124  70.623  29.526  1.00  0.00     0.103 C 
BRANCH   5   6
HETATM    6  C6  UNL     1      83.750  70.980  30.920  1.00  0.00     0.009 C 
BRANCH   6   7
HETATM    7  C5  UNL     1      83.183  72.374  30.951  1.00  0.00     0.001 C 
BRANCH   7   8
HETATM    8  C4  UNL     1      83.598  73.151  32.163  1.00  0.00     0.002 C 
BRANCH   8   9
HETATM    9  C3  UNL     1      83.261  74.634  32.008  1.00  0.00     0.020 C 
BRANCH   9  10
HETATM   10  C2  UNL     1      83.564  75.122  30.617  1.00  0.00     0.122 C 
BRANCH  10  11
HETATM   11  N3  UNL     1      84.789  75.886  30.664  1.00  0.00    -0.367 N 
HETATM   12  C1  UNL     1      85.884  75.451  30.187  1.00  0.00     0.196 C 
HETATM   13  N1  UNL     1      85.989  74.183  29.569  1.00  0.00    -0.067 NA
HETATM   14  N2  UNL     1      87.065  76.242  30.257  1.00  0.00    -0.067 NA
ATOM     15  H3  UNL     1      84.775  76.810  31.097  1.00  0.00     0.161 HD
ENDBRANCH  10  11
ENDBRANCH   9  10
ENDBRANCH   8   9
ENDBRANCH   7   8
ENDBRANCH   6   7
ENDBRANCH   5   6
ENDBRANCH   1   5
BRANCH   3  16
HETATM   16  C9  UNL     1      87.896  71.110  30.074  1.00  0.00     0.183 C 
HETATM   17  N5  UNL     1      88.277  72.079  29.084  1.00  0.00    -0.396 N 
HETATM   18  C10 UNL     1      89.557  72.655  29.236  1.00  0.00     0.086 C 
ATOM     19  H5  UNL     1      87.658  72.335  28.315  1.00  0.00     0.155 HD
HETATM   20  C11 UNL     1      90.606  71.823  29.871  1.00  0.00     0.009 C 
HETATM   21  C15 UNL     1      89.644  73.581  30.457  1.00  0.00     0.009 C 
HETATM   22  C12 UNL     1      90.109  70.958  31.003  1.00  0.00     0.015 C 
HETATM   23  C16 UNL     1      91.101  73.108  30.560  1.00  0.00     0.013 C 
HETATM   24  C13 UNL     1      88.703  71.459  31.334  1.00  0.00     0.029 C 
HETATM   25  C14 UNL     1      88.796  72.953  31.524  1.00  0.00     0.015 C 
ENDBRANCH   3  16
TORSDOF 8
ENDMDL
MODEL 4
REMARK VINA RESULT: -6.567620017      2.324      3.839
REMARK  8 active torsions:
REMARK  status: ('A' for Active; 'I' for Inactive)
REMARK    1  A    between atoms: N3_4  and  C2_6 
REMARK    2  A    between atoms: C2_6  and  C3_7 
REMARK    3  A    between atoms: C3_7  and  C4_8 
REMARK    4  A    between atoms: C4_8  and  C5_9 
REMARK    5  A    between atoms: C5_9  and  C6_10 
REMARK    6  A    between atoms: C6_10  and  C7_11 
REMARK    7  A    between atoms: C7_11  and  C8_12 
REMARK       I    between atoms: C8_12  and  N4_14 
REMARK    8  A    between atoms: N4_14  and  C9_16 
ROOT
HETATM    1  C8  UNL     1      87.452  70.952  30.167  1.00  0.00     0.219 C 
HETATM    2  O1  UNL     1      87.525  70.514  31.344  1.00  0.00    -0.274 OA
HETATM    3  N4  UNL     1      88.475  71.734  29.574  1.00  0.00    -0.340 N 
ATOM      4  H4  UNL     1      88.375  72.070  28.616  1.00  0.00     0.164 HD
ENDROOT
BRANCH   1   5
HETATM    5  C7  UNL     1      86.200  70.593  29.418  1.00  0.00     0.103 C 
BRANCH   5   6
HETATM    6  C6  UNL     1      84.982  70.724  30.261  1.00  0.00     0.009 C 
BRANCH   6   7
HETATM    7  C5  UNL     1      84.426  72.118  30.134  1.00  0.00     0.001 C 
BRANCH   7   8
HETATM    8  C4  UNL     1      83.896  72.660  31.426  1.00  0.00     0.002 C 
BRANCH   8   9
HETATM    9  C3  UNL     1      84.446  74.059  31.701  1.00  0.00     0.020 C 
BRANCH   9  10
HETATM   10  C2  UNL     1      84.566  74.860  30.433  1.00  0.00     0.122 C 
BRANCH  10  11
HETATM   11  N3  UNL     1      85.660  75.790  30.589  1.00  0.00    -0.367 N 
HETATM   12  C1  UNL     1      86.782  75.627  30.014  1.00  0.00     0.196 C 
HETATM   13  N1  UNL     1      87.047  74.520  29.173  1.00  0.00    -0.067 NA
HETATM   14  N2  UNL     1      87.830  76.571  30.198  1.00  0.00    -0.067 NA
ATOM     15  H3  UNL     1      85.528  76.609  31.183  1.00  0.00     0.161 HD
ENDBRANCH  10  11
ENDBRANCH   9  10
ENDBRANCH   8   9
ENDBRANCH   7   8
ENDBRANCH   6   7
ENDBRANCH   5   6
ENDBRANCH   1   5
BRANCH   3  16
HETATM   16  C9  UNL     1      89.639  72.048  30.322  1.00  0.00     0.183 C 
HETATM   17  N5  UNL     1      90.493  70.929  30.606  1.00  0.00    -0.396 N 
HETATM   18  C10 UNL     1      91.873  71.210  30.719  1.00  0.00     0.086 C 
ATOM     19  H5  UNL     1      90.125  69.984  30.720  1.00  0.00     0.155 HD
HETATM   20  C11 UNL     1      92.254  72.552  31.219  1.00  0.00     0.009 C 
HETATM   21  C15 UNL     1      92.506  71.601  29.377  1.00  0.00     0.009 C 
HETATM   22  C12 UNL     1      91.368  73.670  30.727  1.00  0.00     0.015 C 
HETATM   23  C16 UNL     1      93.417  72.514  30.211  1.00  0.00     0.013 C 
HETATM   24  C13 UNL     1      90.523  73.077  29.599  1.00  0.00     0.029 C 
HETATM   25  C14 UNL     1      91.471  72.401  28.640  1.00  0.00     0.015 C 
ENDBRANCH   3  16
TORSDOF 8
ENDMDL
MODEL 5
REMARK VINA RESULT: -6.446638076      1.268      1.781
REMARK  8 active torsions:
REMARK  status: ('A' for Active; 'I' for Inactive)
REMARK    1  A    between atoms: N3_4  and  C2_6 
REMARK    2  A    between atoms: C2_6  and  C3_7 
REMARK    3  A    between atoms: C3_7  and  C4_8 
REMARK    4  A    between atoms: C4_8  and  C5_9 
REMARK    5  A    between atoms: C5_9  and  C6_10 
REMARK    6  A    between atoms: C6_10  and  C7_11 
REMARK    7  A    between atoms: C7_11  and  C8_12 
REMARK       I    between atoms: C8_12  and  N4_14 
REMARK    8  A    between atoms: N4_14  and  C9_16 
ROOT
HETATM    1  C8  UNL     1      86.681  74.241  30.371  1.00  0.00     0.219 C 
HETATM    2  O1  UNL     1      86.201  73.347  29.628  1.00  0.00    -0.274 OA
HETATM    3  N4  UNL     1      87.990  74.169  30.912  1.00  0.00    -0.340 N 
ATOM      4  H4  UNL     1      88.340  74.918  31.510  1.00  0.00     0.164 HD
ENDROOT
BRANCH   1   5
HETATM    5  C7  UNL     1      85.773  75.404  30.655  1.00  0.00     0.103 C 
BRANCH   5   6
HETATM    6  C6  UNL     1      84.403  75.193  30.119  1.00  0.00     0.009 C 
BRANCH   6   7
HETATM    7  C5  UNL     1      83.430  75.046  31.258  1.00  0.00     0.001 C 
BRANCH   7   8
HETATM    8  C4  UNL     1      83.535  73.724  31.955  1.00  0.00     0.002 C 
BRANCH   8   9
HETATM    9  C3  UNL     1      82.565  72.707  31.353  1.00  0.00     0.020 C 
BRANCH   9  10
HETATM   10  C2  UNL     1      83.222  71.366  31.170  1.00  0.00     0.122 C 
BRANCH  10  11
HETATM   11  N3  UNL     1      84.044  71.424  29.984  1.00  0.00    -0.367 N 
HETATM   12  C1  UNL     1      84.368  70.385  29.327  1.00  0.00     0.196 C 
HETATM   13  N1  UNL     1      83.948  69.088  29.705  1.00  0.00    -0.067 NA
HETATM   14  N2  UNL     1      85.181  70.493  28.163  1.00  0.00    -0.067 NA
ATOM     15  H3  UNL     1      84.377  72.332  29.661  1.00  0.00     0.161 HD
ENDBRANCH  10  11
ENDBRANCH   9  10
ENDBRANCH   8   9
ENDBRANCH   7   8
ENDBRANCH   6   7
ENDBRANCH   5   6
ENDBRANCH   1   5
BRANCH   3  16
HETATM   16  C9  UNL     1      88.810  73.050  30.615  1.00  0.00     0.183 C 
HETATM   17  N5  UNL     1      89.294  72.998  29.263  1.00  0.00    -0.396 N 
HETATM   18  C10 UNL     1      90.548  72.379  29.074  1.00  0.00     0.086 C 
ATOM     19  H5  UNL     1      88.761  73.387  28.485  1.00  0.00     0.155 HD
HETATM   20  C11 UNL     1      90.921  71.295  30.014  1.00  0.00     0.009 C 
HETATM   21  C15 UNL     1      91.705  73.199  29.662  1.00  0.00     0.009 C 
HETATM   22  C12 UNL     1      90.488  71.538  31.439  1.00  0.00     0.015 C 
HETATM   23  C16 UNL     1      92.360  71.840  29.954  1.00  0.00     0.013 C 
HETATM   24  C13 UNL     1      90.058  73.003  31.509  1.00  0.00     0.029 C 
HETATM   25  C14 UNL     1      91.179  73.825  30.922  1.00  0.00     0.015 C 
ENDBRANCH   3  16
TORSDOF 8
ENDMDL
