MODEL 1
REMARK VINA RESULT: -9.853125049      0.000      0.000
REMARK  3 active torsions:
REMARK  status: ('A' for Active; 'I' for Inactive)
REMARK    1  A    between atoms: C1_2  and  C2_5 
REMARK    2  A    between atoms: C3_9  and  N2_10 
REMARK    3  A    between atoms: N2_10  and  C4_12 
ROOT
HETATM    1  C2  UNL     1      39.375 -12.485 -14.291  1.00  0.00     0.177 A 
HETATM    2  N1  UNL     1      38.900 -11.250 -14.085  1.00  0.00    -0.240 N 
ATOM      3  H1  UNL     1      38.551 -10.630 -14.816  1.00  0.00     0.196 HD
HETATM    4  O1  UNL     1      38.948 -10.956 -12.832  1.00  0.00    -0.199 OA
HETATM    5  C3  UNL     1      39.439 -11.953 -12.170  1.00  0.00     0.245 A 
HETATM    6  N3  UNL     1      39.715 -12.927 -13.073  1.00  0.00    -0.304 N 
ATOM      7  H3  UNL     1      40.114 -13.841 -12.861  1.00  0.00     0.171 HD
ENDROOT
BRANCH   5   8
HETATM    8  N2  UNL     1      39.668 -12.123 -10.917  1.00  0.00    -0.345 N 
ATOM      9  H2  UNL     1      40.394 -12.816 -10.736  1.00  0.00     0.164 HD
BRANCH   8  10
HETATM   10  C4  UNL     1      39.148 -11.575  -9.765  1.00  0.00     0.038 C 
HETATM   11  C5  UNL     1      37.794 -10.891  -9.981  1.00  0.00     0.036 C 
HETATM   12  C6  UNL     1      37.357 -10.683  -8.545  1.00  0.00    -0.011 C 
HETATM   13  C7  UNL     1      38.302  -9.766  -7.794  1.00  0.00     0.009 C 
HETATM   14  C11 UNL     1      37.540 -12.105  -8.025  1.00  0.00     0.012 C 
HETATM   15  C8  UNL     1      39.721 -10.268  -7.898  1.00  0.00    -0.011 C 
HETATM   16  C9  UNL     1      39.864 -11.706  -7.473  1.00  0.00     0.012 C 
HETATM   17  C12 UNL     1      40.069 -10.386  -9.373  1.00  0.00     0.036 C 
HETATM   18  C10 UNL     1      38.961 -12.376  -8.540  1.00  0.00     0.014 C 
ENDBRANCH   8  10
ENDBRANCH   5   8
BRANCH   1  19
HETATM   19  C1  UNL     1      39.521 -13.216 -15.593  1.00  0.00     0.316 C 
HETATM   20  F1  UNL     1      40.416 -12.546 -16.420  1.00  0.00    -0.198 F 
HETATM   21 CL1  UNL     1      37.960 -13.505 -16.341  1.00  0.00    -0.058 Cl
HETATM   22 CL2  UNL     1      40.233 -14.797 -15.193  1.00  0.00    -0.058 Cl
ENDBRANCH   1  19
TORSDOF 3
ENDMDL
MODEL 2
REMARK VINA RESULT: -9.781198933      0.867      1.110
REMARK  3 active torsions:
REMARK  status: ('A' for Active; 'I' for Inactive)
REMARK    1  A    between atoms: C1_2  and  C2_5 
REMARK    2  A    between atoms: C3_9  and  N2_10 
REMARK    3  A    between atoms: N2_10  and  C4_12 
ROOT
HETATM    1  C2  UNL     1      39.328 -12.758 -14.296  1.00  0.00     0.177 A 
HETATM    2  N1  UNL     1      38.935 -11.481 -14.211  1.00  0.00    -0.240 N 
ATOM      3  H1  UNL     1      38.581 -10.928 -14.992  1.00  0.00     0.196 HD
HETATM    4  O1  UNL     1      39.067 -11.051 -13.005  1.00  0.00    -0.199 OA
HETATM    5  C3  UNL     1      39.537 -11.996 -12.256  1.00  0.00     0.245 A 
HETATM    6  N3  UNL     1      39.709 -13.080 -13.052  1.00  0.00    -0.304 N 
ATOM      7  H3  UNL     1      40.067 -13.988 -12.755  1.00  0.00     0.171 HD
ENDROOT
BRANCH   5   8
HETATM    8  N2  UNL     1      39.825 -12.037 -11.005  1.00  0.00    -0.345 N 
ATOM      9  H2  UNL     1      40.675 -12.565 -10.809  1.00  0.00     0.164 HD
BRANCH   8  10
HETATM   10  C4  UNL     1      39.237 -11.525  -9.868  1.00  0.00     0.038 C 
HETATM   11  C5  UNL     1      37.888 -10.851 -10.141  1.00  0.00     0.036 C 
HETATM   12  C6  UNL     1      37.372 -10.686  -8.725  1.00  0.00    -0.011 C 
HETATM   13  C7  UNL     1      38.263  -9.777  -7.902  1.00  0.00     0.009 C 
HETATM   14  C11 UNL     1      37.545 -12.118  -8.232  1.00  0.00     0.012 C 
HETATM   15  C8  UNL     1      39.692 -10.260  -7.942  1.00  0.00    -0.011 C 
HETATM   16  C9  UNL     1      39.830 -11.707  -7.545  1.00  0.00     0.012 C 
HETATM   17  C12 UNL     1      40.120 -10.336  -9.398  1.00  0.00     0.036 C 
HETATM   18  C10 UNL     1      38.995 -12.360  -8.676  1.00  0.00     0.014 C 
ENDBRANCH   8  10
ENDBRANCH   5   8
BRANCH   1  19
HETATM   19  C1  UNL     1      39.361 -13.639 -15.509  1.00  0.00     0.316 C 
HETATM   20  F1  UNL     1      38.077 -13.804 -16.017  1.00  0.00    -0.198 F 
HETATM   21 CL1  UNL     1      40.180 -15.155 -15.176  1.00  0.00    -0.058 Cl
HETATM   22 CL2  UNL     1      40.316 -12.762 -16.729  1.00  0.00    -0.058 Cl
ENDBRANCH   1  19
TORSDOF 3
ENDMDL
MODEL 3
REMARK VINA RESULT: -9.692140013      1.039      1.942
REMARK  3 active torsions:
REMARK  status: ('A' for Active; 'I' for Inactive)
REMARK    1  A    between atoms: C1_2  and  C2_5 
REMARK    2  A    between atoms: C3_9  and  N2_10 
REMARK    3  A    between atoms: N2_10  and  C4_12 
ROOT
HETATM    1  C2  UNL     1      39.214 -12.415 -14.413  1.00  0.00     0.177 A 
HETATM    2  N1  UNL     1      39.889 -13.210 -13.573  1.00  0.00    -0.240 N 
ATOM      3  H1  UNL     1      40.454 -14.011 -13.856  1.00  0.00     0.196 HD
HETATM    4  O1  UNL     1      39.723 -12.818 -12.357  1.00  0.00    -0.199 OA
HETATM    5  C3  UNL     1      38.956 -11.776 -12.337  1.00  0.00     0.245 A 
HETATM    6  N3  UNL     1      38.625 -11.507 -13.624  1.00  0.00    -0.304 N 
ATOM      7  H3  UNL     1      38.027 -10.743 -13.939  1.00  0.00     0.171 HD
ENDROOT
BRANCH   5   8
HETATM    8  N2  UNL     1      38.523 -11.048 -11.372  1.00  0.00    -0.345 N 
ATOM      9  H2  UNL     1      37.875 -10.323 -11.680  1.00  0.00     0.164 HD
BRANCH   8  10
HETATM   10  C4  UNL     1      38.742 -11.030 -10.011  1.00  0.00     0.038 C 
HETATM   11  C5  UNL     1      39.940 -10.165  -9.605  1.00  0.00     0.036 C 
HETATM   12  C6  UNL     1      39.733 -10.093  -8.106  1.00  0.00    -0.011 C 
HETATM   13  C7  UNL     1      39.820 -11.461  -7.457  1.00  0.00     0.009 C 
HETATM   14  C11 UNL     1      38.279  -9.632  -8.081  1.00  0.00     0.012 C 
HETATM   15  C8  UNL     1      38.870 -12.425  -8.125  1.00  0.00    -0.011 C 
HETATM   16  C9  UNL     1      37.456 -11.907  -8.178  1.00  0.00     0.012 C 
HETATM   17  C12 UNL     1      39.203 -12.458  -9.608  1.00  0.00     0.036 C 
HETATM   18  C10 UNL     1      37.679 -10.652  -9.059  1.00  0.00     0.014 C 
ENDBRANCH   8  10
ENDBRANCH   5   8
BRANCH   1  19
HETATM   19  C1  UNL     1      39.113 -12.519 -15.906  1.00  0.00     0.316 C 
HETATM   20  F1  UNL     1      38.829 -11.273 -16.455  1.00  0.00    -0.198 F 
HETATM   21 CL1  UNL     1      37.976 -13.768 -16.384  1.00  0.00    -0.058 Cl
HETATM   22 CL2  UNL     1      40.727 -13.006 -16.477  1.00  0.00    -0.058 Cl
ENDBRANCH   1  19
TORSDOF 3
ENDMDL
MODEL 4
REMARK VINA RESULT: -9.639778113      0.559      1.479
REMARK  3 active torsions:
REMARK  status: ('A' for Active; 'I' for Inactive)
REMARK    1  A    between atoms: C1_2  and  C2_5 
REMARK    2  A    between atoms: C3_9  and  N2_10 
REMARK    3  A    between atoms: N2_10  and  C4_12 
ROOT
HETATM    1  C2  UNL     1      39.358 -12.472 -14.270  1.00  0.00     0.177 A 
HETATM    2  N1  UNL     1      38.896 -11.236 -14.041  1.00  0.00    -0.240 N 
ATOM      3  H1  UNL     1      38.571 -10.593 -14.762  1.00  0.00     0.196 HD
HETATM    4  O1  UNL     1      38.920 -10.977 -12.780  1.00  0.00    -0.199 OA
HETATM    5  C3  UNL     1      39.383 -11.998 -12.135  1.00  0.00     0.245 A 
HETATM    6  N3  UNL     1      39.665 -12.951 -13.058  1.00  0.00    -0.304 N 
ATOM      7  H3  UNL     1      40.047 -13.876 -12.862  1.00  0.00     0.171 HD
ENDROOT
BRANCH   5   8
HETATM    8  N2  UNL     1      39.582 -12.205 -10.883  1.00  0.00    -0.345 N 
ATOM      9  H2  UNL     1      40.174 -13.015 -10.702  1.00  0.00     0.164 HD
BRANCH   8  10
HETATM   10  C4  UNL     1      39.171 -11.572  -9.729  1.00  0.00     0.038 C 
HETATM   11  C5  UNL     1      40.049 -10.373  -9.354  1.00  0.00     0.036 C 
HETATM   12  C6  UNL     1      39.194  -9.730  -8.281  1.00  0.00    -0.011 C 
HETATM   13  C7  UNL     1      39.004 -10.643  -7.087  1.00  0.00     0.009 C 
HETATM   14  C11 UNL     1      37.875  -9.637  -9.041  1.00  0.00     0.012 C 
HETATM   15  C8  UNL     1      38.467 -11.983  -7.526  1.00  0.00    -0.011 C 
HETATM   16  C9  UNL     1      37.217 -11.866  -8.359  1.00  0.00     0.012 C 
HETATM   17  C12 UNL     1      39.425 -12.558  -8.556  1.00  0.00     0.036 C 
HETATM   18  C10 UNL     1      37.790 -11.078  -9.565  1.00  0.00     0.014 C 
ENDBRANCH   8  10
ENDBRANCH   5   8
BRANCH   1  19
HETATM   19  C1  UNL     1      39.523 -13.169 -15.588  1.00  0.00     0.316 C 
HETATM   20  F1  UNL     1      40.407 -12.463 -16.397  1.00  0.00    -0.198 F 
HETATM   21 CL1  UNL     1      37.971 -13.473 -16.348  1.00  0.00    -0.058 Cl
HETATM   22 CL2  UNL     1      40.266 -14.745 -15.222  1.00  0.00    -0.058 Cl
ENDBRANCH   1  19
TORSDOF 3
ENDMDL
MODEL 5
REMARK VINA RESULT: -9.504785716      1.135      1.371
REMARK  3 active torsions:
REMARK  status: ('A' for Active; 'I' for Inactive)
REMARK    1  A    between atoms: C1_2  and  C2_5 
REMARK    2  A    between atoms: C3_9  and  N2_10 
REMARK    3  A    between atoms: N2_10  and  C4_12 
ROOT
HETATM    1  C2  UNL     1      39.161 -12.251 -14.268  1.00  0.00     0.177 A 
HETATM    2  N1  UNL     1      39.780 -13.071 -13.410  1.00  0.00    -0.240 N 
ATOM      3  H1  UNL     1      40.293 -13.912 -13.674  1.00  0.00     0.196 HD
HETATM    4  O1  UNL     1      39.636 -12.646 -12.202  1.00  0.00    -0.199 OA
HETATM    5  C3  UNL     1      38.939 -11.556 -12.206  1.00  0.00     0.245 A 
HETATM    6  N3  UNL     1      38.629 -11.291 -13.499  1.00  0.00    -0.304 N 
ATOM      7  H3  UNL     1      38.084 -10.496 -13.831  1.00  0.00     0.171 HD
ENDROOT
BRANCH   5   8
HETATM    8  N2  UNL     1      38.550 -10.783 -11.256  1.00  0.00    -0.345 N 
ATOM      9  H2  UNL     1      38.124  -9.921 -11.595  1.00  0.00     0.164 HD
BRANCH   8  10
HETATM   10  C4  UNL     1      38.583 -10.862  -9.881  1.00  0.00     0.038 C 
HETATM   11  C5  UNL     1      37.771  -9.758  -9.195  1.00  0.00     0.036 C 
HETATM   12  C6  UNL     1      37.740 -10.282  -7.773  1.00  0.00    -0.011 C 
HETATM   13  C7  UNL     1      39.129 -10.370  -7.173  1.00  0.00     0.009 C 
HETATM   14  C11 UNL     1      37.233 -11.694  -8.043  1.00  0.00     0.012 C 
HETATM   15  C8  UNL     1      40.040 -11.178  -8.065  1.00  0.00    -0.011 C 
HETATM   16  C9  UNL     1      39.476 -12.534  -8.401  1.00  0.00     0.012 C 
HETATM   17  C12 UNL     1      40.038 -10.535  -9.442  1.00  0.00     0.036 C 
HETATM   18  C10 UNL     1      38.201 -12.095  -9.165  1.00  0.00     0.014 C 
ENDBRANCH   8  10
ENDBRANCH   5   8
BRANCH   1  19
HETATM   19  C1  UNL     1      39.059 -12.377 -15.759  1.00  0.00     0.316 C 
HETATM   20  F1  UNL     1      38.796 -11.135 -16.328  1.00  0.00    -0.198 F 
HETATM   21 CL1  UNL     1      37.901 -13.613 -16.217  1.00  0.00    -0.058 Cl
HETATM   22 CL2  UNL     1      40.664 -12.900 -16.322  1.00  0.00    -0.058 Cl
ENDBRANCH   1  19
TORSDOF 3
ENDMDL
