MODEL 1
REMARK VINA RESULT: -6.159824770      0.000      0.000
REMARK  1 active torsions:
REMARK  status: ('A' for Active; 'I' for Inactive)
REMARK    1  A    between atoms: N1_2  and  C1_4 
ROOT
HETATM    1  C1  UNL     1      38.775 -12.252 -14.904  1.00  0.00     0.137 A 
HETATM    2  C2  UNL     1      37.977 -11.158 -14.649  1.00  0.00     0.126 A 
HETATM    3  N2  UNL     1      37.902 -10.661 -13.402  1.00  0.00    -0.356 N 
ATOM      4  H2  UNL     1      37.305  -9.851 -13.238  1.00  0.00     0.166 HD
HETATM    5  C3  UNL     1      38.571 -11.174 -12.369  1.00  0.00     0.103 A 
HETATM    6 BR1  UNL     1      38.462 -10.467 -10.598  1.00  0.00    -0.029 Br
HETATM    7  C4  UNL     1      39.370 -12.263 -12.607  1.00  0.00     0.087 A 
HETATM    8 CL1  UNL     1      40.268 -12.966 -11.254  1.00  0.00    -0.080 Cl
HETATM    9  C5  UNL     1      39.473 -12.807 -13.881  1.00  0.00     0.070 A 
HETATM   10 BR2  UNL     1      40.589 -14.318 -14.188  1.00  0.00    -0.046 Br
ENDROOT
BRANCH   1  11
HETATM   11  N1  UNL     1      38.842 -12.770 -16.237  1.00  0.00    -0.113 N 
HETATM   12  O1  UNL     1      37.790 -13.181 -16.767  1.00  0.00    -0.532 OA
HETATM   13  O2  UNL     1      39.991 -12.842 -16.965  1.00  0.00    -0.532 OA
ENDBRANCH   1  11
TORSDOF 1
ENDMDL
MODEL 2
REMARK VINA RESULT: -5.610628027      2.065      3.650
REMARK  1 active torsions:
REMARK  status: ('A' for Active; 'I' for Inactive)
REMARK    1  A    between atoms: N1_2  and  C1_4 
ROOT
HETATM    1  C1  UNL     1      38.497 -12.274 -15.010  1.00  0.00     0.137 A 
HETATM    2  C2  UNL     1      38.596 -13.070 -16.131  1.00  0.00     0.126 A 
HETATM    3  N2  UNL     1      39.434 -14.122 -16.132  1.00  0.00    -0.356 N 
ATOM      4  H2  UNL     1      39.490 -14.696 -16.973  1.00  0.00     0.166 HD
HETATM    5  C3  UNL     1      40.195 -14.451 -15.088  1.00  0.00     0.103 A 
HETATM    6 BR1  UNL     1      41.386 -15.945 -15.093  1.00  0.00    -0.029 Br
HETATM    7  C4  UNL     1      40.108 -13.668 -13.966  1.00  0.00     0.087 A 
HETATM    8 CL1  UNL     1      41.108 -14.082 -12.566  1.00  0.00    -0.080 Cl
HETATM    9  C5  UNL     1      39.255 -12.573 -13.925  1.00  0.00     0.070 A 
HETATM   10 BR2  UNL     1      39.150 -11.501 -12.356  1.00  0.00    -0.046 Br
ENDROOT
BRANCH   1  11
HETATM   11  N1  UNL     1      37.601 -11.158 -15.026  1.00  0.00    -0.113 N 
HETATM   12  O1  UNL     1      36.487 -11.283 -14.477  1.00  0.00    -0.532 OA
HETATM   13  O2  UNL     1      37.892  -9.961 -15.607  1.00  0.00    -0.532 OA
ENDBRANCH   1  11
TORSDOF 1
ENDMDL
MODEL 3
REMARK VINA RESULT: -5.588341790      2.563      2.876
REMARK  1 active torsions:
REMARK  status: ('A' for Active; 'I' for Inactive)
REMARK    1  A    between atoms: N1_2  and  C1_4 
ROOT
HETATM    1  C1  UNL     1      40.225 -13.795 -14.235  1.00  0.00     0.137 A 
HETATM    2  C2  UNL     1      40.675 -13.884 -12.935  1.00  0.00     0.126 A 
HETATM    3  N2  UNL     1      40.226 -13.016 -12.012  1.00  0.00    -0.356 N 
ATOM      4  H2  UNL     1      40.573 -13.102 -11.056  1.00  0.00     0.166 HD
HETATM    5  C3  UNL     1      39.349 -12.050 -12.281  1.00  0.00     0.103 A 
HETATM    6 BR1  UNL     1      38.713 -10.817 -10.967  1.00  0.00    -0.029 Br
HETATM    7  C4  UNL     1      38.892 -11.948 -13.571  1.00  0.00     0.087 A 
HETATM    8 CL1  UNL     1      37.727 -10.674 -13.958  1.00  0.00    -0.080 Cl
HETATM    9  C5  UNL     1      39.331 -12.825 -14.554  1.00  0.00     0.070 A 
HETATM   10 BR2  UNL     1      38.683 -12.666 -16.336  1.00  0.00    -0.046 Br
ENDROOT
BRANCH   1  11
HETATM   11  N1  UNL     1      40.714 -14.725 -15.206  1.00  0.00    -0.113 N 
HETATM   12  O1  UNL     1      40.317 -15.907 -15.148  1.00  0.00    -0.532 OA
HETATM   13  O2  UNL     1      41.591 -14.398 -16.194  1.00  0.00    -0.532 OA
ENDBRANCH   1  11
TORSDOF 1
ENDMDL
MODEL 4
REMARK VINA RESULT: -5.501289446      6.635      7.702
REMARK  1 active torsions:
REMARK  status: ('A' for Active; 'I' for Inactive)
REMARK    1  A    between atoms: N1_2  and  C1_4 
ROOT
HETATM    1  C1  UNL     1      38.929 -10.217  -7.579  1.00  0.00     0.137 A 
HETATM    2  C2  UNL     1      39.792  -9.568  -6.723  1.00  0.00     0.126 A 
HETATM    3  N2  UNL     1      39.731  -9.812  -5.401  1.00  0.00    -0.356 N 
ATOM      4  H2  UNL     1      40.380  -9.319  -4.788  1.00  0.00     0.166 HD
HETATM    5  C3  UNL     1      38.866 -10.665  -4.854  1.00  0.00     0.103 A 
HETATM    6 BR1  UNL     1      38.781 -11.008  -2.977  1.00  0.00    -0.029 Br
HETATM    7  C4  UNL     1      38.001 -11.319  -5.694  1.00  0.00     0.087 A 
HETATM    8 CL1  UNL     1      36.840 -12.456  -4.994  1.00  0.00    -0.080 Cl
HETATM    9  C5  UNL     1      38.031 -11.095  -7.064  1.00  0.00     0.070 A 
HETATM   10 BR2  UNL     1      36.821 -12.014  -8.210  1.00  0.00    -0.046 Br
ENDROOT
BRANCH   1  11
HETATM   11  N1  UNL     1      39.006  -9.946  -8.982  1.00  0.00    -0.113 N 
HETATM   12  O1  UNL     1      39.806 -10.610  -9.672  1.00  0.00    -0.532 OA
HETATM   13  O2  UNL     1      38.256  -9.001  -9.613  1.00  0.00    -0.532 OA
ENDBRANCH   1  11
TORSDOF 1
ENDMDL
MODEL 5
REMARK VINA RESULT: -5.128005270      3.250      4.362
REMARK  1 active torsions:
REMARK  status: ('A' for Active; 'I' for Inactive)
REMARK    1  A    between atoms: N1_2  and  C1_4 
ROOT
HETATM    1  C1  UNL     1      39.252 -12.219 -13.491  1.00  0.00     0.137 A 
HETATM    2  C2  UNL     1      39.930 -12.912 -12.513  1.00  0.00     0.126 A 
HETATM    3  N2  UNL     1      40.639 -14.007 -12.839  1.00  0.00    -0.356 N 
ATOM      4  H2  UNL     1      41.133 -14.504 -12.097  1.00  0.00     0.166 HD
HETATM    5  C3  UNL     1      40.729 -14.476 -14.083  1.00  0.00     0.103 A 
HETATM    6 BR1  UNL     1      41.736 -16.033 -14.544  1.00  0.00    -0.029 Br
HETATM    7  C4  UNL     1      40.060 -13.796 -15.069  1.00  0.00     0.087 A 
HETATM    8 CL1  UNL     1      40.162 -14.397 -16.730  1.00  0.00    -0.080 Cl
HETATM    9  C5  UNL     1      39.316 -12.661 -14.773  1.00  0.00     0.070 A 
HETATM   10 BR2  UNL     1      38.396 -11.733 -16.157  1.00  0.00    -0.046 Br
ENDROOT
BRANCH   1  11
HETATM   11  N1  UNL     1      38.501 -11.056 -13.127  1.00  0.00    -0.113 N 
HETATM   12  O1  UNL     1      38.501 -10.700 -11.931  1.00  0.00    -0.532 OA
HETATM   13  O2  UNL     1      37.782 -10.311 -14.011  1.00  0.00    -0.532 OA
ENDBRANCH   1  11
TORSDOF 1
ENDMDL
