MODEL 1
REMARK VINA RESULT: -5.728157220      0.000      0.000
REMARK  5 active torsions:
REMARK  status: ('A' for Active; 'I' for Inactive)
REMARK    1  A    between atoms: C2_3  and  O1_4 
REMARK    2  A    between atoms: C4_7  and  C13_20 
REMARK    3  A    between atoms: C7_10  and  C8_11 
REMARK    4  A    between atoms: C9_12  and  S1_13 
REMARK    5  A    between atoms: S1_13  and  C10_14 
ROOT
HETATM    1  N1  UNL     1      36.797 -12.245  -6.386  1.00  0.00    -0.194 NA
HETATM    2  C1  UNL     1      36.669 -12.205  -5.227  1.00  0.00     0.098 C 
HETATM    3  C2  UNL     1      36.576 -12.371  -3.766  1.00  0.00     0.150 C 
HETATM    4  C3  UNL     1      37.361 -13.584  -3.346  1.00  0.00     0.059 C 
HETATM    5  C4  UNL     1      38.369 -13.288  -2.240  1.00  0.00    -0.002 C 
HETATM    6  C5  UNL     1      37.518 -12.639  -1.143  1.00  0.00     0.006 C 
HETATM    7  C6  UNL     1      36.980 -11.341  -1.677  1.00  0.00     0.009 C 
HETATM    8  C7  UNL     1      37.270 -11.144  -3.159  1.00  0.00     0.040 C 
ENDROOT
BRANCH   3   9
HETATM    9  O1  UNL     1      35.240 -12.428  -3.387  1.00  0.00    -0.375 OA
ATOM     10  H1  UNL     1      35.170 -12.312  -2.447  1.00  0.00     0.211 HD
ENDBRANCH   3   9
BRANCH   8  11
HETATM   11  C8  UNL     1      38.654 -11.299  -3.575  1.00  0.00     0.017 C 
HETATM   12  C9  UNL     1      39.268 -10.449  -4.613  1.00  0.00     0.065 C 
HETATM   13  C11 UNL     1      40.576 -10.156  -3.906  1.00  0.00     0.001 C 
HETATM   14  C12 UNL     1      40.832 -11.323  -2.953  1.00  0.00     0.016 C 
HETATM   15  C14 UNL     1      40.005  -9.495  -2.655  1.00  0.00     0.016 C 
HETATM   16  C13 UNL     1      39.538 -10.898  -2.398  1.00  0.00    -0.031 C 
BRANCH  12  17
HETATM   17  S1  UNL     1      39.572 -11.270  -6.184  1.00  0.00    -0.050 SA
BRANCH  17  18
HETATM   18  C10 UNL     1      39.394 -10.081  -7.542  1.00  0.00     0.443 C 
HETATM   19  F1  UNL     1      39.337  -8.783  -7.052  1.00  0.00    -0.160 F 
HETATM   20  F2  UNL     1      38.205 -10.294  -8.232  1.00  0.00    -0.160 F 
HETATM   21  F3  UNL     1      40.401 -10.219  -8.484  1.00  0.00    -0.160 F 
ENDBRANCH  17  18
ENDBRANCH  12  17
ENDBRANCH   8  11
TORSDOF 5
ENDMDL
MODEL 2
REMARK VINA RESULT: -5.581427032      2.405      3.814
REMARK  5 active torsions:
REMARK  status: ('A' for Active; 'I' for Inactive)
REMARK    1  A    between atoms: C2_3  and  O1_4 
REMARK    2  A    between atoms: C4_7  and  C13_20 
REMARK    3  A    between atoms: C7_10  and  C8_11 
REMARK    4  A    between atoms: C9_12  and  S1_13 
REMARK    5  A    between atoms: S1_13  and  C10_14 
ROOT
HETATM    1  N1  UNL     1      40.365 -11.416  -7.065  1.00  0.00    -0.194 NA
HETATM    2  C1  UNL     1      40.579 -11.476  -5.920  1.00  0.00     0.098 C 
HETATM    3  C2  UNL     1      40.855 -11.323  -4.480  1.00  0.00     0.150 C 
HETATM    4  C3  UNL     1      40.545  -9.913  -4.056  1.00  0.00     0.059 C 
HETATM    5  C4  UNL     1      39.601  -9.845  -2.859  1.00  0.00    -0.002 C 
HETATM    6  C5  UNL     1      40.294 -10.716  -1.805  1.00  0.00     0.006 C 
HETATM    7  C6  UNL     1      40.334 -12.127  -2.319  1.00  0.00     0.009 C 
HETATM    8  C7  UNL     1      39.861 -12.246  -3.762  1.00  0.00     0.040 C 
ENDROOT
BRANCH   3   9
HETATM    9  O1  UNL     1      42.166 -11.696  -4.214  1.00  0.00    -0.375 OA
ATOM     10  H1  UNL     1      42.759 -11.020  -4.520  1.00  0.00     0.211 HD
ENDBRANCH   3   9
BRANCH   8  11
HETATM   11  C8  UNL     1      38.569 -11.657  -4.072  1.00  0.00     0.017 C 
HETATM   12  C9  UNL     1      37.782 -12.052  -5.255  1.00  0.00     0.065 C 
HETATM   13  C11 UNL     1      36.429 -12.173  -4.584  1.00  0.00     0.001 C 
HETATM   14  C12 UNL     1      36.455 -11.244  -3.371  1.00  0.00     0.016 C 
HETATM   15  C14 UNL     1      36.791 -13.236  -3.551  1.00  0.00     0.016 C 
HETATM   16  C13 UNL     1      37.589 -12.098  -2.988  1.00  0.00    -0.031 C 
BRANCH  12  17
HETATM   17  S1  UNL     1      37.725 -10.828  -6.571  1.00  0.00    -0.050 SA
BRANCH  17  18
HETATM   18  C10 UNL     1      37.225 -11.621  -8.125  1.00  0.00     0.443 C 
HETATM   19  F1  UNL     1      37.014 -10.670  -9.113  1.00  0.00    -0.160 F 
HETATM   20  F2  UNL     1      36.020 -12.299  -7.967  1.00  0.00    -0.160 F 
HETATM   21  F3  UNL     1      38.140 -12.578  -8.533  1.00  0.00    -0.160 F 
ENDBRANCH  17  18
ENDBRANCH  12  17
ENDBRANCH   8  11
TORSDOF 5
ENDMDL
MODEL 3
REMARK VINA RESULT: -5.437878192      2.221      3.642
REMARK  5 active torsions:
REMARK  status: ('A' for Active; 'I' for Inactive)
REMARK    1  A    between atoms: C2_3  and  O1_4 
REMARK    2  A    between atoms: C4_7  and  C13_20 
REMARK    3  A    between atoms: C7_10  and  C8_11 
REMARK    4  A    between atoms: C9_12  and  S1_13 
REMARK    5  A    between atoms: S1_13  and  C10_14 
ROOT
HETATM    1  N1  UNL     1      41.846 -11.916  -4.944  1.00  0.00    -0.194 NA
HETATM    2  C1  UNL     1      41.386 -11.929  -3.872  1.00  0.00     0.098 C 
HETATM    3  C2  UNL     1      40.855 -11.722  -2.513  1.00  0.00     0.150 C 
HETATM    4  C3  UNL     1      40.628 -10.253  -2.280  1.00  0.00     0.059 C 
HETATM    5  C4  UNL     1      39.216  -9.938  -1.795  1.00  0.00    -0.002 C 
HETATM    6  C5  UNL     1      39.049 -10.836  -0.565  1.00  0.00     0.006 C 
HETATM    7  C6  UNL     1      39.103 -12.267  -1.022  1.00  0.00     0.009 C 
HETATM    8  C7  UNL     1      39.482 -12.406  -2.491  1.00  0.00     0.040 C 
ENDROOT
BRANCH   3   9
HETATM    9  O1  UNL     1      41.714 -12.295  -1.584  1.00  0.00    -0.375 OA
ATOM     10  H1  UNL     1      41.303 -13.059  -1.197  1.00  0.00     0.211 HD
ENDBRANCH   3   9
BRANCH   8  11
HETATM   11  C8  UNL     1      38.701 -11.628  -3.438  1.00  0.00     0.017 C 
HETATM   12  C9  UNL     1      38.719 -11.896  -4.888  1.00  0.00     0.065 C 
HETATM   13  C11 UNL     1      37.228 -11.813  -5.142  1.00  0.00     0.001 C 
HETATM   14  C12 UNL     1      36.648 -10.902  -4.062  1.00  0.00     0.016 C 
HETATM   15  C14 UNL     1      36.782 -12.921  -4.193  1.00  0.00     0.016 C 
HETATM   16  C13 UNL     1      37.227 -11.918  -3.170  1.00  0.00    -0.031 C 
BRANCH  12  17
HETATM   17  S1  UNL     1      39.595 -10.675  -5.875  1.00  0.00    -0.050 SA
BRANCH  17  18
HETATM   18  C10 UNL     1      39.518 -11.132  -7.629  1.00  0.00     0.443 C 
HETATM   19  F1  UNL     1      39.971 -12.431  -7.816  1.00  0.00    -0.160 F 
HETATM   20  F2  UNL     1      40.345 -10.313  -8.390  1.00  0.00    -0.160 F 
HETATM   21  F3  UNL     1      38.245 -10.962  -8.150  1.00  0.00    -0.160 F 
ENDBRANCH  17  18
ENDBRANCH  12  17
ENDBRANCH   8  11
TORSDOF 5
ENDMDL
MODEL 4
REMARK VINA RESULT: -5.374956177      0.602      1.003
REMARK  5 active torsions:
REMARK  status: ('A' for Active; 'I' for Inactive)
REMARK    1  A    between atoms: C2_3  and  O1_4 
REMARK    2  A    between atoms: C4_7  and  C13_20 
REMARK    3  A    between atoms: C7_10  and  C8_11 
REMARK    4  A    between atoms: C9_12  and  S1_13 
REMARK    5  A    between atoms: S1_13  and  C10_14 
ROOT
HETATM    1  N1  UNL     1      36.700 -12.271  -5.749  1.00  0.00    -0.194 NA
HETATM    2  C1  UNL     1      36.665 -12.316  -4.584  1.00  0.00     0.098 C 
HETATM    3  C2  UNL     1      36.707 -12.583  -3.135  1.00  0.00     0.150 C 
HETATM    4  C3  UNL     1      37.619 -13.748  -2.865  1.00  0.00     0.059 C 
HETATM    5  C4  UNL     1      38.688 -13.439  -1.822  1.00  0.00    -0.002 C 
HETATM    6  C5  UNL     1      37.882 -12.936  -0.619  1.00  0.00     0.006 C 
HETATM    7  C6  UNL     1      37.199 -11.658  -1.016  1.00  0.00     0.009 C 
HETATM    8  C7  UNL     1      37.349 -11.342  -2.498  1.00  0.00     0.040 C 
ENDROOT
BRANCH   3   9
HETATM    9  O1  UNL     1      35.417 -12.778  -2.659  1.00  0.00    -0.375 OA
ATOM     10  H1  UNL     1      35.082 -13.609  -2.976  1.00  0.00     0.211 HD
ENDBRANCH   3   9
BRANCH   8  11
HETATM   11  C8  UNL     1      38.701 -11.351  -3.031  1.00  0.00     0.017 C 
HETATM   12  C9  UNL     1      39.135 -10.439  -4.106  1.00  0.00     0.065 C 
HETATM   13  C11 UNL     1      40.460 -10.014  -3.506  1.00  0.00     0.001 C 
HETATM   14  C12 UNL     1      40.914 -11.150  -2.592  1.00  0.00     0.016 C 
HETATM   15  C14 UNL     1      39.931  -9.420  -2.205  1.00  0.00     0.016 C 
HETATM   16  C13 UNL     1      39.635 -10.864  -1.926  1.00  0.00    -0.031 C 
BRANCH  12  17
HETATM   17  S1  UNL     1      39.389 -11.218  -5.706  1.00  0.00    -0.050 SA
BRANCH  17  18
HETATM   18  C10 UNL     1      39.306  -9.968  -7.018  1.00  0.00     0.443 C 
HETATM   19  F1  UNL     1      38.049  -9.961  -7.608  1.00  0.00    -0.160 F 
HETATM   20  F2  UNL     1      40.215 -10.255  -8.031  1.00  0.00    -0.160 F 
HETATM   21  F3  UNL     1      39.651  -8.709  -6.553  1.00  0.00    -0.160 F 
ENDBRANCH  17  18
ENDBRANCH  12  17
ENDBRANCH   8  11
TORSDOF 5
ENDMDL
MODEL 5
REMARK VINA RESULT: -5.288844163      2.308      3.536
REMARK  5 active torsions:
REMARK  status: ('A' for Active; 'I' for Inactive)
REMARK    1  A    between atoms: C2_3  and  O1_4 
REMARK    2  A    between atoms: C4_7  and  C13_20 
REMARK    3  A    between atoms: C7_10  and  C8_11 
REMARK    4  A    between atoms: C9_12  and  S1_13 
REMARK    5  A    between atoms: S1_13  and  C10_14 
ROOT
HETATM    1  N1  UNL     1      41.931 -12.057  -4.641  1.00  0.00    -0.194 NA
HETATM    2  C1  UNL     1      41.439 -12.295  -3.610  1.00  0.00     0.098 C 
HETATM    3  C2  UNL     1      40.875 -12.381  -2.252  1.00  0.00     0.150 C 
HETATM    4  C3  UNL     1      40.684 -10.996  -1.697  1.00  0.00     0.059 C 
HETATM    5  C4  UNL     1      39.269 -10.748  -1.185  1.00  0.00    -0.002 C 
HETATM    6  C5  UNL     1      39.039 -11.895  -0.194  1.00  0.00     0.006 C 
HETATM    7  C6  UNL     1      39.064 -13.187  -0.962  1.00  0.00     0.009 C 
HETATM    8  C7  UNL     1      39.482 -13.004  -2.415  1.00  0.00     0.040 C 
ENDROOT
BRANCH   3   9
HETATM    9  O1  UNL     1      41.689 -13.179  -1.458  1.00  0.00    -0.375 OA
ATOM     10  H1  UNL     1      41.185 -13.526  -0.731  1.00  0.00     0.211 HD
ENDBRANCH   3   9
BRANCH   8  11
HETATM   11  C8  UNL     1      38.752 -12.005  -3.179  1.00  0.00     0.017 C 
HETATM   12  C9  UNL     1      38.648 -12.053  -4.649  1.00  0.00     0.065 C 
HETATM   13  C11 UNL     1      37.167 -11.755  -4.770  1.00  0.00     0.001 C 
HETATM   14  C12 UNL     1      36.777 -10.954  -3.530  1.00  0.00     0.016 C 
HETATM   15  C14 UNL     1      36.640 -12.932  -3.955  1.00  0.00     0.016 C 
HETATM   16  C13 UNL     1      37.272 -12.154  -2.839  1.00  0.00    -0.031 C 
BRANCH  12  17
HETATM   17  S1  UNL     1      39.613 -10.811  -5.520  1.00  0.00    -0.050 SA
BRANCH  17  18
HETATM   18  C10 UNL     1      39.556 -11.129  -7.305  1.00  0.00     0.443 C 
HETATM   19  F1  UNL     1      40.176 -10.104  -8.005  1.00  0.00    -0.160 F 
HETATM   20  F2  UNL     1      38.241 -11.174  -7.756  1.00  0.00    -0.160 F 
HETATM   21  F3  UNL     1      40.102 -12.361  -7.627  1.00  0.00    -0.160 F 
ENDBRANCH  17  18
ENDBRANCH  12  17
ENDBRANCH   8  11
TORSDOF 5
ENDMDL
