MODEL 1
REMARK VINA RESULT: -6.521210336      0.000      0.000
REMARK  7 active torsions:
REMARK  status: ('A' for Active; 'I' for Inactive)
REMARK    1  A    between atoms: C3_3  and  N1_4 
REMARK    2  A    between atoms: N1_4  and  C4_5 
REMARK    3  A    between atoms: N1_4  and  N5_16 
REMARK    4  A    between atoms: C4_5  and  C5_6 
REMARK    5  A    between atoms: C7_10  and  N3_11 
REMARK    6  A    between atoms: N5_16  and  N6_18 
REMARK    7  A    between atoms: N6_18  and  N7_20 
ROOT
HETATM    1  C1  UNL     1      25.538 -10.065  -8.398  1.00  0.00     0.014 C 
HETATM    2  C2  UNL     1      25.569  -9.596  -7.292  1.00  0.00    -0.096 C 
HETATM    3  C3  UNL     1      25.571  -9.011  -5.949  1.00  0.00     0.237 C 
ENDROOT
BRANCH   3   4
HETATM    4  N1  UNL     1      24.880  -9.880  -5.047  1.00  0.00    -0.296 N 
BRANCH   4   5
HETATM    5  C4  UNL     1      25.668 -10.707  -4.146  1.00  0.00     0.204 C 
BRANCH   5   6
HETATM    6  C5  UNL     1      25.615 -12.136  -4.672  1.00  0.00     0.061 A 
HETATM    7  C6  UNL     1      26.282 -12.682  -5.734  1.00  0.00     0.133 A 
HETATM    8  N2  UNL     1      25.931 -13.979  -5.794  1.00  0.00    -0.200 N 
HETATM    9  C7  UNL     1      25.064 -14.235  -4.787  1.00  0.00     0.676 A 
ATOM     10  H2  UNL     1      26.261 -14.655  -6.482  1.00  0.00     0.183 HD
HETATM   11  N4  UNL     1      24.874 -13.099  -4.104  1.00  0.00    -0.193 N 
ATOM     12  H4  UNL     1      24.270 -12.985  -3.290  1.00  0.00     0.184 HD
BRANCH   9  13
HETATM   13  N3  UNL     1      24.524 -15.377  -4.541  1.00  0.00    -0.234 N 
ATOM     14  H32 UNL     1      24.994 -16.282  -4.530  1.00  0.00     0.174 HD
ATOM     15  H31 UNL     1      23.540 -15.530  -4.321  1.00  0.00     0.174 HD
ENDBRANCH   9  13
ENDBRANCH   5   6
ENDBRANCH   4   5
BRANCH   4  16
HETATM   16  N5  UNL     1      23.506  -9.964  -5.022  1.00  0.00    -0.230 N 
ATOM     17  H5  UNL     1      23.048 -10.669  -5.598  1.00  0.00     0.209 HD
BRANCH  16  18
HETATM   18  N6  UNL     1      22.775  -9.185  -4.296  1.00  0.00    -0.235 N 
ATOM     19  H6  UNL     1      23.235  -8.666  -3.548  1.00  0.00     0.209 HD
BRANCH  18  20
HETATM   20  N7  UNL     1      21.424  -9.006  -4.456  1.00  0.00    -0.330 N 
ATOM     21  H72 UNL     1      21.083  -8.946  -5.416  1.00  0.00     0.178 HD
ATOM     22  H71 UNL     1      20.752  -8.930  -3.693  1.00  0.00     0.178 HD
ENDBRANCH  18  20
ENDBRANCH  16  18
ENDBRANCH   4  16
ENDBRANCH   3   4
TORSDOF 7
ENDMDL
MODEL 2
REMARK VINA RESULT: -6.497829836      1.848      2.408
REMARK  7 active torsions:
REMARK  status: ('A' for Active; 'I' for Inactive)
REMARK    1  A    between atoms: C3_3  and  N1_4 
REMARK    2  A    between atoms: N1_4  and  C4_5 
REMARK    3  A    between atoms: N1_4  and  N5_16 
REMARK    4  A    between atoms: C4_5  and  C5_6 
REMARK    5  A    between atoms: C7_10  and  N3_11 
REMARK    6  A    between atoms: N5_16  and  N6_18 
REMARK    7  A    between atoms: N6_18  and  N7_20 
ROOT
HETATM    1  C1  UNL     1      28.419  -8.718  -5.323  1.00  0.00     0.014 C 
HETATM    2  C2  UNL     1      27.217  -8.745  -5.299  1.00  0.00    -0.096 C 
HETATM    3  C3  UNL     1      25.754  -8.806  -5.297  1.00  0.00     0.237 C 
ENDROOT
BRANCH   3   4
HETATM    4  N1  UNL     1      25.321  -9.871  -4.446  1.00  0.00    -0.296 N 
BRANCH   4   5
HETATM    5  C4  UNL     1      24.254 -10.740  -4.919  1.00  0.00     0.204 C 
BRANCH   5   6
HETATM    6  C5  UNL     1      24.850 -12.128  -5.122  1.00  0.00     0.061 A 
HETATM    7  C6  UNL     1      25.899 -12.499  -5.917  1.00  0.00     0.133 A 
HETATM    8  N2  UNL     1      26.069 -13.824  -5.749  1.00  0.00    -0.200 N 
HETATM    9  C7  UNL     1      25.144 -14.266  -4.866  1.00  0.00     0.676 A 
ATOM     10  H2  UNL     1      26.775 -14.397  -6.211  1.00  0.00     0.183 HD
HETATM   11  N4  UNL     1      24.399 -13.220  -4.487  1.00  0.00    -0.193 N 
ATOM     12  H4  UNL     1      23.622 -13.248  -3.827  1.00  0.00     0.184 HD
BRANCH   9  13
HETATM   13  N3  UNL     1      25.016 -15.483  -4.469  1.00  0.00    -0.234 N 
ATOM     14  H32 UNL     1      24.829 -16.296  -5.055  1.00  0.00     0.174 HD
ATOM     15  H31 UNL     1      25.086 -15.799  -3.502  1.00  0.00     0.174 HD
ENDBRANCH   9  13
ENDBRANCH   5   6
ENDBRANCH   4   5
BRANCH   4  16
HETATM   16  N5  UNL     1      25.869 -10.081  -3.201  1.00  0.00    -0.230 N 
ATOM     17  H5  UNL     1      26.884 -10.051  -3.101  1.00  0.00     0.209 HD
BRANCH  16  18
HETATM   18  N6  UNL     1      25.150 -10.316  -2.154  1.00  0.00    -0.235 N 
ATOM     19  H6  UNL     1      24.590  -9.548  -1.784  1.00  0.00     0.209 HD
BRANCH  18  20
HETATM   20  N7  UNL     1      25.084 -11.522  -1.503  1.00  0.00    -0.330 N 
ATOM     21  H72 UNL     1      25.794 -12.212  -1.750  1.00  0.00     0.178 HD
ATOM     22  H71 UNL     1      24.385 -11.768  -0.802  1.00  0.00     0.178 HD
ENDBRANCH  18  20
ENDBRANCH  16  18
ENDBRANCH   4  16
ENDBRANCH   3   4
TORSDOF 7
ENDMDL
MODEL 3
REMARK VINA RESULT: -6.396117406      2.405      4.475
REMARK  7 active torsions:
REMARK  status: ('A' for Active; 'I' for Inactive)
REMARK    1  A    between atoms: C3_3  and  N1_4 
REMARK    2  A    between atoms: N1_4  and  C4_5 
REMARK    3  A    between atoms: N1_4  and  N5_16 
REMARK    4  A    between atoms: C4_5  and  C5_6 
REMARK    5  A    between atoms: C7_10  and  N3_11 
REMARK    6  A    between atoms: N5_16  and  N6_18 
REMARK    7  A    between atoms: N6_18  and  N7_20 
ROOT
HETATM    1  C1  UNL     1      25.536 -11.056  -7.963  1.00  0.00     0.014 C 
HETATM    2  C2  UNL     1      25.704 -11.888  -7.112  1.00  0.00    -0.096 C 
HETATM    3  C3  UNL     1      25.930 -12.875  -6.054  1.00  0.00     0.237 C 
ENDROOT
BRANCH   3   4
HETATM    4  N1  UNL     1      24.972 -12.684  -5.009  1.00  0.00    -0.296 N 
BRANCH   4   5
HETATM    5  C4  UNL     1      24.662 -11.323  -4.598  1.00  0.00     0.204 C 
BRANCH   5   6
HETATM    6  C5  UNL     1      25.762 -10.870  -3.645  1.00  0.00     0.061 A 
HETATM    7  C6  UNL     1      25.809 -10.977  -2.282  1.00  0.00     0.133 A 
HETATM    8  N2  UNL     1      26.986 -10.457  -1.889  1.00  0.00    -0.200 N 
HETATM    9  C7  UNL     1      27.658 -10.037  -2.986  1.00  0.00     0.676 A 
ATOM     10  H2  UNL     1      27.316 -10.390  -0.926  1.00  0.00     0.183 HD
HETATM   11  N4  UNL     1      26.899 -10.292  -4.059  1.00  0.00    -0.193 N 
ATOM     12  H4  UNL     1      27.144 -10.083  -5.027  1.00  0.00     0.184 HD
BRANCH   9  13
HETATM   13  N3  UNL     1      28.821  -9.489  -2.982  1.00  0.00    -0.234 N 
ATOM     14  H32 UNL     1      29.643  -9.810  -2.470  1.00  0.00     0.174 HD
ATOM     15  H31 UNL     1      29.080  -8.648  -3.498  1.00  0.00     0.174 HD
ENDBRANCH   9  13
ENDBRANCH   5   6
ENDBRANCH   4   5
BRANCH   4  16
HETATM   16  N5  UNL     1      24.356 -13.741  -4.379  1.00  0.00    -0.230 N 
ATOM     17  H5  UNL     1      23.652 -13.545  -3.668  1.00  0.00     0.209 HD
BRANCH  16  18
HETATM   18  N6  UNL     1      24.634 -14.973  -4.653  1.00  0.00    -0.235 N 
ATOM     19  H6  UNL     1      25.529 -15.166  -5.102  1.00  0.00     0.209 HD
BRANCH  18  20
HETATM   20  N7  UNL     1      23.813 -16.039  -4.386  1.00  0.00    -0.330 N 
ATOM     21  H72 UNL     1      22.885 -16.016  -4.809  1.00  0.00     0.178 HD
ATOM     22  H71 UNL     1      24.067 -16.837  -3.804  1.00  0.00     0.178 HD
ENDBRANCH  18  20
ENDBRANCH  16  18
ENDBRANCH   4  16
ENDBRANCH   3   4
TORSDOF 7
ENDMDL
MODEL 4
REMARK VINA RESULT: -6.307815608      1.914      2.375
REMARK  7 active torsions:
REMARK  status: ('A' for Active; 'I' for Inactive)
REMARK    1  A    between atoms: C3_3  and  N1_4 
REMARK    2  A    between atoms: N1_4  and  C4_5 
REMARK    3  A    between atoms: N1_4  and  N5_16 
REMARK    4  A    between atoms: C4_5  and  C5_6 
REMARK    5  A    between atoms: C7_10  and  N3_11 
REMARK    6  A    between atoms: N5_16  and  N6_18 
REMARK    7  A    between atoms: N6_18  and  N7_20 
ROOT
HETATM    1  C1  UNL     1      25.188 -10.163  -8.116  1.00  0.00     0.014 C 
HETATM    2  C2  UNL     1      24.859 -10.388  -6.982  1.00  0.00    -0.096 C 
HETATM    3  C3  UNL     1      24.451 -10.700  -5.610  1.00  0.00     0.237 C 
ENDROOT
BRANCH   3   4
HETATM    4  N1  UNL     1      25.543 -11.306  -4.912  1.00  0.00    -0.296 N 
BRANCH   4   5
HETATM    5  C4  UNL     1      26.235 -12.417  -5.548  1.00  0.00     0.204 C 
BRANCH   5   6
HETATM    6  C5  UNL     1      25.480 -13.692  -5.191  1.00  0.00     0.061 A 
HETATM    7  C6  UNL     1      24.337 -13.830  -4.453  1.00  0.00     0.133 A 
HETATM    8  N2  UNL     1      24.042 -15.142  -4.429  1.00  0.00    -0.200 N 
HETATM    9  C7  UNL     1      24.982 -15.807  -5.139  1.00  0.00     0.676 A 
ATOM     10  H2  UNL     1      23.244 -15.565  -3.954  1.00  0.00     0.183 HD
HETATM   11  N4  UNL     1      25.862 -14.910  -5.602  1.00  0.00    -0.193 N 
ATOM     12  H4  UNL     1      26.683 -15.118  -6.171  1.00  0.00     0.184 HD
BRANCH   9  13
HETATM   13  N3  UNL     1      25.012 -17.079  -5.327  1.00  0.00    -0.234 N 
ATOM     14  H32 UNL     1      24.535 -17.787  -4.770  1.00  0.00     0.174 HD
ATOM     15  H31 UNL     1      25.524 -17.554  -6.071  1.00  0.00     0.174 HD
ENDBRANCH   9  13
ENDBRANCH   5   6
ENDBRANCH   4   5
BRANCH   4  16
HETATM   16  N5  UNL     1      25.940 -10.881  -3.665  1.00  0.00    -0.230 N 
ATOM     17  H5  UNL     1      26.900 -11.058  -3.370  1.00  0.00     0.209 HD
BRANCH  16  18
HETATM   18  N6  UNL     1      25.145 -10.268  -2.853  1.00  0.00    -0.235 N 
ATOM     19  H6  UNL     1      25.063  -9.255  -2.947  1.00  0.00     0.209 HD
BRANCH  18  20
HETATM   20  N7  UNL     1      24.403 -10.877  -1.873  1.00  0.00    -0.330 N 
ATOM     21  H72 UNL     1      24.818 -11.698  -1.432  1.00  0.00     0.178 HD
ATOM     22  H71 UNL     1      23.482 -10.568  -1.563  1.00  0.00     0.178 HD
ENDBRANCH  18  20
ENDBRANCH  16  18
ENDBRANCH   4  16
ENDBRANCH   3   4
TORSDOF 7
ENDMDL
MODEL 5
REMARK VINA RESULT: -6.275152932      1.714      4.774
REMARK  7 active torsions:
REMARK  status: ('A' for Active; 'I' for Inactive)
REMARK    1  A    between atoms: C3_3  and  N1_4 
REMARK    2  A    between atoms: N1_4  and  C4_5 
REMARK    3  A    between atoms: N1_4  and  N5_16 
REMARK    4  A    between atoms: C4_5  and  C5_6 
REMARK    5  A    between atoms: C7_10  and  N3_11 
REMARK    6  A    between atoms: N5_16  and  N6_18 
REMARK    7  A    between atoms: N6_18  and  N7_20 
ROOT
HETATM    1  C1  UNL     1      24.590 -15.753  -4.690  1.00  0.00     0.014 C 
HETATM    2  C2  UNL     1      25.203 -14.780  -5.039  1.00  0.00    -0.096 C 
HETATM    3  C3  UNL     1      25.926 -13.591  -5.496  1.00  0.00     0.237 C 
ENDROOT
BRANCH   3   4
HETATM    4  N1  UNL     1      25.230 -12.415  -5.072  1.00  0.00    -0.296 N 
BRANCH   4   5
HETATM    5  C4  UNL     1      25.109 -11.310  -6.010  1.00  0.00     0.204 C 
BRANCH   5   6
HETATM    6  C5  UNL     1      24.325 -10.203  -5.316  1.00  0.00     0.061 A 
HETATM    7  C6  UNL     1      24.777  -9.001  -4.846  1.00  0.00     0.133 A 
HETATM    8  N2  UNL     1      23.714  -8.355  -4.333  1.00  0.00    -0.200 N 
HETATM    9  C7  UNL     1      22.622  -9.139  -4.485  1.00  0.00     0.676 A 
ATOM     10  H2  UNL     1      23.729  -7.430  -3.904  1.00  0.00     0.183 HD
HETATM   11  N4  UNL     1      23.005 -10.272  -5.087  1.00  0.00    -0.193 N 
ATOM     12  H4  UNL     1      22.397 -11.054  -5.330  1.00  0.00     0.184 HD
BRANCH   9  13
HETATM   13  N3  UNL     1      21.429  -8.836  -4.110  1.00  0.00    -0.234 N 
ATOM     14  H32 UNL     1      21.171  -8.291  -3.288  1.00  0.00     0.174 HD
ATOM     15  H31 UNL     1      20.572  -9.104  -4.593  1.00  0.00     0.174 HD
ENDBRANCH   9  13
ENDBRANCH   5   6
ENDBRANCH   4   5
BRANCH   4  16
HETATM   16  N5  UNL     1      24.693 -12.299  -3.810  1.00  0.00    -0.230 N 
ATOM     17  H5  UNL     1      23.714 -12.547  -3.669  1.00  0.00     0.209 HD
BRANCH  16  18
HETATM   18  N6  UNL     1      25.380 -11.887  -2.796  1.00  0.00    -0.235 N 
ATOM     19  H6  UNL     1      26.396 -11.952  -2.856  1.00  0.00     0.209 HD
BRANCH  18  20
HETATM   20  N7  UNL     1      24.843 -11.369  -1.645  1.00  0.00    -0.330 N 
ATOM     21  H72 UNL     1      24.092 -10.688  -1.759  1.00  0.00     0.178 HD
ATOM     22  H71 UNL     1      25.140 -11.617  -0.701  1.00  0.00     0.178 HD
ENDBRANCH  18  20
ENDBRANCH  16  18
ENDBRANCH   4  16
ENDBRANCH   3   4
TORSDOF 7
ENDMDL
