MODEL 1
REMARK VINA RESULT: -5.896505558      0.000      0.000
REMARK  6 active torsions:
REMARK  status: ('A' for Active; 'I' for Inactive)
REMARK    1  A    between atoms: C2_5  and  C3_6 
REMARK    2  A    between atoms: C3_6  and  N2_7 
REMARK    3  A    between atoms: C4_11  and  N3_12 
REMARK    4  A    between atoms: N4_17  and  C6_18 
REMARK    5  A    between atoms: C6_18  and  C7_19 
REMARK    6  A    between atoms: C7_19  and  N5_20 
ROOT
HETATM    1  N1  UNL     1      24.042 -10.524  -6.506  1.00  0.00    -0.389 N 
ATOM      2  H11 UNL     1      24.445 -10.898  -7.364  1.00  0.00     0.157 HD
ATOM      3  H12 UNL     1      23.424  -9.770  -6.807  1.00  0.00     0.157 HD
HETATM    4  C1  UNL     1      24.269 -10.929  -5.289  1.00  0.00     0.080 C 
HETATM    5  C2  UNL     1      23.684 -10.385  -4.040  1.00  0.00     0.110 C 
HETATM    6  C4  UNL     1      24.809 -10.531  -3.057  1.00  0.00     0.214 C 
HETATM    7  C5  UNL     1      25.460 -11.818  -3.470  1.00  0.00     0.157 C 
HETATM    8  N4  UNL     1      25.137 -11.989  -4.865  1.00  0.00    -0.367 N 
ENDROOT
BRANCH   8   9
HETATM    9  C6  UNL     1      25.606 -13.059  -5.720  1.00  0.00     0.151 C 
BRANCH   9  10
HETATM   10  C7  UNL     1      25.412 -14.407  -5.061  1.00  0.00     0.249 C 
BRANCH  10  11
HETATM   11  N5  UNL     1      24.116 -14.589  -4.517  1.00  0.00    -0.078 N 
ATOM     12  H53 UNL     1      23.430 -14.028  -5.024  1.00  0.00     0.274 HD
ATOM     13  H52 UNL     1      23.763 -15.521  -4.729  1.00  0.00     0.274 HD
ATOM     14  H51 UNL     1      24.065 -14.403  -3.516  1.00  0.00     0.274 HD
ENDBRANCH  10  11
ENDBRANCH   9  10
ENDBRANCH   8   9
BRANCH   5  15
HETATM   15  C3  UNL     1      23.229  -8.953  -4.203  1.00  0.00     0.243 C 
BRANCH  15  16
HETATM   16  N2  UNL     1      21.777  -8.946  -4.250  1.00  0.00    -0.079 N 
ATOM     17  H23 UNL     1      21.390  -9.819  -4.608  1.00  0.00     0.274 HD
ATOM     18  H22 UNL     1      21.353  -8.978  -3.324  1.00  0.00     0.274 HD
ATOM     19  H21 UNL     1      21.483  -8.132  -4.791  1.00  0.00     0.274 HD
ENDBRANCH  15  16
ENDBRANCH   5  15
BRANCH   6  20
HETATM   20  N3  UNL     1      24.262 -10.599  -1.713  1.00  0.00    -0.073 N 
ATOM     21  H33 UNL     1      23.360 -10.128  -1.637  1.00  0.00     0.274 HD
ATOM     22  H32 UNL     1      23.955 -11.539  -1.467  1.00  0.00     0.274 HD
ATOM     23  H31 UNL     1      24.947 -10.230  -1.054  1.00  0.00     0.274 HD
ENDBRANCH   6  20
TORSDOF 6
ENDMDL
MODEL 2
REMARK VINA RESULT: -5.286076965      2.510      4.239
REMARK  6 active torsions:
REMARK  status: ('A' for Active; 'I' for Inactive)
REMARK    1  A    between atoms: C2_5  and  C3_6 
REMARK    2  A    between atoms: C3_6  and  N2_7 
REMARK    3  A    between atoms: C4_11  and  N3_12 
REMARK    4  A    between atoms: N4_17  and  C6_18 
REMARK    5  A    between atoms: C6_18  and  C7_19 
REMARK    6  A    between atoms: C7_19  and  N5_20 
ROOT
HETATM    1  N1  UNL     1      26.005  -9.869  -6.424  1.00  0.00    -0.389 N 
ATOM      2  H11 UNL     1      25.241 -10.047  -7.076  1.00  0.00     0.157 HD
ATOM      3  H12 UNL     1      26.815  -9.667  -7.010  1.00  0.00     0.157 HD
HETATM    4  C1  UNL     1      25.949  -9.891  -5.123  1.00  0.00     0.080 C 
HETATM    5  C2  UNL     1      27.059  -9.632  -4.175  1.00  0.00     0.110 C 
HETATM    6  C4  UNL     1      26.752 -10.570  -3.043  1.00  0.00     0.214 C 
HETATM    7  C5  UNL     1      25.254 -10.550  -2.979  1.00  0.00     0.157 C 
HETATM    8  N4  UNL     1      24.811 -10.175  -4.299  1.00  0.00    -0.367 N 
ENDROOT
BRANCH   8   9
HETATM    9  C6  UNL     1      23.435 -10.090  -4.739  1.00  0.00     0.151 C 
BRANCH   9  10
HETATM   10  C7  UNL     1      22.698  -8.984  -4.018  1.00  0.00     0.249 C 
BRANCH  10  11
HETATM   11  N5  UNL     1      21.310  -8.951  -4.303  1.00  0.00    -0.078 N 
ATOM     12  H53 UNL     1      20.902  -9.882  -4.218  1.00  0.00     0.274 HD
ATOM     13  H52 UNL     1      20.800  -8.473  -3.560  1.00  0.00     0.274 HD
ATOM     14  H51 UNL     1      21.091  -8.542  -5.211  1.00  0.00     0.274 HD
ENDBRANCH  10  11
ENDBRANCH   9  10
ENDBRANCH   8   9
BRANCH   5  15
HETATM   15  C3  UNL     1      28.411  -9.889  -4.799  1.00  0.00     0.243 C 
BRANCH  15  16
HETATM   16  N2  UNL     1      29.254  -8.736  -4.535  1.00  0.00    -0.079 N 
ATOM     17  H23 UNL     1      28.717  -7.886  -4.364  1.00  0.00     0.274 HD
ATOM     18  H22 UNL     1      29.719  -8.787  -3.629  1.00  0.00     0.274 HD
ATOM     19  H21 UNL     1      29.909  -8.640  -5.311  1.00  0.00     0.274 HD
ENDBRANCH  15  16
ENDBRANCH   5  15
BRANCH   6  20
HETATM   20  N3  UNL     1      27.361 -10.063  -1.825  1.00  0.00    -0.073 N 
ATOM     21  H33 UNL     1      28.369 -10.221  -1.801  1.00  0.00     0.274 HD
ATOM     22  H32 UNL     1      27.375  -9.044  -1.794  1.00  0.00     0.274 HD
ATOM     23  H31 UNL     1      26.886 -10.469  -1.020  1.00  0.00     0.274 HD
ENDBRANCH   6  20
TORSDOF 6
ENDMDL
MODEL 3
REMARK VINA RESULT: -5.231180267      2.417      3.567
REMARK  6 active torsions:
REMARK  status: ('A' for Active; 'I' for Inactive)
REMARK    1  A    between atoms: C2_5  and  C3_6 
REMARK    2  A    between atoms: C3_6  and  N2_7 
REMARK    3  A    between atoms: C4_11  and  N3_12 
REMARK    4  A    between atoms: N4_17  and  C6_18 
REMARK    5  A    between atoms: C6_18  and  C7_19 
REMARK    6  A    between atoms: C7_19  and  N5_20 
ROOT
HETATM    1  N1  UNL     1      24.805 -11.897  -2.864  1.00  0.00    -0.389 N 
ATOM      2  H11 UNL     1      23.990 -12.401  -2.515  1.00  0.00     0.157 HD
ATOM      3  H12 UNL     1      24.953 -11.136  -2.200  1.00  0.00     0.157 HD
HETATM    4  C1  UNL     1      25.505 -12.175  -3.926  1.00  0.00     0.080 C 
HETATM    5  C2  UNL     1      26.690 -11.442  -4.434  1.00  0.00     0.110 C 
HETATM    6  C4  UNL     1      26.541 -11.564  -5.922  1.00  0.00     0.214 C 
HETATM    7  C5  UNL     1      25.967 -12.939  -6.098  1.00  0.00     0.157 C 
HETATM    8  N4  UNL     1      25.299 -13.245  -4.858  1.00  0.00    -0.367 N 
ENDROOT
BRANCH   8   9
HETATM    9  C6  UNL     1      24.535 -14.442  -4.579  1.00  0.00     0.151 C 
BRANCH   9  10
HETATM   10  C7  UNL     1      25.274 -15.680  -5.037  1.00  0.00     0.249 C 
BRANCH  10  11
HETATM   11  N5  UNL     1      24.475 -16.850  -5.031  1.00  0.00    -0.078 N 
ATOM     12  H53 UNL     1      24.864 -17.549  -4.398  1.00  0.00     0.274 HD
ATOM     13  H52 UNL     1      23.584 -16.676  -4.566  1.00  0.00     0.274 HD
ATOM     14  H51 UNL     1      24.326 -17.245  -5.959  1.00  0.00     0.274 HD
ENDBRANCH  10  11
ENDBRANCH   9  10
ENDBRANCH   8   9
BRANCH   5  15
HETATM   15  C3  UNL     1      26.716 -10.008  -3.961  1.00  0.00     0.243 C 
BRANCH  15  16
HETATM   16  N2  UNL     1      27.679  -9.909  -2.878  1.00  0.00    -0.079 N 
ATOM     17  H23 UNL     1      27.383 -10.411  -2.041  1.00  0.00     0.274 HD
ATOM     18  H22 UNL     1      28.532 -10.437  -3.059  1.00  0.00     0.274 HD
ATOM     19  H21 UNL     1      27.857  -8.919  -2.704  1.00  0.00     0.274 HD
ENDBRANCH  15  16
ENDBRANCH   5  15
BRANCH   6  20
HETATM   20  N3  UNL     1      27.846 -11.429  -6.546  1.00  0.00    -0.073 N 
ATOM     21  H33 UNL     1      28.278 -10.526  -6.350  1.00  0.00     0.274 HD
ATOM     22  H32 UNL     1      28.548 -12.023  -6.106  1.00  0.00     0.274 HD
ATOM     23  H31 UNL     1      27.759 -11.608  -7.546  1.00  0.00     0.274 HD
ENDBRANCH   6  20
TORSDOF 6
ENDMDL
MODEL 4
REMARK VINA RESULT: -5.230567380      1.358      2.040
REMARK  6 active torsions:
REMARK  status: ('A' for Active; 'I' for Inactive)
REMARK    1  A    between atoms: C2_5  and  C3_6 
REMARK    2  A    between atoms: C3_6  and  N2_7 
REMARK    3  A    between atoms: C4_11  and  N3_12 
REMARK    4  A    between atoms: N4_17  and  C6_18 
REMARK    5  A    between atoms: C6_18  and  C7_19 
REMARK    6  A    between atoms: C7_19  and  N5_20 
ROOT
HETATM    1  N1  UNL     1      24.358  -9.965  -6.524  1.00  0.00    -0.389 N 
ATOM      2  H11 UNL     1      24.868 -10.131  -7.391  1.00  0.00     0.157 HD
ATOM      3  H12 UNL     1      23.652  -9.267  -6.759  1.00  0.00     0.157 HD
HETATM    4  C1  UNL     1      24.565 -10.531  -5.369  1.00  0.00     0.080 C 
HETATM    5  C2  UNL     1      23.823 -10.289  -4.108  1.00  0.00     0.110 C 
HETATM    6  C4  UNL     1      24.891 -10.435  -3.064  1.00  0.00     0.214 C 
HETATM    7  C5  UNL     1      25.758 -11.530  -3.611  1.00  0.00     0.157 C 
HETATM    8  N4  UNL     1      25.556 -11.512  -5.039  1.00  0.00    -0.367 N 
ENDROOT
BRANCH   8   9
HETATM    9  C6  UNL     1      26.239 -12.349  -6.002  1.00  0.00     0.151 C 
BRANCH   9  10
HETATM   10  C7  UNL     1      27.611 -11.800  -6.325  1.00  0.00     0.249 C 
BRANCH  10  11
HETATM   11  N5  UNL     1      27.615 -10.889  -7.409  1.00  0.00    -0.078 N 
ATOM     12  H53 UNL     1      27.254 -11.332  -8.254  1.00  0.00     0.274 HD
ATOM     13  H52 UNL     1      26.905 -10.168  -7.278  1.00  0.00     0.274 HD
ATOM     14  H51 UNL     1      28.527 -10.468  -7.584  1.00  0.00     0.274 HD
ENDBRANCH  10  11
ENDBRANCH   9  10
ENDBRANCH   8   9
BRANCH   5  15
HETATM   15  C3  UNL     1      23.165  -8.929  -4.089  1.00  0.00     0.243 C 
BRANCH  15  16
HETATM   16  N2  UNL     1      21.746  -9.114  -4.339  1.00  0.00    -0.079 N 
ATOM     17  H23 UNL     1      21.557  -9.529  -5.251  1.00  0.00     0.274 HD
ATOM     18  H22 UNL     1      21.337  -9.852  -3.766  1.00  0.00     0.274 HD
ATOM     19  H21 UNL     1      21.283  -8.213  -4.211  1.00  0.00     0.274 HD
ENDBRANCH  15  16
ENDBRANCH   5  15
BRANCH   6  20
HETATM   20  N3  UNL     1      24.276 -10.801  -1.800  1.00  0.00    -0.073 N 
ATOM     21  H33 UNL     1      23.257 -10.744  -1.833  1.00  0.00     0.274 HD
ATOM     22  H32 UNL     1      24.357 -11.798  -1.604  1.00  0.00     0.274 HD
ATOM     23  H31 UNL     1      24.671 -10.227  -1.056  1.00  0.00     0.274 HD
ENDBRANCH   6  20
TORSDOF 6
ENDMDL
MODEL 5
REMARK VINA RESULT: -5.189383697      2.430      3.796
REMARK  6 active torsions:
REMARK  status: ('A' for Active; 'I' for Inactive)
REMARK    1  A    between atoms: C2_5  and  C3_6 
REMARK    2  A    between atoms: C3_6  and  N2_7 
REMARK    3  A    between atoms: C4_11  and  N3_12 
REMARK    4  A    between atoms: N4_17  and  C6_18 
REMARK    5  A    between atoms: C6_18  and  C7_19 
REMARK    6  A    between atoms: C7_19  and  N5_20 
ROOT
HETATM    1  N1  UNL     1      27.039  -9.657  -3.811  1.00  0.00    -0.389 N 
ATOM      2  H11 UNL     1      27.790  -9.088  -4.201  1.00  0.00     0.157 HD
ATOM      3  H12 UNL     1      26.881  -9.285  -2.874  1.00  0.00     0.157 HD
HETATM    4  C1  UNL     1      26.418 -10.643  -4.392  1.00  0.00     0.080 C 
HETATM    5  C2  UNL     1      25.327 -11.472  -3.825  1.00  0.00     0.110 C 
HETATM    6  C4  UNL     1      25.597 -12.824  -4.418  1.00  0.00     0.214 C 
HETATM    7  C5  UNL     1      26.100 -12.500  -5.794  1.00  0.00     0.157 C 
HETATM    8  N4  UNL     1      26.640 -11.166  -5.708  1.00  0.00    -0.367 N 
ENDROOT
BRANCH   8   9
HETATM    9  C6  UNL     1      27.303 -10.449  -6.777  1.00  0.00     0.151 C 
BRANCH   9  10
HETATM   10  C7  UNL     1      28.647 -11.067  -7.094  1.00  0.00     0.249 C 
BRANCH  10  11
HETATM   11  N5  UNL     1      29.618 -10.857  -6.084  1.00  0.00    -0.078 N 
ATOM     12  H53 UNL     1      30.545 -10.739  -6.493  1.00  0.00     0.274 HD
ATOM     13  H52 UNL     1      29.502  -9.939  -5.656  1.00  0.00     0.274 HD
ATOM     14  H51 UNL     1      29.628 -11.587  -5.372  1.00  0.00     0.274 HD
ENDBRANCH  10  11
ENDBRANCH   9  10
ENDBRANCH   8   9
BRANCH   5  15
HETATM   15  C3  UNL     1      25.346 -11.479  -2.314  1.00  0.00     0.243 C 
BRANCH  15  16
HETATM   16  N2  UNL     1      24.212 -10.702  -1.846  1.00  0.00    -0.079 N 
ATOM     17  H23 UNL     1      24.365  -9.696  -1.922  1.00  0.00     0.274 HD
ATOM     18  H22 UNL     1      23.407 -10.764  -2.470  1.00  0.00     0.274 HD
ATOM     19  H21 UNL     1      23.997 -10.999  -0.894  1.00  0.00     0.274 HD
ENDBRANCH  15  16
ENDBRANCH   5  15
BRANCH   6  20
HETATM   20  N3  UNL     1      24.361 -13.586  -4.451  1.00  0.00    -0.073 N 
ATOM     21  H33 UNL     1      23.796 -13.446  -3.612  1.00  0.00     0.274 HD
ATOM     22  H32 UNL     1      23.698 -13.220  -5.133  1.00  0.00     0.274 HD
ATOM     23  H31 UNL     1      24.578 -14.570  -4.611  1.00  0.00     0.274 HD
ENDBRANCH   6  20
TORSDOF 6
ENDMDL
