MODEL 1
REMARK VINA RESULT: -6.559359380      0.000      0.000
REMARK  3 active torsions:
REMARK  status: ('A' for Active; 'I' for Inactive)
REMARK    1  A    between atoms: C1_2  and  N1_3 
REMARK    2  A    between atoms: N1_3  and  C2_5 
REMARK    3  A    between atoms: C2_5  and  C3_6 
ROOT
HETATM    1  C3  UNL     1      25.586 -12.143  -4.885  1.00  0.00     0.207 C 
HETATM    2  N2  UNL     1      25.337 -11.730  -6.230  1.00  0.00    -0.320 N 
ATOM      3  H2  UNL     1      25.864 -12.138  -7.003  1.00  0.00     0.166 HD
HETATM    4  C4  UNL     1      24.337 -10.734  -6.475  1.00  0.00     0.325 C 
HETATM    5  O2  UNL     1      23.917 -10.516  -7.646  1.00  0.00    -0.247 OA
HETATM    6  N3  UNL     1      23.788  -9.966  -5.432  1.00  0.00    -0.261 N 
ATOM      7  H3  UNL     1      23.077  -9.263  -5.633  1.00  0.00     0.175 HD
HETATM    8  C5  UNL     1      24.224 -10.173  -4.112  1.00  0.00     0.325 C 
HETATM    9  O3  UNL     1      23.770  -9.514  -3.126  1.00  0.00    -0.247 OA
HETATM   10  N4  UNL     1      25.228 -11.177  -3.895  1.00  0.00    -0.320 N 
ATOM     11  H4  UNL     1      25.705 -11.201  -2.994  1.00  0.00     0.166 HD
ENDROOT
BRANCH   1  12
HETATM   12  C2  UNL     1      24.948 -13.508  -4.603  1.00  0.00     0.169 C 
BRANCH  12  13
HETATM   13  N1  UNL     1      25.542 -14.542  -5.401  1.00  0.00    -0.365 N 
ATOM     14  H1  UNL     1      26.134 -14.289  -6.193  1.00  0.00     0.161 HD
BRANCH  13  15
HETATM   15  C1  UNL     1      25.319 -15.903  -5.106  1.00  0.00     0.348 C 
HETATM   16  O1  UNL     1      25.335 -16.324  -3.911  1.00  0.00    -0.284 OA
ENDBRANCH  13  15
ENDBRANCH  12  13
ENDBRANCH   1  12
TORSDOF 3
ENDMDL
MODEL 2
REMARK VINA RESULT: -6.372460016      1.578      2.628
REMARK  3 active torsions:
REMARK  status: ('A' for Active; 'I' for Inactive)
REMARK    1  A    between atoms: C1_2  and  N1_3 
REMARK    2  A    between atoms: N1_3  and  C2_5 
REMARK    3  A    between atoms: C2_5  and  C3_6 
ROOT
HETATM    1  C3  UNL     1      24.751 -12.548  -4.705  1.00  0.00     0.207 C 
HETATM    2  N2  UNL     1      25.200 -12.453  -3.352  1.00  0.00    -0.320 N 
ATOM      3  H2  UNL     1      25.249 -13.284  -2.762  1.00  0.00     0.166 HD
HETATM    4  C4  UNL     1      25.581 -11.171  -2.837  1.00  0.00     0.325 C 
HETATM    5  O2  UNL     1      26.205 -11.075  -1.743  1.00  0.00    -0.247 OA
HETATM    6  N3  UNL     1      25.278  -9.980  -3.522  1.00  0.00    -0.261 N 
ATOM      7  H3  UNL     1      25.560  -9.080  -3.134  1.00  0.00     0.175 HD
HETATM    8  C5  UNL     1      24.585 -10.038  -4.743  1.00  0.00     0.325 C 
HETATM    9  O3  UNL     1      24.281  -9.001  -5.410  1.00  0.00    -0.247 OA
HETATM   10  N4  UNL     1      24.215 -11.334  -5.236  1.00  0.00    -0.320 N 
ATOM     11  H4  UNL     1      23.541 -11.391  -5.998  1.00  0.00     0.166 HD
ENDROOT
BRANCH   1  12
HETATM   12  C2  UNL     1      25.846 -13.127  -5.608  1.00  0.00     0.169 C 
BRANCH  12  13
HETATM   13  N1  UNL     1      25.811 -14.562  -5.624  1.00  0.00    -0.365 N 
ATOM     14  H1  UNL     1      26.453 -15.074  -6.229  1.00  0.00     0.161 HD
BRANCH  13  15
HETATM   15  C1  UNL     1      24.899 -15.273  -4.816  1.00  0.00     0.348 C 
HETATM   16  O1  UNL     1      25.296 -16.179  -4.025  1.00  0.00    -0.284 OA
ENDBRANCH  13  15
ENDBRANCH  12  13
ENDBRANCH   1  12
TORSDOF 3
ENDMDL
MODEL 3
REMARK VINA RESULT: -6.338457187      1.614      1.727
REMARK  3 active torsions:
REMARK  status: ('A' for Active; 'I' for Inactive)
REMARK    1  A    between atoms: C1_2  and  N1_3 
REMARK    2  A    between atoms: N1_3  and  C2_5 
REMARK    3  A    between atoms: C2_5  and  C3_6 
ROOT
HETATM    1  C3  UNL     1      25.512 -10.579  -4.219  1.00  0.00     0.207 C 
HETATM    2  N2  UNL     1      25.339 -10.724  -5.629  1.00  0.00    -0.320 N 
ATOM      3  H2  UNL     1      26.126 -10.986  -6.223  1.00  0.00     0.166 HD
HETATM    4  C4  UNL     1      24.043 -10.497  -6.195  1.00  0.00     0.325 C 
HETATM    5  O2  UNL     1      23.788 -10.845  -7.383  1.00  0.00    -0.247 OA
HETATM    6  N3  UNL     1      23.013  -9.884  -5.460  1.00  0.00    -0.261 N 
ATOM      7  H3  UNL     1      22.099  -9.733  -5.886  1.00  0.00     0.175 HD
HETATM    8  C5  UNL     1      23.250  -9.480  -4.135  1.00  0.00     0.325 C 
HETATM    9  O3  UNL     1      22.364  -8.921  -3.417  1.00  0.00    -0.247 OA
HETATM   10  N4  UNL     1      24.558  -9.719  -3.592  1.00  0.00    -0.320 N 
ATOM     11  H4  UNL     1      24.816  -9.255  -2.722  1.00  0.00     0.166 HD
ENDROOT
BRANCH   1  12
HETATM   12  C2  UNL     1      25.581 -11.946  -3.529  1.00  0.00     0.169 C 
BRANCH  12  13
HETATM   13  N1  UNL     1      24.750 -12.911  -4.192  1.00  0.00    -0.365 N 
ATOM     14  H1  UNL     1      23.735 -12.833  -4.124  1.00  0.00     0.161 HD
BRANCH  13  15
HETATM   15  C1  UNL     1      25.318 -13.967  -4.935  1.00  0.00     0.348 C 
HETATM   16  O1  UNL     1      25.816 -13.765  -6.082  1.00  0.00    -0.284 OA
ENDBRANCH  13  15
ENDBRANCH  12  13
ENDBRANCH   1  12
TORSDOF 3
ENDMDL
MODEL 4
REMARK VINA RESULT: -6.201433745      1.556      2.189
REMARK  3 active torsions:
REMARK  status: ('A' for Active; 'I' for Inactive)
REMARK    1  A    between atoms: C1_2  and  N1_3 
REMARK    2  A    between atoms: N1_3  and  C2_5 
REMARK    3  A    between atoms: C2_5  and  C3_6 
ROOT
HETATM    1  C3  UNL     1      25.163 -11.853  -5.284  1.00  0.00     0.207 C 
HETATM    2  N2  UNL     1      24.058 -10.966  -5.105  1.00  0.00    -0.320 N 
ATOM      3  H2  UNL     1      23.218 -11.064  -5.675  1.00  0.00     0.166 HD
HETATM    4  C4  UNL     1      24.149  -9.938  -4.112  1.00  0.00     0.325 C 
HETATM    5  O2  UNL     1      23.122  -9.295  -3.753  1.00  0.00    -0.247 OA
HETATM    6  N3  UNL     1      25.372  -9.606  -3.501  1.00  0.00    -0.261 N 
ATOM      7  H3  UNL     1      25.410  -8.870  -2.797  1.00  0.00     0.175 HD
HETATM    8  C5  UNL     1      26.541 -10.295  -3.867  1.00  0.00     0.325 C 
HETATM    9  O3  UNL     1      27.676 -10.045  -3.356  1.00  0.00    -0.247 OA
HETATM   10  N4  UNL     1      26.422 -11.320  -4.865  1.00  0.00    -0.320 N 
ATOM     11  H4  UNL     1      27.272 -11.684  -5.294  1.00  0.00     0.166 HD
ENDROOT
BRANCH   1  12
HETATM   12  C2  UNL     1      24.884 -13.217  -4.642  1.00  0.00     0.169 C 
BRANCH  12  13
HETATM   13  N1  UNL     1      25.589 -14.270  -5.316  1.00  0.00    -0.365 N 
ATOM     14  H1  UNL     1      26.350 -14.037  -5.955  1.00  0.00     0.161 HD
BRANCH  13  15
HETATM   15  C1  UNL     1      25.245 -15.622  -5.107  1.00  0.00     0.348 C 
HETATM   16  O1  UNL     1      25.351 -16.153  -3.963  1.00  0.00    -0.284 OA
ENDBRANCH  13  15
ENDBRANCH  12  13
ENDBRANCH   1  12
TORSDOF 3
ENDMDL
MODEL 5
REMARK VINA RESULT: -6.088333550      1.455      1.455
REMARK  3 active torsions:
REMARK  status: ('A' for Active; 'I' for Inactive)
REMARK    1  A    between atoms: C1_2  and  N1_3 
REMARK    2  A    between atoms: N1_3  and  C2_5 
REMARK    3  A    between atoms: C2_5  and  C3_6 
ROOT
HETATM    1  C3  UNL     1      26.216 -11.779  -4.719  1.00  0.00     0.207 C 
HETATM    2  N2  UNL     1      26.258 -10.618  -5.549  1.00  0.00    -0.320 N 
ATOM      3  H2  UNL     1      26.914 -10.562  -6.329  1.00  0.00     0.166 HD
HETATM    4  C4  UNL     1      25.365  -9.534  -5.270  1.00  0.00     0.325 C 
HETATM    5  O2  UNL     1      25.197  -8.604  -6.109  1.00  0.00    -0.247 OA
HETATM    6  N3  UNL     1      24.645  -9.461  -4.064  1.00  0.00    -0.261 N 
ATOM      7  H3  UNL     1      24.015  -8.678  -3.889  1.00  0.00     0.175 HD
HETATM    8  C5  UNL     1      24.799 -10.472  -3.101  1.00  0.00     0.325 C 
HETATM    9  O3  UNL     1      24.180 -10.466  -1.992  1.00  0.00    -0.247 OA
HETATM   10  N4  UNL     1      25.701 -11.547  -3.406  1.00  0.00    -0.320 N 
ATOM     11  H4  UNL     1      25.987 -12.172  -2.652  1.00  0.00     0.166 HD
ENDROOT
BRANCH   1  12
HETATM   12  C2  UNL     1      25.484 -12.930  -5.419  1.00  0.00     0.169 C 
BRANCH  12  13
HETATM   13  N1  UNL     1      25.016 -13.906  -4.476  1.00  0.00    -0.365 N 
ATOM     14  H1  UNL     1      24.690 -13.603  -3.558  1.00  0.00     0.161 HD
BRANCH  13  15
HETATM   15  C1  UNL     1      25.003 -15.279  -4.801  1.00  0.00     0.348 C 
HETATM   16  O1  UNL     1      25.315 -16.156  -3.943  1.00  0.00    -0.284 OA
ENDBRANCH  13  15
ENDBRANCH  12  13
ENDBRANCH   1  12
TORSDOF 3
ENDMDL
