MODEL 1
REMARK VINA RESULT: -5.934273230      0.000      0.000
REMARK  6 active torsions:
REMARK  status: ('A' for Active; 'I' for Inactive)
REMARK    1  A    between atoms: N2_4  and  C1_6 
REMARK    2  A    between atoms: C1_6  and  C2_7 
REMARK    3  A    between atoms: C2_7  and  O1_8 
REMARK    4  A    between atoms: C5_12  and  N3_13 
REMARK    5  A    between atoms: C6_17  and  O2_18 
REMARK    6  A    between atoms: O2_18  and  N4_19 
ROOT
HETATM    1  C2  UNL     1      24.020 -10.360  -5.311  1.00  0.00     0.105 C 
HETATM    2  C3  UNL     1      25.177  -9.718  -6.051  1.00  0.00     0.044 C 
HETATM    3  C4  UNL     1      26.301 -10.737  -6.052  1.00  0.00     0.038 C 
HETATM    4  C5  UNL     1      25.501 -12.022  -5.989  1.00  0.00     0.218 C 
HETATM    5  C6  UNL     1      24.607 -11.685  -4.799  1.00  0.00     0.217 C 
ENDROOT
BRANCH   1   6
HETATM    6  C1  UNL     1      23.598  -9.565  -4.102  1.00  0.00     0.179 C 
BRANCH   6   7
HETATM    7  N2  UNL     1      22.572  -8.633  -4.391  1.00  0.00    -0.340 N 
HETATM    8  N1  UNL     1      21.390  -8.952  -4.240  1.00  0.00    -0.349 N 
ATOM      9  H12 UNL     1      21.168  -9.890  -3.906  1.00  0.00     0.176 HD
ATOM     10  H11 UNL     1      20.651  -8.280  -4.449  1.00  0.00     0.176 HD
ATOM     11  H2  UNL     1      22.811  -7.699  -4.724  1.00  0.00     0.179 HD
ENDBRANCH   6   7
ENDBRANCH   1   6
BRANCH   1  12
HETATM   12  O1  UNL     1      22.970 -10.679  -6.144  1.00  0.00    -0.385 OA
ATOM     13  H1  UNL     1      23.041 -10.281  -7.004  1.00  0.00     0.210 HD
ENDBRANCH   1  12
BRANCH   5  14
HETATM   14  O2  UNL     1      25.374 -11.358  -3.690  1.00  0.00    -0.277 OA
BRANCH  14  15
HETATM   15  N4  UNL     1      25.052 -12.048  -2.590  1.00  0.00    -0.311 N 
ATOM     16  H42 UNL     1      24.678 -12.995  -2.632  1.00  0.00     0.184 HD
ATOM     17  H41 UNL     1      25.218 -11.537  -1.723  1.00  0.00     0.184 HD
ENDBRANCH  14  15
ENDBRANCH   5  14
BRANCH   4  18
HETATM   18  N3  UNL     1      26.292 -13.185  -5.781  1.00  0.00    -0.072 N 
ATOM     19  H33 UNL     1      27.279 -12.978  -5.932  1.00  0.00     0.274 HD
ATOM     20  H32 UNL     1      26.316 -13.429  -4.792  1.00  0.00     0.274 HD
ATOM     21  H31 UNL     1      26.005 -13.988  -6.341  1.00  0.00     0.274 HD
ENDBRANCH   4  18
TORSDOF 6
ENDMDL
MODEL 2
REMARK VINA RESULT: -5.688558770      2.635      3.215
REMARK  6 active torsions:
REMARK  status: ('A' for Active; 'I' for Inactive)
REMARK    1  A    between atoms: N2_4  and  C1_6 
REMARK    2  A    between atoms: C1_6  and  C2_7 
REMARK    3  A    between atoms: C2_7  and  O1_8 
REMARK    4  A    between atoms: C5_12  and  N3_13 
REMARK    5  A    between atoms: C6_17  and  O2_18 
REMARK    6  A    between atoms: O2_18  and  N4_19 
ROOT
HETATM    1  C2  UNL     1      25.236  -9.892  -4.819  1.00  0.00     0.105 C 
HETATM    2  C3  UNL     1      25.102 -11.342  -5.239  1.00  0.00     0.044 C 
HETATM    3  C4  UNL     1      25.272 -12.168  -3.978  1.00  0.00     0.038 C 
HETATM    4  C5  UNL     1      24.774 -11.184  -2.939  1.00  0.00     0.218 C 
HETATM    5  C6  UNL     1      25.622  -9.976  -3.334  1.00  0.00     0.217 C 
ENDROOT
BRANCH   1   6
HETATM    6  C1  UNL     1      26.364  -9.188  -5.530  1.00  0.00     0.179 C 
BRANCH   6   7
HETATM    7  N2  UNL     1      26.661  -7.923  -4.967  1.00  0.00    -0.340 N 
HETATM    8  N1  UNL     1      25.950  -6.950  -5.230  1.00  0.00    -0.349 N 
ATOM      9  H12 UNL     1      25.153  -7.073  -5.855  1.00  0.00     0.176 HD
ATOM     10  H11 UNL     1      26.164  -6.039  -4.825  1.00  0.00     0.176 HD
ATOM     11  H2  UNL     1      27.462  -7.818  -4.344  1.00  0.00     0.179 HD
ENDBRANCH   6   7
ENDBRANCH   1   6
BRANCH   1  12
HETATM   12  O1  UNL     1      24.041  -9.208  -4.887  1.00  0.00    -0.385 OA
ATOM     13  H1  UNL     1      23.467  -9.525  -5.575  1.00  0.00     0.210 HD
ENDBRANCH   1  12
BRANCH   5  14
HETATM   14  O2  UNL     1      26.971 -10.299  -3.310  1.00  0.00    -0.277 OA
BRANCH  14  15
HETATM   15  N4  UNL     1      27.595  -9.921  -2.189  1.00  0.00    -0.311 N 
ATOM     16  H42 UNL     1      27.344  -9.070  -1.687  1.00  0.00     0.184 HD
ATOM     17  H41 UNL     1      28.334 -10.561  -1.895  1.00  0.00     0.184 HD
ENDBRANCH  14  15
ENDBRANCH   5  14
BRANCH   4  18
HETATM   18  N3  UNL     1      24.989 -11.601  -1.598  1.00  0.00    -0.072 N 
ATOM     19  H33 UNL     1      25.643 -12.383  -1.567  1.00  0.00     0.274 HD
ATOM     20  H32 UNL     1      25.531 -10.904  -1.088  1.00  0.00     0.274 HD
ATOM     21  H31 UNL     1      24.133 -11.830  -1.092  1.00  0.00     0.274 HD
ENDBRANCH   4  18
TORSDOF 6
ENDMDL
MODEL 3
REMARK VINA RESULT: -5.684122569      2.159      3.915
REMARK  6 active torsions:
REMARK  status: ('A' for Active; 'I' for Inactive)
REMARK    1  A    between atoms: N2_4  and  C1_6 
REMARK    2  A    between atoms: C1_6  and  C2_7 
REMARK    3  A    between atoms: C2_7  and  O1_8 
REMARK    4  A    between atoms: C5_12  and  N3_13 
REMARK    5  A    between atoms: C6_17  and  O2_18 
REMARK    6  A    between atoms: O2_18  and  N4_19 
ROOT
HETATM    1  C2  UNL     1      25.923  -9.746  -4.466  1.00  0.00     0.105 C 
HETATM    2  C3  UNL     1      25.367 -10.352  -5.740  1.00  0.00     0.044 C 
HETATM    3  C4  UNL     1      23.873 -10.498  -5.525  1.00  0.00     0.038 C 
HETATM    4  C5  UNL     1      23.628  -9.371  -4.543  1.00  0.00     0.218 C 
HETATM    5  C6  UNL     1      24.711  -9.709  -3.521  1.00  0.00     0.217 C 
ENDROOT
BRANCH   1   6
HETATM    6  C1  UNL     1      26.963 -10.625  -3.818  1.00  0.00     0.179 C 
BRANCH   6   7
HETATM    7  N2  UNL     1      27.594 -10.001  -2.713  1.00  0.00    -0.340 N 
HETATM    8  N1  UNL     1      28.733  -9.542  -2.834  1.00  0.00    -0.349 N 
ATOM      9  H12 UNL     1      29.206  -9.620  -3.734  1.00  0.00     0.176 HD
ATOM     10  H11 UNL     1      29.187  -9.093  -2.038  1.00  0.00     0.176 HD
ATOM     11  H2  UNL     1      27.107  -9.932  -1.820  1.00  0.00     0.179 HD
ENDBRANCH   6   7
ENDBRANCH   1   6
BRANCH   1  12
HETATM   12  O1  UNL     1      26.342  -8.445  -4.636  1.00  0.00    -0.385 OA
ATOM     13  H1  UNL     1      25.817  -7.817  -4.155  1.00  0.00     0.210 HD
ENDBRANCH   1  12
BRANCH   5  14
HETATM   14  O2  UNL     1      24.553 -11.005  -3.054  1.00  0.00    -0.277 OA
BRANCH  14  15
HETATM   15  N4  UNL     1      24.352 -11.081  -1.734  1.00  0.00    -0.311 N 
ATOM     16  H42 UNL     1      23.857 -10.355  -1.217  1.00  0.00     0.184 HD
ATOM     17  H41 UNL     1      24.737 -11.924  -1.308  1.00  0.00     0.184 HD
ENDBRANCH  14  15
ENDBRANCH   5  14
BRANCH   4  18
HETATM   18  N3  UNL     1      22.320  -9.363  -3.987  1.00  0.00    -0.072 N 
ATOM     19  H33 UNL     1      22.066 -10.293  -3.657  1.00  0.00     0.274 HD
ATOM     20  H32 UNL     1      22.310  -8.857  -3.102  1.00  0.00     0.274 HD
ATOM     21  H31 UNL     1      21.604  -8.997  -4.616  1.00  0.00     0.274 HD
ENDBRANCH   4  18
TORSDOF 6
ENDMDL
MODEL 4
REMARK VINA RESULT: -5.672956596      1.238      1.426
REMARK  6 active torsions:
REMARK  status: ('A' for Active; 'I' for Inactive)
REMARK    1  A    between atoms: N2_4  and  C1_6 
REMARK    2  A    between atoms: C1_6  and  C2_7 
REMARK    3  A    between atoms: C2_7  and  O1_8 
REMARK    4  A    between atoms: C5_12  and  N3_13 
REMARK    5  A    between atoms: C6_17  and  O2_18 
REMARK    6  A    between atoms: O2_18  and  N4_19 
ROOT
HETATM    1  C2  UNL     1      24.707 -10.383  -5.452  1.00  0.00     0.105 C 
HETATM    2  C3  UNL     1      25.980 -10.888  -6.101  1.00  0.00     0.044 C 
HETATM    3  C4  UNL     1      26.291 -12.222  -5.450  1.00  0.00     0.038 C 
HETATM    4  C5  UNL     1      24.894 -12.672  -5.072  1.00  0.00     0.218 C 
HETATM    5  C6  UNL     1      24.430 -11.412  -4.344  1.00  0.00     0.217 C 
ENDROOT
BRANCH   1   6
HETATM    6  C1  UNL     1      24.895  -9.047  -4.778  1.00  0.00     0.179 C 
BRANCH   6   7
HETATM    7  N2  UNL     1      23.674  -8.483  -4.333  1.00  0.00    -0.340 N 
HETATM    8  N1  UNL     1      23.505  -7.262  -4.385  1.00  0.00    -0.349 N 
ATOM      9  H12 UNL     1      24.253  -6.673  -4.752  1.00  0.00     0.176 HD
ATOM     10  H11 UNL     1      22.626  -6.856  -4.064  1.00  0.00     0.176 HD
ATOM     11  H2  UNL     1      22.936  -9.086  -3.969  1.00  0.00     0.179 HD
ENDBRANCH   6   7
ENDBRANCH   1   6
BRANCH   1  12
HETATM   12  O1  UNL     1      23.627 -10.412  -6.307  1.00  0.00    -0.385 OA
ATOM     13  H1  UNL     1      23.461 -11.275  -6.671  1.00  0.00     0.210 HD
ENDBRANCH   1  12
BRANCH   5  14
HETATM   14  O2  UNL     1      25.300 -11.100  -3.309  1.00  0.00    -0.277 OA
BRANCH  14  15
HETATM   15  N4  UNL     1      24.789 -11.316  -2.092  1.00  0.00    -0.311 N 
ATOM     16  H42 UNL     1      24.771 -12.242  -1.666  1.00  0.00     0.184 HD
ATOM     17  H41 UNL     1      24.427 -10.474  -1.644  1.00  0.00     0.184 HD
ENDBRANCH  14  15
ENDBRANCH   5  14
BRANCH   4  18
HETATM   18  N3  UNL     1      24.863 -13.833  -4.254  1.00  0.00    -0.072 N 
ATOM     19  H33 UNL     1      23.988 -14.340  -4.385  1.00  0.00     0.274 HD
ATOM     20  H32 UNL     1      25.520 -14.532  -4.599  1.00  0.00     0.274 HD
ATOM     21  H31 UNL     1      25.024 -13.647  -3.264  1.00  0.00     0.274 HD
ENDBRANCH   4  18
TORSDOF 6
ENDMDL
MODEL 5
REMARK VINA RESULT: -5.650310873      2.554      3.749
REMARK  6 active torsions:
REMARK  status: ('A' for Active; 'I' for Inactive)
REMARK    1  A    between atoms: N2_4  and  C1_6 
REMARK    2  A    between atoms: C1_6  and  C2_7 
REMARK    3  A    between atoms: C2_7  and  O1_8 
REMARK    4  A    between atoms: C5_12  and  N3_13 
REMARK    5  A    between atoms: C6_17  and  O2_18 
REMARK    6  A    between atoms: O2_18  and  N4_19 
ROOT
HETATM    1  C2  UNL     1      25.487 -12.493  -5.115  1.00  0.00     0.105 C 
HETATM    2  C3  UNL     1      24.954 -11.414  -6.038  1.00  0.00     0.044 C 
HETATM    3  C4  UNL     1      25.316 -10.088  -5.396  1.00  0.00     0.038 C 
HETATM    4  C5  UNL     1      26.563 -10.486  -4.634  1.00  0.00     0.218 C 
HETATM    5  C6  UNL     1      26.012 -11.708  -3.902  1.00  0.00     0.217 C 
ENDROOT
BRANCH   1   6
HETATM    6  C1  UNL     1      24.400 -13.409  -4.613  1.00  0.00     0.179 C 
BRANCH   6   7
HETATM    7  N2  UNL     1      24.810 -14.763  -4.555  1.00  0.00    -0.340 N 
HETATM    8  N1  UNL     1      23.972 -15.654  -4.386  1.00  0.00    -0.349 N 
ATOM      9  H12 UNL     1      22.989 -15.398  -4.291  1.00  0.00     0.176 HD
ATOM     10  H11 UNL     1      24.268 -16.629  -4.344  1.00  0.00     0.176 HD
ATOM     11  H2  UNL     1      25.797 -15.002  -4.652  1.00  0.00     0.179 HD
ENDBRANCH   6   7
ENDBRANCH   1   6
BRANCH   1  12
HETATM   12  O1  UNL     1      26.560 -13.168  -5.654  1.00  0.00    -0.385 OA
ATOM     13  H1  UNL     1      27.040 -12.657  -6.295  1.00  0.00     0.210 HD
ENDBRANCH   1  12
BRANCH   5  14
HETATM   14  O2  UNL     1      24.893 -11.366  -3.157  1.00  0.00    -0.277 OA
BRANCH  14  15
HETATM   15  N4  UNL     1      25.085 -11.433  -1.835  1.00  0.00    -0.311 N 
ATOM     16  H42 UNL     1      25.947 -11.795  -1.428  1.00  0.00     0.184 HD
ATOM     17  H41 UNL     1      24.296 -11.090  -1.288  1.00  0.00     0.184 HD
ENDBRANCH  14  15
ENDBRANCH   5  14
BRANCH   4  18
HETATM   18  N3  UNL     1      27.048  -9.481  -3.754  1.00  0.00    -0.072 N 
ATOM     19  H33 UNL     1      27.922  -9.777  -3.319  1.00  0.00     0.274 HD
ATOM     20  H32 UNL     1      27.382  -8.675  -4.280  1.00  0.00     0.274 HD
ATOM     21  H31 UNL     1      26.375  -9.192  -3.044  1.00  0.00     0.274 HD
ENDBRANCH   4  18
TORSDOF 6
ENDMDL
