MODEL 1
REMARK VINA RESULT: -8.002350053      0.000      0.000
REMARK  6 active torsions:
REMARK  status: ('A' for Active; 'I' for Inactive)
REMARK    1  A    between atoms: C2_2  and  C3_3 
REMARK    2  A    between atoms: C4_4  and  C5_5 
REMARK    3  A    between atoms: C6_6  and  C7_7 
REMARK    4  A    between atoms: C6_6  and  C8_9 
REMARK    5  A    between atoms: C8_9  and  C9_11 
REMARK    6  A    between atoms: C12_14  and  C13_15 
ROOT
HETATM    1  C8  UNL     1      -3.344   3.636  11.739  1.00  0.00     0.195 C 
HETATM    2  O2  UNL     1      -3.085   3.255  10.534  1.00  0.00    -0.287 OA
ENDROOT
BRANCH   1   3
HETATM    3  C6  UNL     1      -4.146   2.626  12.521  1.00  0.00     0.053 C 
HETATM    4  C5  UNL     1      -4.325   2.924  13.786  1.00  0.00     0.026 C 
BRANCH   4   5
HETATM    5  C4  UNL     1      -4.906   2.295  14.919  1.00  0.00    -0.054 A 
HETATM    6  C3  UNL     1      -5.924   2.862  15.627  1.00  0.00    -0.066 A 
HETATM    7  C23 UNL     1      -6.301   2.025  16.770  1.00  0.00    -0.023 A 
HETATM    8  C22 UNL     1      -5.405   0.844  16.804  1.00  0.00     0.018 A 
HETATM    9  C24 UNL     1      -6.071   2.796  18.082  1.00  0.00     0.019 C 
HETATM   10  C25 UNL     1      -7.727   1.509  16.729  1.00  0.00     0.019 C 
HETATM   11  C21 UNL     1      -4.579   1.013  15.543  1.00  0.00     0.040 A 
BRANCH   6  12
HETATM   12  C2  UNL     1      -6.559   4.155  15.345  1.00  0.00     0.031 C 
HETATM   13  C1  UNL     1      -5.517   5.255  15.286  1.00  0.00     0.010 C 
ENDBRANCH   6  12
ENDBRANCH   4   5
BRANCH   3  14
HETATM   14  C7  UNL     1      -4.552   1.427  11.872  1.00  0.00     0.274 C 
HETATM   15  O1  UNL     1      -5.325   1.121  10.976  1.00  0.00    -0.301 OA
ENDBRANCH   3  14
ENDBRANCH   1   3
BRANCH   1  16
HETATM   16  C9  UNL     1      -2.855   4.901  12.145  1.00  0.00     0.015 A 
HETATM   17  C10 UNL     1      -1.527   4.988  12.630  1.00  0.00     0.016 A 
HETATM   18  C11 UNL     1      -1.049   6.146  13.138  1.00  0.00     0.009 A 
HETATM   19  C12 UNL     1      -1.813   7.283  13.212  1.00  0.00    -0.050 A 
HETATM   20  C19 UNL     1      -3.097   7.203  12.746  1.00  0.00     0.009 A 
HETATM   21  C20 UNL     1      -3.615   6.044  12.225  1.00  0.00     0.016 A 
BRANCH  19  22
HETATM   22  C13 UNL     1      -1.232   8.507  13.776  1.00  0.00    -0.017 C 
HETATM   23  C14 UNL     1       0.202   8.677  13.363  1.00  0.00     0.020 C 
HETATM   24  C15 UNL     1      -1.393   8.636  15.274  1.00  0.00     0.014 C 
HETATM   25  C16 UNL     1      -0.961  10.092  15.476  1.00  0.00     0.001 C 
HETATM   26  C17 UNL     1      -1.445  10.810  14.234  1.00  0.00     0.001 C 
HETATM   27  C18 UNL     1      -1.976   9.747  13.300  1.00  0.00     0.014 C 
ENDBRANCH  19  22
ENDBRANCH   1  16
TORSDOF 6
ENDMDL
MODEL 2
REMARK VINA RESULT: -7.836683698      3.251      7.606
REMARK  6 active torsions:
REMARK  status: ('A' for Active; 'I' for Inactive)
REMARK    1  A    between atoms: C2_2  and  C3_3 
REMARK    2  A    between atoms: C4_4  and  C5_5 
REMARK    3  A    between atoms: C6_6  and  C7_7 
REMARK    4  A    between atoms: C6_6  and  C8_9 
REMARK    5  A    between atoms: C8_9  and  C9_11 
REMARK    6  A    between atoms: C12_14  and  C13_15 
ROOT
HETATM    1  C8  UNL     1      -3.611   5.223  12.050  1.00  0.00     0.195 C 
HETATM    2  O2  UNL     1      -2.432   5.680  12.304  1.00  0.00    -0.287 OA
ENDROOT
BRANCH   1   3
HETATM    3  C6  UNL     1      -4.076   5.529  10.648  1.00  0.00     0.053 C 
HETATM    4  C5  UNL     1      -4.894   6.550  10.549  1.00  0.00     0.026 C 
BRANCH   4   5
HETATM    5  C4  UNL     1      -5.650   7.166   9.516  1.00  0.00    -0.054 A 
HETATM    6  C3  UNL     1      -6.472   8.229   9.747  1.00  0.00    -0.066 A 
HETATM    7  C23 UNL     1      -7.164   8.635   8.521  1.00  0.00    -0.023 A 
HETATM    8  C22 UNL     1      -6.771   7.712   7.430  1.00  0.00     0.018 A 
HETATM    9  C24 UNL     1      -8.686   8.485   8.704  1.00  0.00     0.019 C 
HETATM   10  C25 UNL     1      -6.848  10.045   8.057  1.00  0.00     0.019 C 
HETATM   11  C21 UNL     1      -5.727   6.835   8.093  1.00  0.00     0.040 A 
BRANCH   6  12
HETATM   12  C2  UNL     1      -6.697   8.883  11.042  1.00  0.00     0.031 C 
HETATM   13  C1  UNL     1      -7.285   7.901  12.037  1.00  0.00     0.010 C 
ENDBRANCH   6  12
ENDBRANCH   4   5
BRANCH   3  14
HETATM   14  C7  UNL     1      -3.682   4.660   9.594  1.00  0.00     0.274 C 
HETATM   15  O1  UNL     1      -2.993   3.656   9.483  1.00  0.00    -0.301 OA
ENDBRANCH   3  14
ENDBRANCH   1   3
BRANCH   1  16
HETATM   16  C9  UNL     1      -4.279   4.523  13.083  1.00  0.00     0.015 A 
HETATM   17  C10 UNL     1      -5.050   5.264  14.012  1.00  0.00     0.016 A 
HETATM   18  C11 UNL     1      -5.613   4.659  15.082  1.00  0.00     0.009 A 
HETATM   19  C12 UNL     1      -5.471   3.317  15.324  1.00  0.00    -0.050 A 
HETATM   20  C19 UNL     1      -4.727   2.598  14.429  1.00  0.00     0.009 A 
HETATM   21  C20 UNL     1      -4.139   3.178  13.333  1.00  0.00     0.016 A 
BRANCH  19  22
HETATM   22  C13 UNL     1      -6.110   2.725  16.506  1.00  0.00    -0.017 C 
HETATM   23  C14 UNL     1      -6.727   3.777  17.383  1.00  0.00     0.020 C 
HETATM   24  C15 UNL     1      -5.211   1.805  17.300  1.00  0.00     0.014 C 
HETATM   25  C16 UNL     1      -6.233   1.163  18.243  1.00  0.00     0.001 C 
HETATM   26  C17 UNL     1      -7.497   1.052  17.417  1.00  0.00     0.001 C 
HETATM   27  C18 UNL     1      -7.226   1.768  16.114  1.00  0.00     0.014 C 
ENDBRANCH  19  22
ENDBRANCH   1  16
TORSDOF 6
ENDMDL
MODEL 3
REMARK VINA RESULT: -7.661163471      3.753      7.444
REMARK  6 active torsions:
REMARK  status: ('A' for Active; 'I' for Inactive)
REMARK    1  A    between atoms: C2_2  and  C3_3 
REMARK    2  A    between atoms: C4_4  and  C5_5 
REMARK    3  A    between atoms: C6_6  and  C7_7 
REMARK    4  A    between atoms: C6_6  and  C8_9 
REMARK    5  A    between atoms: C8_9  and  C9_11 
REMARK    6  A    between atoms: C12_14  and  C13_15 
ROOT
HETATM    1  C8  UNL     1      -4.423   5.701  12.865  1.00  0.00     0.195 C 
HETATM    2  O2  UNL     1      -4.790   4.515  13.214  1.00  0.00    -0.287 OA
ENDROOT
BRANCH   1   3
HETATM    3  C6  UNL     1      -3.194   6.181  13.595  1.00  0.00     0.053 C 
HETATM    4  C5  UNL     1      -3.090   7.485  13.705  1.00  0.00     0.026 C 
BRANCH   4   5
HETATM    5  C4  UNL     1      -2.127   8.402  14.202  1.00  0.00    -0.054 A 
HETATM    6  C3  UNL     1      -1.381   9.194  13.381  1.00  0.00    -0.066 A 
HETATM    7  C23 UNL     1      -0.435  10.007  14.151  1.00  0.00    -0.023 A 
HETATM    8  C22 UNL     1      -0.573   9.659  15.585  1.00  0.00     0.018 A 
HETATM    9  C24 UNL     1       1.008   9.657  13.746  1.00  0.00     0.019 C 
HETATM   10  C25 UNL     1      -0.646  11.504  14.026  1.00  0.00     0.019 C 
HETATM   11  C21 UNL     1      -1.736   8.685  15.583  1.00  0.00     0.040 A 
BRANCH   6  12
HETATM   12  C2  UNL     1      -1.450   9.229  11.915  1.00  0.00     0.031 C 
HETATM   13  C1  UNL     1      -2.737   9.889  11.460  1.00  0.00     0.010 C 
ENDBRANCH   6  12
ENDBRANCH   4   5
BRANCH   3  14
HETATM   14  C7  UNL     1      -2.229   5.222  14.009  1.00  0.00     0.274 C 
HETATM   15  O1  UNL     1      -2.065   4.488  14.973  1.00  0.00    -0.301 OA
ENDBRANCH   3  14
ENDBRANCH   1   3
BRANCH   1  16
HETATM   16  C9  UNL     1      -5.196   6.364  11.880  1.00  0.00     0.015 A 
HETATM   17  C10 UNL     1      -4.811   6.239  10.523  1.00  0.00     0.016 A 
HETATM   18  C11 UNL     1      -5.443   6.942   9.556  1.00  0.00     0.009 A 
HETATM   19  C12 UNL     1      -6.475   7.802   9.833  1.00  0.00    -0.050 A 
HETATM   20  C19 UNL     1      -6.849   7.926  11.143  1.00  0.00     0.009 A 
HETATM   21  C20 UNL     1      -6.230   7.229  12.150  1.00  0.00     0.016 A 
BRANCH  19  22
HETATM   22  C13 UNL     1      -7.117   8.535   8.735  1.00  0.00    -0.017 C 
HETATM   23  C14 UNL     1      -6.621   8.068   7.397  1.00  0.00     0.020 C 
HETATM   24  C15 UNL     1      -7.031  10.039   8.860  1.00  0.00     0.014 C 
HETATM   25  C16 UNL     1      -8.010  10.467   7.763  1.00  0.00     0.001 C 
HETATM   26  C17 UNL     1      -9.088   9.404   7.778  1.00  0.00     0.001 C 
HETATM   27  C18 UNL     1      -8.626   8.333   8.739  1.00  0.00     0.014 C 
ENDBRANCH  19  22
ENDBRANCH   1  16
TORSDOF 6
ENDMDL
MODEL 4
REMARK VINA RESULT: -7.558757536      2.174      2.970
REMARK  6 active torsions:
REMARK  status: ('A' for Active; 'I' for Inactive)
REMARK    1  A    between atoms: C2_2  and  C3_3 
REMARK    2  A    between atoms: C4_4  and  C5_5 
REMARK    3  A    between atoms: C6_6  and  C7_7 
REMARK    4  A    between atoms: C6_6  and  C8_9 
REMARK    5  A    between atoms: C8_9  and  C9_11 
REMARK    6  A    between atoms: C12_14  and  C13_15 
ROOT
HETATM    1  C8  UNL     1      -3.106   3.489  12.015  1.00  0.00     0.195 C 
HETATM    2  O2  UNL     1      -1.912   3.025  11.868  1.00  0.00    -0.287 OA
ENDROOT
BRANCH   1   3
HETATM    3  C6  UNL     1      -4.019   2.552  12.767  1.00  0.00     0.053 C 
HETATM    4  C5  UNL     1      -4.196   2.850  14.032  1.00  0.00     0.026 C 
BRANCH   4   5
HETATM    5  C4  UNL     1      -4.859   2.267  15.143  1.00  0.00    -0.054 A 
HETATM    6  C3  UNL     1      -5.938   2.850  15.739  1.00  0.00    -0.066 A 
HETATM    7  C23 UNL     1      -6.394   2.063  16.888  1.00  0.00    -0.023 A 
HETATM    8  C22 UNL     1      -5.490   0.900  17.052  1.00  0.00     0.018 A 
HETATM    9  C24 UNL     1      -6.280   2.899  18.176  1.00  0.00     0.019 C 
HETATM   10  C25 UNL     1      -7.806   1.523  16.759  1.00  0.00     0.019 C 
HETATM   11  C21 UNL     1      -4.568   1.022  15.854  1.00  0.00     0.040 A 
BRANCH   6  12
HETATM   12  C2  UNL     1      -6.563   4.119  15.345  1.00  0.00     0.031 C 
HETATM   13  C1  UNL     1      -5.535   5.233  15.325  1.00  0.00     0.010 C 
ENDBRANCH   6  12
ENDBRANCH   4   5
BRANCH   3  14
HETATM   14  C7  UNL     1      -4.522   1.404  12.093  1.00  0.00     0.274 C 
HETATM   15  O1  UNL     1      -5.247   1.185  11.134  1.00  0.00    -0.301 OA
ENDBRANCH   3  14
ENDBRANCH   1   3
BRANCH   1  16
HETATM   16  C9  UNL     1      -3.386   4.766  11.470  1.00  0.00     0.015 A 
HETATM   17  C10 UNL     1      -3.336   5.891  12.330  1.00  0.00     0.016 A 
HETATM   18  C11 UNL     1      -3.705   7.115  11.889  1.00  0.00     0.009 A 
HETATM   19  C12 UNL     1      -4.143   7.331  10.607  1.00  0.00    -0.050 A 
HETATM   20  C19 UNL     1      -4.193   6.246   9.775  1.00  0.00     0.009 A 
HETATM   21  C20 UNL     1      -3.827   4.989  10.188  1.00  0.00     0.016 A 
BRANCH  19  22
HETATM   22  C13 UNL     1      -4.529   8.686  10.195  1.00  0.00    -0.017 C 
HETATM   23  C14 UNL     1      -4.536   8.826   8.700  1.00  0.00     0.020 C 
HETATM   24  C15 UNL     1      -3.723   9.785  10.849  1.00  0.00     0.014 C 
HETATM   25  C16 UNL     1      -4.545  11.012  10.444  1.00  0.00     0.001 C 
HETATM   26  C17 UNL     1      -5.980  10.527  10.445  1.00  0.00     0.001 C 
HETATM   27  C18 UNL     1      -5.931   9.034  10.676  1.00  0.00     0.014 C 
ENDBRANCH  19  22
ENDBRANCH   1  16
TORSDOF 6
ENDMDL
MODEL 5
REMARK VINA RESULT: -7.485008751      3.235      7.745
REMARK  6 active torsions:
REMARK  status: ('A' for Active; 'I' for Inactive)
REMARK    1  A    between atoms: C2_2  and  C3_3 
REMARK    2  A    between atoms: C4_4  and  C5_5 
REMARK    3  A    between atoms: C6_6  and  C7_7 
REMARK    4  A    between atoms: C6_6  and  C8_9 
REMARK    5  A    between atoms: C8_9  and  C9_11 
REMARK    6  A    between atoms: C12_14  and  C13_15 
ROOT
HETATM    1  C8  UNL     1      -3.307   6.910  13.805  1.00  0.00     0.195 C 
HETATM    2  O2  UNL     1      -2.565   7.621  14.584  1.00  0.00    -0.287 OA
ENDROOT
BRANCH   1   3
HETATM    3  C6  UNL     1      -3.474   7.514  12.433  1.00  0.00     0.053 C 
HETATM    4  C5  UNL     1      -4.415   6.967  11.700  1.00  0.00     0.026 C 
BRANCH   4   5
HETATM    5  C4  UNL     1      -4.892   7.103  10.370  1.00  0.00    -0.054 A 
HETATM    6  C3  UNL     1      -5.902   7.959  10.040  1.00  0.00    -0.066 A 
HETATM    7  C23 UNL     1      -6.226   7.865   8.614  1.00  0.00    -0.023 A 
HETATM    8  C22 UNL     1      -5.368   6.822   8.003  1.00  0.00     0.018 A 
HETATM    9  C24 UNL     1      -7.684   7.401   8.437  1.00  0.00     0.019 C 
HETATM   10  C25 UNL     1      -6.005   9.147   7.833  1.00  0.00     0.019 C 
HETATM   11  C21 UNL     1      -4.463   6.418   9.151  1.00  0.00     0.040 A 
BRANCH   6  12
HETATM   12  C2  UNL     1      -6.625   8.841  10.964  1.00  0.00     0.031 C 
HETATM   13  C1  UNL     1      -7.341   8.026  12.024  1.00  0.00     0.010 C 
ENDBRANCH   6  12
ENDBRANCH   4   5
BRANCH   3  14
HETATM   14  C7  UNL     1      -2.568   8.530  12.020  1.00  0.00     0.274 C 
HETATM   15  O1  UNL     1      -2.647   9.696  11.660  1.00  0.00    -0.301 OA
ENDBRANCH   3  14
ENDBRANCH   1   3
BRANCH   1  16
HETATM   16  C9  UNL     1      -3.841   5.707  14.326  1.00  0.00     0.015 A 
HETATM   17  C10 UNL     1      -5.214   5.671  14.669  1.00  0.00     0.016 A 
HETATM   18  C11 UNL     1      -5.748   4.586  15.276  1.00  0.00     0.009 A 
HETATM   19  C12 UNL     1      -5.000   3.480  15.588  1.00  0.00    -0.050 A 
HETATM   20  C19 UNL     1      -3.673   3.512  15.258  1.00  0.00     0.009 A 
HETATM   21  C20 UNL     1      -3.097   4.595  14.643  1.00  0.00     0.016 A 
BRANCH  19  22
HETATM   22  C13 UNL     1      -5.644   2.337  16.247  1.00  0.00    -0.017 C 
HETATM   23  C14 UNL     1      -4.971   1.043  15.888  1.00  0.00     0.020 C 
HETATM   24  C15 UNL     1      -7.138   2.259  16.033  1.00  0.00     0.014 C 
HETATM   25  C16 UNL     1      -7.510   1.178  17.052  1.00  0.00     0.001 C 
HETATM   26  C17 UNL     1      -6.557   1.398  18.207  1.00  0.00     0.001 C 
HETATM   27  C18 UNL     1      -5.577   2.460  17.763  1.00  0.00     0.014 C 
ENDBRANCH  19  22
ENDBRANCH   1  16
TORSDOF 6
ENDMDL
