MODEL 1
REMARK VINA RESULT: -6.051380234      0.000      0.000
REMARK  4 active torsions:
REMARK  status: ('A' for Active; 'I' for Inactive)
REMARK    1  A    between atoms: C3_3  and  O1_4 
REMARK    2  A    between atoms: C3_3  and  C4_6 
REMARK    3  A    between atoms: C5_11  and  C6_12 
REMARK    4  A    between atoms: C6_12  and  N3_13 
ROOT
HETATM    1  C4  UNL     1      -4.544   2.687  15.279  1.00  0.00     0.157 A 
HETATM    2  N1  UNL     1      -3.407   3.253  15.733  1.00  0.00    -0.282 N 
ATOM      3  H1  UNL     1      -2.974   3.104  16.644  1.00  0.00     0.188 HD
HETATM    4  N2  UNL     1      -2.968   4.030  14.776  1.00  0.00    -0.285 N 
ATOM      5  H2  UNL     1      -2.118   4.592  14.837  1.00  0.00     0.188 HD
HETATM    6  C5  UNL     1      -3.778   3.995  13.705  1.00  0.00     0.132 A 
HETATM    7  N4  UNL     1      -4.763   3.142  14.048  1.00  0.00    -0.326 N 
ATOM      8  H4  UNL     1      -5.553   2.886  13.456  1.00  0.00     0.169 HD
ENDROOT
BRANCH   6   9
HETATM    9  C6  UNL     1      -3.730   4.669  12.405  1.00  0.00     0.389 C 
BRANCH   9  10
HETATM   10  N3  UNL     1      -2.694   4.234  11.528  1.00  0.00     0.020 N 
HETATM   11  O2  UNL     1      -2.180   3.027  11.824  1.00  0.00    -0.064 OA
HETATM   12  C7  UNL     1      -3.309   4.086  10.197  1.00  0.00     0.312 C 
HETATM   13  C8  UNL     1      -2.299   4.544   9.202  1.00  0.00     0.039 C 
HETATM   14  C9  UNL     1      -1.045   4.763  10.021  1.00  0.00     0.039 C 
HETATM   15  C10 UNL     1      -1.649   5.223  11.351  1.00  0.00     0.312 C 
ENDBRANCH   9  10
ENDBRANCH   6   9
BRANCH   1  16
HETATM   16  C3  UNL     1      -5.409   1.740  15.978  1.00  0.00     0.133 C 
HETATM   17  C2  UNL     1      -6.372   2.157  16.779  1.00  0.00     0.011 C 
HETATM   18  C1  UNL     1      -7.260   1.207  17.496  1.00  0.00     0.039 C 
BRANCH  16  19
HETATM   19  O1  UNL     1      -5.241   0.376  15.819  1.00  0.00    -0.238 OA
HETATM   20 CL1  UNL     1      -4.274  -0.356  14.627  1.00  0.00     0.068 Cl
ENDBRANCH  16  19
ENDBRANCH   1  16
TORSDOF 4
ENDMDL
MODEL 2
REMARK VINA RESULT: -6.036775883      1.880      6.381
REMARK  4 active torsions:
REMARK  status: ('A' for Active; 'I' for Inactive)
REMARK    1  A    between atoms: C3_3  and  O1_4 
REMARK    2  A    between atoms: C3_3  and  C4_6 
REMARK    3  A    between atoms: C5_11  and  C6_12 
REMARK    4  A    between atoms: C6_12  and  N3_13 
ROOT
HETATM    1  C4  UNL     1      -3.989   2.920  13.078  1.00  0.00     0.157 A 
HETATM    2  N1  UNL     1      -3.426   3.705  14.020  1.00  0.00    -0.282 N 
ATOM      3  H1  UNL     1      -2.925   4.579  13.865  1.00  0.00     0.188 HD
HETATM    4  N2  UNL     1      -3.650   3.125  15.172  1.00  0.00    -0.285 N 
ATOM      5  H2  UNL     1      -3.337   3.493  16.070  1.00  0.00     0.188 HD
HETATM    6  C5  UNL     1      -4.342   1.984  15.020  1.00  0.00     0.132 A 
HETATM    7  N4  UNL     1      -4.543   1.877  13.692  1.00  0.00    -0.326 N 
ATOM      8  H4  UNL     1      -5.041   1.117  13.230  1.00  0.00     0.169 HD
ENDROOT
BRANCH   6   9
HETATM    9  C6  UNL     1      -4.832   0.988  15.977  1.00  0.00     0.389 C 
BRANCH   9  10
HETATM   10  N3  UNL     1      -6.013   1.353  16.688  1.00  0.00     0.020 N 
HETATM   11  O2  UNL     1      -7.062   0.535  16.488  1.00  0.00    -0.064 OA
HETATM   12  C7  UNL     1      -5.690   1.238  18.121  1.00  0.00     0.312 C 
HETATM   13  C8  UNL     1      -6.384   2.361  18.811  1.00  0.00     0.039 C 
HETATM   14  C9  UNL     1      -7.254   2.977  17.735  1.00  0.00     0.039 C 
HETATM   15  C10 UNL     1      -6.384   2.741  16.496  1.00  0.00     0.312 C 
ENDBRANCH   9  10
ENDBRANCH   6   9
BRANCH   1  16
HETATM   16  C3  UNL     1      -4.011   3.137  11.633  1.00  0.00     0.133 C 
HETATM   17  C2  UNL     1      -3.247   4.054  11.069  1.00  0.00     0.011 C 
HETATM   18  C1  UNL     1      -3.259   4.287   9.602  1.00  0.00     0.039 C 
BRANCH  16  19
HETATM   19  O1  UNL     1      -4.837   2.386  10.816  1.00  0.00    -0.238 OA
HETATM   20 CL1  UNL     1      -4.826   0.689  10.713  1.00  0.00     0.068 Cl
ENDBRANCH  16  19
ENDBRANCH   1  16
TORSDOF 4
ENDMDL
MODEL 3
REMARK VINA RESULT: -6.016658853      2.312      2.661
REMARK  4 active torsions:
REMARK  status: ('A' for Active; 'I' for Inactive)
REMARK    1  A    between atoms: C3_3  and  O1_4 
REMARK    2  A    between atoms: C3_3  and  C4_6 
REMARK    3  A    between atoms: C5_11  and  C6_12 
REMARK    4  A    between atoms: C6_12  and  N3_13 
ROOT
HETATM    1  C4  UNL     1      -4.693   2.986  15.576  1.00  0.00     0.157 A 
HETATM    2  N1  UNL     1      -3.347   3.006  15.477  1.00  0.00    -0.282 N 
ATOM      3  H1  UNL     1      -2.704   2.270  15.767  1.00  0.00     0.188 HD
HETATM    4  N2  UNL     1      -3.029   4.155  14.936  1.00  0.00    -0.285 N 
ATOM      5  H2  UNL     1      -2.073   4.451  14.739  1.00  0.00     0.188 HD
HETATM    6  C5  UNL     1      -4.120   4.893  14.675  1.00  0.00     0.132 A 
HETATM    7  N4  UNL     1      -5.155   4.135  15.087  1.00  0.00    -0.326 N 
ATOM      8  H4  UNL     1      -6.138   4.400  15.034  1.00  0.00     0.169 HD
ENDROOT
BRANCH   6   9
HETATM    9  C6  UNL     1      -4.298   6.222  14.086  1.00  0.00     0.389 C 
BRANCH   9  10
HETATM   10  N3  UNL     1      -4.797   6.238  12.750  1.00  0.00     0.020 N 
HETATM   11  O2  UNL     1      -4.889   5.026  12.173  1.00  0.00    -0.064 OA
HETATM   12  C7  UNL     1      -6.178   6.745  12.826  1.00  0.00     0.312 C 
HETATM   13  C8  UNL     1      -6.389   7.604  11.627  1.00  0.00     0.039 C 
HETATM   14  C9  UNL     1      -5.142   7.391  10.795  1.00  0.00     0.039 C 
HETATM   15  C10 UNL     1      -4.098   7.177  11.895  1.00  0.00     0.312 C 
ENDBRANCH   9  10
ENDBRANCH   6   9
BRANCH   1  16
HETATM   16  C3  UNL     1      -5.531   1.918  16.114  1.00  0.00     0.133 C 
HETATM   17  C2  UNL     1      -6.625   2.189  16.802  1.00  0.00     0.011 C 
HETATM   18  C1  UNL     1      -7.488   1.114  17.355  1.00  0.00     0.039 C 
BRANCH  16  19
HETATM   19  O1  UNL     1      -5.200   0.590  15.917  1.00  0.00    -0.238 OA
HETATM   20 CL1  UNL     1      -4.363  -0.018  14.568  1.00  0.00     0.068 Cl
ENDBRANCH  16  19
ENDBRANCH   1  16
TORSDOF 4
ENDMDL
MODEL 4
REMARK VINA RESULT: -5.915202722      2.751      3.460
REMARK  4 active torsions:
REMARK  status: ('A' for Active; 'I' for Inactive)
REMARK    1  A    between atoms: C3_3  and  O1_4 
REMARK    2  A    between atoms: C3_3  and  C4_6 
REMARK    3  A    between atoms: C5_11  and  C6_12 
REMARK    4  A    between atoms: C6_12  and  N3_13 
ROOT
HETATM    1  C4  UNL     1      -4.391   3.250  15.294  1.00  0.00     0.157 A 
HETATM    2  N1  UNL     1      -5.223   3.939  14.486  1.00  0.00    -0.282 N 
ATOM      3  H1  UNL     1      -6.218   3.765  14.345  1.00  0.00     0.188 HD
HETATM    4  N2  UNL     1      -4.504   4.874  13.919  1.00  0.00    -0.285 N 
ATOM      5  H2  UNL     1      -4.870   5.554  13.252  1.00  0.00     0.188 HD
HETATM    6  C5  UNL     1      -3.225   4.825  14.326  1.00  0.00     0.132 A 
HETATM    7  N4  UNL     1      -3.180   3.793  15.192  1.00  0.00    -0.326 N 
ATOM      8  H4  UNL     1      -2.348   3.477  15.690  1.00  0.00     0.169 HD
ENDROOT
BRANCH   6   9
HETATM    9  C6  UNL     1      -2.049   5.632  13.995  1.00  0.00     0.389 C 
BRANCH   9  10
HETATM   10  N3  UNL     1      -2.280   7.035  13.888  1.00  0.00     0.020 N 
HETATM   11  O2  UNL     1      -3.327   7.373  13.115  1.00  0.00    -0.064 OA
HETATM   12  C7  UNL     1      -2.621   7.506  15.242  1.00  0.00     0.312 C 
HETATM   13  C8  UNL     1      -1.993   8.848  15.404  1.00  0.00     0.039 C 
HETATM   14  C9  UNL     1      -1.464   9.177  14.024  1.00  0.00     0.039 C 
HETATM   15  C10 UNL     1      -1.092   7.779  13.520  1.00  0.00     0.312 C 
ENDBRANCH   9  10
ENDBRANCH   6   9
BRANCH   1  16
HETATM   16  C3  UNL     1      -4.717   2.108  16.145  1.00  0.00     0.133 C 
HETATM   17  C2  UNL     1      -5.701   2.170  17.023  1.00  0.00     0.011 C 
HETATM   18  C1  UNL     1      -6.044   1.017  17.895  1.00  0.00     0.039 C 
BRANCH  16  19
HETATM   19  O1  UNL     1      -4.000   0.929  16.054  1.00  0.00    -0.238 OA
HETATM   20 CL1  UNL     1      -4.206  -0.249  14.845  1.00  0.00     0.068 Cl
ENDBRANCH  16  19
ENDBRANCH   1  16
TORSDOF 4
ENDMDL
MODEL 5
REMARK VINA RESULT: -5.829742540      2.035      2.500
REMARK  4 active torsions:
REMARK  status: ('A' for Active; 'I' for Inactive)
REMARK    1  A    between atoms: C3_3  and  O1_4 
REMARK    2  A    between atoms: C3_3  and  C4_6 
REMARK    3  A    between atoms: C5_11  and  C6_12 
REMARK    4  A    between atoms: C6_12  and  N3_13 
ROOT
HETATM    1  C4  UNL     1      -4.572   2.804  15.073  1.00  0.00     0.157 A 
HETATM    2  N1  UNL     1      -3.399   3.357  15.444  1.00  0.00    -0.282 N 
ATOM      3  H1  UNL     1      -2.912   3.217  16.328  1.00  0.00     0.188 HD
HETATM    4  N2  UNL     1      -3.008   4.110  14.447  1.00  0.00    -0.285 N 
ATOM      5  H2  UNL     1      -2.147   4.657  14.443  1.00  0.00     0.188 HD
HETATM    6  C5  UNL     1      -3.885   4.071  13.430  1.00  0.00     0.132 A 
HETATM    7  N4  UNL     1      -4.861   3.242  13.849  1.00  0.00    -0.326 N 
ATOM      8  H4  UNL     1      -5.691   2.989  13.313  1.00  0.00     0.169 HD
ENDROOT
BRANCH   6   9
HETATM    9  C6  UNL     1      -3.909   4.722  12.117  1.00  0.00     0.389 C 
BRANCH   9  10
HETATM   10  N3  UNL     1      -4.619   5.956  12.060  1.00  0.00     0.020 N 
HETATM   11  O2  UNL     1      -5.657   6.046  12.910  1.00  0.00    -0.064 OA
HETATM   12  C7  UNL     1      -3.672   7.004  12.481  1.00  0.00     0.312 C 
HETATM   13  C8  UNL     1      -3.945   8.199  11.634  1.00  0.00     0.039 C 
HETATM   14  C9  UNL     1      -5.202   7.834  10.873  1.00  0.00     0.039 C 
HETATM   15  C10 UNL     1      -5.010   6.323  10.712  1.00  0.00     0.312 C 
ENDBRANCH   9  10
ENDBRANCH   6   9
BRANCH   1  16
HETATM   16  C3  UNL     1      -5.407   1.885  15.842  1.00  0.00     0.133 C 
HETATM   17  C2  UNL     1      -6.385   2.330  16.610  1.00  0.00     0.011 C 
HETATM   18  C1  UNL     1      -7.242   1.408  17.397  1.00  0.00     0.039 C 
BRANCH  16  19
HETATM   19  O1  UNL     1      -5.194   0.519  15.787  1.00  0.00    -0.238 OA
HETATM   20 CL1  UNL     1      -4.260  -0.276  14.609  1.00  0.00     0.068 Cl
ENDBRANCH  16  19
ENDBRANCH   1  16
TORSDOF 4
ENDMDL
