MODEL 1
REMARK VINA RESULT: -6.723394045      0.000      0.000
REMARK  16 active torsions:
REMARK  status: ('A' for Active; 'I' for Inactive)
REMARK    1  A    between atoms: C2_2  and  C3_3 
REMARK    2  A    between atoms: C5_5  and  N1_6 
REMARK    3  A    between atoms: N1_6  and  C6_9 
REMARK    4  A    between atoms: C6_9  and  C7_10 
REMARK    5  A    between atoms: C7_10  and  C8_11 
REMARK    6  A    between atoms: C8_11  and  N2_12 
REMARK    7  A    between atoms: N2_12  and  C9_14 
REMARK    8  A    between atoms: C9_14  and  C10_15 
REMARK    9  A    between atoms: C10_15  and  C11_16 
REMARK   10  A    between atoms: C11_16  and  C12_17 
REMARK   11  A    between atoms: C12_17  and  C13_18 
REMARK   12  A    between atoms: C13_18  and  C14_19 
REMARK   13  A    between atoms: C14_19  and  C16_21 
REMARK   14  A    between atoms: C16_21  and  C17_22 
REMARK   15  A    between atoms: C17_22  and  O2_24 
REMARK   16  A    between atoms: O2_24  and  C18_25 
ROOT
HETATM    1  C9  UNL     1      -2.063  14.365  12.704  1.00  0.00     0.055 C 
ENDROOT
BRANCH   1   2
HETATM    2  N2  UNL     1      -1.916  13.384  11.728  1.00  0.00    -0.402 N 
ATOM      3  H2  UNL     1      -1.401  13.596  10.873  1.00  0.00     0.158 HD
BRANCH   2   4
HETATM    4  C8  UNL     1      -2.473  12.100  11.906  1.00  0.00     0.120 C 
BRANCH   4   5
HETATM    5  C7  UNL     1      -3.620  11.986  10.881  1.00  0.00     0.047 C 
BRANCH   5   6
HETATM    6  C6  UNL     1      -4.949  12.270  11.501  1.00  0.00     0.234 C 
BRANCH   6   7
HETATM    7  N1  UNL     1      -5.360  13.626  11.098  1.00  0.00    -0.070 N 
ATOM      8  H12 UNL     1      -4.927  14.374  11.639  1.00  0.00     0.277 HD
ATOM      9  H11 UNL     1      -6.323  13.860  11.338  1.00  0.00     0.277 HD
BRANCH   7  10
HETATM   10  C5  UNL     1      -5.069  13.675   9.660  1.00  0.00     0.190 A 
HETATM   11  C3  UNL     1      -4.278  14.962   9.251  1.00  0.00     0.018 A 
HETATM   12  C4  UNL     1      -5.659  14.715   8.795  1.00  0.00     0.040 A 
BRANCH  11  13
HETATM   13  C2  UNL     1      -3.067  14.744   8.416  1.00  0.00     0.002 C 
HETATM   14  C1  UNL     1      -1.951  15.714   8.700  1.00  0.00     0.005 C 
ENDBRANCH  11  13
ENDBRANCH   7  10
ENDBRANCH   6   7
ENDBRANCH   5   6
ENDBRANCH   4   5
ENDBRANCH   2   4
ENDBRANCH   1   2
BRANCH   1  15
HETATM   15  C10 UNL     1      -2.591  15.695  12.419  1.00  0.00     0.044 C 
BRANCH  15  16
HETATM   16  C11 UNL     1      -2.009  16.908  13.079  1.00  0.00     0.005 C 
BRANCH  16  17
HETATM   17  C12 UNL     1      -2.001  18.123  12.274  1.00  0.00     0.001 C 
BRANCH  17  18
HETATM   18  C13 UNL     1      -2.886  18.305  11.113  1.00  0.00     0.005 C 
BRANCH  18  19
HETATM   19  C14 UNL     1      -3.578  19.604  10.894  1.00  0.00    -0.009 C 
HETATM   20  C15 UNL     1      -3.210  20.407  12.221  1.00  0.00     0.010 C 
BRANCH  19  21
HETATM   21  C16 UNL     1      -2.806  20.400   9.859  1.00  0.00     0.115 C 
BRANCH  21  22
HETATM   22  C17 UNL     1      -2.729  19.745   8.529  1.00  0.00     0.259 C 
HETATM   23  O1  UNL     1      -1.594  19.439   8.065  1.00  0.00    -0.265 OA
BRANCH  22  24
HETATM   24  O2  UNL     1      -3.829  19.463   7.790  1.00  0.00    -0.316 OA
BRANCH  24  25
HETATM   25  C18 UNL     1      -4.308  18.183   7.465  1.00  0.00     0.132 A 
HETATM   26  C19 UNL     1      -4.117  17.696   6.080  1.00  0.00     0.032 A 
HETATM   27  C20 UNL     1      -5.603  17.590   5.898  1.00  0.00     0.005 A 
HETATM   28  C21 UNL     1      -5.823  18.124   7.288  1.00  0.00     0.032 A 
ENDBRANCH  24  25
ENDBRANCH  22  24
ENDBRANCH  21  22
ENDBRANCH  19  21
ENDBRANCH  18  19
ENDBRANCH  17  18
ENDBRANCH  16  17
ENDBRANCH  15  16
ENDBRANCH   1  15
TORSDOF 16
ENDMDL
MODEL 2
REMARK VINA RESULT: -6.709012035      1.481      2.162
REMARK  16 active torsions:
REMARK  status: ('A' for Active; 'I' for Inactive)
REMARK    1  A    between atoms: C2_2  and  C3_3 
REMARK    2  A    between atoms: C5_5  and  N1_6 
REMARK    3  A    between atoms: N1_6  and  C6_9 
REMARK    4  A    between atoms: C6_9  and  C7_10 
REMARK    5  A    between atoms: C7_10  and  C8_11 
REMARK    6  A    between atoms: C8_11  and  N2_12 
REMARK    7  A    between atoms: N2_12  and  C9_14 
REMARK    8  A    between atoms: C9_14  and  C10_15 
REMARK    9  A    between atoms: C10_15  and  C11_16 
REMARK   10  A    between atoms: C11_16  and  C12_17 
REMARK   11  A    between atoms: C12_17  and  C13_18 
REMARK   12  A    between atoms: C13_18  and  C14_19 
REMARK   13  A    between atoms: C14_19  and  C16_21 
REMARK   14  A    between atoms: C16_21  and  C17_22 
REMARK   15  A    between atoms: C17_22  and  O2_24 
REMARK   16  A    between atoms: O2_24  and  C18_25 
ROOT
HETATM    1  C9  UNL     1      -1.752  14.275  12.623  1.00  0.00     0.055 C 
ENDROOT
BRANCH   1   2
HETATM    2  N2  UNL     1      -1.863  13.305  11.631  1.00  0.00    -0.402 N 
ATOM      3  H2  UNL     1      -1.489  13.490  10.700  1.00  0.00     0.158 HD
BRANCH   2   4
HETATM    4  C8  UNL     1      -2.487  12.068  11.899  1.00  0.00     0.120 C 
BRANCH   4   5
HETATM    5  C7  UNL     1      -3.645  11.948  10.887  1.00  0.00     0.047 C 
BRANCH   5   6
HETATM    6  C6  UNL     1      -4.966  12.245  11.516  1.00  0.00     0.234 C 
BRANCH   6   7
HETATM    7  N1  UNL     1      -5.346  13.622  11.154  1.00  0.00    -0.070 N 
ATOM      8  H12 UNL     1      -4.861  14.344  11.687  1.00  0.00     0.277 HD
ATOM      9  H11 UNL     1      -6.288  13.886  11.441  1.00  0.00     0.277 HD
BRANCH   7  10
HETATM   10  C5  UNL     1      -5.117  13.687   9.705  1.00  0.00     0.190 A 
HETATM   11  C3  UNL     1      -4.399  15.007   9.269  1.00  0.00     0.018 A 
HETATM   12  C4  UNL     1      -5.786  14.702   8.870  1.00  0.00     0.040 A 
BRANCH  11  13
HETATM   13  C2  UNL     1      -3.215  14.842   8.384  1.00  0.00     0.002 C 
HETATM   14  C1  UNL     1      -2.028  15.671   8.797  1.00  0.00     0.005 C 
ENDBRANCH  11  13
ENDBRANCH   7  10
ENDBRANCH   6   7
ENDBRANCH   5   6
ENDBRANCH   4   5
ENDBRANCH   2   4
ENDBRANCH   1   2
BRANCH   1  15
HETATM   15  C10 UNL     1      -2.728  15.346  12.798  1.00  0.00     0.044 C 
BRANCH  15  16
HETATM   16  C11 UNL     1      -2.433  16.737  12.324  1.00  0.00     0.005 C 
BRANCH  16  17
HETATM   17  C12 UNL     1      -1.557  17.524  13.183  1.00  0.00     0.001 C 
BRANCH  17  18
HETATM   18  C13 UNL     1      -2.043  18.672  13.964  1.00  0.00     0.005 C 
BRANCH  18  19
HETATM   19  C14 UNL     1      -2.655  19.842  13.275  1.00  0.00    -0.009 C 
HETATM   20  C15 UNL     1      -3.334  20.625  14.486  1.00  0.00     0.010 C 
BRANCH  19  21
HETATM   21  C16 UNL     1      -1.553  20.813  12.893  1.00  0.00     0.115 C 
BRANCH  21  22
HETATM   22  C17 UNL     1      -1.146  20.732  11.468  1.00  0.00     0.259 C 
HETATM   23  O1  UNL     1       0.084  20.777  11.183  1.00  0.00    -0.265 OA
BRANCH  22  24
HETATM   24  O2  UNL     1      -2.042  20.615  10.458  1.00  0.00    -0.316 OA
BRANCH  24  25
HETATM   25  C18 UNL     1      -2.258  19.475   9.667  1.00  0.00     0.132 A 
HETATM   26  C19 UNL     1      -2.399  19.654   8.204  1.00  0.00     0.032 A 
HETATM   27  C20 UNL     1      -3.788  19.090   8.254  1.00  0.00     0.005 A 
HETATM   28  C21 UNL     1      -3.685  18.937   9.748  1.00  0.00     0.032 A 
ENDBRANCH  24  25
ENDBRANCH  22  24
ENDBRANCH  21  22
ENDBRANCH  19  21
ENDBRANCH  18  19
ENDBRANCH  17  18
ENDBRANCH  16  17
ENDBRANCH  15  16
ENDBRANCH   1  15
TORSDOF 16
ENDMDL
MODEL 3
REMARK VINA RESULT: -6.568633173      2.118      4.076
REMARK  16 active torsions:
REMARK  status: ('A' for Active; 'I' for Inactive)
REMARK    1  A    between atoms: C2_2  and  C3_3 
REMARK    2  A    between atoms: C5_5  and  N1_6 
REMARK    3  A    between atoms: N1_6  and  C6_9 
REMARK    4  A    between atoms: C6_9  and  C7_10 
REMARK    5  A    between atoms: C7_10  and  C8_11 
REMARK    6  A    between atoms: C8_11  and  N2_12 
REMARK    7  A    between atoms: N2_12  and  C9_14 
REMARK    8  A    between atoms: C9_14  and  C10_15 
REMARK    9  A    between atoms: C10_15  and  C11_16 
REMARK   10  A    between atoms: C11_16  and  C12_17 
REMARK   11  A    between atoms: C12_17  and  C13_18 
REMARK   12  A    between atoms: C13_18  and  C14_19 
REMARK   13  A    between atoms: C14_19  and  C16_21 
REMARK   14  A    between atoms: C16_21  and  C17_22 
REMARK   15  A    between atoms: C17_22  and  O2_24 
REMARK   16  A    between atoms: O2_24  and  C18_25 
ROOT
HETATM    1  C9  UNL     1      -1.421  14.394  12.312  1.00  0.00     0.055 C 
ENDROOT
BRANCH   1   2
HETATM    2  N2  UNL     1      -1.989  13.483  11.425  1.00  0.00    -0.402 N 
ATOM      3  H2  UNL     1      -2.064  13.722  10.436  1.00  0.00     0.158 HD
BRANCH   2   4
HETATM    4  C8  UNL     1      -2.462  12.234  11.879  1.00  0.00     0.120 C 
BRANCH   4   5
HETATM    5  C7  UNL     1      -3.643  11.866  10.957  1.00  0.00     0.047 C 
BRANCH   5   6
HETATM    6  C6  UNL     1      -4.960  12.134  11.607  1.00  0.00     0.234 C 
BRANCH   6   7
HETATM    7  N1  UNL     1      -5.371  13.505  11.258  1.00  0.00    -0.070 N 
ATOM      8  H12 UNL     1      -4.866  14.234  11.760  1.00  0.00     0.277 HD
ATOM      9  H11 UNL     1      -6.299  13.762  11.593  1.00  0.00     0.277 HD
BRANCH   7  10
HETATM   10  C5  UNL     1      -5.221  13.562   9.798  1.00  0.00     0.190 A 
HETATM   11  C3  UNL     1      -4.639  14.930   9.308  1.00  0.00     0.018 A 
HETATM   12  C4  UNL     1      -6.014  14.503   8.984  1.00  0.00     0.040 A 
BRANCH  11  13
HETATM   13  C2  UNL     1      -3.492  14.848   8.365  1.00  0.00     0.002 C 
HETATM   14  C1  UNL     1      -3.397  16.017   7.421  1.00  0.00     0.005 C 
ENDBRANCH  11  13
ENDBRANCH   7  10
ENDBRANCH   6   7
ENDBRANCH   5   6
ENDBRANCH   4   5
ENDBRANCH   2   4
ENDBRANCH   1   2
BRANCH   1  15
HETATM   15  C10 UNL     1      -2.213  15.205  13.231  1.00  0.00     0.044 C 
BRANCH  15  16
HETATM   16  C11 UNL     1      -2.311  16.690  13.054  1.00  0.00     0.005 C 
BRANCH  16  17
HETATM   17  C12 UNL     1      -1.869  17.202  11.762  1.00  0.00     0.001 C 
BRANCH  17  18
HETATM   18  C13 UNL     1      -2.810  17.706  10.751  1.00  0.00     0.005 C 
BRANCH  18  19
HETATM   19  C14 UNL     1      -2.746  19.126  10.309  1.00  0.00    -0.009 C 
HETATM   20  C15 UNL     1      -3.739  19.134   9.062  1.00  0.00     0.010 C 
BRANCH  19  21
HETATM   21  C16 UNL     1      -3.523  19.979  11.294  1.00  0.00     0.115 C 
BRANCH  21  22
HETATM   22  C17 UNL     1      -2.666  20.788  12.197  1.00  0.00     0.259 C 
HETATM   23  O1  UNL     1      -3.187  21.310  13.224  1.00  0.00    -0.265 OA
BRANCH  22  24
HETATM   24  O2  UNL     1      -1.347  20.992  11.964  1.00  0.00    -0.316 OA
BRANCH  24  25
HETATM   25  C18 UNL     1      -0.338  21.101  12.935  1.00  0.00     0.132 A 
HETATM   26  C19 UNL     1       1.071  21.097  12.484  1.00  0.00     0.032 A 
HETATM   27  C20 UNL     1       1.337  19.853  13.280  1.00  0.00     0.005 A 
HETATM   28  C21 UNL     1      -0.102  19.812  13.718  1.00  0.00     0.032 A 
ENDBRANCH  24  25
ENDBRANCH  22  24
ENDBRANCH  21  22
ENDBRANCH  19  21
ENDBRANCH  18  19
ENDBRANCH  17  18
ENDBRANCH  16  17
ENDBRANCH  15  16
ENDBRANCH   1  15
TORSDOF 16
ENDMDL
MODEL 4
REMARK VINA RESULT: -6.539981476      2.284      3.387
REMARK  16 active torsions:
REMARK  status: ('A' for Active; 'I' for Inactive)
REMARK    1  A    between atoms: C2_2  and  C3_3 
REMARK    2  A    between atoms: C5_5  and  N1_6 
REMARK    3  A    between atoms: N1_6  and  C6_9 
REMARK    4  A    between atoms: C6_9  and  C7_10 
REMARK    5  A    between atoms: C7_10  and  C8_11 
REMARK    6  A    between atoms: C8_11  and  N2_12 
REMARK    7  A    between atoms: N2_12  and  C9_14 
REMARK    8  A    between atoms: C9_14  and  C10_15 
REMARK    9  A    between atoms: C10_15  and  C11_16 
REMARK   10  A    between atoms: C11_16  and  C12_17 
REMARK   11  A    between atoms: C12_17  and  C13_18 
REMARK   12  A    between atoms: C13_18  and  C14_19 
REMARK   13  A    between atoms: C14_19  and  C16_21 
REMARK   14  A    between atoms: C16_21  and  C17_22 
REMARK   15  A    between atoms: C17_22  and  O2_24 
REMARK   16  A    between atoms: O2_24  and  C18_25 
ROOT
HETATM    1  C9  UNL     1      -1.326  14.099  12.502  1.00  0.00     0.055 C 
ENDROOT
BRANCH   1   2
HETATM    2  N2  UNL     1      -2.037  13.395  11.534  1.00  0.00    -0.402 N 
ATOM      3  H2  UNL     1      -2.190  13.814  10.617  1.00  0.00     0.158 HD
BRANCH   2   4
HETATM    4  C8  UNL     1      -2.548  12.109  11.807  1.00  0.00     0.120 C 
BRANCH   4   5
HETATM    5  C7  UNL     1      -3.719  11.899  10.826  1.00  0.00     0.047 C 
BRANCH   5   6
HETATM    6  C6  UNL     1      -5.036  12.217  11.455  1.00  0.00     0.234 C 
BRANCH   6   7
HETATM    7  N1  UNL     1      -5.388  13.603  11.102  1.00  0.00    -0.070 N 
ATOM      8  H12 UNL     1      -4.872  14.312  11.621  1.00  0.00     0.277 HD
ATOM      9  H11 UNL     1      -6.316  13.891  11.412  1.00  0.00     0.277 HD
BRANCH   7  10
HETATM   10  C5  UNL     1      -5.195  13.661   9.647  1.00  0.00     0.190 A 
HETATM   11  C3  UNL     1      -4.463  14.967   9.191  1.00  0.00     0.018 A 
HETATM   12  C4  UNL     1      -5.865  14.688   8.827  1.00  0.00     0.040 A 
BRANCH  11  13
HETATM   13  C2  UNL     1      -3.306  14.777   8.276  1.00  0.00     0.002 C 
HETATM   14  C1  UNL     1      -2.069  15.526   8.699  1.00  0.00     0.005 C 
ENDBRANCH  11  13
ENDBRANCH   7  10
ENDBRANCH   6   7
ENDBRANCH   5   6
ENDBRANCH   4   5
ENDBRANCH   2   4
ENDBRANCH   1   2
BRANCH   1  15
HETATM   15  C10 UNL     1      -0.242  15.021  12.178  1.00  0.00     0.044 C 
BRANCH  15  16
HETATM   16  C11 UNL     1      -0.381  16.490  12.440  1.00  0.00     0.005 C 
BRANCH  16  17
HETATM   17  C12 UNL     1       0.673  17.332  11.887  1.00  0.00     0.001 C 
BRANCH  17  18
HETATM   18  C13 UNL     1       0.649  18.798  11.998  1.00  0.00     0.005 C 
BRANCH  18  19
HETATM   19  C14 UNL     1       0.271  19.446  13.284  1.00  0.00    -0.009 C 
HETATM   20  C15 UNL     1       1.667  20.024  13.791  1.00  0.00     0.010 C 
BRANCH  19  21
HETATM   21  C16 UNL     1      -0.473  20.733  12.980  1.00  0.00     0.115 C 
BRANCH  21  22
HETATM   22  C17 UNL     1      -1.920  20.684  13.308  1.00  0.00     0.259 C 
HETATM   23  O1  UNL     1      -2.272  20.287  14.455  1.00  0.00    -0.265 OA
BRANCH  22  24
HETATM   24  O2  UNL     1      -2.882  21.046  12.424  1.00  0.00    -0.316 OA
BRANCH  24  25
HETATM   25  C18 UNL     1      -3.435  20.236  11.419  1.00  0.00     0.132 A 
HETATM   26  C19 UNL     1      -3.028  18.814  11.363  1.00  0.00     0.032 A 
HETATM   27  C20 UNL     1      -2.461  19.016   9.988  1.00  0.00     0.005 A 
HETATM   28  C21 UNL     1      -2.827  20.475  10.039  1.00  0.00     0.032 A 
ENDBRANCH  24  25
ENDBRANCH  22  24
ENDBRANCH  21  22
ENDBRANCH  19  21
ENDBRANCH  18  19
ENDBRANCH  17  18
ENDBRANCH  16  17
ENDBRANCH  15  16
ENDBRANCH   1  15
TORSDOF 16
ENDMDL
MODEL 5
REMARK VINA RESULT: -6.444501960      3.200      6.593
REMARK  16 active torsions:
REMARK  status: ('A' for Active; 'I' for Inactive)
REMARK    1  A    between atoms: C2_2  and  C3_3 
REMARK    2  A    between atoms: C5_5  and  N1_6 
REMARK    3  A    between atoms: N1_6  and  C6_9 
REMARK    4  A    between atoms: C6_9  and  C7_10 
REMARK    5  A    between atoms: C7_10  and  C8_11 
REMARK    6  A    between atoms: C8_11  and  N2_12 
REMARK    7  A    between atoms: N2_12  and  C9_14 
REMARK    8  A    between atoms: C9_14  and  C10_15 
REMARK    9  A    between atoms: C10_15  and  C11_16 
REMARK   10  A    between atoms: C11_16  and  C12_17 
REMARK   11  A    between atoms: C12_17  and  C13_18 
REMARK   12  A    between atoms: C13_18  and  C14_19 
REMARK   13  A    between atoms: C14_19  and  C16_21 
REMARK   14  A    between atoms: C16_21  and  C17_22 
REMARK   15  A    between atoms: C17_22  and  O2_24 
REMARK   16  A    between atoms: O2_24  and  C18_25 
ROOT
HETATM    1  C9  UNL     1      -0.987  17.032   9.784  1.00  0.00     0.055 C 
ENDROOT
BRANCH   1   2
HETATM    2  N2  UNL     1      -1.824  17.836   9.015  1.00  0.00    -0.402 N 
ATOM      3  H2  UNL     1      -2.554  17.405   8.446  1.00  0.00     0.158 HD
BRANCH   2   4
HETATM    4  C8  UNL     1      -1.675  19.239   9.012  1.00  0.00     0.120 C 
BRANCH   4   5
HETATM    5  C7  UNL     1      -2.950  19.803   9.671  1.00  0.00     0.047 C 
BRANCH   5   6
HETATM    6  C6  UNL     1      -2.631  20.688  10.831  1.00  0.00     0.234 C 
BRANCH   6   7
HETATM    7  N1  UNL     1      -3.507  20.305  11.953  1.00  0.00    -0.070 N 
ATOM      8  H12 UNL     1      -3.681  19.303  12.025  1.00  0.00     0.277 HD
ATOM      9  H11 UNL     1      -4.482  20.578  11.834  1.00  0.00     0.277 HD
BRANCH   7  10
HETATM   10  C5  UNL     1      -2.856  20.890  13.131  1.00  0.00     0.190 A 
HETATM   11  C3  UNL     1      -2.264  19.805  14.091  1.00  0.00     0.018 A 
HETATM   12  C4  UNL     1      -3.390  20.671  14.488  1.00  0.00     0.040 A 
BRANCH  11  13
HETATM   13  C2  UNL     1      -0.855  20.013  14.518  1.00  0.00     0.002 C 
HETATM   14  C1  UNL     1       0.158  19.681  13.454  1.00  0.00     0.005 C 
ENDBRANCH  11  13
ENDBRANCH   7  10
ENDBRANCH   6   7
ENDBRANCH   5   6
ENDBRANCH   4   5
ENDBRANCH   2   4
ENDBRANCH   1   2
BRANCH   1  15
HETATM   15  C10 UNL     1      -1.048  16.990  11.242  1.00  0.00     0.044 C 
BRANCH  15  16
HETATM   16  C11 UNL     1      -2.360  16.837  11.950  1.00  0.00     0.005 C 
BRANCH  16  17
HETATM   17  C12 UNL     1      -2.443  15.729  12.893  1.00  0.00     0.001 C 
BRANCH  17  18
HETATM   18  C13 UNL     1      -2.983  14.413  12.519  1.00  0.00     0.005 C 
BRANCH  18  19
HETATM   19  C14 UNL     1      -2.146  13.450  11.751  1.00  0.00    -0.009 C 
HETATM   20  C15 UNL     1      -0.943  13.173  12.759  1.00  0.00     0.010 C 
BRANCH  19  21
HETATM   21  C16 UNL     1      -2.833  12.098  11.752  1.00  0.00     0.115 C 
BRANCH  21  22
HETATM   22  C17 UNL     1      -4.048  12.038  10.901  1.00  0.00     0.259 C 
HETATM   23  O1  UNL     1      -5.174  11.894  11.456  1.00  0.00    -0.265 OA
BRANCH  22  24
HETATM   24  O2  UNL     1      -3.998  12.130   9.550  1.00  0.00    -0.316 OA
BRANCH  24  25
HETATM   25  C18 UNL     1      -4.428  13.219   8.774  1.00  0.00     0.132 A 
HETATM   26  C19 UNL     1      -3.443  14.271   8.436  1.00  0.00     0.032 A 
HETATM   27  C20 UNL     1      -4.265  15.294   9.162  1.00  0.00     0.005 A 
HETATM   28  C21 UNL     1      -5.259  14.234   9.554  1.00  0.00     0.032 A 
ENDBRANCH  24  25
ENDBRANCH  22  24
ENDBRANCH  21  22
ENDBRANCH  19  21
ENDBRANCH  18  19
ENDBRANCH  17  18
ENDBRANCH  16  17
ENDBRANCH  15  16
ENDBRANCH   1  15
TORSDOF 16
ENDMDL
