MODEL 1
REMARK VINA RESULT: -6.256364351      0.000      0.000
REMARK  17 active torsions:
REMARK  status: ('A' for Active; 'I' for Inactive)
REMARK    1  A    between atoms: C2_2  and  N1_3 
REMARK    2  A    between atoms: N1_3  and  C3_6 
REMARK    3  A    between atoms: C3_6  and  C4_7 
REMARK    4  A    between atoms: C4_7  and  C5_8 
REMARK    5  A    between atoms: C5_8  and  N2_9 
REMARK    6  A    between atoms: N2_9  and  C6_10 
REMARK    7  A    between atoms: N2_9  and  C18_25 
REMARK    8  A    between atoms: C6_10  and  C7_11 
REMARK    9  A    between atoms: C7_11  and  N3_12 
REMARK   10  A    between atoms: N3_12  and  C8_13 
REMARK   11  A    between atoms: N3_12  and  C14_21 
REMARK   12  A    between atoms: C8_13  and  C9_14 
REMARK   13  A    between atoms: C9_14  and  C10_15 
REMARK   14  A    between atoms: C10_15  and  C11_16 
REMARK   15  A    between atoms: C11_16  and  N4_18 
REMARK   16  A    between atoms: C14_21  and  C15_22 
REMARK   17  A    between atoms: C18_25  and  C20_27 
ROOT
HETATM    1  C6  UNL     1      -2.466  15.046   9.832  1.00  0.00     0.152 C 
ENDROOT
BRANCH   1   2
HETATM    2  N2  UNL     1      -2.499  14.525  11.193  1.00  0.00    -0.387 N 
BRANCH   2   3
HETATM    3  C5  UNL     1      -2.429  13.152  11.264  1.00  0.00     0.060 C 
BRANCH   3   4
HETATM    4  C4  UNL     1      -3.481  12.200  10.905  1.00  0.00     0.072 C 
BRANCH   4   5
HETATM    5  C3  UNL     1      -4.787  12.296  11.567  1.00  0.00     0.237 C 
BRANCH   5   6
HETATM    6  N1  UNL     1      -5.516  13.443  10.899  1.00  0.00    -0.075 N 
ATOM      7  H12 UNL     1      -5.045  14.338  11.031  1.00  0.00     0.277 HD
ATOM      8  H11 UNL     1      -6.392  13.679  11.366  1.00  0.00     0.277 HD
BRANCH   6   9
HETATM    9  C2  UNL     1      -5.700  13.109   9.499  1.00  0.00     0.228 C 
HETATM   10  C1  UNL     1      -6.344  14.280   8.805  1.00  0.00     0.034 C 
ENDBRANCH   6   9
ENDBRANCH   5   6
ENDBRANCH   4   5
ENDBRANCH   3   4
ENDBRANCH   2   3
BRANCH   2  11
HETATM   11  C18 UNL     1      -1.906  15.378  12.125  1.00  0.00     0.079 C 
HETATM   12  C19 UNL     1      -2.569  15.347  13.514  1.00  0.00     0.032 C 
BRANCH  11  13
HETATM   13  C20 UNL     1      -0.419  15.071  12.366  1.00  0.00     0.020 C 
HETATM   14  C21 UNL     1       0.409  16.277  11.896  1.00  0.00     0.007 C 
ENDBRANCH  11  13
ENDBRANCH   2  11
ENDBRANCH   1   2
BRANCH   1  15
HETATM   15  C7  UNL     1      -3.175  16.298   9.578  1.00  0.00     0.292 C 
BRANCH  15  16
HETATM   16  N3  UNL     1      -2.404  17.308   8.824  1.00  0.00     0.090 N 
BRANCH  16  17
HETATM   17  C8  UNL     1      -2.142  18.443   9.645  1.00  0.00     0.272 C 
BRANCH  17  18
HETATM   18  C9  UNL     1      -3.064  18.580  10.808  1.00  0.00     0.032 C 
BRANCH  18  19
HETATM   19  C10 UNL     1      -3.391  20.001  11.182  1.00  0.00     0.026 C 
BRANCH  19  20
HETATM   20  C11 UNL     1      -2.751  20.290  12.532  1.00  0.00     0.072 C 
HETATM   21  C12 UNL     1      -2.255  19.039  13.189  1.00  0.00     0.031 C 
BRANCH  20  22
HETATM   22  N4  UNL     1      -3.526  21.120  13.383  1.00  0.00    -0.422 N 
HETATM   23  C13 UNL     1      -3.529  20.814  14.770  1.00  0.00     0.140 C 
ATOM     24  H4  UNL     1      -4.060  21.907  13.013  1.00  0.00     0.153 HD
ENDBRANCH  20  22
ENDBRANCH  19  20
ENDBRANCH  18  19
ENDBRANCH  17  18
ENDBRANCH  16  17
BRANCH  16  25
HETATM   25  C14 UNL     1      -2.979  17.568   7.548  1.00  0.00     0.277 C 
BRANCH  25  26
HETATM   26  C15 UNL     1      -4.465  17.193   7.528  1.00  0.00     0.014 A 
HETATM   27  C16 UNL     1      -5.241  17.445   6.226  1.00  0.00     0.007 A 
HETATM   28  C17 UNL     1      -5.458  18.295   7.415  1.00  0.00     0.007 A 
ENDBRANCH  25  26
ENDBRANCH  16  25
ENDBRANCH  15  16
ENDBRANCH   1  15
TORSDOF 17
ENDMDL
MODEL 2
REMARK VINA RESULT: -6.166241495      1.410      2.288
REMARK  17 active torsions:
REMARK  status: ('A' for Active; 'I' for Inactive)
REMARK    1  A    between atoms: C2_2  and  N1_3 
REMARK    2  A    between atoms: N1_3  and  C3_6 
REMARK    3  A    between atoms: C3_6  and  C4_7 
REMARK    4  A    between atoms: C4_7  and  C5_8 
REMARK    5  A    between atoms: C5_8  and  N2_9 
REMARK    6  A    between atoms: N2_9  and  C6_10 
REMARK    7  A    between atoms: N2_9  and  C18_25 
REMARK    8  A    between atoms: C6_10  and  C7_11 
REMARK    9  A    between atoms: C7_11  and  N3_12 
REMARK   10  A    between atoms: N3_12  and  C8_13 
REMARK   11  A    between atoms: N3_12  and  C14_21 
REMARK   12  A    between atoms: C8_13  and  C9_14 
REMARK   13  A    between atoms: C9_14  and  C10_15 
REMARK   14  A    between atoms: C10_15  and  C11_16 
REMARK   15  A    between atoms: C11_16  and  N4_18 
REMARK   16  A    between atoms: C14_21  and  C15_22 
REMARK   17  A    between atoms: C18_25  and  C20_27 
ROOT
HETATM    1  C6  UNL     1      -1.908  16.965  10.455  1.00  0.00     0.152 C 
ENDROOT
BRANCH   1   2
HETATM    2  N2  UNL     1      -2.120  15.524  10.412  1.00  0.00    -0.387 N 
BRANCH   2   3
HETATM    3  C5  UNL     1      -2.489  15.054   9.171  1.00  0.00     0.060 C 
BRANCH   3   4
HETATM    4  C4  UNL     1      -3.580  14.126   8.874  1.00  0.00     0.072 C 
BRANCH   4   5
HETATM    5  C3  UNL     1      -4.966  14.600   8.962  1.00  0.00     0.237 C 
BRANCH   5   6
HETATM    6  N1  UNL     1      -5.539  13.996  10.227  1.00  0.00    -0.075 N 
ATOM      7  H12 UNL     1      -6.542  14.155  10.320  1.00  0.00     0.277 HD
ATOM      8  H11 UNL     1      -5.243  14.490  11.069  1.00  0.00     0.277 HD
BRANCH   6   9
HETATM    9  C2  UNL     1      -5.191  12.587  10.253  1.00  0.00     0.228 C 
HETATM   10  C1  UNL     1      -5.190  12.118  11.684  1.00  0.00     0.034 C 
ENDBRANCH   6   9
ENDBRANCH   5   6
ENDBRANCH   4   5
ENDBRANCH   3   4
ENDBRANCH   2   3
BRANCH   2  11
HETATM   11  C18 UNL     1      -1.299  14.818  11.292  1.00  0.00     0.079 C 
HETATM   12  C19 UNL     1      -0.298  15.700  12.060  1.00  0.00     0.032 C 
BRANCH  11  13
HETATM   13  C20 UNL     1      -2.083  14.045  12.365  1.00  0.00     0.020 C 
HETATM   14  C21 UNL     1      -1.569  12.597  12.396  1.00  0.00     0.007 C 
ENDBRANCH  11  13
ENDBRANCH   2  11
ENDBRANCH   1   2
BRANCH   1  15
HETATM   15  C7  UNL     1      -3.038  17.818  10.091  1.00  0.00     0.292 C 
BRANCH  15  16
HETATM   16  N3  UNL     1      -2.682  19.030   9.325  1.00  0.00     0.090 N 
BRANCH  16  17
HETATM   17  C8  UNL     1      -2.549  20.146  10.201  1.00  0.00     0.272 C 
BRANCH  17  18
HETATM   18  C9  UNL     1      -3.529  20.160  11.324  1.00  0.00     0.032 C 
BRANCH  18  19
HETATM   19  C10 UNL     1      -2.976  20.667  12.629  1.00  0.00     0.026 C 
BRANCH  19  20
HETATM   20  C11 UNL     1      -1.691  19.908  12.921  1.00  0.00     0.072 C 
HETATM   21  C12 UNL     1      -1.944  18.690  13.755  1.00  0.00     0.031 C 
BRANCH  20  22
HETATM   22  N4  UNL     1      -0.625  20.718  13.392  1.00  0.00    -0.422 N 
HETATM   23  C13 UNL     1       0.220  21.317  12.419  1.00  0.00     0.140 C 
ATOM     24  H4  UNL     1      -0.472  20.865  14.390  1.00  0.00     0.153 HD
ENDBRANCH  20  22
ENDBRANCH  19  20
ENDBRANCH  18  19
ENDBRANCH  17  18
ENDBRANCH  16  17
BRANCH  16  25
HETATM   25  C14 UNL     1      -3.527  19.209   8.194  1.00  0.00     0.277 C 
BRANCH  25  26
HETATM   26  C15 UNL     1      -4.454  18.004   8.005  1.00  0.00     0.014 A 
HETATM   27  C16 UNL     1      -4.559  17.405   6.593  1.00  0.00     0.007 A 
HETATM   28  C17 UNL     1      -5.672  18.188   7.170  1.00  0.00     0.007 A 
ENDBRANCH  25  26
ENDBRANCH  16  25
ENDBRANCH  15  16
ENDBRANCH   1  15
TORSDOF 17
ENDMDL
MODEL 3
REMARK VINA RESULT: -6.156497469      2.450      7.270
REMARK  17 active torsions:
REMARK  status: ('A' for Active; 'I' for Inactive)
REMARK    1  A    between atoms: C2_2  and  N1_3 
REMARK    2  A    between atoms: N1_3  and  C3_6 
REMARK    3  A    between atoms: C3_6  and  C4_7 
REMARK    4  A    between atoms: C4_7  and  C5_8 
REMARK    5  A    between atoms: C5_8  and  N2_9 
REMARK    6  A    between atoms: N2_9  and  C6_10 
REMARK    7  A    between atoms: N2_9  and  C18_25 
REMARK    8  A    between atoms: C6_10  and  C7_11 
REMARK    9  A    between atoms: C7_11  and  N3_12 
REMARK   10  A    between atoms: N3_12  and  C8_13 
REMARK   11  A    between atoms: N3_12  and  C14_21 
REMARK   12  A    between atoms: C8_13  and  C9_14 
REMARK   13  A    between atoms: C9_14  and  C10_15 
REMARK   14  A    between atoms: C10_15  and  C11_16 
REMARK   15  A    between atoms: C11_16  and  N4_18 
REMARK   16  A    between atoms: C14_21  and  C15_22 
REMARK   17  A    between atoms: C18_25  and  C20_27 
ROOT
HETATM    1  C6  UNL     1      -1.158  18.040  12.967  1.00  0.00     0.152 C 
ENDROOT
BRANCH   1   2
HETATM    2  N2  UNL     1      -1.447  19.282  13.672  1.00  0.00    -0.387 N 
BRANCH   2   3
HETATM    3  C5  UNL     1      -0.337  20.069  13.887  1.00  0.00     0.060 C 
BRANCH   3   4
HETATM    4  C4  UNL     1       0.879  20.111  13.074  1.00  0.00     0.072 C 
BRANCH   4   5
HETATM    5  C3  UNL     1       0.864  20.843  11.802  1.00  0.00     0.237 C 
BRANCH   5   6
HETATM    6  N1  UNL     1       0.725  22.308  12.160  1.00  0.00    -0.075 N 
ATOM      7  H12 UNL     1       0.110  22.461  12.959  1.00  0.00     0.277 HD
ATOM      8  H11 UNL     1       0.187  22.833  11.470  1.00  0.00     0.277 HD
BRANCH   6   9
HETATM    9  C2  UNL     1       2.055  22.852  12.366  1.00  0.00     0.228 C 
HETATM   10  C1  UNL     1       1.946  24.345  12.521  1.00  0.00     0.034 C 
ENDBRANCH   6   9
ENDBRANCH   5   6
ENDBRANCH   4   5
ENDBRANCH   3   4
ENDBRANCH   2   3
BRANCH   2  11
HETATM   11  C18 UNL     1      -2.714  19.795  13.391  1.00  0.00     0.079 C 
HETATM   12  C19 UNL     1      -3.305  20.660  14.520  1.00  0.00     0.032 C 
BRANCH  11  13
HETATM   13  C20 UNL     1      -2.746  20.676  12.131  1.00  0.00     0.020 C 
HETATM   14  C21 UNL     1      -3.533  19.934  11.039  1.00  0.00     0.007 C 
ENDBRANCH  11  13
ENDBRANCH   2  11
ENDBRANCH   1   2
BRANCH   1  15
HETATM   15  C7  UNL     1      -2.030  16.898  13.240  1.00  0.00     0.292 C 
BRANCH  15  16
HETATM   16  N3  UNL     1      -2.267  16.006  12.088  1.00  0.00     0.090 N 
BRANCH  16  17
HETATM   17  C8  UNL     1      -1.714  14.717  12.339  1.00  0.00     0.272 C 
BRANCH  17  18
HETATM   18  C9  UNL     1      -2.643  13.588  12.049  1.00  0.00     0.032 C 
BRANCH  18  19
HETATM   19  C10 UNL     1      -4.102  13.927  12.195  1.00  0.00     0.026 C 
BRANCH  19  20
HETATM   20  C11 UNL     1      -4.872  13.146  11.140  1.00  0.00     0.072 C 
HETATM   21  C12 UNL     1      -4.003  12.142  10.449  1.00  0.00     0.031 C 
BRANCH  20  22
HETATM   22  N4  UNL     1      -5.638  13.951  10.257  1.00  0.00    -0.422 N 
HETATM   23  C13 UNL     1      -5.898  13.433   8.959  1.00  0.00     0.140 C 
ATOM     24  H4  UNL     1      -5.988  14.866  10.542  1.00  0.00     0.153 HD
ENDBRANCH  20  22
ENDBRANCH  19  20
ENDBRANCH  18  19
ENDBRANCH  17  18
ENDBRANCH  16  17
BRANCH  16  25
HETATM   25  C14 UNL     1      -1.904  16.622  10.858  1.00  0.00     0.277 C 
BRANCH  25  26
HETATM   26  C15 UNL     1      -3.006  16.445   9.808  1.00  0.00     0.014 A 
HETATM   27  C16 UNL     1      -2.729  15.478   8.646  1.00  0.00     0.007 A 
HETATM   28  C17 UNL     1      -2.740  16.940   8.430  1.00  0.00     0.007 A 
ENDBRANCH  25  26
ENDBRANCH  16  25
ENDBRANCH  15  16
ENDBRANCH   1  15
TORSDOF 17
ENDMDL
MODEL 4
REMARK VINA RESULT: -6.101377076      1.736      2.678
REMARK  17 active torsions:
REMARK  status: ('A' for Active; 'I' for Inactive)
REMARK    1  A    between atoms: C2_2  and  N1_3 
REMARK    2  A    between atoms: N1_3  and  C3_6 
REMARK    3  A    between atoms: C3_6  and  C4_7 
REMARK    4  A    between atoms: C4_7  and  C5_8 
REMARK    5  A    between atoms: C5_8  and  N2_9 
REMARK    6  A    between atoms: N2_9  and  C6_10 
REMARK    7  A    between atoms: N2_9  and  C18_25 
REMARK    8  A    between atoms: C6_10  and  C7_11 
REMARK    9  A    between atoms: C7_11  and  N3_12 
REMARK   10  A    between atoms: N3_12  and  C8_13 
REMARK   11  A    between atoms: N3_12  and  C14_21 
REMARK   12  A    between atoms: C8_13  and  C9_14 
REMARK   13  A    between atoms: C9_14  and  C10_15 
REMARK   14  A    between atoms: C10_15  and  C11_16 
REMARK   15  A    between atoms: C11_16  and  N4_18 
REMARK   16  A    between atoms: C14_21  and  C15_22 
REMARK   17  A    between atoms: C18_25  and  C20_27 
ROOT
HETATM    1  C6  UNL     1      -2.263  16.866  11.825  1.00  0.00     0.152 C 
ENDROOT
BRANCH   1   2
HETATM    2  N2  UNL     1      -2.556  15.549  11.272  1.00  0.00    -0.387 N 
BRANCH   2   3
HETATM    3  C5  UNL     1      -1.972  15.319  10.047  1.00  0.00     0.060 C 
BRANCH   3   4
HETATM    4  C4  UNL     1      -2.654  15.207   8.757  1.00  0.00     0.072 C 
BRANCH   4   5
HETATM    5  C3  UNL     1      -3.592  14.100   8.538  1.00  0.00     0.237 C 
BRANCH   5   6
HETATM    6  N1  UNL     1      -4.972  14.654   8.825  1.00  0.00    -0.075 N 
ATOM      7  H12 UNL     1      -5.288  15.312   8.113  1.00  0.00     0.277 HD
ATOM      8  H11 UNL     1      -4.982  15.296   9.618  1.00  0.00     0.277 HD
BRANCH   6   9
HETATM    9  C2  UNL     1      -5.883  13.537   8.997  1.00  0.00     0.228 C 
HETATM   10  C1  UNL     1      -5.077  12.267   9.072  1.00  0.00     0.034 C 
ENDBRANCH   6   9
ENDBRANCH   5   6
ENDBRANCH   4   5
ENDBRANCH   3   4
ENDBRANCH   2   3
BRANCH   2  11
HETATM   11  C18 UNL     1      -2.718  14.565  12.248  1.00  0.00     0.079 C 
HETATM   12  C19 UNL     1      -4.130  13.951  12.292  1.00  0.00     0.032 C 
BRANCH  11  13
HETATM   13  C20 UNL     1      -1.754  13.379  12.078  1.00  0.00     0.020 C 
HETATM   14  C21 UNL     1      -2.583  12.112  11.814  1.00  0.00     0.007 C 
ENDBRANCH  11  13
ENDBRANCH   2  11
ENDBRANCH   1   2
BRANCH   1  15
HETATM   15  C7  UNL     1      -1.275  17.681  11.120  1.00  0.00     0.292 C 
BRANCH  15  16
HETATM   16  N3  UNL     1      -1.799  18.935  10.542  1.00  0.00     0.090 N 
BRANCH  16  17
HETATM   17  C8  UNL     1      -3.172  19.102  10.888  1.00  0.00     0.272 C 
BRANCH  17  18
HETATM   18  C9  UNL     1      -3.473  20.387  11.580  1.00  0.00     0.032 C 
BRANCH  18  19
HETATM   19  C10 UNL     1      -2.427  20.825  12.569  1.00  0.00     0.026 C 
BRANCH  19  20
HETATM   20  C11 UNL     1      -2.649  20.051  13.860  1.00  0.00     0.072 C 
HETATM   21  C12 UNL     1      -3.523  20.804  14.814  1.00  0.00     0.031 C 
BRANCH  20  22
HETATM   22  N4  UNL     1      -1.464  19.535  14.446  1.00  0.00    -0.422 N 
HETATM   23  C13 UNL     1      -0.224  19.973  13.907  1.00  0.00     0.140 C 
ATOM     24  H4  UNL     1      -1.501  18.877  15.225  1.00  0.00     0.153 HD
ENDBRANCH  20  22
ENDBRANCH  19  20
ENDBRANCH  18  19
ENDBRANCH  17  18
ENDBRANCH  16  17
BRANCH  16  25
HETATM   25  C14 UNL     1      -1.474  19.058   9.162  1.00  0.00     0.277 C 
BRANCH  25  26
HETATM   26  C15 UNL     1      -2.726  18.920   8.289  1.00  0.00     0.014 A 
HETATM   27  C16 UNL     1      -2.517  18.729   6.778  1.00  0.00     0.007 A 
HETATM   28  C17 UNL     1      -3.019  20.010   7.319  1.00  0.00     0.007 A 
ENDBRANCH  25  26
ENDBRANCH  16  25
ENDBRANCH  15  16
ENDBRANCH   1  15
TORSDOF 17
ENDMDL
MODEL 5
REMARK VINA RESULT: -6.071298371      1.171      1.761
REMARK  17 active torsions:
REMARK  status: ('A' for Active; 'I' for Inactive)
REMARK    1  A    between atoms: C2_2  and  N1_3 
REMARK    2  A    between atoms: N1_3  and  C3_6 
REMARK    3  A    between atoms: C3_6  and  C4_7 
REMARK    4  A    between atoms: C4_7  and  C5_8 
REMARK    5  A    between atoms: C5_8  and  N2_9 
REMARK    6  A    between atoms: N2_9  and  C6_10 
REMARK    7  A    between atoms: N2_9  and  C18_25 
REMARK    8  A    between atoms: C6_10  and  C7_11 
REMARK    9  A    between atoms: C7_11  and  N3_12 
REMARK   10  A    between atoms: N3_12  and  C8_13 
REMARK   11  A    between atoms: N3_12  and  C14_21 
REMARK   12  A    between atoms: C8_13  and  C9_14 
REMARK   13  A    between atoms: C9_14  and  C10_15 
REMARK   14  A    between atoms: C10_15  and  C11_16 
REMARK   15  A    between atoms: C11_16  and  N4_18 
REMARK   16  A    between atoms: C14_21  and  C15_22 
REMARK   17  A    between atoms: C18_25  and  C20_27 
ROOT
HETATM    1  C6  UNL     1      -2.443  14.902   9.960  1.00  0.00     0.152 C 
ENDROOT
BRANCH   1   2
HETATM    2  N2  UNL     1      -2.913  14.049  11.044  1.00  0.00    -0.387 N 
BRANCH   2   3
HETATM    3  C5  UNL     1      -3.481  12.870  10.615  1.00  0.00     0.060 C 
BRANCH   3   4
HETATM    4  C4  UNL     1      -4.910  12.572  10.509  1.00  0.00     0.072 C 
BRANCH   4   5
HETATM    5  C3  UNL     1      -5.622  12.914   9.273  1.00  0.00     0.237 C 
BRANCH   5   6
HETATM    6  N1  UNL     1      -6.337  14.220   9.545  1.00  0.00    -0.075 N 
ATOM      7  H12 UNL     1      -5.779  14.866  10.103  1.00  0.00     0.277 HD
ATOM      8  H11 UNL     1      -7.116  14.115  10.196  1.00  0.00     0.277 HD
BRANCH   6   9
HETATM    9  C2  UNL     1      -6.744  14.788   8.273  1.00  0.00     0.228 C 
HETATM   10  C1  UNL     1      -8.043  15.525   8.468  1.00  0.00     0.034 C 
ENDBRANCH   6   9
ENDBRANCH   5   6
ENDBRANCH   4   5
ENDBRANCH   3   4
ENDBRANCH   2   3
BRANCH   2  11
HETATM   11  C18 UNL     1      -2.148  14.159  12.206  1.00  0.00     0.079 C 
HETATM   12  C19 UNL     1      -0.734  14.723  11.975  1.00  0.00     0.032 C 
BRANCH  11  13
HETATM   13  C20 UNL     1      -2.790  15.065  13.269  1.00  0.00     0.020 C 
HETATM   14  C21 UNL     1      -1.994  16.378  13.335  1.00  0.00     0.007 C 
ENDBRANCH  11  13
ENDBRANCH   2  11
ENDBRANCH   1   2
BRANCH   1  15
HETATM   15  C7  UNL     1      -3.322  15.991   9.537  1.00  0.00     0.292 C 
BRANCH  15  16
HETATM   16  N3  UNL     1      -2.653  17.294   9.346  1.00  0.00     0.090 N 
BRANCH  16  17
HETATM   17  C8  UNL     1      -2.793  18.097  10.515  1.00  0.00     0.272 C 
BRANCH  17  18
HETATM   18  C9  UNL     1      -3.185  19.508  10.242  1.00  0.00     0.032 C 
BRANCH  18  19
HETATM   19  C10 UNL     1      -3.554  20.303  11.466  1.00  0.00     0.026 C 
BRANCH  19  20
HETATM   20  C11 UNL     1      -2.331  20.368  12.369  1.00  0.00     0.072 C 
HETATM   21  C12 UNL     1      -2.711  20.586  13.801  1.00  0.00     0.031 C 
BRANCH  20  22
HETATM   22  N4  UNL     1      -1.306  21.233  11.906  1.00  0.00    -0.422 N 
HETATM   23  C13 UNL     1      -0.025  21.110  12.509  1.00  0.00     0.140 C 
ATOM     24  H4  UNL     1      -1.482  21.916  11.169  1.00  0.00     0.153 HD
ENDBRANCH  20  22
ENDBRANCH  19  20
ENDBRANCH  18  19
ENDBRANCH  17  18
ENDBRANCH  16  17
BRANCH  16  25
HETATM   25  C14 UNL     1      -3.020  17.901   8.113  1.00  0.00     0.277 C 
BRANCH  25  26
HETATM   26  C15 UNL     1      -4.308  17.284   7.558  1.00  0.00     0.014 A 
HETATM   27  C16 UNL     1      -4.766  17.736   6.163  1.00  0.00     0.007 A 
HETATM   28  C17 UNL     1      -5.485  18.178   7.377  1.00  0.00     0.007 A 
ENDBRANCH  25  26
ENDBRANCH  16  25
ENDBRANCH  15  16
ENDBRANCH   1  15
TORSDOF 17
ENDMDL
