MODEL 1
REMARK VINA RESULT: -6.754577017      0.000      0.000
REMARK  3 active torsions:
REMARK  status: ('A' for Active; 'I' for Inactive)
REMARK       I    between atoms: C1_2  and  N1_3 
REMARK    1  A    between atoms: C1_2  and  C7_13 
REMARK    2  A    between atoms: N1_3  and  C2_5 
REMARK    3  A    between atoms: C12_20  and  C13_21 
ROOT
HETATM    1  O1  UNL     1       8.091  10.432  23.863  1.00  0.00    -0.273 OA
HETATM    2  C1  UNL     1       6.855  10.634  23.801  1.00  0.00     0.226 C 
HETATM    3  N1  UNL     1       6.017   9.850  24.654  1.00  0.00    -0.333 N 
ATOM      4  H1  UNL     1       5.008   9.998  24.619  1.00  0.00     0.164 HD
ENDROOT
BRANCH   2   5
HETATM    5  C7  UNL     1       6.324  11.648  22.876  1.00  0.00     0.114 C 
HETATM    6  C8  UNL     1       5.162  11.018  22.131  1.00  0.00     0.053 C 
HETATM    7  C9  UNL     1       5.838  10.108  21.125  1.00  0.00     0.147 C 
HETATM    8  S1  UNL     1       5.084  10.282  19.456  1.00  0.00    -0.139 SA
HETATM    9  N3  UNL     1       7.088  10.702  20.922  1.00  0.00    -0.364 N 
HETATM   10  C10 UNL     1       6.662  10.522  18.553  1.00  0.00     0.120 C 
HETATM   11  C11 UNL     1       7.637  10.562  19.666  1.00  0.00     0.070 C 
HETATM   12  C12 UNL     1       7.333  11.812  21.734  1.00  0.00     0.199 C 
BRANCH  12  13
HETATM   13  C13 UNL     1       7.155  13.143  21.165  1.00  0.00     0.197 C 
HETATM   14  O2  UNL     1       6.317  13.411  20.279  1.00  0.00    -0.646 OA
HETATM   15  O3  UNL     1       7.953  14.176  21.621  1.00  0.00    -0.646 OA
ENDBRANCH  12  13
ENDBRANCH   2   5
BRANCH   3  16
HETATM   16  C2  UNL     1       6.535   8.866  25.552  1.00  0.00     0.286 C 
HETATM   17  C3  UNL     1       5.525   8.365  26.549  1.00  0.00     0.054 C 
HETATM   18  C4  UNL     1       5.741   9.039  27.906  1.00  0.00     0.005 C 
HETATM   19  C5  UNL     1       7.102   8.724  28.468  1.00  0.00     0.028 C 
HETATM   20  C6  UNL     1       8.085   8.543  27.333  1.00  0.00     0.235 C 
HETATM   21  N2  UNL     1       7.754   9.332  26.182  1.00  0.00    -0.054 N 
ATOM     22  H22 UNL     1       8.528   9.367  25.518  1.00  0.00     0.279 HD
ATOM     23  H21 UNL     1       7.700  10.324  26.413  1.00  0.00     0.279 HD
ENDBRANCH   3  16
TORSDOF 3
ENDMDL
MODEL 2
REMARK VINA RESULT: -6.739730026      1.865      2.387
REMARK  3 active torsions:
REMARK  status: ('A' for Active; 'I' for Inactive)
REMARK       I    between atoms: C1_2  and  N1_3 
REMARK    1  A    between atoms: C1_2  and  C7_13 
REMARK    2  A    between atoms: N1_3  and  C2_5 
REMARK    3  A    between atoms: C12_20  and  C13_21 
ROOT
HETATM    1  O1  UNL     1       6.878  10.600  24.931  1.00  0.00    -0.273 OA
HETATM    2  C1  UNL     1       7.329   9.827  24.054  1.00  0.00     0.226 C 
HETATM    3  N1  UNL     1       7.600   8.478  24.443  1.00  0.00    -0.333 N 
ATOM      4  H1  UNL     1       7.968   7.832  23.744  1.00  0.00     0.164 HD
ENDROOT
BRANCH   2   5
HETATM    5  C7  UNL     1       7.558  10.323  22.688  1.00  0.00     0.114 C 
HETATM    6  C8  UNL     1       6.291  11.032  22.244  1.00  0.00     0.053 C 
HETATM    7  C9  UNL     1       5.341   9.895  21.929  1.00  0.00     0.147 C 
HETATM    8  S1  UNL     1       4.470  10.176  20.334  1.00  0.00    -0.139 SA
HETATM    9  N3  UNL     1       6.188   8.833  21.593  1.00  0.00    -0.364 N 
HETATM   10  C10 UNL     1       4.833   8.526  19.619  1.00  0.00     0.120 C 
HETATM   11  C11 UNL     1       5.711   7.941  20.656  1.00  0.00     0.070 C 
HETATM   12  C12 UNL     1       7.547   9.115  21.744  1.00  0.00     0.199 C 
BRANCH  12  13
HETATM   13  C13 UNL     1       8.321   9.463  20.558  1.00  0.00     0.197 C 
HETATM   14  O2  UNL     1       8.033  10.409  19.796  1.00  0.00    -0.646 OA
HETATM   15  O3  UNL     1       9.440   8.713  20.247  1.00  0.00    -0.646 OA
ENDBRANCH  12  13
ENDBRANCH   2   5
BRANCH   3  16
HETATM   16  C2  UNL     1       7.377   7.997  25.771  1.00  0.00     0.286 C 
HETATM   17  C3  UNL     1       5.923   7.802  26.107  1.00  0.00     0.054 C 
HETATM   18  C4  UNL     1       5.412   8.974  26.948  1.00  0.00     0.005 C 
HETATM   19  C5  UNL     1       6.152   9.079  28.255  1.00  0.00     0.028 C 
HETATM   20  C6  UNL     1       7.572   8.595  28.068  1.00  0.00     0.235 C 
HETATM   21  N2  UNL     1       8.066   8.823  26.741  1.00  0.00    -0.054 N 
ATOM     22  H22 UNL     1       9.077   8.693  26.692  1.00  0.00     0.279 HD
ATOM     23  H21 UNL     1       8.021   9.811  26.491  1.00  0.00     0.279 HD
ENDBRANCH   3  16
TORSDOF 3
ENDMDL
MODEL 3
REMARK VINA RESULT: -6.724490208      1.477      1.582
REMARK  3 active torsions:
REMARK  status: ('A' for Active; 'I' for Inactive)
REMARK       I    between atoms: C1_2  and  N1_3 
REMARK    1  A    between atoms: C1_2  and  C7_13 
REMARK    2  A    between atoms: N1_3  and  C2_5 
REMARK    3  A    between atoms: C12_20  and  C13_21 
ROOT
HETATM    1  O1  UNL     1       4.748   8.743  24.441  1.00  0.00    -0.273 OA
HETATM    2  C1  UNL     1       5.651   9.584  24.222  1.00  0.00     0.226 C 
HETATM    3  N1  UNL     1       6.749   9.622  25.137  1.00  0.00    -0.333 N 
ATOM      4  H1  UNL     1       7.496  10.300  24.977  1.00  0.00     0.164 HD
ENDROOT
BRANCH   2   5
HETATM    5  C7  UNL     1       5.552  10.479  23.059  1.00  0.00     0.114 C 
HETATM    6  C8  UNL     1       4.979   9.670  21.910  1.00  0.00     0.053 C 
HETATM    7  C9  UNL     1       6.149   8.820  21.458  1.00  0.00     0.147 C 
HETATM    8  S1  UNL     1       6.308   8.825  19.625  1.00  0.00    -0.139 SA
HETATM    9  N3  UNL     1       7.271   9.568  21.829  1.00  0.00    -0.364 N 
HETATM   10  C10 UNL     1       8.095   9.238  19.584  1.00  0.00     0.120 C 
HETATM   11  C11 UNL     1       8.381   9.452  21.020  1.00  0.00     0.070 C 
HETATM   12  C12 UNL     1       6.974  10.732  22.541  1.00  0.00     0.199 C 
BRANCH  12  13
HETATM   13  C13 UNL     1       6.972  12.003  21.827  1.00  0.00     0.197 C 
HETATM   14  O2  UNL     1       6.382  12.188  20.742  1.00  0.00    -0.646 OA
HETATM   15  O3  UNL     1       7.661  13.074  22.367  1.00  0.00    -0.646 OA
ENDBRANCH  12  13
ENDBRANCH   2   5
BRANCH   3  16
HETATM   16  C2  UNL     1       6.844   8.751  26.266  1.00  0.00     0.286 C 
HETATM   17  C3  UNL     1       5.733   8.931  27.265  1.00  0.00     0.054 C 
HETATM   18  C4  UNL     1       6.220   9.760  28.455  1.00  0.00     0.005 C 
HETATM   19  C5  UNL     1       7.350   9.076  29.179  1.00  0.00     0.028 C 
HETATM   20  C6  UNL     1       8.161   8.268  28.191  1.00  0.00     0.235 C 
HETATM   21  N2  UNL     1       8.157   8.834  26.874  1.00  0.00    -0.054 N 
ATOM     22  H22 UNL     1       8.870   8.408  26.282  1.00  0.00     0.279 HD
ATOM     23  H21 UNL     1       8.507   9.792  26.878  1.00  0.00     0.279 HD
ENDBRANCH   3  16
TORSDOF 3
ENDMDL
MODEL 4
REMARK VINA RESULT: -6.428092517      2.847      6.564
REMARK  3 active torsions:
REMARK  status: ('A' for Active; 'I' for Inactive)
REMARK       I    between atoms: C1_2  and  N1_3 
REMARK    1  A    between atoms: C1_2  and  C7_13 
REMARK    2  A    between atoms: N1_3  and  C2_5 
REMARK    3  A    between atoms: C12_20  and  C13_21 
ROOT
HETATM    1  O1  UNL     1       7.052   9.480  22.486  1.00  0.00    -0.273 OA
HETATM    2  C1  UNL     1       5.933   9.502  23.051  1.00  0.00     0.226 C 
HETATM    3  N1  UNL     1       5.050  10.577  22.720  1.00  0.00    -0.333 N 
ATOM      4  H1  UNL     1       4.135  10.614  23.169  1.00  0.00     0.164 HD
ENDROOT
BRANCH   2   5
HETATM    5  C7  UNL     1       5.578   8.447  24.012  1.00  0.00     0.114 C 
HETATM    6  C8  UNL     1       5.028   9.128  25.252  1.00  0.00     0.053 C 
HETATM    7  C9  UNL     1       6.266   9.667  25.938  1.00  0.00     0.147 C 
HETATM    8  S1  UNL     1       6.238   9.310  27.743  1.00  0.00    -0.139 SA
HETATM    9  N3  UNL     1       7.287   8.812  25.509  1.00  0.00    -0.364 N 
HETATM   10  C10 UNL     1       7.923   8.591  27.827  1.00  0.00     0.120 C 
HETATM   11  C11 UNL     1       8.314   8.588  26.400  1.00  0.00     0.070 C 
HETATM   12  C12 UNL     1       6.881   7.863  24.569  1.00  0.00     0.199 C 
BRANCH  12  13
HETATM   13  C13 UNL     1       6.607   6.505  25.026  1.00  0.00     0.197 C 
HETATM   14  O2  UNL     1       5.631   6.199  25.741  1.00  0.00    -0.646 OA
HETATM   15  O3  UNL     1       7.469   5.489  24.655  1.00  0.00    -0.646 OA
ENDBRANCH  12  13
ENDBRANCH   2   5
BRANCH   3  16
HETATM   16  C2  UNL     1       5.398  11.602  21.785  1.00  0.00     0.286 C 
HETATM   17  C3  UNL     1       5.201  11.202  20.348  1.00  0.00     0.054 C 
HETATM   18  C4  UNL     1       6.541  10.822  19.715  1.00  0.00     0.005 C 
HETATM   19  C5  UNL     1       7.501  11.983  19.718  1.00  0.00     0.028 C 
HETATM   20  C6  UNL     1       7.236  12.851  20.928  1.00  0.00     0.235 C 
HETATM   21  N2  UNL     1       6.731  12.107  22.045  1.00  0.00    -0.054 N 
ATOM     22  H22 UNL     1       6.762  12.656  22.904  1.00  0.00     0.279 HD
ATOM     23  H21 UNL     1       7.369  11.358  22.313  1.00  0.00     0.279 HD
ENDBRANCH   3  16
TORSDOF 3
ENDMDL
MODEL 5
REMARK VINA RESULT: -6.353472540      1.033      1.133
REMARK  3 active torsions:
REMARK  status: ('A' for Active; 'I' for Inactive)
REMARK       I    between atoms: C1_2  and  N1_3 
REMARK    1  A    between atoms: C1_2  and  C7_13 
REMARK    2  A    between atoms: N1_3  and  C2_5 
REMARK    3  A    between atoms: C12_20  and  C13_21 
ROOT
HETATM    1  O1  UNL     1       8.372  10.092  23.713  1.00  0.00    -0.273 OA
HETATM    2  C1  UNL     1       7.163  10.406  23.607  1.00  0.00     0.226 C 
HETATM    3  N1  UNL     1       6.242   9.784  24.506  1.00  0.00    -0.333 N 
ATOM      4  H1  UNL     1       5.253  10.026  24.437  1.00  0.00     0.164 HD
ENDROOT
BRANCH   2   5
HETATM    5  C7  UNL     1       6.746  11.381  22.587  1.00  0.00     0.114 C 
HETATM    6  C8  UNL     1       5.251  11.215  22.386  1.00  0.00     0.053 C 
HETATM    7  C9  UNL     1       5.143   9.948  21.563  1.00  0.00     0.147 C 
HETATM    8  S1  UNL     1       3.963  10.157  20.167  1.00  0.00    -0.139 SA
HETATM    9  N3  UNL     1       6.362   9.885  20.880  1.00  0.00    -0.364 N 
HETATM   10  C10 UNL     1       5.086   9.521  18.864  1.00  0.00     0.120 C 
HETATM   11  C11 UNL     1       6.335   9.310  19.628  1.00  0.00     0.070 C 
HETATM   12  C12 UNL     1       7.267  10.890  21.231  1.00  0.00     0.199 C 
BRANCH  12  13
HETATM   13  C13 UNL     1       7.395  12.047  20.353  1.00  0.00     0.197 C 
HETATM   14  O2  UNL     1       6.799  13.128  20.539  1.00  0.00    -0.646 OA
HETATM   15  O3  UNL     1       8.220  11.957  19.246  1.00  0.00    -0.646 OA
ENDBRANCH  12  13
ENDBRANCH   2   5
BRANCH   3  16
HETATM   16  C2  UNL     1       6.649   8.838  25.497  1.00  0.00     0.286 C 
HETATM   17  C3  UNL     1       5.529   8.374  26.387  1.00  0.00     0.054 C 
HETATM   18  C4  UNL     1       5.585   9.101  27.733  1.00  0.00     0.005 C 
HETATM   19  C5  UNL     1       6.871   8.813  28.463  1.00  0.00     0.028 C 
HETATM   20  C6  UNL     1       7.979   8.590  27.458  1.00  0.00     0.235 C 
HETATM   21  N2  UNL     1       7.787   9.332  26.246  1.00  0.00    -0.054 N 
ATOM     22  H22 UNL     1       8.633   9.343  25.677  1.00  0.00     0.279 HD
ATOM     23  H21 UNL     1       7.708  10.332  26.430  1.00  0.00     0.279 HD
ENDBRANCH   3  16
TORSDOF 3
ENDMDL
