MODEL 1
REMARK VINA RESULT: -6.261975476      0.000      0.000
REMARK  4 active torsions:
REMARK  status: ('A' for Active; 'I' for Inactive)
REMARK    1  A    between atoms: C1_2  and  N2_4 
REMARK    2  A    between atoms: N2_4  and  N3_6 
REMARK    3  A    between atoms: C4_10  and  S2_11 
REMARK    4  A    between atoms: S2_11  and  C5_12 
ROOT
HETATM    1  N3  UNL     1       5.364   6.874  22.758  1.00  0.00    -0.286 N 
ATOM      2  H3  UNL     1       4.359   6.711  22.825  1.00  0.00     0.188 HD
HETATM    3  C2  UNL     1       5.859   8.002  23.206  1.00  0.00     0.107 C 
HETATM    4  C3  UNL     1       5.045   9.082  23.816  1.00  0.00     0.111 C 
HETATM    5  C4  UNL     1       5.774   9.494  25.078  1.00  0.00     0.198 C 
HETATM    6  S3  UNL     1       7.466   9.466  24.456  1.00  0.00     0.245 S 
HETATM    7  O1  UNL     1       7.866  10.782  23.900  1.00  0.00    -0.204 OA
HETATM    8  O2  UNL     1       8.403   8.949  25.496  1.00  0.00    -0.204 OA
HETATM    9  N4  UNL     1       7.227   8.348  23.170  1.00  0.00    -0.271 N 
ATOM     10  H4  UNL     1       7.931   8.004  22.517  1.00  0.00     0.180 HD
ENDROOT
BRANCH   1  11
HETATM   11  N2  UNL     1       6.184   5.882  22.189  1.00  0.00    -0.277 N 
ATOM     12  H2  UNL     1       6.388   5.925  21.190  1.00  0.00     0.189 HD
BRANCH  11  13
HETATM   13  C1  UNL     1       6.735   4.829  22.956  1.00  0.00     0.199 C 
HETATM   14  N1  UNL     1       7.511   5.108  24.114  1.00  0.00    -0.068 NA
HETATM   15  S1  UNL     1       6.479   3.271  22.510  1.00  0.00    -0.043 SA
ENDBRANCH  11  13
ENDBRANCH   1  11
BRANCH   5  16
HETATM   16  S2  UNL     1       5.606   8.219  26.318  1.00  0.00    -0.142 SA
BRANCH  16  17
HETATM   17  C5  UNL     1       5.602   8.826  27.997  1.00  0.00     0.048 C 
HETATM   18  C6  UNL     1       6.478   9.987  28.309  1.00  0.00     0.015 C 
HETATM   19  C7  UNL     1       7.494   9.049  28.916  1.00  0.00     0.002 C 
HETATM   20  C8  UNL     1       6.437   7.969  28.925  1.00  0.00     0.015 C 
ENDBRANCH  16  17
ENDBRANCH   5  16
TORSDOF 4
ENDMDL
MODEL 2
REMARK VINA RESULT: -6.181730123      1.559      1.696
REMARK  4 active torsions:
REMARK  status: ('A' for Active; 'I' for Inactive)
REMARK    1  A    between atoms: C1_2  and  N2_4 
REMARK    2  A    between atoms: N2_4  and  N3_6 
REMARK    3  A    between atoms: C4_10  and  S2_11 
REMARK    4  A    between atoms: S2_11  and  C5_12 
ROOT
HETATM    1  N3  UNL     1       5.154   7.519  22.673  1.00  0.00    -0.286 N 
ATOM      2  H3  UNL     1       4.456   7.065  23.263  1.00  0.00     0.188 HD
HETATM    3  C2  UNL     1       5.592   8.710  23.002  1.00  0.00     0.107 C 
HETATM    4  C3  UNL     1       5.135   9.461  24.197  1.00  0.00     0.111 C 
HETATM    5  C4  UNL     1       6.389   9.983  24.869  1.00  0.00     0.198 C 
HETATM    6  S3  UNL     1       7.309  10.493  23.404  1.00  0.00     0.245 S 
HETATM    7  O1  UNL     1       7.021  11.903  23.041  1.00  0.00    -0.204 OA
HETATM    8  O2  UNL     1       8.764  10.204  23.566  1.00  0.00    -0.204 OA
HETATM    9  N4  UNL     1       6.552   9.442  22.271  1.00  0.00    -0.271 N 
ATOM     10  H4  UNL     1       6.755   9.365  21.274  1.00  0.00     0.180 HD
ENDROOT
BRANCH   1  11
HETATM   11  N2  UNL     1       5.623   6.851  21.527  1.00  0.00    -0.277 N 
ATOM     12  H2  UNL     1       5.027   6.812  20.700  1.00  0.00     0.189 HD
BRANCH  11  13
HETATM   13  C1  UNL     1       6.895   6.233  21.483  1.00  0.00     0.199 C 
HETATM   14  N1  UNL     1       7.987   6.873  20.835  1.00  0.00    -0.068 NA
HETATM   15  S1  UNL     1       7.117   4.767  22.185  1.00  0.00    -0.043 SA
ENDBRANCH  11  13
ENDBRANCH   1  11
BRANCH   5  16
HETATM   16  S2  UNL     1       7.266   8.634  25.646  1.00  0.00    -0.142 SA
BRANCH  16  17
HETATM   17  C5  UNL     1       6.649   8.195  27.262  1.00  0.00     0.048 C 
HETATM   18  C6  UNL     1       5.505   8.981  27.798  1.00  0.00     0.015 C 
HETATM   19  C7  UNL     1       6.460   9.777  28.653  1.00  0.00     0.002 C 
HETATM   20  C8  UNL     1       7.518   8.732  28.380  1.00  0.00     0.015 C 
ENDBRANCH  16  17
ENDBRANCH   5  16
TORSDOF 4
ENDMDL
MODEL 3
REMARK VINA RESULT: -6.180973556      1.486      1.614
REMARK  4 active torsions:
REMARK  status: ('A' for Active; 'I' for Inactive)
REMARK    1  A    between atoms: C1_2  and  N2_4 
REMARK    2  A    between atoms: N2_4  and  N3_6 
REMARK    3  A    between atoms: C4_10  and  S2_11 
REMARK    4  A    between atoms: S2_11  and  C5_12 
ROOT
HETATM    1  N3  UNL     1       5.100   7.564  22.676  1.00  0.00    -0.286 N 
ATOM      2  H3  UNL     1       4.392   7.134  23.271  1.00  0.00     0.188 HD
HETATM    3  C2  UNL     1       5.571   8.745  22.994  1.00  0.00     0.107 C 
HETATM    4  C3  UNL     1       5.138   9.518  24.184  1.00  0.00     0.111 C 
HETATM    5  C4  UNL     1       6.408  10.011  24.848  1.00  0.00     0.198 C 
HETATM    6  S3  UNL     1       7.336  10.485  23.376  1.00  0.00     0.245 S 
HETATM    7  O1  UNL     1       7.085  11.899  23.003  1.00  0.00    -0.204 OA
HETATM    8  O2  UNL     1       8.783  10.159  23.536  1.00  0.00    -0.204 OA
HETATM    9  N4  UNL     1       6.547   9.446  22.254  1.00  0.00    -0.271 N 
ATOM     10  H4  UNL     1       6.746   9.355  21.257  1.00  0.00     0.180 HD
ENDROOT
BRANCH   1  11
HETATM   11  N2  UNL     1       5.548   6.875  21.533  1.00  0.00    -0.277 N 
ATOM     12  H2  UNL     1       5.629   7.382  20.652  1.00  0.00     0.189 HD
BRANCH  11  13
HETATM   13  C1  UNL     1       5.888   5.503  21.566  1.00  0.00     0.199 C 
HETATM   14  N1  UNL     1       5.657   4.730  22.738  1.00  0.00    -0.068 NA
HETATM   15  S1  UNL     1       6.554   4.791  20.247  1.00  0.00    -0.043 SA
ENDBRANCH  11  13
ENDBRANCH   1  11
BRANCH   5  16
HETATM   16  S2  UNL     1       7.251   8.646  25.633  1.00  0.00    -0.142 SA
BRANCH  16  17
HETATM   17  C5  UNL     1       6.605   8.214  27.240  1.00  0.00     0.048 C 
HETATM   18  C6  UNL     1       5.465   9.016  27.760  1.00  0.00     0.015 C 
HETATM   19  C7  UNL     1       6.420   9.797  28.630  1.00  0.00     0.002 C 
HETATM   20  C8  UNL     1       7.466   8.737  28.370  1.00  0.00     0.015 C 
ENDBRANCH  16  17
ENDBRANCH   5  16
TORSDOF 4
ENDMDL
MODEL 4
REMARK VINA RESULT: -6.178759993      1.826      2.151
REMARK  4 active torsions:
REMARK  status: ('A' for Active; 'I' for Inactive)
REMARK    1  A    between atoms: C1_2  and  N2_4 
REMARK    2  A    between atoms: N2_4  and  N3_6 
REMARK    3  A    between atoms: C4_10  and  S2_11 
REMARK    4  A    between atoms: S2_11  and  C5_12 
ROOT
HETATM    1  N3  UNL     1       5.399   6.294  25.380  1.00  0.00    -0.286 N 
ATOM      2  H3  UNL     1       4.973   5.915  26.226  1.00  0.00     0.188 HD
HETATM    3  C2  UNL     1       5.619   7.584  25.298  1.00  0.00     0.107 C 
HETATM    4  C3  UNL     1       5.286   8.552  26.372  1.00  0.00     0.111 C 
HETATM    5  C4  UNL     1       6.508   9.433  26.535  1.00  0.00     0.198 C 
HETATM    6  S3  UNL     1       6.934   9.660  24.798  1.00  0.00     0.245 S 
HETATM    7  O1  UNL     1       6.261  10.850  24.221  1.00  0.00    -0.204 OA
HETATM    8  O2  UNL     1       8.415   9.664  24.612  1.00  0.00    -0.204 OA
HETATM    9  N4  UNL     1       6.198   8.230  24.185  1.00  0.00    -0.271 N 
ATOM     10  H4  UNL     1       6.184   7.914  23.215  1.00  0.00     0.180 HD
ENDROOT
BRANCH   1  11
HETATM   11  N2  UNL     1       5.736   5.420  24.329  1.00  0.00    -0.277 N 
ATOM     12  H2  UNL     1       5.289   5.546  23.421  1.00  0.00     0.189 HD
BRANCH  11  13
HETATM   13  C1  UNL     1       6.672   4.373  24.492  1.00  0.00     0.199 C 
HETATM   14  N1  UNL     1       7.948   4.442  23.867  1.00  0.00    -0.068 NA
HETATM   15  S1  UNL     1       6.289   3.067  25.408  1.00  0.00    -0.043 SA
ENDBRANCH  11  13
ENDBRANCH   1  11
BRANCH   5  16
HETATM   16  S2  UNL     1       7.819   8.509  27.323  1.00  0.00    -0.142 SA
BRANCH  16  17
HETATM   17  C5  UNL     1       8.157   9.006  29.004  1.00  0.00     0.048 C 
HETATM   18  C6  UNL     1       9.406   8.498  29.632  1.00  0.00     0.015 C 
HETATM   19  C7  UNL     1       8.603   7.452  30.367  1.00  0.00     0.002 C 
HETATM   20  C8  UNL     1       7.350   8.219  30.014  1.00  0.00     0.015 C 
ENDBRANCH  16  17
ENDBRANCH   5  16
TORSDOF 4
ENDMDL
MODEL 5
REMARK VINA RESULT: -6.108579194      1.877      2.303
REMARK  4 active torsions:
REMARK  status: ('A' for Active; 'I' for Inactive)
REMARK    1  A    between atoms: C1_2  and  N2_4 
REMARK    2  A    between atoms: N2_4  and  N3_6 
REMARK    3  A    between atoms: C4_10  and  S2_11 
REMARK    4  A    between atoms: S2_11  and  C5_12 
ROOT
HETATM    1  N3  UNL     1       5.391   7.349  22.302  1.00  0.00    -0.286 N 
ATOM      2  H3  UNL     1       4.640   6.856  22.786  1.00  0.00     0.188 HD
HETATM    3  C2  UNL     1       5.732   8.549  22.704  1.00  0.00     0.107 C 
HETATM    4  C3  UNL     1       5.090   9.257  23.839  1.00  0.00     0.111 C 
HETATM    5  C4  UNL     1       6.221   9.813  24.680  1.00  0.00     0.198 C 
HETATM    6  S3  UNL     1       7.305  10.389  23.359  1.00  0.00     0.245 S 
HETATM    7  O1  UNL     1       7.011  11.794  22.983  1.00  0.00    -0.204 OA
HETATM    8  O2  UNL     1       8.737  10.153  23.709  1.00  0.00    -0.204 OA
HETATM    9  N4  UNL     1       6.749   9.333  22.119  1.00  0.00    -0.271 N 
ATOM     10  H4  UNL     1       7.086   9.284  21.157  1.00  0.00     0.180 HD
ENDROOT
BRANCH   1  11
HETATM   11  N2  UNL     1       6.035   6.724  21.218  1.00  0.00    -0.277 N 
ATOM     12  H2  UNL     1       7.006   6.429  21.325  1.00  0.00     0.189 HD
BRANCH  11  13
HETATM   13  C1  UNL     1       5.381   6.492  19.985  1.00  0.00     0.199 C 
HETATM   14  N1  UNL     1       4.572   7.502  19.395  1.00  0.00    -0.068 NA
HETATM   15  S1  UNL     1       5.553   5.048  19.226  1.00  0.00    -0.043 SA
ENDBRANCH  11  13
ENDBRANCH   1  11
BRANCH   5  16
HETATM   16  S2  UNL     1       7.042   8.484  25.546  1.00  0.00    -0.142 SA
BRANCH  16  17
HETATM   17  C5  UNL     1       6.405   8.175  27.185  1.00  0.00     0.048 C 
HETATM   18  C6  UNL     1       5.370   9.108  27.706  1.00  0.00     0.015 C 
HETATM   19  C7  UNL     1       6.426   9.814  28.521  1.00  0.00     0.002 C 
HETATM   20  C8  UNL     1       7.349   8.644  28.272  1.00  0.00     0.015 C 
ENDBRANCH  16  17
ENDBRANCH   5  16
TORSDOF 4
ENDMDL
