MODEL 1
REMARK VINA RESULT: -5.910718384      0.000      0.000
REMARK  4 active torsions:
REMARK  status: ('A' for Active; 'I' for Inactive)
REMARK    1  A    between atoms: C2_2  and  C3_3 
REMARK    2  A    between atoms: C3_3  and  N1_4 
REMARK    3  A    between atoms: N2_6  and  C5_7 
REMARK    4  A    between atoms: C5_7  and  N3_9 
ROOT
HETATM    1  N1  UNL     1     -20.817  63.954  23.855  1.00  0.00    -0.318 N 
HETATM    2  C4  UNL     1     -22.198  64.309  23.951  1.00  0.00     0.214 C 
HETATM    3  N2  UNL     1     -22.470  65.682  24.269  1.00  0.00    -0.118 N 
HETATM    4  C7  UNL     1     -21.418  66.558  24.691  1.00  0.00     0.689 C 
HETATM    5  N4  UNL     1     -21.730  67.719  25.068  1.00  0.00    -0.230 N 
ATOM      6  H4  UNL     1     -22.722  67.958  25.047  1.00  0.00     0.177 HD
HETATM    7  C8  UNL     1     -20.840  68.722  25.517  1.00  0.00     0.165 C 
HETATM    8  N5  UNL     1     -20.065  66.122  24.690  1.00  0.00    -0.165 N 
ATOM      9  H5  UNL     1     -19.318  66.749  24.990  1.00  0.00     0.186 HD
HETATM   10  C9  UNL     1     -19.773  64.810  24.267  1.00  0.00     0.193 C 
HETATM   11  S2  UNL     1     -18.252  64.210  24.225  1.00  0.00    -0.040 SA
ENDROOT
BRANCH   3  12
HETATM   12  C5  UNL     1     -23.845  66.093  24.140  1.00  0.00     0.194 C 
HETATM   13  S1  UNL     1     -24.894  65.271  25.159  1.00  0.00    -0.040 SA
BRANCH  12  14
HETATM   14  N3  UNL     1     -24.391  67.046  23.305  1.00  0.00    -0.370 N 
HETATM   15  C6  UNL     1     -25.780  66.807  22.827  1.00  0.00     0.148 C 
ATOM     16  H3  UNL     1     -23.868  67.876  23.029  1.00  0.00     0.161 HD
ENDBRANCH  12  14
ENDBRANCH   3  12
BRANCH   1  17
HETATM   17  C3  UNL     1     -20.489  62.632  23.304  1.00  0.00     0.132 C 
BRANCH  17  18
HETATM   18  C2  UNL     1     -21.038  62.462  21.918  1.00  0.00     0.016 C 
HETATM   19  C1  UNL     1     -20.080  63.004  20.873  1.00  0.00     0.006 C 
ENDBRANCH  17  18
ENDBRANCH   1  17
TORSDOF 4
ENDMDL
MODEL 2
REMARK VINA RESULT: -5.863512353      2.721      5.077
REMARK  4 active torsions:
REMARK  status: ('A' for Active; 'I' for Inactive)
REMARK    1  A    between atoms: C2_2  and  C3_3 
REMARK    2  A    between atoms: C3_3  and  N1_4 
REMARK    3  A    between atoms: N2_6  and  C5_7 
REMARK    4  A    between atoms: C5_7  and  N3_9 
ROOT
HETATM    1  N1  UNL     1     -23.806  64.398  26.678  1.00  0.00    -0.318 N 
HETATM    2  C4  UNL     1     -22.642  64.982  26.091  1.00  0.00     0.214 C 
HETATM    3  N2  UNL     1     -22.880  65.930  25.038  1.00  0.00    -0.118 N 
HETATM    4  C7  UNL     1     -24.187  66.082  24.473  1.00  0.00     0.689 C 
HETATM    5  N4  UNL     1     -24.316  66.841  23.476  1.00  0.00    -0.230 N 
ATOM      6  H4  UNL     1     -23.471  67.301  23.137  1.00  0.00     0.177 HD
HETATM    7  C8  UNL     1     -25.517  67.118  22.783  1.00  0.00     0.165 C 
HETATM    8  N5  UNL     1     -25.301  65.386  25.018  1.00  0.00    -0.165 N 
ATOM      9  H5  UNL     1     -26.230  65.498  24.613  1.00  0.00     0.186 HD
HETATM   10  C9  UNL     1     -25.099  64.541  26.128  1.00  0.00     0.193 C 
HETATM   11  S2  UNL     1     -26.310  63.699  26.833  1.00  0.00    -0.040 SA
ENDROOT
BRANCH   3  12
HETATM   12  C5  UNL     1     -21.733  66.686  24.608  1.00  0.00     0.194 C 
HETATM   13  S1  UNL     1     -20.494  65.740  23.985  1.00  0.00    -0.040 SA
BRANCH  12  14
HETATM   14  N3  UNL     1     -21.528  68.050  24.645  1.00  0.00    -0.370 N 
HETATM   15  C6  UNL     1     -21.002  68.618  25.915  1.00  0.00     0.148 C 
ATOM     16  H3  UNL     1     -21.728  68.642  23.838  1.00  0.00     0.161 HD
ENDBRANCH  12  14
ENDBRANCH   3  12
BRANCH   1  17
HETATM   17  C3  UNL     1     -23.630  63.610  27.905  1.00  0.00     0.132 C 
BRANCH  17  18
HETATM   18  C2  UNL     1     -22.862  62.348  27.642  1.00  0.00     0.016 C 
HETATM   19  C1  UNL     1     -23.697  61.117  27.946  1.00  0.00     0.006 C 
ENDBRANCH  17  18
ENDBRANCH   1  17
TORSDOF 4
ENDMDL
MODEL 3
REMARK VINA RESULT: -5.659405567      3.015      5.065
REMARK  4 active torsions:
REMARK  status: ('A' for Active; 'I' for Inactive)
REMARK    1  A    between atoms: C2_2  and  C3_3 
REMARK    2  A    between atoms: C3_3  and  N1_4 
REMARK    3  A    between atoms: N2_6  and  C5_7 
REMARK    4  A    between atoms: C5_7  and  N3_9 
ROOT
HETATM    1  N1  UNL     1     -23.162  64.710  27.113  1.00  0.00    -0.318 N 
HETATM    2  C4  UNL     1     -22.106  65.492  26.551  1.00  0.00     0.214 C 
HETATM    3  N2  UNL     1     -22.472  66.341  25.453  1.00  0.00    -0.118 N 
HETATM    4  C7  UNL     1     -23.756  66.218  24.829  1.00  0.00     0.689 C 
HETATM    5  N4  UNL     1     -23.981  66.906  23.799  1.00  0.00    -0.230 N 
ATOM      6  H4  UNL     1     -23.226  67.511  23.476  1.00  0.00     0.177 HD
HETATM    7  C8  UNL     1     -25.178  66.922  23.046  1.00  0.00     0.165 C 
HETATM    8  N5  UNL     1     -24.739  65.336  25.356  1.00  0.00    -0.165 N 
ATOM      9  H5  UNL     1     -25.652  65.252  24.909  1.00  0.00     0.186 HD
HETATM   10  C9  UNL     1     -24.430  64.582  26.506  1.00  0.00     0.193 C 
HETATM   11  S2  UNL     1     -25.488  63.542  27.194  1.00  0.00    -0.040 SA
ENDROOT
BRANCH   3  12
HETATM   12  C5  UNL     1     -21.473  67.293  25.039  1.00  0.00     0.194 C 
HETATM   13  S1  UNL     1     -21.100  68.434  26.211  1.00  0.00    -0.040 SA
BRANCH  12  14
HETATM   14  N3  UNL     1     -20.807  67.384  23.834  1.00  0.00    -0.370 N 
HETATM   15  C6  UNL     1     -19.830  66.307  23.521  1.00  0.00     0.148 C 
ATOM     16  H3  UNL     1     -20.978  68.154  23.188  1.00  0.00     0.161 HD
ENDBRANCH  12  14
ENDBRANCH   3  12
BRANCH   1  17
HETATM   17  C3  UNL     1     -22.896  64.010  28.376  1.00  0.00     0.132 C 
BRANCH  17  18
HETATM   18  C2  UNL     1     -21.921  62.885  28.187  1.00  0.00     0.016 C 
HETATM   19  C1  UNL     1     -22.159  61.771  29.190  1.00  0.00     0.006 C 
ENDBRANCH  17  18
ENDBRANCH   1  17
TORSDOF 4
ENDMDL
MODEL 4
REMARK VINA RESULT: -5.618540571      4.360      6.344
REMARK  4 active torsions:
REMARK  status: ('A' for Active; 'I' for Inactive)
REMARK    1  A    between atoms: C2_2  and  C3_3 
REMARK    2  A    between atoms: C3_3  and  N1_4 
REMARK    3  A    between atoms: N2_6  and  C5_7 
REMARK    4  A    between atoms: C5_7  and  N3_9 
ROOT
HETATM    1  N1  UNL     1     -25.506  63.402  27.506  1.00  0.00    -0.318 N 
HETATM    2  C4  UNL     1     -24.823  63.985  26.394  1.00  0.00     0.214 C 
HETATM    3  N2  UNL     1     -25.652  64.648  25.428  1.00  0.00    -0.118 N 
HETATM    4  C7  UNL     1     -27.078  64.514  25.473  1.00  0.00     0.689 C 
HETATM    5  N4  UNL     1     -27.749  65.021  24.535  1.00  0.00    -0.230 N 
ATOM      6  H4  UNL     1     -27.226  65.497  23.800  1.00  0.00     0.177 HD
HETATM    7  C8  UNL     1     -29.157  64.993  24.402  1.00  0.00     0.165 C 
HETATM    8  N5  UNL     1     -27.710  63.821  26.541  1.00  0.00    -0.165 N 
ATOM      9  H5  UNL     1     -28.725  63.728  26.570  1.00  0.00     0.186 HD
HETATM   10  C9  UNL     1     -26.910  63.265  27.560  1.00  0.00     0.193 C 
HETATM   11  S2  UNL     1     -27.534  62.452  28.833  1.00  0.00    -0.040 SA
ENDROOT
BRANCH   3  12
HETATM   12  C5  UNL     1     -24.956  65.429  24.438  1.00  0.00     0.194 C 
HETATM   13  S1  UNL     1     -23.524  66.102  24.993  1.00  0.00    -0.040 SA
BRANCH  12  14
HETATM   14  N3  UNL     1     -25.311  65.688  23.130  1.00  0.00    -0.370 N 
HETATM   15  C6  UNL     1     -25.613  67.102  22.781  1.00  0.00     0.148 C 
ATOM     16  H3  UNL     1     -25.364  64.944  22.434  1.00  0.00     0.161 HD
ENDBRANCH  12  14
ENDBRANCH   3  12
BRANCH   1  17
HETATM   17  C3  UNL     1     -24.693  62.923  28.632  1.00  0.00     0.132 C 
BRANCH  17  18
HETATM   18  C2  UNL     1     -23.952  61.667  28.280  1.00  0.00     0.016 C 
HETATM   19  C1  UNL     1     -22.585  61.626  28.939  1.00  0.00     0.006 C 
ENDBRANCH  17  18
ENDBRANCH   1  17
TORSDOF 4
ENDMDL
MODEL 5
REMARK VINA RESULT: -5.596885249      2.985      5.356
REMARK  4 active torsions:
REMARK  status: ('A' for Active; 'I' for Inactive)
REMARK    1  A    between atoms: C2_2  and  C3_3 
REMARK    2  A    between atoms: C3_3  and  N1_4 
REMARK    3  A    between atoms: N2_6  and  C5_7 
REMARK    4  A    between atoms: C5_7  and  N3_9 
ROOT
HETATM    1  N1  UNL     1     -18.923  65.386  24.648  1.00  0.00    -0.318 N 
HETATM    2  C4  UNL     1     -19.837  64.428  24.111  1.00  0.00     0.214 C 
HETATM    3  N2  UNL     1     -19.330  63.094  23.961  1.00  0.00    -0.118 N 
HETATM    4  C7  UNL     1     -17.933  62.820  24.119  1.00  0.00     0.689 C 
HETATM    5  N4  UNL     1     -17.526  61.656  23.863  1.00  0.00    -0.230 N 
ATOM      6  H4  UNL     1     -18.226  60.981  23.557  1.00  0.00     0.177 HD
HETATM    7  C8  UNL     1     -16.192  61.195  23.959  1.00  0.00     0.165 C 
HETATM    8  N5  UNL     1     -17.036  63.838  24.544  1.00  0.00    -0.165 N 
ATOM      9  H5  UNL     1     -16.042  63.639  24.657  1.00  0.00     0.186 HD
HETATM   10  C9  UNL     1     -17.544  65.126  24.808  1.00  0.00     0.193 C 
HETATM   11  S2  UNL     1     -16.601  66.367  25.304  1.00  0.00    -0.040 SA
ENDROOT
BRANCH   3  12
HETATM   12  C5  UNL     1     -20.308  62.086  23.642  1.00  0.00     0.194 C 
HETATM   13  S1  UNL     1     -21.141  61.505  24.977  1.00  0.00    -0.040 SA
BRANCH  12  14
HETATM   14  N3  UNL     1     -20.634  61.551  22.413  1.00  0.00    -0.370 N 
HETATM   15  C6  UNL     1     -20.617  62.477  21.248  1.00  0.00     0.148 C 
ATOM     16  H3  UNL     1     -20.875  60.565  22.307  1.00  0.00     0.161 HD
ENDBRANCH  12  14
ENDBRANCH   3  12
BRANCH   1  17
HETATM   17  C3  UNL     1     -19.458  66.696  25.040  1.00  0.00     0.132 C 
BRANCH  17  18
HETATM   18  C2  UNL     1     -20.720  67.020  24.296  1.00  0.00     0.016 C 
HETATM   19  C1  UNL     1     -21.824  67.457  25.241  1.00  0.00     0.006 C 
ENDBRANCH  17  18
ENDBRANCH   1  17
TORSDOF 4
ENDMDL
