MODEL 1
REMARK VINA RESULT: -6.396565574      0.000      0.000
REMARK  6 active torsions:
REMARK  status: ('A' for Active; 'I' for Inactive)
REMARK    1  A    between atoms: C2_2  and  N1_3 
REMARK    2  A    between atoms: C9_11  and  O1_12 
REMARK    3  A    between atoms: C9_11  and  C10_14 
REMARK    4  A    between atoms: C11_15  and  C12_16 
REMARK    5  A    between atoms: C12_16  and  C14_18 
REMARK    6  A    between atoms: C14_18  and  O2_19 
ROOT
HETATM    1  N1  UNL     1     -19.803  66.427  26.222  1.00  0.00    -0.024 N 
HETATM    2  C3  UNL     1     -20.565  65.282  26.681  1.00  0.00     0.277 C 
HETATM    3  C4  UNL     1     -18.408  66.149  26.263  1.00  0.00     0.269 C 
HETATM    4  C5  UNL     1     -17.661  66.551  25.028  1.00  0.00     0.264 C 
HETATM    5  N2  UNL     1     -18.288  66.016  23.846  1.00  0.00    -0.068 N 
HETATM    6  C6  UNL     1     -18.022  64.570  23.806  1.00  0.00     0.272 C 
HETATM    7  C7  UNL     1     -17.659  66.577  22.664  1.00  0.00     0.272 C 
HETATM    8  C8  UNL     1     -19.688  66.225  23.771  1.00  0.00     0.319 C 
HETATM    9  C9  UNL     1     -20.310  66.859  24.966  1.00  0.00     0.317 C 
ENDROOT
BRANCH   9  10
HETATM   10  O1  UNL     1     -20.205  68.260  24.900  1.00  0.00    -0.354 OA
ATOM     11  H1  UNL     1     -20.660  68.631  25.647  1.00  0.00     0.213 HD
ENDBRANCH   9  10
BRANCH   9  12
HETATM   12  C10 UNL     1     -21.765  66.577  24.956  1.00  0.00    -0.036 C 
HETATM   13  C11 UNL     1     -22.954  66.364  24.937  1.00  0.00    -0.095 C 
BRANCH  13  14
HETATM   14  C12 UNL     1     -24.402  66.130  24.906  1.00  0.00     0.084 C 
HETATM   15  C13 UNL     1     -24.710  64.737  25.471  1.00  0.00     0.025 C 
BRANCH  14  16
HETATM   16  C14 UNL     1     -24.808  66.133  23.443  1.00  0.00     0.180 C 
BRANCH  16  17
HETATM   17  O2  UNL     1     -24.797  67.387  22.881  1.00  0.00    -0.400 OA
ATOM     18  H2  UNL     1     -25.626  67.625  22.482  1.00  0.00     0.209 HD
ENDBRANCH  16  17
ENDBRANCH  14  16
ENDBRANCH  13  14
ENDBRANCH   9  12
BRANCH   1  19
HETATM   19  C2  UNL     1     -20.062  67.503  27.191  1.00  0.00     0.237 C 
HETATM   20  C1  UNL     1     -19.332  67.231  28.481  1.00  0.00     0.035 C 
ENDBRANCH   1  19
TORSDOF 6
ENDMDL
MODEL 2
REMARK VINA RESULT: -6.357983728      3.607      6.036
REMARK  6 active torsions:
REMARK  status: ('A' for Active; 'I' for Inactive)
REMARK    1  A    between atoms: C2_2  and  N1_3 
REMARK    2  A    between atoms: C9_11  and  O1_12 
REMARK    3  A    between atoms: C9_11  and  C10_14 
REMARK    4  A    between atoms: C11_15  and  C12_16 
REMARK    5  A    between atoms: C12_16  and  C14_18 
REMARK    6  A    between atoms: C14_18  and  O2_19 
ROOT
HETATM    1  N1  UNL     1     -20.921  66.071  27.725  1.00  0.00    -0.024 N 
HETATM    2  C3  UNL     1     -21.795  65.735  28.832  1.00  0.00     0.277 C 
HETATM    3  C4  UNL     1     -21.065  67.442  27.371  1.00  0.00     0.269 C 
HETATM    4  C5  UNL     1     -19.769  68.168  27.172  1.00  0.00     0.264 C 
HETATM    5  N2  UNL     1     -18.894  67.987  28.302  1.00  0.00    -0.068 N 
HETATM    6  C6  UNL     1     -19.426  68.781  29.420  1.00  0.00     0.272 C 
HETATM    7  C7  UNL     1     -17.586  68.537  27.999  1.00  0.00     0.272 C 
HETATM    8  C8  UNL     1     -18.746  66.642  28.729  1.00  0.00     0.319 C 
HETATM    9  C9  UNL     1     -19.597  65.645  28.023  1.00  0.00     0.317 C 
ENDROOT
BRANCH   9  10
HETATM   10  O1  UNL     1     -18.986  65.222  26.830  1.00  0.00    -0.354 OA
ATOM     11  H1  UNL     1     -18.607  65.980  26.400  1.00  0.00     0.213 HD
ENDBRANCH   9  10
BRANCH   9  12
HETATM   12  C10 UNL     1     -19.703  64.426  28.860  1.00  0.00    -0.036 C 
HETATM   13  C11 UNL     1     -19.781  63.422  29.525  1.00  0.00    -0.095 C 
BRANCH  13  14
HETATM   14  C12 UNL     1     -19.876  62.187  30.313  1.00  0.00     0.084 C 
HETATM   15  C13 UNL     1     -21.130  62.235  31.195  1.00  0.00     0.025 C 
BRANCH  14  16
HETATM   16  C14 UNL     1     -18.668  62.169  31.232  1.00  0.00     0.180 C 
BRANCH  16  17
HETATM   17  O2  UNL     1     -17.506  61.812  30.591  1.00  0.00    -0.400 OA
ATOM     18  H2  UNL     1     -16.997  62.558  30.295  1.00  0.00     0.209 HD
ENDBRANCH  16  17
ENDBRANCH  14  16
ENDBRANCH  13  14
ENDBRANCH   9  12
BRANCH   1  19
HETATM   19  C2  UNL     1     -21.389  65.273  26.581  1.00  0.00     0.237 C 
HETATM   20  C1  UNL     1     -22.699  65.813  26.070  1.00  0.00     0.035 C 
ENDBRANCH   1  19
TORSDOF 6
ENDMDL
MODEL 3
REMARK VINA RESULT: -6.333075670      1.219      1.288
REMARK  6 active torsions:
REMARK  status: ('A' for Active; 'I' for Inactive)
REMARK    1  A    between atoms: C2_2  and  N1_3 
REMARK    2  A    between atoms: C9_11  and  O1_12 
REMARK    3  A    between atoms: C9_11  and  C10_14 
REMARK    4  A    between atoms: C11_15  and  C12_16 
REMARK    5  A    between atoms: C12_16  and  C14_18 
REMARK    6  A    between atoms: C14_18  and  O2_19 
ROOT
HETATM    1  N1  UNL     1     -20.466  67.021  25.720  1.00  0.00    -0.024 N 
HETATM    2  C3  UNL     1     -21.319  66.443  26.741  1.00  0.00     0.277 C 
HETATM    3  C4  UNL     1     -19.096  66.774  26.014  1.00  0.00     0.269 C 
HETATM    4  C5  UNL     1     -18.292  66.288  24.847  1.00  0.00     0.264 C 
HETATM    5  N2  UNL     1     -18.924  65.158  24.216  1.00  0.00    -0.068 N 
HETATM    6  C6  UNL     1     -18.761  63.994  25.100  1.00  0.00     0.272 C 
HETATM    7  C7  UNL     1     -18.228  64.834  22.985  1.00  0.00     0.272 C 
HETATM    8  C8  UNL     1     -20.305  65.329  23.938  1.00  0.00     0.319 C 
HETATM    9  C9  UNL     1     -20.910  66.594  24.438  1.00  0.00     0.317 C 
ENDROOT
BRANCH   9  10
HETATM   10  O1  UNL     1     -20.706  67.642  23.524  1.00  0.00    -0.354 OA
ATOM     11  H1  UNL     1     -21.553  67.971  23.248  1.00  0.00     0.213 HD
ENDBRANCH   9  10
BRANCH   9  12
HETATM   12  C10 UNL     1     -22.381  66.425  24.513  1.00  0.00    -0.036 C 
HETATM   13  C11 UNL     1     -23.580  66.291  24.554  1.00  0.00    -0.095 C 
BRANCH  13  14
HETATM   14  C12 UNL     1     -25.040  66.140  24.581  1.00  0.00     0.084 C 
HETATM   15  C13 UNL     1     -25.406  64.775  25.177  1.00  0.00     0.025 C 
BRANCH  14  16
HETATM   16  C14 UNL     1     -25.500  66.148  23.134  1.00  0.00     0.180 C 
BRANCH  16  17
HETATM   17  O2  UNL     1     -25.396  67.383  22.540  1.00  0.00    -0.400 OA
ATOM     18  H2  UNL     1     -25.314  67.337  21.594  1.00  0.00     0.209 HD
ENDBRANCH  16  17
ENDBRANCH  14  16
ENDBRANCH  13  14
ENDBRANCH   9  12
BRANCH   1  19
HETATM   19  C2  UNL     1     -20.674  68.475  25.792  1.00  0.00     0.237 C 
HETATM   20  C1  UNL     1     -21.005  68.885  27.203  1.00  0.00     0.035 C 
ENDBRANCH   1  19
TORSDOF 6
ENDMDL
MODEL 4
REMARK VINA RESULT: -6.253618202      3.557      4.755
REMARK  6 active torsions:
REMARK  status: ('A' for Active; 'I' for Inactive)
REMARK    1  A    between atoms: C2_2  and  N1_3 
REMARK    2  A    between atoms: C9_11  and  O1_12 
REMARK    3  A    between atoms: C9_11  and  C10_14 
REMARK    4  A    between atoms: C11_15  and  C12_16 
REMARK    5  A    between atoms: C12_16  and  C14_18 
REMARK    6  A    between atoms: C14_18  and  O2_19 
ROOT
HETATM    1  N1  UNL     1     -21.997  64.620  24.847  1.00  0.00    -0.024 N 
HETATM    2  C3  UNL     1     -22.130  64.928  26.258  1.00  0.00     0.277 C 
HETATM    3  C4  UNL     1     -21.130  65.553  24.211  1.00  0.00     0.269 C 
HETATM    4  C5  UNL     1     -20.106  64.930  23.312  1.00  0.00     0.264 C 
HETATM    5  N2  UNL     1     -19.378  63.891  23.996  1.00  0.00    -0.068 N 
HETATM    6  C6  UNL     1     -18.471  64.532  24.960  1.00  0.00     0.272 C 
HETATM    7  C7  UNL     1     -18.535  63.183  23.051  1.00  0.00     0.272 C 
HETATM    8  C8  UNL     1     -20.190  62.955  24.687  1.00  0.00     0.319 C 
HETATM    9  C9  UNL     1     -21.649  63.250  24.695  1.00  0.00     0.317 C 
ENDROOT
BRANCH   9  10
HETATM   10  O1  UNL     1     -22.264  62.761  23.529  1.00  0.00    -0.354 OA
ATOM     11  H1  UNL     1     -23.206  62.799  23.647  1.00  0.00     0.213 HD
ENDBRANCH   9  10
BRANCH   9  12
HETATM   12  C10 UNL     1     -22.283  62.507  25.810  1.00  0.00    -0.036 C 
HETATM   13  C11 UNL     1     -22.794  61.917  26.731  1.00  0.00    -0.095 C 
BRANCH  13  14
HETATM   14  C12 UNL     1     -23.401  61.214  27.868  1.00  0.00     0.084 C 
HETATM   15  C13 UNL     1     -24.834  61.721  28.080  1.00  0.00     0.025 C 
BRANCH  14  16
HETATM   16  C14 UNL     1     -22.591  61.598  29.093  1.00  0.00     0.180 C 
BRANCH  16  17
HETATM   17  O2  UNL     1     -23.261  62.449  29.939  1.00  0.00    -0.400 OA
ATOM     18  H2  UNL     1     -24.188  62.255  30.008  1.00  0.00     0.209 HD
ENDBRANCH  16  17
ENDBRANCH  14  16
ENDBRANCH  13  14
ENDBRANCH   9  12
BRANCH   1  19
HETATM   19  C2  UNL     1     -23.335  64.800  24.264  1.00  0.00     0.237 C 
HETATM   20  C1  UNL     1     -24.171  65.695  25.141  1.00  0.00     0.035 C 
ENDBRANCH   1  19
TORSDOF 6
ENDMDL
MODEL 5
REMARK VINA RESULT: -6.207206631      2.644      3.751
REMARK  6 active torsions:
REMARK  status: ('A' for Active; 'I' for Inactive)
REMARK    1  A    between atoms: C2_2  and  N1_3 
REMARK    2  A    between atoms: C9_11  and  O1_12 
REMARK    3  A    between atoms: C9_11  and  C10_14 
REMARK    4  A    between atoms: C11_15  and  C12_16 
REMARK    5  A    between atoms: C12_16  and  C14_18 
REMARK    6  A    between atoms: C14_18  and  O2_19 
ROOT
HETATM    1  N1  UNL     1     -21.762  65.274  25.535  1.00  0.00    -0.024 N 
HETATM    2  C3  UNL     1     -22.718  65.901  26.428  1.00  0.00     0.277 C 
HETATM    3  C4  UNL     1     -20.729  64.636  26.277  1.00  0.00     0.269 C 
HETATM    4  C5  UNL     1     -20.401  63.250  25.812  1.00  0.00     0.264 C 
HETATM    5  N2  UNL     1     -21.589  62.438  25.724  1.00  0.00    -0.068 N 
HETATM    6  C6  UNL     1     -22.022  62.118  27.092  1.00  0.00     0.272 C 
HETATM    7  C7  UNL     1     -21.268  61.171  25.093  1.00  0.00     0.272 C 
HETATM    8  C8  UNL     1     -22.670  63.042  25.032  1.00  0.00     0.319 C 
HETATM    9  C9  UNL     1     -22.455  64.451  24.605  1.00  0.00     0.317 C 
ENDROOT
BRANCH   9  10
HETATM   10  O1  UNL     1     -21.778  64.503  23.374  1.00  0.00    -0.354 OA
ATOM     11  H1  UNL     1     -21.747  63.626  23.009  1.00  0.00     0.213 HD
ENDBRANCH   9  10
BRANCH   9  12
HETATM   12  C10 UNL     1     -23.771  65.083  24.351  1.00  0.00    -0.036 C 
HETATM   13  C11 UNL     1     -24.837  65.606  24.127  1.00  0.00    -0.095 C 
BRANCH  13  14
HETATM   14  C12 UNL     1     -26.119  66.259  23.840  1.00  0.00     0.084 C 
HETATM   15  C13 UNL     1     -27.239  65.211  23.829  1.00  0.00     0.025 C 
BRANCH  14  16
HETATM   16  C14 UNL     1     -26.007  66.828  22.437  1.00  0.00     0.180 C 
BRANCH  16  17
HETATM   17  O2  UNL     1     -27.055  66.469  21.623  1.00  0.00    -0.400 OA
ATOM     18  H2  UNL     1     -27.472  67.212  21.201  1.00  0.00     0.209 HD
ENDBRANCH  16  17
ENDBRANCH  14  16
ENDBRANCH  13  14
ENDBRANCH   9  12
BRANCH   1  19
HETATM   19  C2  UNL     1     -21.140  66.368  24.773  1.00  0.00     0.237 C 
HETATM   20  C1  UNL     1     -21.447  67.694  25.418  1.00  0.00     0.035 C 
ENDBRANCH   1  19
TORSDOF 6
ENDMDL
