MODEL 1
REMARK VINA RESULT: -8.383392933      0.000      0.000
REMARK  3 active torsions:
REMARK  status: ('A' for Active; 'I' for Inactive)
REMARK    1  A    between atoms: C2_2  and  N1_3 
REMARK    2  A    between atoms: C5_6  and  N2_7 
REMARK       I    between atoms: N2_7  and  C6_9 
REMARK       I    between atoms: C6_9  and  N3_11 
REMARK    3  A    between atoms: N3_11  and  C7_13 
ROOT
HETATM    1  N2  UNL     1      25.666  12.974  24.562  1.00  0.00    -0.332 N 
ATOM      2  H2  UNL     1      25.046  13.537  25.144  1.00  0.00     0.165 HD
HETATM    3  C6  UNL     1      26.837  13.589  24.068  1.00  0.00     0.317 C 
HETATM    4  O1  UNL     1      27.616  12.922  23.350  1.00  0.00    -0.247 OA
HETATM    5  N3  UNL     1      27.161  14.931  24.355  1.00  0.00    -0.338 N 
ATOM      6  H3  UNL     1      26.515  15.460  24.942  1.00  0.00     0.164 HD
ENDROOT
BRANCH   1   7
HETATM    7  C5  UNL     1      25.286  11.617  24.304  1.00  0.00     0.155 C 
HETATM    8  C4  UNL     1      23.856  11.467  23.810  1.00  0.00     0.053 C 
HETATM    9  C3  UNL     1      23.636   9.981  23.964  1.00  0.00     0.126 C 
HETATM   10  N1  UNL     1      24.464   9.630  25.105  1.00  0.00    -0.370 N 
HETATM   11  C17 UNL     1      25.297  10.724  25.454  1.00  0.00     0.096 C 
HETATM   12  N4  UNL     1      25.913  10.855  26.564  1.00  0.00    -0.387 N 
ATOM     13  H42 UNL     1      25.922  10.230  27.369  1.00  0.00     0.157 HD
ATOM     14  H41 UNL     1      26.513  11.641  26.815  1.00  0.00     0.157 HD
BRANCH  10  15
HETATM   15  C2  UNL     1      24.408   8.320  25.765  1.00  0.00     0.119 C 
HETATM   16  C1  UNL     1      23.726   7.328  24.882  1.00  0.00     0.026 C 
ENDBRANCH  10  15
ENDBRANCH   1   7
BRANCH   5  17
HETATM   17  C7  UNL     1      28.341  15.605  23.877  1.00  0.00     0.094 C 
HETATM   18  C8  UNL     1      28.377  15.812  22.400  1.00  0.00     0.011 C 
HETATM   19  C9  UNL     1      27.580  17.004  21.929  1.00  0.00     0.011 C 
HETATM   20  C16 UNL     1      29.843  16.129  22.058  1.00  0.00     0.032 C 
HETATM   21  C10 UNL     1      27.986  18.280  22.657  1.00  0.00    -0.012 C 
HETATM   22  C11 UNL     1      27.757  18.039  24.125  1.00  0.00     0.011 C 
HETATM   23  C15 UNL     1      29.412  18.560  22.307  1.00  0.00     0.030 C 
HETATM   24  C12 UNL     1      28.616  16.896  24.593  1.00  0.00     0.011 C 
HETATM   25  C13 UNL     1      30.064  17.275  24.277  1.00  0.00     0.032 C 
HETATM   26  C14 UNL     1      30.239  17.380  22.789  1.00  0.00     0.038 C 
HETATM   27 CL1  UNL     1      31.952  17.724  22.438  1.00  0.00    -0.119 Cl
ENDBRANCH   5  17
TORSDOF 3
ENDMDL
MODEL 2
REMARK VINA RESULT: -8.340820871      1.046      1.176
REMARK  3 active torsions:
REMARK  status: ('A' for Active; 'I' for Inactive)
REMARK    1  A    between atoms: C2_2  and  N1_3 
REMARK    2  A    between atoms: C5_6  and  N2_7 
REMARK       I    between atoms: N2_7  and  C6_9 
REMARK       I    between atoms: C6_9  and  N3_11 
REMARK    3  A    between atoms: N3_11  and  C7_13 
ROOT
HETATM    1  N2  UNL     1      24.944  12.913  24.167  1.00  0.00    -0.332 N 
ATOM      2  H2  UNL     1      24.177  13.527  24.437  1.00  0.00     0.165 HD
HETATM    3  C6  UNL     1      26.248  13.454  24.166  1.00  0.00     0.317 C 
HETATM    4  O1  UNL     1      27.209  12.722  23.838  1.00  0.00    -0.247 OA
HETATM    5  N3  UNL     1      26.506  14.794  24.524  1.00  0.00    -0.338 N 
ATOM      6  H3  UNL     1      25.712  15.376  24.789  1.00  0.00     0.164 HD
ENDROOT
BRANCH   1   7
HETATM    7  C5  UNL     1      24.621  11.562  23.815  1.00  0.00     0.155 C 
HETATM    8  C4  UNL     1      23.199  11.387  23.308  1.00  0.00     0.053 C 
HETATM    9  C3  UNL     1      23.042   9.886  23.358  1.00  0.00     0.126 C 
HETATM   10  N1  UNL     1      23.885   9.491  24.474  1.00  0.00    -0.370 N 
HETATM   11  C17 UNL     1      24.672  10.592  24.899  1.00  0.00     0.096 C 
HETATM   12  N4  UNL     1      25.283  10.672  26.017  1.00  0.00    -0.387 N 
ATOM     13  H42 UNL     1      25.318   9.993  26.777  1.00  0.00     0.157 HD
ATOM     14  H41 UNL     1      25.849  11.463  26.323  1.00  0.00     0.157 HD
BRANCH  10  15
HETATM   15  C2  UNL     1      23.885   8.138  25.040  1.00  0.00     0.119 C 
HETATM   16  C1  UNL     1      23.236   7.183  24.093  1.00  0.00     0.026 C 
ENDBRANCH  10  15
ENDBRANCH   1   7
BRANCH   5  17
HETATM   17  C7  UNL     1      27.816  15.396  24.540  1.00  0.00     0.094 C 
HETATM   18  C8  UNL     1      28.252  15.957  23.229  1.00  0.00     0.011 C 
HETATM   19  C9  UNL     1      27.694  17.328  22.934  1.00  0.00     0.011 C 
HETATM   20  C16 UNL     1      29.776  16.142  23.340  1.00  0.00     0.032 C 
HETATM   21  C10 UNL     1      27.985  18.312  24.060  1.00  0.00    -0.012 C 
HETATM   22  C11 UNL     1      27.363  17.747  25.309  1.00  0.00     0.011 C 
HETATM   23  C15 UNL     1      29.469  18.470  24.145  1.00  0.00     0.030 C 
HETATM   24  C12 UNL     1      27.985  16.415  25.629  1.00  0.00     0.011 C 
HETATM   25  C13 UNL     1      29.488  16.656  25.777  1.00  0.00     0.032 C 
HETATM   26  C14 UNL     1      30.054  17.104  24.461  1.00  0.00     0.038 C 
HETATM   27 CL1  UNL     1      31.819  17.283  24.628  1.00  0.00    -0.119 Cl
ENDBRANCH   5  17
TORSDOF 3
ENDMDL
MODEL 3
REMARK VINA RESULT: -8.125324386      3.828      8.695
REMARK  3 active torsions:
REMARK  status: ('A' for Active; 'I' for Inactive)
REMARK    1  A    between atoms: C2_2  and  N1_3 
REMARK    2  A    between atoms: C5_6  and  N2_7 
REMARK       I    between atoms: N2_7  and  C6_9 
REMARK       I    between atoms: C6_9  and  N3_11 
REMARK    3  A    between atoms: N3_11  and  C7_13 
ROOT
HETATM    1  N2  UNL     1      29.742  16.405  24.596  1.00  0.00    -0.332 N 
ATOM      2  H2  UNL     1      29.187  16.569  23.755  1.00  0.00     0.165 HD
HETATM    3  C6  UNL     1      29.393  15.302  25.404  1.00  0.00     0.317 C 
HETATM    4  O1  UNL     1      30.056  15.077  26.442  1.00  0.00    -0.247 OA
HETATM    5  N3  UNL     1      28.323  14.442  25.084  1.00  0.00    -0.338 N 
ATOM      6  H3  UNL     1      27.793  14.639  24.234  1.00  0.00     0.164 HD
ENDROOT
BRANCH   1   7
HETATM    7  C5  UNL     1      30.817  17.311  24.870  1.00  0.00     0.155 C 
HETATM    8  C4  UNL     1      30.541  18.738  24.424  1.00  0.00     0.053 C 
HETATM    9  C3  UNL     1      31.918  19.353  24.507  1.00  0.00     0.126 C 
HETATM   10  N1  UNL     1      32.806  18.243  24.208  1.00  0.00    -0.370 N 
HETATM   11  C17 UNL     1      32.076  17.027  24.196  1.00  0.00     0.096 C 
HETATM   12  N4  UNL     1      32.481  15.931  23.685  1.00  0.00    -0.387 N 
ATOM     13  H42 UNL     1      33.363  15.731  23.213  1.00  0.00     0.157 HD
ATOM     14  H41 UNL     1      31.956  15.056  23.676  1.00  0.00     0.157 HD
BRANCH  10  15
HETATM   15  C2  UNL     1      34.244  18.409  23.964  1.00  0.00     0.119 C 
HETATM   16  C1  UNL     1      34.783  19.523  24.800  1.00  0.00     0.026 C 
ENDBRANCH  10  15
ENDBRANCH   1   7
BRANCH   5  17
HETATM   17  C7  UNL     1      27.926  13.304  25.873  1.00  0.00     0.094 C 
HETATM   18  C8  UNL     1      26.532  13.373  26.398  1.00  0.00     0.011 C 
HETATM   19  C9  UNL     1      25.480  12.966  25.395  1.00  0.00     0.011 C 
HETATM   20  C16 UNL     1      26.457  12.331  27.527  1.00  0.00     0.032 C 
HETATM   21  C10 UNL     1      25.762  11.588  24.806  1.00  0.00    -0.012 C 
HETATM   22  C11 UNL     1      27.116  11.659  24.152  1.00  0.00     0.011 C 
HETATM   23  C15 UNL     1      25.684  10.599  25.925  1.00  0.00     0.030 C 
HETATM   24  C12 UNL     1      28.161  11.993  25.181  1.00  0.00     0.011 C 
HETATM   25  C13 UNL     1      28.083  10.907  26.256  1.00  0.00     0.032 C 
HETATM   26  C14 UNL     1      26.748  10.978  26.941  1.00  0.00     0.038 C 
HETATM   27 CL1  UNL     1      26.714   9.774  28.253  1.00  0.00    -0.119 Cl
ENDBRANCH   5  17
TORSDOF 3
ENDMDL
MODEL 4
REMARK VINA RESULT: -8.008910464      5.892      9.104
REMARK  3 active torsions:
REMARK  status: ('A' for Active; 'I' for Inactive)
REMARK    1  A    between atoms: C2_2  and  N1_3 
REMARK    2  A    between atoms: C5_6  and  N2_7 
REMARK       I    between atoms: N2_7  and  C6_9 
REMARK       I    between atoms: C6_9  and  N3_11 
REMARK    3  A    between atoms: N3_11  and  C7_13 
ROOT
HETATM    1  N2  UNL     1      30.528  15.773  26.358  1.00  0.00    -0.332 N 
ATOM      2  H2  UNL     1      31.506  15.690  26.635  1.00  0.00     0.165 HD
HETATM    3  C6  UNL     1      29.552  15.263  27.242  1.00  0.00     0.317 C 
HETATM    4  O1  UNL     1      28.343  15.352  26.928  1.00  0.00    -0.247 OA
HETATM    5  N3  UNL     1      29.891  14.657  28.469  1.00  0.00    -0.338 N 
ATOM      6  H3  UNL     1      30.881  14.594  28.710  1.00  0.00     0.164 HD
ENDROOT
BRANCH   1   7
HETATM    7  C5  UNL     1      30.243  16.399  25.101  1.00  0.00     0.155 C 
HETATM    8  C4  UNL     1      30.097  15.417  23.950  1.00  0.00     0.053 C 
HETATM    9  C3  UNL     1      30.160  16.339  22.756  1.00  0.00     0.126 C 
HETATM   10  N1  UNL     1      31.028  17.415  23.200  1.00  0.00    -0.370 N 
HETATM   11  C17 UNL     1      31.266  17.302  24.594  1.00  0.00     0.096 C 
HETATM   12  N4  UNL     1      32.201  17.892  25.231  1.00  0.00    -0.387 N 
ATOM     13  H42 UNL     1      32.918  18.524  24.876  1.00  0.00     0.157 HD
ATOM     14  H41 UNL     1      32.372  17.810  26.234  1.00  0.00     0.157 HD
BRANCH  10  15
HETATM   15  C2  UNL     1      31.555  18.447  22.298  1.00  0.00     0.119 C 
HETATM   16  C1  UNL     1      30.698  18.551  21.079  1.00  0.00     0.026 C 
ENDBRANCH  10  15
ENDBRANCH   1   7
BRANCH   5  17
HETATM   17  C7  UNL     1      28.936  14.122  29.406  1.00  0.00     0.094 C 
HETATM   18  C8  UNL     1      29.260  12.752  29.901  1.00  0.00     0.011 C 
HETATM   19  C9  UNL     1      30.276  12.728  31.017  1.00  0.00     0.011 C 
HETATM   20  C16 UNL     1      27.956  12.209  30.511  1.00  0.00     0.032 C 
HETATM   21  C10 UNL     1      29.866  13.632  32.174  1.00  0.00    -0.012 C 
HETATM   22  C11 UNL     1      29.726  15.023  31.617  1.00  0.00     0.011 C 
HETATM   23  C15 UNL     1      28.598  13.081  32.745  1.00  0.00     0.030 C 
HETATM   24  C12 UNL     1      28.657  15.042  30.558  1.00  0.00     0.011 C 
HETATM   25  C13 UNL     1      27.372  14.542  31.221  1.00  0.00     0.032 C 
HETATM   26  C14 UNL     1      27.552  13.112  31.643  1.00  0.00     0.038 C 
HETATM   27 CL1  UNL     1      26.016  12.518  32.320  1.00  0.00    -0.119 Cl
ENDBRANCH   5  17
TORSDOF 3
ENDMDL
MODEL 5
REMARK VINA RESULT: -7.963060542      2.062      2.918
REMARK  3 active torsions:
REMARK  status: ('A' for Active; 'I' for Inactive)
REMARK    1  A    between atoms: C2_2  and  N1_3 
REMARK    2  A    between atoms: C5_6  and  N2_7 
REMARK       I    between atoms: N2_7  and  C6_9 
REMARK       I    between atoms: C6_9  and  N3_11 
REMARK    3  A    between atoms: N3_11  and  C7_13 
ROOT
HETATM    1  N2  UNL     1      23.916  12.248  23.956  1.00  0.00    -0.332 N 
ATOM      2  H2  UNL     1      23.043  12.718  24.198  1.00  0.00     0.165 HD
HETATM    3  C6  UNL     1      25.114  12.980  24.099  1.00  0.00     0.317 C 
HETATM    4  O1  UNL     1      26.200  12.429  23.809  1.00  0.00    -0.247 OA
HETATM    5  N3  UNL     1      25.132  14.313  24.559  1.00  0.00    -0.338 N 
ATOM      6  H3  UNL     1      24.239  14.747  24.791  1.00  0.00     0.164 HD
ENDROOT
BRANCH   1   7
HETATM    7  C5  UNL     1      23.836  10.894  23.495  1.00  0.00     0.155 C 
HETATM    8  C4  UNL     1      22.434  10.470  23.088  1.00  0.00     0.053 C 
HETATM    9  C3  UNL     1      22.586   8.970  22.998  1.00  0.00     0.126 C 
HETATM   10  N1  UNL     1      23.597   8.668  23.996  1.00  0.00    -0.370 N 
HETATM   11  C17 UNL     1      24.186   9.869  24.468  1.00  0.00     0.096 C 
HETATM   12  N4  UNL     1      24.877   9.981  25.535  1.00  0.00    -0.387 N 
ATOM     13  H42 UNL     1      25.122   9.263  26.217  1.00  0.00     0.157 HD
ATOM     14  H41 UNL     1      25.301  10.845  25.874  1.00  0.00     0.157 HD
BRANCH  10  15
HETATM   15  C2  UNL     1      23.924   7.302  24.420  1.00  0.00     0.119 C 
HETATM   16  C1  UNL     1      22.766   6.393  24.167  1.00  0.00     0.026 C 
ENDBRANCH  10  15
ENDBRANCH   1   7
BRANCH   5  17
HETATM   17  C7  UNL     1      26.326  15.103  24.724  1.00  0.00     0.094 C 
HETATM   18  C8  UNL     1      26.098  16.577  24.690  1.00  0.00     0.011 C 
HETATM   19  C9  UNL     1      25.612  17.151  25.999  1.00  0.00     0.011 C 
HETATM   20  C16 UNL     1      27.480  17.208  24.446  1.00  0.00     0.032 C 
HETATM   21  C10 UNL     1      26.531  16.778  27.156  1.00  0.00    -0.012 C 
HETATM   22  C11 UNL     1      26.568  15.274  27.221  1.00  0.00     0.011 C 
HETATM   23  C15 UNL     1      27.863  17.402  26.890  1.00  0.00     0.030 C 
HETATM   24  C12 UNL     1      27.125  14.724  25.936  1.00  0.00     0.011 C 
HETATM   25  C13 UNL     1      28.514  15.340  25.759  1.00  0.00     0.032 C 
HETATM   26  C14 UNL     1      28.383  16.825  25.584  1.00  0.00     0.038 C 
HETATM   27 CL1  UNL     1      29.999  17.510  25.280  1.00  0.00    -0.119 Cl
ENDBRANCH   5  17
TORSDOF 3
ENDMDL
