MODEL 1
REMARK VINA RESULT: -7.538984681      0.000      0.000
REMARK  6 active torsions:
REMARK  status: ('A' for Active; 'I' for Inactive)
REMARK    1  A    between atoms: C2_2  and  N1_3 
REMARK       I    between atoms: N1_3  and  C3_5 
REMARK       I    between atoms: C3_5  and  N2_7 
REMARK    2  A    between atoms: N2_7  and  C4_9 
REMARK    3  A    between atoms: C4_9  and  C5_10 
REMARK    4  A    between atoms: C9_17  and  N4_18 
REMARK    5  A    between atoms: C10_20  and  O2_21 
REMARK    6  A    between atoms: C10_20  and  C11_23 
ROOT
HETATM    1  C5  UNL     1      26.045  14.108  24.781  1.00  0.00     0.025 A 
HETATM    2  C6  UNL     1      27.407  14.286  24.860  1.00  0.00     0.037 A 
HETATM    3  C7  UNL     1      28.237  13.253  24.552  1.00  0.00     0.027 A 
HETATM    4 BR1  UNL     1      30.165  13.543  24.634  1.00  0.00    -0.050 Br
HETATM    5  C8  UNL     1      27.823  11.980  24.126  1.00  0.00     0.108 A 
HETATM    6  N3  UNL     1      26.454  11.834  24.043  1.00  0.00    -0.350 N 
ATOM      7  H3  UNL     1      26.055  10.947  23.738  1.00  0.00     0.166 HD
HETATM    8  C9  UNL     1      25.646  12.858  24.364  1.00  0.00     0.118 A 
ENDROOT
BRANCH   1   9
HETATM    9  C4  UNL     1      24.907  15.011  25.187  1.00  0.00     0.108 C 
BRANCH   9  10
HETATM   10  N2  UNL     1      25.332  16.042  26.032  1.00  0.00    -0.318 N 
HETATM   11  C3  UNL     1      25.213  17.333  26.306  1.00  0.00     0.323 C 
HETATM   12  N1  UNL     1      25.994  17.987  27.324  1.00  0.00    -0.323 N 
HETATM   13  O1  UNL     1      24.411  18.164  25.737  1.00  0.00    -0.247 OA
ATOM     14  H1  UNL     1      26.653  17.416  27.851  1.00  0.00     0.169 HD
ATOM     15  H2  UNL     1      25.994  15.644  26.697  1.00  0.00     0.170 HD
BRANCH  12  16
HETATM   16  C2  UNL     1      25.917  19.355  27.645  1.00  0.00     0.061 C 
HETATM   17  C1  UNL     1      25.265  19.601  29.003  1.00  0.00     0.055 C 
ENDBRANCH  12  16
ENDBRANCH   9  10
ENDBRANCH   1   9
BRANCH   8  18
HETATM   18  N4  UNL     1      24.357  12.716  24.133  1.00  0.00    -0.326 N 
HETATM   19  C10 UNL     1      23.785  11.510  23.920  1.00  0.00     0.120 C 
ATOM     20  H4  UNL     1      23.768  13.548  24.115  1.00  0.00     0.169 HD
BRANCH  19  21
HETATM   21  O2  UNL     1      23.199  12.123  22.533  1.00  0.00    -0.349 OA
ATOM     22  H2  UNL     1      22.334  12.038  22.916  1.00  0.00     0.219 HD
ENDBRANCH  19  21
BRANCH  19  23
HETATM   23  C11 UNL     1      23.190  10.286  23.683  1.00  0.00     0.052 C 
HETATM   24  C12 UNL     1      22.957  10.064  22.142  1.00  0.00     0.018 C 
HETATM   25  C13 UNL     1      23.814   9.018  24.207  1.00  0.00     0.018 C 
ENDBRANCH  19  23
ENDBRANCH   8  18
TORSDOF 6
ENDMDL
MODEL 2
REMARK VINA RESULT: -7.389143731      0.640      1.026
REMARK  6 active torsions:
REMARK  status: ('A' for Active; 'I' for Inactive)
REMARK    1  A    between atoms: C2_2  and  N1_3 
REMARK       I    between atoms: N1_3  and  C3_5 
REMARK       I    between atoms: C3_5  and  N2_7 
REMARK    2  A    between atoms: N2_7  and  C4_9 
REMARK    3  A    between atoms: C4_9  and  C5_10 
REMARK    4  A    between atoms: C9_17  and  N4_18 
REMARK    5  A    between atoms: C10_20  and  O2_21 
REMARK    6  A    between atoms: C10_20  and  C11_23 
ROOT
HETATM    1  C5  UNL     1      25.858  14.154  24.524  1.00  0.00     0.025 A 
HETATM    2  C6  UNL     1      27.180  14.528  24.453  1.00  0.00     0.037 A 
HETATM    3  C7  UNL     1      28.132  13.585  24.220  1.00  0.00     0.027 A 
HETATM    4 BR1  UNL     1      29.996  14.148  24.084  1.00  0.00    -0.050 Br
HETATM    5  C8  UNL     1      27.886  12.216  24.019  1.00  0.00     0.108 A 
HETATM    6  N3  UNL     1      26.552  11.872  24.083  1.00  0.00    -0.350 N 
ATOM      7  H3  UNL     1      26.271  10.902  23.945  1.00  0.00     0.166 HD
HETATM    8  C9  UNL     1      25.623  12.811  24.327  1.00  0.00     0.118 A 
ENDROOT
BRANCH   1   9
HETATM    9  C4  UNL     1      24.628  14.942  24.900  1.00  0.00     0.108 C 
BRANCH   9  10
HETATM   10  N2  UNL     1      24.871  15.815  25.966  1.00  0.00    -0.318 N 
HETATM   11  C3  UNL     1      24.782  17.072  26.377  1.00  0.00     0.323 C 
HETATM   12  N1  UNL     1      25.283  17.511  27.652  1.00  0.00    -0.323 N 
HETATM   13  O1  UNL     1      24.250  18.050  25.730  1.00  0.00    -0.247 OA
ATOM     14  H1  UNL     1      25.712  16.810  28.256  1.00  0.00     0.169 HD
ATOM     15  H2  UNL     1      25.277  15.270  26.727  1.00  0.00     0.170 HD
BRANCH  12  16
HETATM   16  C2  UNL     1      25.227  18.833  28.129  1.00  0.00     0.061 C 
HETATM   17  C1  UNL     1      26.520  19.604  27.874  1.00  0.00     0.055 C 
ENDBRANCH  12  16
ENDBRANCH   9  10
ENDBRANCH   1   9
BRANCH   8  18
HETATM   18  N4  UNL     1      24.358  12.458  24.238  1.00  0.00    -0.326 N 
HETATM   19  C10 UNL     1      23.973  11.190  23.972  1.00  0.00     0.120 C 
ATOM     20  H4  UNL     1      23.640  13.169  24.374  1.00  0.00     0.169 HD
BRANCH  19  21
HETATM   21  O2  UNL     1      23.112  11.797  22.734  1.00  0.00    -0.349 OA
ATOM     22  H2  UNL     1      22.357  11.356  23.106  1.00  0.00     0.219 HD
ENDBRANCH  19  21
BRANCH  19  23
HETATM   23  C11 UNL     1      23.566   9.901  23.683  1.00  0.00     0.052 C 
HETATM   24  C12 UNL     1      23.944   8.917  24.852  1.00  0.00     0.018 C 
HETATM   25  C13 UNL     1      22.130   9.614  23.330  1.00  0.00     0.018 C 
ENDBRANCH  19  23
ENDBRANCH   8  18
TORSDOF 6
ENDMDL
MODEL 3
REMARK VINA RESULT: -7.249238444      5.400      7.155
REMARK  6 active torsions:
REMARK  status: ('A' for Active; 'I' for Inactive)
REMARK    1  A    between atoms: C2_2  and  N1_3 
REMARK       I    between atoms: N1_3  and  C3_5 
REMARK       I    between atoms: C3_5  and  N2_7 
REMARK    2  A    between atoms: N2_7  and  C4_9 
REMARK    3  A    between atoms: C4_9  and  C5_10 
REMARK    4  A    between atoms: C9_17  and  N4_18 
REMARK    5  A    between atoms: C10_20  and  O2_21 
REMARK    6  A    between atoms: C10_20  and  C11_23 
ROOT
HETATM    1  C5  UNL     1      30.016  14.005  24.553  1.00  0.00     0.025 A 
HETATM    2  C6  UNL     1      29.170  13.461  25.491  1.00  0.00     0.037 A 
HETATM    3  C7  UNL     1      27.831  13.681  25.394  1.00  0.00     0.027 A 
HETATM    4 BR1  UNL     1      26.649  12.864  26.716  1.00  0.00    -0.050 Br
HETATM    5  C8  UNL     1      27.202  14.423  24.380  1.00  0.00     0.108 A 
HETATM    6  N3  UNL     1      28.072  14.945  23.447  1.00  0.00    -0.350 N 
ATOM      7  H3  UNL     1      27.711  15.495  22.668  1.00  0.00     0.166 HD
HETATM    8  C9  UNL     1      29.393  14.732  23.561  1.00  0.00     0.118 A 
ENDROOT
BRANCH   1   9
HETATM    9  C4  UNL     1      31.522  14.044  24.486  1.00  0.00     0.108 C 
BRANCH   9  10
HETATM   10  N2  UNL     1      32.035  15.261  24.949  1.00  0.00    -0.318 N 
HETATM   11  C3  UNL     1      32.718  16.345  24.611  1.00  0.00     0.323 C 
HETATM   12  N1  UNL     1      33.076  17.366  25.561  1.00  0.00    -0.323 N 
HETATM   13  O1  UNL     1      33.141  16.644  23.433  1.00  0.00    -0.247 OA
ATOM     14  H1  UNL     1      32.775  17.238  26.526  1.00  0.00     0.169 HD
ATOM     15  H2  UNL     1      31.786  15.347  25.934  1.00  0.00     0.170 HD
BRANCH  12  16
HETATM   16  C2  UNL     1      33.811  18.527  25.257  1.00  0.00     0.061 C 
HETATM   17  C1  UNL     1      32.925  19.764  25.133  1.00  0.00     0.055 C 
ENDBRANCH  12  16
ENDBRANCH   9  10
ENDBRANCH   1   9
BRANCH   8  18
HETATM   18  N4  UNL     1      30.166  15.130  22.572  1.00  0.00    -0.326 N 
HETATM   19  C10 UNL     1      29.976  16.302  21.927  1.00  0.00     0.120 C 
ATOM     20  H4  UNL     1      30.938  14.530  22.282  1.00  0.00     0.169 HD
BRANCH  19  21
HETATM   21  O2  UNL     1      29.930  15.442  20.548  1.00  0.00    -0.349 OA
ATOM     22  H2  UNL     1      29.694  16.250  20.108  1.00  0.00     0.219 HD
ENDBRANCH  19  21
BRANCH  19  23
HETATM   23  C11 UNL     1      29.782  17.489  21.247  1.00  0.00     0.052 C 
HETATM   24  C12 UNL     1      28.525  18.256  21.803  1.00  0.00     0.018 C 
HETATM   25  C13 UNL     1      30.892  18.504  21.146  1.00  0.00     0.018 C 
ENDBRANCH  19  23
ENDBRANCH   8  18
TORSDOF 6
ENDMDL
MODEL 4
REMARK VINA RESULT: -7.106604411      3.225      7.318
REMARK  6 active torsions:
REMARK  status: ('A' for Active; 'I' for Inactive)
REMARK    1  A    between atoms: C2_2  and  N1_3 
REMARK       I    between atoms: N1_3  and  C3_5 
REMARK       I    between atoms: C3_5  and  N2_7 
REMARK    2  A    between atoms: N2_7  and  C4_9 
REMARK    3  A    between atoms: C4_9  and  C5_10 
REMARK    4  A    between atoms: C9_17  and  N4_18 
REMARK    5  A    between atoms: C10_20  and  O2_21 
REMARK    6  A    between atoms: C10_20  and  C11_23 
ROOT
HETATM    1  C5  UNL     1      25.449  15.207  25.373  1.00  0.00     0.025 A 
HETATM    2  C6  UNL     1      24.590  15.352  26.439  1.00  0.00     0.037 A 
HETATM    3  C7  UNL     1      24.424  16.578  27.004  1.00  0.00     0.027 A 
HETATM    4 BR1  UNL     1      23.171  16.763  28.489  1.00  0.00    -0.050 Br
HETATM    5  C8  UNL     1      25.054  17.759  26.578  1.00  0.00     0.108 A 
HETATM    6  N3  UNL     1      25.898  17.587  25.502  1.00  0.00    -0.350 N 
ATOM      7  H3  UNL     1      26.398  18.387  25.115  1.00  0.00     0.166 HD
HETATM    8  C9  UNL     1      26.064  16.369  24.961  1.00  0.00     0.118 A 
ENDROOT
BRANCH   1   9
HETATM    9  C4  UNL     1      25.927  13.972  24.651  1.00  0.00     0.108 C 
BRANCH   9  10
HETATM   10  N2  UNL     1      24.868  13.255  24.083  1.00  0.00    -0.318 N 
HETATM   11  C3  UNL     1      24.189  12.117  24.120  1.00  0.00     0.323 C 
HETATM   12  N1  UNL     1      23.134  11.810  23.190  1.00  0.00    -0.323 N 
HETATM   13  O1  UNL     1      24.355  11.156  24.961  1.00  0.00    -0.247 OA
ATOM     14  H1  UNL     1      22.907  12.513  22.488  1.00  0.00     0.169 HD
ATOM     15  H2  UNL     1      24.457  13.836  23.353  1.00  0.00     0.170 HD
BRANCH  12  16
HETATM   16  C2  UNL     1      22.394  10.614  23.177  1.00  0.00     0.061 C 
HETATM   17  C1  UNL     1      22.837   9.663  22.069  1.00  0.00     0.055 C 
ENDBRANCH  12  16
ENDBRANCH   9  10
ENDBRANCH   1   9
BRANCH   8  18
HETATM   18  N4  UNL     1      26.767  16.281  23.851  1.00  0.00    -0.326 N 
HETATM   19  C10 UNL     1      27.613  17.255  23.447  1.00  0.00     0.120 C 
ATOM     20  H4  UNL     1      26.669  15.447  23.273  1.00  0.00     0.169 HD
BRANCH  19  21
HETATM   21  O2  UNL     1      26.798  17.268  22.041  1.00  0.00    -0.349 OA
ATOM     22  H2  UNL     1      27.629  17.444  21.616  1.00  0.00     0.219 HD
ENDBRANCH  19  21
BRANCH  19  23
HETATM   23  C11 UNL     1      28.467  18.251  23.014  1.00  0.00     0.052 C 
HETATM   24  C12 UNL     1      29.728  18.357  23.951  1.00  0.00     0.018 C 
HETATM   25  C13 UNL     1      28.986  18.251  21.599  1.00  0.00     0.018 C 
ENDBRANCH  19  23
ENDBRANCH   8  18
TORSDOF 6
ENDMDL
MODEL 5
REMARK VINA RESULT: -7.089045829      3.230      6.361
REMARK  6 active torsions:
REMARK  status: ('A' for Active; 'I' for Inactive)
REMARK    1  A    between atoms: C2_2  and  N1_3 
REMARK       I    between atoms: N1_3  and  C3_5 
REMARK       I    between atoms: C3_5  and  N2_7 
REMARK    2  A    between atoms: N2_7  and  C4_9 
REMARK    3  A    between atoms: C4_9  and  C5_10 
REMARK    4  A    between atoms: C9_17  and  N4_18 
REMARK    5  A    between atoms: C10_20  and  O2_21 
REMARK    6  A    between atoms: C10_20  and  C11_23 
ROOT
HETATM    1  C5  UNL     1      26.630  13.214  25.350  1.00  0.00     0.025 A 
HETATM    2  C6  UNL     1      26.851  12.194  26.247  1.00  0.00     0.037 A 
HETATM    3  C7  UNL     1      28.061  11.574  26.272  1.00  0.00     0.027 A 
HETATM    4 BR1  UNL     1      28.361  10.157  27.581  1.00  0.00    -0.050 Br
HETATM    5  C8  UNL     1      29.156  11.897  25.452  1.00  0.00     0.108 A 
HETATM    6  N3  UNL     1      28.910  12.930  24.572  1.00  0.00    -0.350 N 
ATOM      7  H3  UNL     1      29.645  13.242  23.938  1.00  0.00     0.166 HD
HETATM    8  C9  UNL     1      27.706  13.526  24.548  1.00  0.00     0.118 A 
ENDROOT
BRANCH   1   9
HETATM    9  C4  UNL     1      25.372  13.973  25.009  1.00  0.00     0.108 C 
BRANCH   9  10
HETATM   10  N2  UNL     1      24.410  13.151  24.412  1.00  0.00    -0.318 N 
HETATM   11  C3  UNL     1      24.221  12.044  23.707  1.00  0.00     0.323 C 
HETATM   12  N1  UNL     1      22.923  11.634  23.239  1.00  0.00    -0.323 N 
HETATM   13  O1  UNL     1      25.126  11.199  23.354  1.00  0.00    -0.247 OA
ATOM     14  H1  UNL     1      22.128  12.225  23.477  1.00  0.00     0.169 HD
ATOM     15  H2  UNL     1      23.496  13.566  24.588  1.00  0.00     0.170 HD
BRANCH  12  16
HETATM   16  C2  UNL     1      22.670  10.478  22.477  1.00  0.00     0.061 C 
HETATM   17  C1  UNL     1      22.197   9.305  23.333  1.00  0.00     0.055 C 
ENDBRANCH  12  16
ENDBRANCH   9  10
ENDBRANCH   1   9
BRANCH   8  18
HETATM   18  N4  UNL     1      27.567  14.596  23.794  1.00  0.00    -0.326 N 
HETATM   19  C10 UNL     1      28.464  14.936  22.841  1.00  0.00     0.120 C 
ATOM     20  H4  UNL     1      26.751  15.191  23.933  1.00  0.00     0.169 HD
BRANCH  19  21
HETATM   21  O2  UNL     1      28.566  16.385  23.570  1.00  0.00    -0.349 OA
ATOM     22  H2  UNL     1      27.622  16.440  23.488  1.00  0.00     0.219 HD
ENDBRANCH  19  21
BRANCH  19  23
HETATM   23  C11 UNL     1      29.382  15.305  21.877  1.00  0.00     0.052 C 
HETATM   24  C12 UNL     1      29.423  14.252  20.708  1.00  0.00     0.018 C 
HETATM   25  C13 UNL     1      29.304  16.662  21.227  1.00  0.00     0.018 C 
ENDBRANCH  19  23
ENDBRANCH   8  18
TORSDOF 6
ENDMDL
