MODEL 1
REMARK VINA RESULT: -7.599161074      0.000      0.000
REMARK  7 active torsions:
REMARK  status: ('A' for Active; 'I' for Inactive)
REMARK    1  A    between atoms: C3_3  and  C4_4 
REMARK    2  A    between atoms: C4_4  and  C5_5 
REMARK       I    between atoms: C5_5  and  N1_7 
REMARK    3  A    between atoms: N1_7  and  N2_9 
REMARK    4  A    between atoms: N2_9  and  C6_11 
REMARK    5  A    between atoms: C6_11  and  N3_13 
REMARK    6  A    between atoms: N3_13  and  C7_15 
REMARK    7  A    between atoms: C7_15  and  C8_16 
ROOT
HETATM    1  C1  UNL     1      22.824  11.129  22.563  1.00  0.00     0.112 C 
HETATM    2  C2  UNL     1      23.221   9.816  23.074  1.00  0.00    -0.111 C 
HETATM    3  C3  UNL     1      23.555   8.738  23.517  1.00  0.00    -0.098 C 
ENDROOT
BRANCH   3   4
HETATM    4  C4  UNL     1      23.980   7.448  24.058  1.00  0.00     0.198 C 
BRANCH   4   5
HETATM    5  C5  UNL     1      23.849   7.487  25.523  1.00  0.00     0.247 C 
HETATM    6  O1  UNL     1      22.797   7.887  26.059  1.00  0.00    -0.271 OA
HETATM    7  N1  UNL     1      24.924   7.069  26.336  1.00  0.00    -0.267 N 
ATOM      8  H1  UNL     1      25.777   6.746  25.880  1.00  0.00     0.190 HD
BRANCH   7   9
HETATM    9  N2  UNL     1      24.879   7.074  27.751  1.00  0.00    -0.274 N 
ATOM     10  H2  UNL     1      24.154   6.550  28.241  1.00  0.00     0.189 HD
BRANCH   9  11
HETATM   11  C6  UNL     1      25.829   7.800  28.477  1.00  0.00     0.186 C 
HETATM   12  S1  UNL     1      26.893   7.029  29.423  1.00  0.00    -0.040 SA
BRANCH  11  13
HETATM   13  N3  UNL     1      25.869   9.218  28.392  1.00  0.00    -0.365 N 
ATOM     14  H3  UNL     1      24.993   9.738  28.444  1.00  0.00     0.161 HD
BRANCH  13  15
HETATM   15  C7  UNL     1      27.099   9.944  28.236  1.00  0.00     0.131 C 
BRANCH  15  16
HETATM   16  C8  UNL     1      26.980  10.941  27.115  1.00  0.00    -0.023 C 
HETATM   17  C9  UNL     1      25.889  10.591  26.157  1.00  0.00     0.015 C 
HETATM   18  C10 UNL     1      25.771  11.635  25.066  1.00  0.00    -0.013 C 
HETATM   19  C11 UNL     1      25.530  12.992  25.689  1.00  0.00     0.009 C 
HETATM   20  C15 UNL     1      27.085  11.685  24.306  1.00  0.00     0.009 C 
HETATM   21  C12 UNL     1      26.651  13.351  26.620  1.00  0.00    -0.013 C 
HETATM   22  C13 UNL     1      27.947  13.369  25.859  1.00  0.00     0.009 C 
HETATM   23  C17 UNL     1      26.712  12.300  27.716  1.00  0.00     0.015 C 
HETATM   24  C14 UNL     1      28.187  12.008  25.273  1.00  0.00    -0.013 C 
HETATM   25  C16 UNL     1      28.316  10.998  26.359  1.00  0.00     0.015 C 
ENDBRANCH  15  16
ENDBRANCH  13  15
ENDBRANCH  11  13
ENDBRANCH   9  11
ENDBRANCH   7   9
ENDBRANCH   4   5
ENDBRANCH   3   4
TORSDOF 7
ENDMDL
MODEL 2
REMARK VINA RESULT: -7.557457433      3.086      4.424
REMARK  7 active torsions:
REMARK  status: ('A' for Active; 'I' for Inactive)
REMARK    1  A    between atoms: C3_3  and  C4_4 
REMARK    2  A    between atoms: C4_4  and  C5_5 
REMARK       I    between atoms: C5_5  and  N1_7 
REMARK    3  A    between atoms: N1_7  and  N2_9 
REMARK    4  A    between atoms: N2_9  and  C6_11 
REMARK    5  A    between atoms: C6_11  and  N3_13 
REMARK    6  A    between atoms: N3_13  and  C7_15 
REMARK    7  A    between atoms: C7_15  and  C8_16 
ROOT
HETATM    1  C1  UNL     1      24.624   7.470  26.472  1.00  0.00     0.112 C 
HETATM    2  C2  UNL     1      23.797   7.920  25.352  1.00  0.00    -0.111 C 
HETATM    3  C3  UNL     1      23.107   8.312  24.434  1.00  0.00    -0.098 C 
ENDROOT
BRANCH   3   4
HETATM    4  C4  UNL     1      22.258   8.790  23.344  1.00  0.00     0.198 C 
BRANCH   4   5
HETATM    5  C5  UNL     1      22.649  10.170  23.016  1.00  0.00     0.247 C 
HETATM    6  O1  UNL     1      22.348  10.673  21.916  1.00  0.00    -0.271 OA
HETATM    7  N1  UNL     1      23.373  10.936  23.953  1.00  0.00    -0.267 N 
ATOM      8  H1  UNL     1      23.611  10.507  24.848  1.00  0.00     0.190 HD
BRANCH   7   9
HETATM    9  N2  UNL     1      23.786  12.270  23.716  1.00  0.00    -0.274 N 
ATOM     10  H2  UNL     1      23.185  12.905  23.192  1.00  0.00     0.189 HD
BRANCH   9  11
HETATM   11  C6  UNL     1      25.021  12.715  24.203  1.00  0.00     0.186 C 
HETATM   12  S1  UNL     1      25.226  14.271  24.598  1.00  0.00    -0.040 SA
BRANCH  11  13
HETATM   13  N3  UNL     1      26.103  11.808  24.352  1.00  0.00    -0.365 N 
ATOM     14  H3  UNL     1      26.013  10.867  23.967  1.00  0.00     0.161 HD
BRANCH  13  15
HETATM   15  C7  UNL     1      27.320  12.168  25.026  1.00  0.00     0.131 C 
BRANCH  15  16
HETATM   16  C8  UNL     1      27.336  11.597  26.419  1.00  0.00    -0.023 C 
HETATM   17  C9  UNL     1      26.111  10.797  26.719  1.00  0.00     0.015 C 
HETATM   18  C10 UNL     1      26.179  10.206  28.112  1.00  0.00    -0.013 C 
HETATM   19  C11 UNL     1      27.424   9.356  28.239  1.00  0.00     0.009 C 
HETATM   20  C15 UNL     1      26.272  11.343  29.113  1.00  0.00     0.009 C 
HETATM   21  C12 UNL     1      28.652  10.177  27.974  1.00  0.00    -0.013 C 
HETATM   22  C13 UNL     1      28.714  11.315  28.954  1.00  0.00     0.009 C 
HETATM   23  C17 UNL     1      28.560  10.723  26.558  1.00  0.00     0.015 C 
HETATM   24  C14 UNL     1      27.488  12.165  28.794  1.00  0.00    -0.013 C 
HETATM   25  C16 UNL     1      27.445  12.751  27.426  1.00  0.00     0.015 C 
ENDBRANCH  15  16
ENDBRANCH  13  15
ENDBRANCH  11  13
ENDBRANCH   9  11
ENDBRANCH   7   9
ENDBRANCH   4   5
ENDBRANCH   3   4
TORSDOF 7
ENDMDL
MODEL 3
REMARK VINA RESULT: -7.548703486      0.057      1.579
REMARK  7 active torsions:
REMARK  status: ('A' for Active; 'I' for Inactive)
REMARK    1  A    between atoms: C3_3  and  C4_4 
REMARK    2  A    between atoms: C4_4  and  C5_5 
REMARK       I    between atoms: C5_5  and  N1_7 
REMARK    3  A    between atoms: N1_7  and  N2_9 
REMARK    4  A    between atoms: N2_9  and  C6_11 
REMARK    5  A    between atoms: C6_11  and  N3_13 
REMARK    6  A    between atoms: N3_13  and  C7_15 
REMARK    7  A    between atoms: C7_15  and  C8_16 
ROOT
HETATM    1  C1  UNL     1      22.851  11.172  22.552  1.00  0.00     0.112 C 
HETATM    2  C2  UNL     1      23.228   9.865  23.092  1.00  0.00    -0.111 C 
HETATM    3  C3  UNL     1      23.561   8.787  23.534  1.00  0.00    -0.098 C 
ENDROOT
BRANCH   3   4
HETATM    4  C4  UNL     1      23.977   7.482  24.048  1.00  0.00     0.198 C 
BRANCH   4   5
HETATM    5  C5  UNL     1      23.851   7.492  25.513  1.00  0.00     0.247 C 
HETATM    6  O1  UNL     1      22.795   7.866  26.060  1.00  0.00    -0.271 OA
HETATM    7  N1  UNL     1      24.935   7.075  26.314  1.00  0.00    -0.267 N 
ATOM      8  H1  UNL     1      25.792   6.773  25.849  1.00  0.00     0.190 HD
BRANCH   7   9
HETATM    9  N2  UNL     1      24.896   7.053  27.729  1.00  0.00    -0.274 N 
ATOM     10  H2  UNL     1      24.188   6.499  28.212  1.00  0.00     0.189 HD
BRANCH   9  11
HETATM   11  C6  UNL     1      25.828   7.793  28.465  1.00  0.00     0.186 C 
HETATM   12  S1  UNL     1      26.843   7.044  29.479  1.00  0.00    -0.040 SA
BRANCH  11  13
HETATM   13  N3  UNL     1      25.891   9.206  28.331  1.00  0.00    -0.365 N 
ATOM     14  H3  UNL     1      25.023   9.742  28.358  1.00  0.00     0.161 HD
BRANCH  13  15
HETATM   15  C7  UNL     1      27.133   9.907  28.158  1.00  0.00     0.131 C 
BRANCH  15  16
HETATM   16  C8  UNL     1      26.992  10.971  27.103  1.00  0.00    -0.023 C 
HETATM   17  C9  UNL     1      26.712  12.316  27.688  1.00  0.00     0.015 C 
HETATM   18  C10 UNL     1      26.616  13.369  26.604  1.00  0.00    -0.013 C 
HETATM   19  C11 UNL     1      27.899  13.385  25.801  1.00  0.00     0.009 C 
HETATM   20  C15 UNL     1      25.475  12.999  25.673  1.00  0.00     0.009 C 
HETATM   21  C12 UNL     1      28.152  12.040  25.185  1.00  0.00    -0.013 C 
HETATM   22  C13 UNL     1      27.000  11.675  24.291  1.00  0.00     0.009 C 
HETATM   23  C17 UNL     1      28.274  11.021  26.307  1.00  0.00     0.015 C 
HETATM   24  C14 UNL     1      25.741  11.633  25.107  1.00  0.00    -0.013 C 
HETATM   25  C16 UNL     1      25.846  10.583  26.157  1.00  0.00     0.015 C 
ENDBRANCH  15  16
ENDBRANCH  13  15
ENDBRANCH  11  13
ENDBRANCH   9  11
ENDBRANCH   7   9
ENDBRANCH   4   5
ENDBRANCH   3   4
TORSDOF 7
ENDMDL
MODEL 4
REMARK VINA RESULT: -7.438020207      3.928      5.361
REMARK  7 active torsions:
REMARK  status: ('A' for Active; 'I' for Inactive)
REMARK    1  A    between atoms: C3_3  and  C4_4 
REMARK    2  A    between atoms: C4_4  and  C5_5 
REMARK       I    between atoms: C5_5  and  N1_7 
REMARK    3  A    between atoms: N1_7  and  N2_9 
REMARK    4  A    between atoms: N2_9  and  C6_11 
REMARK    5  A    between atoms: C6_11  and  N3_13 
REMARK    6  A    between atoms: N3_13  and  C7_15 
REMARK    7  A    between atoms: C7_15  and  C8_16 
ROOT
HETATM    1  C1  UNL     1      24.721   7.534  26.671  1.00  0.00     0.112 C 
HETATM    2  C2  UNL     1      23.972   7.938  25.480  1.00  0.00    -0.111 C 
HETATM    3  C3  UNL     1      23.343   8.253  24.493  1.00  0.00    -0.098 C 
ENDROOT
BRANCH   3   4
HETATM    4  C4  UNL     1      22.593   8.612  23.290  1.00  0.00     0.198 C 
BRANCH   4   5
HETATM    5  C5  UNL     1      22.736  10.058  23.061  1.00  0.00     0.247 C 
HETATM    6  O1  UNL     1      22.095  10.628  22.157  1.00  0.00    -0.271 OA
HETATM    7  N1  UNL     1      23.609  10.814  23.872  1.00  0.00    -0.267 N 
ATOM      8  H1  UNL     1      24.126  10.331  24.607  1.00  0.00     0.190 HD
BRANCH   7   9
HETATM    9  N2  UNL     1      23.803  12.208  23.719  1.00  0.00    -0.274 N 
ATOM     10  H2  UNL     1      23.240  12.732  23.050  1.00  0.00     0.189 HD
BRANCH   9  11
HETATM   11  C6  UNL     1      24.770  12.866  24.487  1.00  0.00     0.186 C 
HETATM   12  S1  UNL     1      26.058  12.057  25.042  1.00  0.00    -0.040 SA
BRANCH  11  13
HETATM   13  N3  UNL     1      24.631  14.247  24.788  1.00  0.00    -0.365 N 
ATOM     14  H3  UNL     1      23.704  14.670  24.744  1.00  0.00     0.161 HD
BRANCH  13  15
HETATM   15  C7  UNL     1      25.751  15.071  25.153  1.00  0.00     0.131 C 
BRANCH  15  16
HETATM   16  C8  UNL     1      25.448  15.840  26.411  1.00  0.00    -0.023 C 
HETATM   17  C9  UNL     1      24.100  16.482  26.373  1.00  0.00     0.015 C 
HETATM   18  C10 UNL     1      23.813  17.213  27.668  1.00  0.00    -0.013 C 
HETATM   19  C11 UNL     1      23.919  16.246  28.828  1.00  0.00     0.009 C 
HETATM   20  C15 UNL     1      24.860  18.296  27.852  1.00  0.00     0.009 C 
HETATM   21  C12 UNL     1      25.289  15.635  28.880  1.00  0.00    -0.013 C 
HETATM   22  C13 UNL     1      26.316  16.723  29.032  1.00  0.00     0.009 C 
HETATM   23  C17 UNL     1      25.524  14.886  27.579  1.00  0.00     0.015 C 
HETATM   24  C14 UNL     1      26.218  17.655  27.860  1.00  0.00    -0.013 C 
HETATM   25  C16 UNL     1      26.519  16.925  26.598  1.00  0.00     0.015 C 
ENDBRANCH  15  16
ENDBRANCH  13  15
ENDBRANCH  11  13
ENDBRANCH   9  11
ENDBRANCH   7   9
ENDBRANCH   4   5
ENDBRANCH   3   4
TORSDOF 7
ENDMDL
MODEL 5
REMARK VINA RESULT: -7.432202672      3.909      5.421
REMARK  7 active torsions:
REMARK  status: ('A' for Active; 'I' for Inactive)
REMARK    1  A    between atoms: C3_3  and  C4_4 
REMARK    2  A    between atoms: C4_4  and  C5_5 
REMARK       I    between atoms: C5_5  and  N1_7 
REMARK    3  A    between atoms: N1_7  and  N2_9 
REMARK    4  A    between atoms: N2_9  and  C6_11 
REMARK    5  A    between atoms: C6_11  and  N3_13 
REMARK    6  A    between atoms: N3_13  and  C7_15 
REMARK    7  A    between atoms: C7_15  and  C8_16 
ROOT
HETATM    1  C1  UNL     1      24.708   7.547  26.650  1.00  0.00     0.112 C 
HETATM    2  C2  UNL     1      23.963   7.944  25.454  1.00  0.00    -0.111 C 
HETATM    3  C3  UNL     1      23.347   8.252  24.457  1.00  0.00    -0.098 C 
ENDROOT
BRANCH   3   4
HETATM    4  C4  UNL     1      22.620   8.612  23.240  1.00  0.00     0.198 C 
BRANCH   4   5
HETATM    5  C5  UNL     1      22.757  10.060  23.021  1.00  0.00     0.247 C 
HETATM    6  O1  UNL     1      22.136  10.628  22.102  1.00  0.00    -0.271 OA
HETATM    7  N1  UNL     1      23.602  10.819  23.859  1.00  0.00    -0.267 N 
ATOM      8  H1  UNL     1      24.104  10.336  24.605  1.00  0.00     0.190 HD
BRANCH   7   9
HETATM    9  N2  UNL     1      23.789  12.215  23.717  1.00  0.00    -0.274 N 
ATOM     10  H2  UNL     1      23.224  12.741  23.050  1.00  0.00     0.189 HD
BRANCH   9  11
HETATM   11  C6  UNL     1      24.751  12.873  24.492  1.00  0.00     0.186 C 
HETATM   12  S1  UNL     1      26.017  12.055  25.082  1.00  0.00    -0.040 SA
BRANCH  11  13
HETATM   13  N3  UNL     1      24.625  14.260  24.770  1.00  0.00    -0.365 N 
ATOM     14  H3  UNL     1      23.706  14.697  24.685  1.00  0.00     0.161 HD
BRANCH  13  15
HETATM   15  C7  UNL     1      25.743  15.070  25.164  1.00  0.00     0.131 C 
BRANCH  15  16
HETATM   16  C8  UNL     1      25.460  15.753  26.475  1.00  0.00    -0.023 C 
HETATM   17  C9  UNL     1      25.475  14.801  27.626  1.00  0.00     0.015 C 
HETATM   18  C10 UNL     1      25.227  15.527  28.932  1.00  0.00    -0.013 C 
HETATM   19  C11 UNL     1      26.267  16.610  29.113  1.00  0.00     0.009 C 
HETATM   20  C15 UNL     1      23.860  16.184  28.864  1.00  0.00     0.009 C 
HETATM   21  C12 UNL     1      26.219  17.583  27.971  1.00  0.00    -0.013 C 
HETATM   22  C13 UNL     1      24.851  18.203  27.900  1.00  0.00     0.009 C 
HETATM   23  C17 UNL     1      26.506  16.822  26.688  1.00  0.00     0.015 C 
HETATM   24  C14 UNL     1      23.834  17.119  27.690  1.00  0.00    -0.013 C 
HETATM   25  C16 UNL     1      24.083  16.427  26.396  1.00  0.00     0.015 C 
ENDBRANCH  15  16
ENDBRANCH  13  15
ENDBRANCH  11  13
ENDBRANCH   9  11
ENDBRANCH   7   9
ENDBRANCH   4   5
ENDBRANCH   3   4
TORSDOF 7
ENDMDL
