MODEL 1
REMARK VINA RESULT: -7.046038972      0.000      0.000
REMARK  6 active torsions:
REMARK  status: ('A' for Active; 'I' for Inactive)
REMARK       I    between atoms: N1_2  and  C2_4 
REMARK    1  A    between atoms: C2_4  and  C3_6 
REMARK    2  A    between atoms: C7_11  and  C8_12 
REMARK    3  A    between atoms: C8_12  and  C9_13 
REMARK    4  A    between atoms: C9_13  and  N2_15 
REMARK    5  A    between atoms: N2_15  and  C11_17 
REMARK    6  A    between atoms: C11_17  and  N3_19 
ROOT
HETATM    1  C3  UNL     1      25.186  11.898  24.841  1.00  0.00     0.033 A 
HETATM    2  C4  UNL     1      24.336  11.114  24.109  1.00  0.00     0.036 A 
HETATM    3  C5  UNL     1      24.080   9.790  24.474  1.00  0.00     0.012 A 
HETATM    4 BR1  UNL     1      22.888   8.754  23.413  1.00  0.00    -0.051 Br
HETATM    5  C6  UNL     1      24.687   9.249  25.585  1.00  0.00     0.026 A 
HETATM    6  C7  UNL     1      25.548  10.019  26.339  1.00  0.00    -0.054 A 
HETATM    7  C13 UNL     1      25.769  11.305  25.950  1.00  0.00     0.024 A 
ENDROOT
BRANCH   6   8
HETATM    8  C8  UNL     1      26.202   9.419  27.541  1.00  0.00     0.063 C 
BRANCH   8   9
HETATM    9  C9  UNL     1      27.280  10.303  28.090  1.00  0.00     0.084 C 
HETATM   10  C10 UNL     1      28.661   9.687  27.883  1.00  0.00     0.032 C 
BRANCH   9  11
HETATM   11  N2  UNL     1      27.016  10.583  29.474  1.00  0.00    -0.363 N 
ATOM     12  H2  UNL     1      26.691   9.805  30.049  1.00  0.00     0.162 HD
BRANCH  11  13
HETATM   13  C11 UNL     1      27.165  11.832  30.115  1.00  0.00     0.167 C 
HETATM   14  S1  UNL     1      26.047  13.010  30.130  1.00  0.00    -0.041 SA
BRANCH  13  15
HETATM   15  N3  UNL     1      28.371  12.094  30.817  1.00  0.00    -0.372 N 
HETATM   16  C12 UNL     1      29.498  12.619  30.079  1.00  0.00     0.148 C 
ATOM     17  H3  UNL     1      28.440  11.917  31.819  1.00  0.00     0.161 HD
ENDBRANCH  13  15
ENDBRANCH  11  13
ENDBRANCH   9  11
ENDBRANCH   8   9
ENDBRANCH   6   8
BRANCH   1  18
HETATM   18  C2  UNL     1      25.517  13.276  24.550  1.00  0.00     0.251 C 
HETATM   19  N1  UNL     1      24.669  14.306  25.003  1.00  0.00    -0.361 N 
HETATM   20  C1  UNL     1      25.052  15.682  24.682  1.00  0.00     0.149 C 
ATOM     21  H1  UNL     1      23.822  14.101  25.534  1.00  0.00     0.162 HD
HETATM   22  O1  UNL     1      26.548  13.568  23.903  1.00  0.00    -0.268 OA
ENDBRANCH   1  18
TORSDOF 6
ENDMDL
MODEL 2
REMARK VINA RESULT: -6.989877565      2.990      5.266
REMARK  6 active torsions:
REMARK  status: ('A' for Active; 'I' for Inactive)
REMARK       I    between atoms: N1_2  and  C2_4 
REMARK    1  A    between atoms: C2_4  and  C3_6 
REMARK    2  A    between atoms: C7_11  and  C8_12 
REMARK    3  A    between atoms: C8_12  and  C9_13 
REMARK    4  A    between atoms: C9_13  and  N2_15 
REMARK    5  A    between atoms: N2_15  and  C11_17 
REMARK    6  A    between atoms: C11_17  and  N3_19 
ROOT
HETATM    1  C3  UNL     1      25.444  10.336  25.938  1.00  0.00     0.033 A 
HETATM    2  C4  UNL     1      24.608   9.582  25.160  1.00  0.00     0.036 A 
HETATM    3  C5  UNL     1      23.861  10.161  24.131  1.00  0.00     0.012 A 
HETATM    4 BR1  UNL     1      22.718   9.056  23.086  1.00  0.00    -0.051 Br
HETATM    5  C6  UNL     1      23.955  11.511  23.884  1.00  0.00     0.026 A 
HETATM    6  C7  UNL     1      24.791  12.293  24.654  1.00  0.00    -0.054 A 
HETATM    7  C13 UNL     1      25.502  11.690  25.646  1.00  0.00     0.024 A 
ENDROOT
BRANCH   6   8
HETATM    8  C8  UNL     1      24.881  13.758  24.377  1.00  0.00     0.063 C 
BRANCH   8   9
HETATM    9  C9  UNL     1      26.001  14.402  25.136  1.00  0.00     0.084 C 
HETATM   10  C10 UNL     1      25.474  15.420  26.145  1.00  0.00     0.032 C 
BRANCH   9  11
HETATM   11  N2  UNL     1      26.934  14.990  24.214  1.00  0.00    -0.363 N 
ATOM     12  H2  UNL     1      26.727  15.933  23.886  1.00  0.00     0.162 HD
BRANCH  11  13
HETATM   13  C11 UNL     1      28.110  14.385  23.720  1.00  0.00     0.167 C 
HETATM   14  S1  UNL     1      28.982  14.931  22.464  1.00  0.00    -0.041 SA
BRANCH  13  15
HETATM   15  N3  UNL     1      28.593  13.216  24.366  1.00  0.00    -0.372 N 
HETATM   16  C12 UNL     1      28.592  11.972  23.629  1.00  0.00     0.148 C 
ATOM     17  H3  UNL     1      28.934  13.253  25.327  1.00  0.00     0.161 HD
ENDBRANCH  13  15
ENDBRANCH  11  13
ENDBRANCH   9  11
ENDBRANCH   8   9
ENDBRANCH   6   8
BRANCH   1  18
HETATM   18  C2  UNL     1      26.258   9.836  27.024  1.00  0.00     0.251 C 
HETATM   19  N1  UNL     1      27.630  10.155  27.069  1.00  0.00    -0.361 N 
HETATM   20  C1  UNL     1      28.407   9.624  28.191  1.00  0.00     0.149 C 
ATOM     21  H1  UNL     1      28.064  10.733  26.349  1.00  0.00     0.162 HD
HETATM   22  O1  UNL     1      25.762   9.126  27.927  1.00  0.00    -0.268 OA
ENDBRANCH   1  18
TORSDOF 6
ENDMDL
MODEL 3
REMARK VINA RESULT: -6.962401691      3.775      5.555
REMARK  6 active torsions:
REMARK  status: ('A' for Active; 'I' for Inactive)
REMARK       I    between atoms: N1_2  and  C2_4 
REMARK    1  A    between atoms: C2_4  and  C3_6 
REMARK    2  A    between atoms: C7_11  and  C8_12 
REMARK    3  A    between atoms: C8_12  and  C9_13 
REMARK    4  A    between atoms: C9_13  and  N2_15 
REMARK    5  A    between atoms: N2_15  and  C11_17 
REMARK    6  A    between atoms: C11_17  and  N3_19 
ROOT
HETATM    1  C3  UNL     1      24.682  11.550  24.684  1.00  0.00     0.033 A 
HETATM    2  C4  UNL     1      25.358  10.697  25.513  1.00  0.00     0.036 A 
HETATM    3  C5  UNL     1      26.204  11.182  26.514  1.00  0.00     0.012 A 
HETATM    4 BR1  UNL     1      27.116   9.942  27.633  1.00  0.00    -0.051 Br
HETATM    5  C6  UNL     1      26.371  12.538  26.681  1.00  0.00     0.026 A 
HETATM    6  C7  UNL     1      25.699  13.418  25.859  1.00  0.00    -0.054 A 
HETATM    7  C13 UNL     1      24.885  12.905  24.896  1.00  0.00     0.024 A 
ENDROOT
BRANCH   6   8
HETATM    8  C8  UNL     1      25.892  14.888  26.049  1.00  0.00     0.063 C 
BRANCH   8   9
HETATM    9  C9  UNL     1      25.555  15.660  24.810  1.00  0.00     0.084 C 
HETATM   10  C10 UNL     1      26.772  15.810  23.902  1.00  0.00     0.032 C 
BRANCH   9  11
HETATM   11  N2  UNL     1      24.993  16.932  25.173  1.00  0.00    -0.363 N 
ATOM     12  H2  UNL     1      24.909  17.629  24.432  1.00  0.00     0.162 HD
BRANCH  11  13
HETATM   13  C11 UNL     1      24.545  17.309  26.458  1.00  0.00     0.167 C 
HETATM   14  S1  UNL     1      25.404  18.182  27.525  1.00  0.00    -0.041 SA
BRANCH  13  15
HETATM   15  N3  UNL     1      23.241  16.918  26.863  1.00  0.00    -0.372 N 
HETATM   16  C12 UNL     1      23.007  16.649  28.264  1.00  0.00     0.148 C 
ATOM     17  H3  UNL     1      22.488  16.829  26.181  1.00  0.00     0.161 HD
ENDBRANCH  13  15
ENDBRANCH  11  13
ENDBRANCH   9  11
ENDBRANCH   8   9
ENDBRANCH   6   8
BRANCH   1  18
HETATM   18  C2  UNL     1      23.786  11.152  23.620  1.00  0.00     0.251 C 
HETATM   19  N1  UNL     1      23.708   9.796  23.247  1.00  0.00    -0.361 N 
HETATM   20  C1  UNL     1      22.784   9.448  22.165  1.00  0.00     0.149 C 
ATOM     21  H1  UNL     1      24.272   9.084  23.712  1.00  0.00     0.162 HD
HETATM   22  O1  UNL     1      23.076  11.995  23.026  1.00  0.00    -0.268 OA
ENDBRANCH   1  18
TORSDOF 6
ENDMDL
MODEL 4
REMARK VINA RESULT: -6.941571591      3.547      5.301
REMARK  6 active torsions:
REMARK  status: ('A' for Active; 'I' for Inactive)
REMARK       I    between atoms: N1_2  and  C2_4 
REMARK    1  A    between atoms: C2_4  and  C3_6 
REMARK    2  A    between atoms: C7_11  and  C8_12 
REMARK    3  A    between atoms: C8_12  and  C9_13 
REMARK    4  A    between atoms: C9_13  and  N2_15 
REMARK    5  A    between atoms: N2_15  and  C11_17 
REMARK    6  A    between atoms: C11_17  and  N3_19 
ROOT
HETATM    1  C3  UNL     1      24.620  11.623  24.590  1.00  0.00     0.033 A 
HETATM    2  C4  UNL     1      25.441  10.974  25.471  1.00  0.00     0.036 A 
HETATM    3  C5  UNL     1      26.269  11.684  26.344  1.00  0.00     0.012 A 
HETATM    4 BR1  UNL     1      27.388  10.720  27.545  1.00  0.00    -0.051 Br
HETATM    5  C6  UNL     1      26.271  13.060  26.329  1.00  0.00     0.026 A 
HETATM    6  C7  UNL     1      25.452  13.738  25.450  1.00  0.00    -0.054 A 
HETATM    7  C13 UNL     1      24.660  13.008  24.617  1.00  0.00     0.024 A 
ENDROOT
BRANCH   6   8
HETATM    8  C8  UNL     1      25.466  15.231  25.442  1.00  0.00     0.063 C 
BRANCH   8   9
HETATM    9  C9  UNL     1      25.292  15.799  26.818  1.00  0.00     0.084 C 
HETATM   10  C10 UNL     1      23.926  16.460  26.976  1.00  0.00     0.032 C 
BRANCH   9  11
HETATM   11  N2  UNL     1      26.368  16.708  27.104  1.00  0.00    -0.363 N 
ATOM     12  H2  UNL     1      26.811  17.166  26.307  1.00  0.00     0.162 HD
BRANCH  11  13
HETATM   13  C11 UNL     1      26.869  17.029  28.385  1.00  0.00     0.167 C 
HETATM   14  S1  UNL     1      27.242  15.947  29.537  1.00  0.00    -0.041 SA
BRANCH  13  15
HETATM   15  N3  UNL     1      27.084  18.395  28.706  1.00  0.00    -0.372 N 
HETATM   16  C12 UNL     1      26.414  19.403  27.913  1.00  0.00     0.148 C 
ATOM     17  H3  UNL     1      27.697  18.660  29.477  1.00  0.00     0.161 HD
ENDBRANCH  13  15
ENDBRANCH  11  13
ENDBRANCH   9  11
ENDBRANCH   8   9
ENDBRANCH   6   8
BRANCH   1  18
HETATM   18  C2  UNL     1      23.728  10.984  23.647  1.00  0.00     0.251 C 
HETATM   19  N1  UNL     1      23.526   9.591  23.714  1.00  0.00    -0.361 N 
HETATM   20  C1  UNL     1      22.612   8.997  22.737  1.00  0.00     0.149 C 
ATOM     21  H1  UNL     1      23.997   9.020  24.416  1.00  0.00     0.162 HD
HETATM   22  O1  UNL     1      23.130  11.651  22.772  1.00  0.00    -0.268 OA
ENDBRANCH   1  18
TORSDOF 6
ENDMDL
MODEL 5
REMARK VINA RESULT: -6.940118103      1.423      1.744
REMARK  6 active torsions:
REMARK  status: ('A' for Active; 'I' for Inactive)
REMARK       I    between atoms: N1_2  and  C2_4 
REMARK    1  A    between atoms: C2_4  and  C3_6 
REMARK    2  A    between atoms: C7_11  and  C8_12 
REMARK    3  A    between atoms: C8_12  and  C9_13 
REMARK    4  A    between atoms: C9_13  and  N2_15 
REMARK    5  A    between atoms: N2_15  and  C11_17 
REMARK    6  A    between atoms: C11_17  and  N3_19 
ROOT
HETATM    1  C3  UNL     1      25.004  11.832  24.613  1.00  0.00     0.033 A 
HETATM    2  C4  UNL     1      24.102  11.200  23.801  1.00  0.00     0.036 A 
HETATM    3  C5  UNL     1      23.734   9.871  24.027  1.00  0.00     0.012 A 
HETATM    4 BR1  UNL     1      22.474   9.051  22.861  1.00  0.00    -0.051 Br
HETATM    5  C6  UNL     1      24.281   9.172  25.079  1.00  0.00     0.026 A 
HETATM    6  C7  UNL     1      25.192   9.787  25.912  1.00  0.00    -0.054 A 
HETATM    7  C13 UNL     1      25.523  11.083  25.657  1.00  0.00     0.024 A 
ENDROOT
BRANCH   6   8
HETATM    8  C8  UNL     1      25.780   9.016  27.048  1.00  0.00     0.063 C 
BRANCH   8   9
HETATM    9  C9  UNL     1      26.409   9.915  28.068  1.00  0.00     0.084 C 
HETATM   10  C10 UNL     1      27.902   9.633  28.211  1.00  0.00     0.032 C 
BRANCH   9  11
HETATM   11  N2  UNL     1      25.714   9.786  29.319  1.00  0.00    -0.363 N 
ATOM     12  H2  UNL     1      24.839   9.261  29.310  1.00  0.00     0.162 HD
BRANCH  11  13
HETATM   13  C11 UNL     1      26.127  10.318  30.560  1.00  0.00     0.167 C 
HETATM   14  S1  UNL     1      26.247  11.901  30.901  1.00  0.00    -0.041 SA
BRANCH  13  15
HETATM   15  N3  UNL     1      26.452   9.417  31.609  1.00  0.00    -0.372 N 
HETATM   16  C12 UNL     1      26.161   8.013  31.426  1.00  0.00     0.148 C 
ATOM     17  H3  UNL     1      26.882   9.753  32.471  1.00  0.00     0.161 HD
ENDBRANCH  13  15
ENDBRANCH  11  13
ENDBRANCH   9  11
ENDBRANCH   8   9
ENDBRANCH   6   8
BRANCH   1  18
HETATM   18  C2  UNL     1      25.451  13.200  24.466  1.00  0.00     0.251 C 
HETATM   19  N1  UNL     1      24.626  14.253  24.908  1.00  0.00    -0.361 N 
HETATM   20  C1  UNL     1      25.128  15.618  24.736  1.00  0.00     0.149 C 
ATOM     21  H1  UNL     1      23.715  14.071  25.331  1.00  0.00     0.162 HD
HETATM   22  O1  UNL     1      26.562  13.463  23.953  1.00  0.00    -0.268 OA
ENDBRANCH   1  18
TORSDOF 6
ENDMDL
