MODEL 1
REMARK VINA RESULT: -7.658491782      0.000      0.000
REMARK  5 active torsions:
REMARK  status: ('A' for Active; 'I' for Inactive)
REMARK    1  A    between atoms: C2_2  and  C4_4 
REMARK    2  A    between atoms: C4_4  and  C6_6 
REMARK    3  A    between atoms: C6_6  and  C7_7 
REMARK       I    between atoms: C7_7  and  N1_9 
REMARK    4  A    between atoms: N1_9  and  N2_10 
REMARK       I    between atoms: N2_10  and  C8_12 
REMARK       I    between atoms: C8_12  and  N3_14 
REMARK    5  A    between atoms: N3_14  and  C9_16 
ROOT
HETATM    1  N2  UNL     1      24.854  14.941  26.672  1.00  0.00    -0.181 N 
ATOM      2  H2  UNL     1      25.132  14.117  27.206  1.00  0.00     0.207 HD
HETATM    3  C8  UNL     1      25.110  14.853  25.280  1.00  0.00     0.350 C 
HETATM    4  O2  UNL     1      24.793  15.805  24.527  1.00  0.00    -0.244 OA
HETATM    5  N3  UNL     1      25.723  13.675  24.781  1.00  0.00    -0.293 N 
ATOM      6  H3  UNL     1      26.732  13.658  24.634  1.00  0.00     0.172 HD
ENDROOT
BRANCH   1   7
HETATM    7  N1  UNL     1      24.313  15.912  27.400  1.00  0.00    -0.283 NA
HETATM    8  C7  UNL     1      23.737  16.899  28.135  1.00  0.00     0.313 C 
HETATM    9  O1  UNL     1      22.525  17.202  28.156  1.00  0.00    -0.255 OA
BRANCH   8  10
HETATM   10  C6  UNL     1      24.697  17.687  29.013  1.00  0.00     0.126 C 
BRANCH  10  11
HETATM   11  C4  UNL     1      25.493  18.702  28.293  1.00  0.00    -0.005 C 
HETATM   12  C5  UNL     1      25.306  20.023  28.997  1.00  0.00     0.011 C 
BRANCH  11  13
HETATM   13  C2  UNL     1      26.925  18.379  28.095  1.00  0.00    -0.019 C 
HETATM   14  C1  UNL     1      27.277  17.214  29.032  1.00  0.00     0.010 C 
HETATM   15  C3  UNL     1      27.239  17.883  26.701  1.00  0.00     0.010 C 
ENDBRANCH  11  13
ENDBRANCH  10  11
ENDBRANCH   8  10
ENDBRANCH   1   7
BRANCH   5  16
HETATM   16  C9  UNL     1      25.017  12.612  24.506  1.00  0.00     0.108 A 
HETATM   17  C10 UNL     1      25.290  11.449  25.187  1.00  0.00     0.050 A 
HETATM   18  C11 UNL     1      24.572  10.298  24.893  1.00  0.00     0.024 A 
HETATM   19  C12 UNL     1      23.602  10.365  23.924  1.00  0.00     0.026 A 
HETATM   20 BR1  UNL     1      22.631   8.772  23.544  1.00  0.00    -0.050 Br
HETATM   21  C13 UNL     1      23.342  11.536  23.255  1.00  0.00     0.108 A 
HETATM   22  N4  UNL     1      24.064  12.642  23.564  1.00  0.00    -0.351 N 
ATOM     23  H4  UNL     1      23.877  13.516  23.070  1.00  0.00     0.166 HD
ENDBRANCH   5  16
TORSDOF 5
ENDMDL
MODEL 2
REMARK VINA RESULT: -7.642224641      3.605      8.212
REMARK  5 active torsions:
REMARK  status: ('A' for Active; 'I' for Inactive)
REMARK    1  A    between atoms: C2_2  and  C4_4 
REMARK    2  A    between atoms: C4_4  and  C6_6 
REMARK    3  A    between atoms: C6_6  and  C7_7 
REMARK       I    between atoms: C7_7  and  N1_9 
REMARK    4  A    between atoms: N1_9  and  N2_10 
REMARK       I    between atoms: N2_10  and  C8_12 
REMARK       I    between atoms: C8_12  and  N3_14 
REMARK    5  A    between atoms: N3_14  and  C9_16 
ROOT
HETATM    1  N2  UNL     1      24.591  13.466  24.689  1.00  0.00    -0.181 N 
ATOM      2  H2  UNL     1      23.687  13.863  24.947  1.00  0.00     0.207 HD
HETATM    3  C8  UNL     1      25.544  14.416  24.241  1.00  0.00     0.350 C 
HETATM    4  O2  UNL     1      26.694  14.038  23.913  1.00  0.00    -0.244 OA
HETATM    5  N3  UNL     1      25.158  15.780  24.181  1.00  0.00    -0.293 N 
ATOM      6  H3  UNL     1      24.838  16.173  23.296  1.00  0.00     0.172 HD
ENDROOT
BRANCH   1   7
HETATM    7  N1  UNL     1      24.673  12.148  24.830  1.00  0.00    -0.283 NA
HETATM    8  C7  UNL     1      24.771  10.802  24.997  1.00  0.00     0.313 C 
HETATM    9  O1  UNL     1      25.344  10.207  25.934  1.00  0.00    -0.255 OA
BRANCH   8  10
HETATM   10  C6  UNL     1      24.096   9.972  23.915  1.00  0.00     0.126 C 
BRANCH  10  11
HETATM   11  C4  UNL     1      23.221   8.897  24.424  1.00  0.00    -0.005 C 
HETATM   12  C5  UNL     1      21.960   8.895  23.597  1.00  0.00     0.011 C 
BRANCH  11  13
HETATM   13  C2  UNL     1      23.833   7.550  24.502  1.00  0.00    -0.019 C 
HETATM   14  C1  UNL     1      24.195   7.283  25.970  1.00  0.00     0.010 C 
HETATM   15  C3  UNL     1      22.884   6.438  24.113  1.00  0.00     0.010 C 
ENDBRANCH  11  13
ENDBRANCH  10  11
ENDBRANCH   8  10
ENDBRANCH   1   7
BRANCH   5  16
HETATM   16  C9  UNL     1      25.206  16.542  25.240  1.00  0.00     0.108 A 
HETATM   17  C10 UNL     1      24.061  16.702  25.984  1.00  0.00     0.050 A 
HETATM   18  C11 UNL     1      24.080  17.529  27.100  1.00  0.00     0.024 A 
HETATM   19  C12 UNL     1      25.255  18.161  27.422  1.00  0.00     0.026 A 
HETATM   20 BR1  UNL     1      25.251  19.287  28.959  1.00  0.00    -0.050 Br
HETATM   21  C13 UNL     1      26.389  17.987  26.667  1.00  0.00     0.108 A 
HETATM   22  N4  UNL     1      26.337  17.175  25.583  1.00  0.00    -0.351 N 
ATOM     23  H4  UNL     1      27.176  17.042  25.017  1.00  0.00     0.166 HD
ENDBRANCH   5  16
TORSDOF 5
ENDMDL
MODEL 3
REMARK VINA RESULT: -7.548720196      3.777      5.213
REMARK  5 active torsions:
REMARK  status: ('A' for Active; 'I' for Inactive)
REMARK    1  A    between atoms: C2_2  and  C4_4 
REMARK    2  A    between atoms: C4_4  and  C6_6 
REMARK    3  A    between atoms: C6_6  and  C7_7 
REMARK       I    between atoms: C7_7  and  N1_9 
REMARK    4  A    between atoms: N1_9  and  N2_10 
REMARK       I    between atoms: N2_10  and  C8_12 
REMARK       I    between atoms: C8_12  and  N3_14 
REMARK    5  A    between atoms: N3_14  and  C9_16 
ROOT
HETATM    1  N2  UNL     1      26.094  15.519  24.243  1.00  0.00    -0.181 N 
ATOM      2  H2  UNL     1      25.083  15.609  24.353  1.00  0.00     0.207 HD
HETATM    3  C8  UNL     1      26.660  14.400  24.906  1.00  0.00     0.350 C 
HETATM    4  O2  UNL     1      27.893  14.186  24.825  1.00  0.00    -0.244 OA
HETATM    5  N3  UNL     1      25.799  13.550  25.647  1.00  0.00    -0.293 N 
ATOM      6  H3  UNL     1      25.706  13.684  26.654  1.00  0.00     0.172 HD
ENDROOT
BRANCH   1   7
HETATM    7  N1  UNL     1      26.654  16.470  23.504  1.00  0.00    -0.283 NA
HETATM    8  C7  UNL     1      27.217  17.461  22.764  1.00  0.00     0.313 C 
HETATM    9  O1  UNL     1      27.188  18.685  23.012  1.00  0.00    -0.255 OA
BRANCH   8  10
HETATM   10  C6  UNL     1      27.955  16.990  21.519  1.00  0.00     0.126 C 
BRANCH  10  11
HETATM   11  C4  UNL     1      29.290  16.414  21.779  1.00  0.00    -0.005 C 
HETATM   12  C5  UNL     1      29.348  15.062  21.114  1.00  0.00     0.011 C 
BRANCH  11  13
HETATM   13  C2  UNL     1      30.443  17.265  21.405  1.00  0.00    -0.019 C 
HETATM   14  C1  UNL     1      29.963  18.270  20.349  1.00  0.00     0.010 C 
HETATM   15  C3  UNL     1      30.965  18.103  22.552  1.00  0.00     0.010 C 
ENDBRANCH  11  13
ENDBRANCH  10  11
ENDBRANCH   8  10
ENDBRANCH   1   7
BRANCH   5  16
HETATM   16  C9  UNL     1      25.124  12.598  25.062  1.00  0.00     0.108 A 
HETATM   17  C10 UNL     1      25.280  11.309  25.516  1.00  0.00     0.050 A 
HETATM   18  C11 UNL     1      24.595  10.276  24.892  1.00  0.00     0.024 A 
HETATM   19  C12 UNL     1      23.774  10.583  23.835  1.00  0.00     0.026 A 
HETATM   20 BR1  UNL     1      22.844   9.146  23.001  1.00  0.00    -0.050 Br
HETATM   21  C13 UNL     1      23.630  11.877  23.397  1.00  0.00     0.108 A 
HETATM   22  N4  UNL     1      24.315  12.863  24.027  1.00  0.00    -0.351 N 
ATOM     23  H4  UNL     1      24.213  13.826  23.706  1.00  0.00     0.166 HD
ENDBRANCH   5  16
TORSDOF 5
ENDMDL
MODEL 4
REMARK VINA RESULT: -7.503237984      3.552      8.157
REMARK  5 active torsions:
REMARK  status: ('A' for Active; 'I' for Inactive)
REMARK    1  A    between atoms: C2_2  and  C4_4 
REMARK    2  A    between atoms: C4_4  and  C6_6 
REMARK    3  A    between atoms: C6_6  and  C7_7 
REMARK       I    between atoms: C7_7  and  N1_9 
REMARK    4  A    between atoms: N1_9  and  N2_10 
REMARK       I    between atoms: N2_10  and  C8_12 
REMARK       I    between atoms: C8_12  and  N3_14 
REMARK    5  A    between atoms: N3_14  and  C9_16 
ROOT
HETATM    1  N2  UNL     1      24.835  13.602  24.588  1.00  0.00    -0.181 N 
ATOM      2  H2  UNL     1      23.925  14.055  24.683  1.00  0.00     0.207 HD
HETATM    3  C8  UNL     1      25.900  14.484  24.275  1.00  0.00     0.350 C 
HETATM    4  O2  UNL     1      27.065  14.034  24.150  1.00  0.00    -0.244 OA
HETATM    5  N3  UNL     1      25.608  15.863  24.112  1.00  0.00    -0.293 N 
ATOM      6  H3  UNL     1      25.458  16.236  23.175  1.00  0.00     0.172 HD
ENDROOT
BRANCH   1   7
HETATM    7  N1  UNL     1      24.818  12.287  24.780  1.00  0.00    -0.283 NA
HETATM    8  C7  UNL     1      24.814  10.946  24.999  1.00  0.00     0.313 C 
HETATM    9  O1  UNL     1      25.314  10.349  25.976  1.00  0.00    -0.255 OA
BRANCH   8  10
HETATM   10  C6  UNL     1      24.114  10.125  23.927  1.00  0.00     0.126 C 
BRANCH  10  11
HETATM   11  C4  UNL     1      23.263   9.035  24.447  1.00  0.00    -0.005 C 
HETATM   12  C5  UNL     1      21.983   9.025  23.648  1.00  0.00     0.011 C 
BRANCH  11  13
HETATM   13  C2  UNL     1      23.891   7.695  24.502  1.00  0.00    -0.019 C 
HETATM   14  C1  UNL     1      24.253   7.406  25.966  1.00  0.00     0.010 C 
HETATM   15  C3  UNL     1      22.956   6.579  24.091  1.00  0.00     0.010 C 
ENDBRANCH  11  13
ENDBRANCH  10  11
ENDBRANCH   8  10
ENDBRANCH   1   7
BRANCH   5  16
HETATM   16  C9  UNL     1      25.527  16.661  25.141  1.00  0.00     0.108 A 
HETATM   17  C10 UNL     1      26.683  17.233  25.619  1.00  0.00     0.050 A 
HETATM   18  C11 UNL     1      26.627  18.064  26.730  1.00  0.00     0.024 A 
HETATM   19  C12 UNL     1      25.405  18.287  27.316  1.00  0.00     0.026 A 
HETATM   20 BR1  UNL     1      25.360  19.433  28.836  1.00  0.00    -0.050 Br
HETATM   21  C13 UNL     1      24.262  17.708  26.822  1.00  0.00     0.108 A 
HETATM   22  N4  UNL     1      24.351  16.900  25.737  1.00  0.00    -0.351 N 
ATOM     23  H4  UNL     1      23.505  16.465  25.367  1.00  0.00     0.166 HD
ENDBRANCH   5  16
TORSDOF 5
ENDMDL
MODEL 5
REMARK VINA RESULT: -7.499412693      1.259      1.828
REMARK  5 active torsions:
REMARK  status: ('A' for Active; 'I' for Inactive)
REMARK    1  A    between atoms: C2_2  and  C4_4 
REMARK    2  A    between atoms: C4_4  and  C6_6 
REMARK    3  A    between atoms: C6_6  and  C7_7 
REMARK       I    between atoms: C7_7  and  N1_9 
REMARK    4  A    between atoms: N1_9  and  N2_10 
REMARK       I    between atoms: N2_10  and  C8_12 
REMARK       I    between atoms: C8_12  and  N3_14 
REMARK    5  A    between atoms: N3_14  and  C9_16 
ROOT
HETATM    1  N2  UNL     1      25.101  14.533  25.998  1.00  0.00    -0.181 N 
ATOM      2  H2  UNL     1      25.024  13.900  26.794  1.00  0.00     0.207 HD
HETATM    3  C8  UNL     1      25.758  13.981  24.869  1.00  0.00     0.350 C 
HETATM    4  O2  UNL     1      25.894  14.668  23.829  1.00  0.00    -0.244 OA
HETATM    5  N3  UNL     1      26.245  12.651  24.957  1.00  0.00    -0.293 N 
ATOM      6  H3  UNL     1      27.223  12.490  25.195  1.00  0.00     0.172 HD
ENDROOT
BRANCH   1   7
HETATM    7  N1  UNL     1      24.567  15.734  26.196  1.00  0.00    -0.283 NA
HETATM    8  C7  UNL     1      24.029  16.969  26.374  1.00  0.00     0.313 C 
HETATM    9  O1  UNL     1      24.050  17.916  25.559  1.00  0.00    -0.255 OA
BRANCH   8  10
HETATM   10  C6  UNL     1      23.336  17.178  27.712  1.00  0.00     0.126 C 
BRANCH  10  11
HETATM   11  C4  UNL     1      24.226  17.639  28.798  1.00  0.00    -0.005 C 
HETATM   12  C5  UNL     1      24.576  16.444  29.649  1.00  0.00     0.011 C 
BRANCH  11  13
HETATM   13  C2  UNL     1      25.431  18.387  28.371  1.00  0.00    -0.019 C 
HETATM   14  C1  UNL     1      25.370  19.782  29.009  1.00  0.00     0.010 C 
HETATM   15  C3  UNL     1      26.722  17.774  28.867  1.00  0.00     0.010 C 
ENDBRANCH  11  13
ENDBRANCH  10  11
ENDBRANCH   8  10
ENDBRANCH   1   7
BRANCH   5  16
HETATM   16  C9  UNL     1      25.461  11.630  24.739  1.00  0.00     0.108 A 
HETATM   17  C10 UNL     1      25.453  10.603  25.653  1.00  0.00     0.050 A 
HETATM   18  C11 UNL     1      24.648   9.493  25.428  1.00  0.00     0.024 A 
HETATM   19  C12 UNL     1      23.881   9.465  24.290  1.00  0.00     0.026 A 
HETATM   20 BR1  UNL     1      22.785   7.932  24.012  1.00  0.00    -0.050 Br
HETATM   21  C13 UNL     1      23.901  10.502  23.391  1.00  0.00     0.108 A 
HETATM   22  N4  UNL     1      24.699  11.570  23.637  1.00  0.00    -0.351 N 
ATOM     23  H4  UNL     1      24.720  12.343  22.972  1.00  0.00     0.166 HD
ENDBRANCH   5  16
TORSDOF 5
ENDMDL
