MODEL 1
REMARK VINA RESULT: -8.664192559      0.000      0.000
REMARK  14 active torsions:
REMARK  status: ('A' for Active; 'I' for Inactive)
REMARK    1  A    between atoms: N1_2  and  C2_3 
REMARK       I    between atoms: N1_2  and  C23_37 
REMARK    2  A    between atoms: C2_3  and  C3_4 
REMARK    3  A    between atoms: C3_4  and  C4_5 
REMARK    4  A    between atoms: C4_5  and  C5_6 
REMARK    5  A    between atoms: C5_6  and  C6_7 
REMARK    6  A    between atoms: C6_7  and  C7_8 
REMARK    7  A    between atoms: C7_8  and  C8_9 
REMARK    8  A    between atoms: C8_9  and  C9_10 
REMARK    9  A    between atoms: C9_10  and  N2_11 
REMARK       I    between atoms: N2_11  and  C10_13 
REMARK       I    between atoms: C10_13  and  N3_15 
REMARK       I    between atoms: N4_18  and  C13_19 
REMARK   10  A    between atoms: C15_25  and  C16_26 
REMARK       I    between atoms: C16_26  and  N7_28 
REMARK   11  A    between atoms: N7_28  and  C17_30 
REMARK   12  A    between atoms: C17_30  and  C18_31 
REMARK   13  A    between atoms: C18_31  and  C19_32 
REMARK   14  A    between atoms: C19_32  and  N8_33 
ROOT
HETATM    1  N2  UNL     1      39.377   8.019 106.955  1.00  0.00    -0.343 N 
ATOM      2  H2  UNL     1      39.128   7.565 106.076  1.00  0.00     0.164 HD
HETATM    3  C10 UNL     1      39.642   9.401 106.928  1.00  0.00     0.319 C 
HETATM    4  O1  UNL     1      39.966  10.001 108.018  1.00  0.00    -0.247 OA
HETATM    5  N3  UNL     1      39.584  10.213 105.780  1.00  0.00    -0.318 N 
HETATM    6  C11 UNL     1      39.237   9.672 104.499  1.00  0.00     0.148 C 
HETATM    7  C12 UNL     1      38.049  10.433 103.913  1.00  0.00     0.145 C 
HETATM    8  N4  UNL     1      38.105  11.830 104.307  1.00  0.00    -0.352 N 
HETATM    9  C13 UNL     1      36.972  12.679 104.349  1.00  0.00     0.184 C 
HETATM   10  N5  UNL     1      35.968  12.331 105.064  1.00  0.00    -0.374 N 
ATOM     11  H51 UNL     1      35.151  12.942 105.094  1.00  0.00     0.158 HD
ATOM     12  H52 UNL     1      36.000  11.456 105.587  1.00  0.00     0.158 HD
HETATM   13  N6  UNL     1      36.928  13.893 103.623  1.00  0.00    -0.064 NA
HETATM   14  C14 UNL     1      39.388  12.349 104.669  1.00  0.00     0.160 C 
HETATM   15  C15 UNL     1      39.881  11.618 105.892  1.00  0.00     0.199 C 
ENDROOT
BRANCH  15  16
HETATM   16  C16 UNL     1      41.324  11.863 106.175  1.00  0.00     0.242 C 
HETATM   17  O2  UNL     1      42.229  11.407 105.433  1.00  0.00    -0.271 OA
HETATM   18  N7  UNL     1      41.705  12.626 107.301  1.00  0.00    -0.359 N 
ATOM     19  H7  UNL     1      40.988  13.005 107.919  1.00  0.00     0.162 HD
BRANCH  18  20
HETATM   20  C17 UNL     1      43.088  12.876 107.585  1.00  0.00     0.124 C 
BRANCH  20  21
HETATM   21  C18 UNL     1      43.419  14.277 107.994  1.00  0.00     0.047 C 
BRANCH  21  22
HETATM   22  C19 UNL     1      42.365  15.171 107.351  1.00  0.00     0.237 C 
BRANCH  22  23
HETATM   23  N8  UNL     1      41.878  16.179 108.247  1.00  0.00    -0.079 N 
HETATM   24  C20 UNL     1      42.862  16.316 109.322  1.00  0.00     0.271 C 
HETATM   25  C21 UNL     1      41.747  17.416 107.521  1.00  0.00     0.271 C 
HETATM   26  C22 UNL     1      40.617  15.821 108.877  1.00  0.00     0.271 C 
ENDBRANCH  22  23
ENDBRANCH  21  22
ENDBRANCH  20  21
ENDBRANCH  18  20
ENDBRANCH  15  16
BRANCH   1  27
HETATM   27  C9  UNL     1      39.434   7.186 108.163  1.00  0.00     0.128 C 
BRANCH  27  28
HETATM   28  C8  UNL     1      40.350   6.044 108.023  1.00  0.00     0.046 C 
BRANCH  28  29
HETATM   29  C7  UNL     1      41.592   6.301 107.283  1.00  0.00    -0.029 C 
BRANCH  29  30
HETATM   30  C6  UNL     1      42.793   6.870 107.880  1.00  0.00    -0.031 C 
BRANCH  30  31
HETATM   31  C5  UNL     1      43.142   8.292 107.777  1.00  0.00     0.027 C 
BRANCH  31  32
HETATM   32  C4  UNL     1      44.164   8.699 108.874  1.00  0.00     0.005 C 
BRANCH  32  33
HETATM   33  C3  UNL     1      44.077   7.821 110.081  1.00  0.00     0.020 C 
BRANCH  33  34
HETATM   34  C2  UNL     1      43.617   8.707 111.235  1.00  0.00     0.125 C 
BRANCH  34  35
HETATM   35  N1  UNL     1      42.372   8.205 111.782  1.00  0.00    -0.360 N 
HETATM   36  C1  UNL     1      41.136   8.316 111.024  1.00  0.00     0.152 C 
HETATM   37  C23 UNL     1      42.284   7.589 113.063  1.00  0.00     0.183 C 
HETATM   38  N9  UNL     1      42.151   8.317 114.141  1.00  0.00    -0.374 N 
HETATM   39  N10 UNL     1      42.339   6.190 113.218  1.00  0.00    -0.064 NA
ATOM     40  H92 UNL     1      42.111   9.330 114.029  1.00  0.00     0.158 HD
ATOM     41  H91 UNL     1      42.088   7.875 115.059  1.00  0.00     0.158 HD
ENDBRANCH  34  35
ENDBRANCH  33  34
ENDBRANCH  32  33
ENDBRANCH  31  32
ENDBRANCH  30  31
ENDBRANCH  29  30
ENDBRANCH  28  29
ENDBRANCH  27  28
ENDBRANCH   1  27
TORSDOF 14
ENDMDL
MODEL 2
REMARK VINA RESULT: -8.637858933      1.385      1.713
REMARK  14 active torsions:
REMARK  status: ('A' for Active; 'I' for Inactive)
REMARK    1  A    between atoms: N1_2  and  C2_3 
REMARK       I    between atoms: N1_2  and  C23_37 
REMARK    2  A    between atoms: C2_3  and  C3_4 
REMARK    3  A    between atoms: C3_4  and  C4_5 
REMARK    4  A    between atoms: C4_5  and  C5_6 
REMARK    5  A    between atoms: C5_6  and  C6_7 
REMARK    6  A    between atoms: C6_7  and  C7_8 
REMARK    7  A    between atoms: C7_8  and  C8_9 
REMARK    8  A    between atoms: C8_9  and  C9_10 
REMARK    9  A    between atoms: C9_10  and  N2_11 
REMARK       I    between atoms: N2_11  and  C10_13 
REMARK       I    between atoms: C10_13  and  N3_15 
REMARK       I    between atoms: N4_18  and  C13_19 
REMARK   10  A    between atoms: C15_25  and  C16_26 
REMARK       I    between atoms: C16_26  and  N7_28 
REMARK   11  A    between atoms: N7_28  and  C17_30 
REMARK   12  A    between atoms: C17_30  and  C18_31 
REMARK   13  A    between atoms: C18_31  and  C19_32 
REMARK   14  A    between atoms: C19_32  and  N8_33 
ROOT
HETATM    1  N2  UNL     1      39.168   8.128 106.906  1.00  0.00    -0.343 N 
ATOM      2  H2  UNL     1      38.937   7.685 106.017  1.00  0.00     0.164 HD
HETATM    3  C10 UNL     1      39.457   9.506 106.897  1.00  0.00     0.319 C 
HETATM    4  O1  UNL     1      39.761  10.092 108.000  1.00  0.00    -0.247 OA
HETATM    5  N3  UNL     1      39.447  10.327 105.754  1.00  0.00    -0.318 N 
HETATM    6  C11 UNL     1      39.128   9.801 104.460  1.00  0.00     0.148 C 
HETATM    7  C12 UNL     1      37.970  10.587 103.846  1.00  0.00     0.145 C 
HETATM    8  N4  UNL     1      38.039  11.979 104.252  1.00  0.00    -0.352 N 
HETATM    9  C13 UNL     1      36.920  12.848 104.267  1.00  0.00     0.184 C 
HETATM   10  N5  UNL     1      35.890  12.512 104.950  1.00  0.00    -0.374 N 
ATOM     11  H51 UNL     1      35.084  13.137 104.962  1.00  0.00     0.158 HD
ATOM     12  H52 UNL     1      35.892  11.633 105.467  1.00  0.00     0.158 HD
HETATM   13  N6  UNL     1      36.918  14.067 103.550  1.00  0.00    -0.064 NA
HETATM   14  C14 UNL     1      39.320  12.474 104.654  1.00  0.00     0.160 C 
HETATM   15  C15 UNL     1      39.765  11.726 105.885  1.00  0.00     0.199 C 
ENDROOT
BRANCH  15  16
HETATM   16  C16 UNL     1      41.203  11.943 106.211  1.00  0.00     0.242 C 
HETATM   17  O2  UNL     1      42.120  11.556 105.445  1.00  0.00    -0.271 OA
HETATM   18  N7  UNL     1      41.566  12.601 107.407  1.00  0.00    -0.359 N 
ATOM     19  H7  UNL     1      40.839  12.922 108.046  1.00  0.00     0.162 HD
BRANCH  18  20
HETATM   20  C17 UNL     1      42.944  12.823 107.735  1.00  0.00     0.124 C 
BRANCH  20  21
HETATM   21  C18 UNL     1      43.323  12.541 109.155  1.00  0.00     0.047 C 
BRANCH  21  22
HETATM   22  C19 UNL     1      42.020  12.271 109.900  1.00  0.00     0.237 C 
BRANCH  22  23
HETATM   23  N8  UNL     1      41.918  13.020 111.119  1.00  0.00    -0.079 N 
HETATM   24  C20 UNL     1      43.209  13.676 111.334  1.00  0.00     0.271 C 
HETATM   25  C21 UNL     1      40.872  13.999 110.972  1.00  0.00     0.271 C 
HETATM   26  C22 UNL     1      41.675  12.184 112.283  1.00  0.00     0.271 C 
ENDBRANCH  22  23
ENDBRANCH  21  22
ENDBRANCH  20  21
ENDBRANCH  18  20
ENDBRANCH  15  16
BRANCH   1  27
HETATM   27  C9  UNL     1      39.176   7.286 108.108  1.00  0.00     0.128 C 
BRANCH  27  28
HETATM   28  C8  UNL     1      40.002   6.079 107.952  1.00  0.00     0.046 C 
BRANCH  28  29
HETATM   29  C7  UNL     1      41.394   6.188 108.408  1.00  0.00    -0.029 C 
BRANCH  29  30
HETATM   30  C6  UNL     1      42.432   6.915 107.687  1.00  0.00    -0.031 C 
BRANCH  30  31
HETATM   31  C5  UNL     1      42.843   8.280 108.038  1.00  0.00     0.027 C 
BRANCH  31  32
HETATM   32  C4  UNL     1      44.179   8.276 108.830  1.00  0.00     0.005 C 
BRANCH  32  33
HETATM   33  C3  UNL     1      43.991   7.860 110.254  1.00  0.00     0.020 C 
BRANCH  33  34
HETATM   34  C2  UNL     1      43.268   9.007 110.954  1.00  0.00     0.125 C 
BRANCH  34  35
HETATM   35  N1  UNL     1      42.102   8.507 111.656  1.00  0.00    -0.360 N 
HETATM   36  C1  UNL     1      40.774   8.666 111.085  1.00  0.00     0.152 C 
HETATM   37  C23 UNL     1      42.183   7.847 112.915  1.00  0.00     0.183 C 
HETATM   38  N9  UNL     1      42.219   8.538 114.024  1.00  0.00    -0.374 N 
HETATM   39  N10 UNL     1      42.228   6.443 113.014  1.00  0.00    -0.064 NA
ATOM     40  H92 UNL     1      42.186   9.555 113.953  1.00  0.00     0.158 HD
ATOM     41  H91 UNL     1      42.277   8.065 114.926  1.00  0.00     0.158 HD
ENDBRANCH  34  35
ENDBRANCH  33  34
ENDBRANCH  32  33
ENDBRANCH  31  32
ENDBRANCH  30  31
ENDBRANCH  29  30
ENDBRANCH  28  29
ENDBRANCH  27  28
ENDBRANCH   1  27
TORSDOF 14
ENDMDL
MODEL 3
REMARK VINA RESULT: -8.327457350      3.055      8.298
REMARK  14 active torsions:
REMARK  status: ('A' for Active; 'I' for Inactive)
REMARK    1  A    between atoms: N1_2  and  C2_3 
REMARK       I    between atoms: N1_2  and  C23_37 
REMARK    2  A    between atoms: C2_3  and  C3_4 
REMARK    3  A    between atoms: C3_4  and  C4_5 
REMARK    4  A    between atoms: C4_5  and  C5_6 
REMARK    5  A    between atoms: C5_6  and  C6_7 
REMARK    6  A    between atoms: C6_7  and  C7_8 
REMARK    7  A    between atoms: C7_8  and  C8_9 
REMARK    8  A    between atoms: C8_9  and  C9_10 
REMARK    9  A    between atoms: C9_10  and  N2_11 
REMARK       I    between atoms: N2_11  and  C10_13 
REMARK       I    between atoms: C10_13  and  N3_15 
REMARK       I    between atoms: N4_18  and  C13_19 
REMARK   10  A    between atoms: C15_25  and  C16_26 
REMARK       I    between atoms: C16_26  and  N7_28 
REMARK   11  A    between atoms: N7_28  and  C17_30 
REMARK   12  A    between atoms: C17_30  and  C18_31 
REMARK   13  A    between atoms: C18_31  and  C19_32 
REMARK   14  A    between atoms: C19_32  and  N8_33 
ROOT
HETATM    1  N2  UNL     1      39.518   9.568 108.924  1.00  0.00    -0.343 N 
ATOM      2  H2  UNL     1      39.918  10.218 108.247  1.00  0.00     0.164 HD
HETATM    3  C10 UNL     1      40.017   9.603 110.240  1.00  0.00     0.319 C 
HETATM    4  O1  UNL     1      39.540   8.790 111.115  1.00  0.00    -0.247 OA
HETATM    5  N3  UNL     1      41.024  10.471 110.700  1.00  0.00    -0.318 N 
HETATM    6  C11 UNL     1      41.643  11.426 109.828  1.00  0.00     0.148 C 
HETATM    7  C12 UNL     1      41.512  12.831 110.413  1.00  0.00     0.145 C 
HETATM    8  N4  UNL     1      41.569  12.778 111.864  1.00  0.00    -0.352 N 
HETATM    9  C13 UNL     1      41.024  13.776 112.707  1.00  0.00     0.184 C 
HETATM   10  N5  UNL     1      39.784  14.074 112.587  1.00  0.00    -0.374 N 
ATOM     11  H51 UNL     1      39.391  14.793 113.194  1.00  0.00     0.158 HD
ATOM     12  H52 UNL     1      39.215  13.591 111.892  1.00  0.00     0.158 HD
HETATM   13  N6  UNL     1      41.815  14.446 113.671  1.00  0.00    -0.064 NA
HETATM   14  C14 UNL     1      42.217  11.642 112.444  1.00  0.00     0.160 C 
HETATM   15  C15 UNL     1      41.444  10.401 112.076  1.00  0.00     0.199 C 
ENDROOT
BRANCH  15  16
HETATM   16  C16 UNL     1      42.188   9.143 112.369  1.00  0.00     0.242 C 
HETATM   17  O2  UNL     1      43.322   8.916 111.877  1.00  0.00    -0.271 OA
HETATM   18  N7  UNL     1      41.622   8.167 113.219  1.00  0.00    -0.359 N 
ATOM     19  H7  UNL     1      40.702   8.328 113.628  1.00  0.00     0.162 HD
BRANCH  18  20
HETATM   20  C17 UNL     1      42.325   6.954 113.515  1.00  0.00     0.124 C 
BRANCH  20  21
HETATM   21  C18 UNL     1      43.050   6.932 114.825  1.00  0.00     0.047 C 
BRANCH  21  22
HETATM   22  C19 UNL     1      42.172   6.140 115.787  1.00  0.00     0.237 C 
BRANCH  22  23
HETATM   23  N8  UNL     1      42.935   5.310 116.672  1.00  0.00    -0.079 N 
HETATM   24  C20 UNL     1      44.049   6.118 117.172  1.00  0.00     0.271 C 
HETATM   25  C21 UNL     1      42.086   4.893 117.759  1.00  0.00     0.271 C 
HETATM   26  C22 UNL     1      43.519   4.155 116.010  1.00  0.00     0.271 C 
ENDBRANCH  22  23
ENDBRANCH  21  22
ENDBRANCH  20  21
ENDBRANCH  18  20
ENDBRANCH  15  16
BRANCH   1  27
HETATM   27  C9  UNL     1      38.462   8.660 108.460  1.00  0.00     0.128 C 
BRANCH  27  28
HETATM   28  C8  UNL     1      38.989   7.503 107.722  1.00  0.00     0.046 C 
BRANCH  28  29
HETATM   29  C7  UNL     1      40.197   6.880 108.279  1.00  0.00    -0.029 C 
BRANCH  29  30
HETATM   30  C6  UNL     1      41.434   6.691 107.532  1.00  0.00    -0.031 C 
BRANCH  30  31
HETATM   31  C5  UNL     1      42.294   7.803 107.113  1.00  0.00     0.027 C 
BRANCH  31  32
HETATM   32  C4  UNL     1      41.920   8.294 105.688  1.00  0.00     0.005 C 
BRANCH  32  33
HETATM   33  C3  UNL     1      41.223   9.617 105.710  1.00  0.00     0.020 C 
BRANCH  33  34
HETATM   34  C2  UNL     1      39.905   9.431 104.966  1.00  0.00     0.125 C 
BRANCH  34  35
HETATM   35  N1  UNL     1      39.000  10.522 105.274  1.00  0.00    -0.360 N 
HETATM   36  C1  UNL     1      37.561  10.320 105.230  1.00  0.00     0.152 C 
HETATM   37  C23 UNL     1      39.454  11.824 105.630  1.00  0.00     0.183 C 
HETATM   38  N9  UNL     1      39.757  12.696 104.703  1.00  0.00    -0.374 N 
HETATM   39  N10 UNL     1      39.594  12.219 106.974  1.00  0.00    -0.064 NA
ATOM     40  H92 UNL     1      39.656  12.410 103.730  1.00  0.00     0.158 HD
ATOM     41  H91 UNL     1      40.082  13.629 104.958  1.00  0.00     0.158 HD
ENDBRANCH  34  35
ENDBRANCH  33  34
ENDBRANCH  32  33
ENDBRANCH  31  32
ENDBRANCH  30  31
ENDBRANCH  29  30
ENDBRANCH  28  29
ENDBRANCH  27  28
ENDBRANCH   1  27
TORSDOF 14
ENDMDL
MODEL 4
REMARK VINA RESULT: -8.231802534      1.142      1.676
REMARK  14 active torsions:
REMARK  status: ('A' for Active; 'I' for Inactive)
REMARK    1  A    between atoms: N1_2  and  C2_3 
REMARK       I    between atoms: N1_2  and  C23_37 
REMARK    2  A    between atoms: C2_3  and  C3_4 
REMARK    3  A    between atoms: C3_4  and  C4_5 
REMARK    4  A    between atoms: C4_5  and  C5_6 
REMARK    5  A    between atoms: C5_6  and  C6_7 
REMARK    6  A    between atoms: C6_7  and  C7_8 
REMARK    7  A    between atoms: C7_8  and  C8_9 
REMARK    8  A    between atoms: C8_9  and  C9_10 
REMARK    9  A    between atoms: C9_10  and  N2_11 
REMARK       I    between atoms: N2_11  and  C10_13 
REMARK       I    between atoms: C10_13  and  N3_15 
REMARK       I    between atoms: N4_18  and  C13_19 
REMARK   10  A    between atoms: C15_25  and  C16_26 
REMARK       I    between atoms: C16_26  and  N7_28 
REMARK   11  A    between atoms: N7_28  and  C17_30 
REMARK   12  A    between atoms: C17_30  and  C18_31 
REMARK   13  A    between atoms: C18_31  and  C19_32 
REMARK   14  A    between atoms: C19_32  and  N8_33 
ROOT
HETATM    1  N2  UNL     1      39.283   7.999 106.959  1.00  0.00    -0.343 N 
ATOM      2  H2  UNL     1      39.055   7.555 106.070  1.00  0.00     0.164 HD
HETATM    3  C10 UNL     1      39.559   9.379 106.951  1.00  0.00     0.319 C 
HETATM    4  O1  UNL     1      39.857   9.968 108.055  1.00  0.00    -0.247 OA
HETATM    5  N3  UNL     1      39.540  10.201 105.808  1.00  0.00    -0.318 N 
HETATM    6  C11 UNL     1      39.225   9.673 104.514  1.00  0.00     0.148 C 
HETATM    7  C12 UNL     1      38.059  10.448 103.902  1.00  0.00     0.145 C 
HETATM    8  N4  UNL     1      38.115  11.841 104.309  1.00  0.00    -0.352 N 
HETATM    9  C13 UNL     1      36.988  12.698 104.325  1.00  0.00     0.184 C 
HETATM   10  N5  UNL     1      35.962  12.353 105.009  1.00  0.00    -0.374 N 
ATOM     11  H51 UNL     1      35.150  12.970 105.021  1.00  0.00     0.158 HD
ATOM     12  H52 UNL     1      35.972  11.473 105.525  1.00  0.00     0.158 HD
HETATM   13  N6  UNL     1      36.974  13.919 103.608  1.00  0.00    -0.064 NA
HETATM   14  C14 UNL     1      39.391  12.347 104.710  1.00  0.00     0.160 C 
HETATM   15  C15 UNL     1      39.844  11.603 105.940  1.00  0.00     0.199 C 
ENDROOT
BRANCH  15  16
HETATM   16  C16 UNL     1      41.281  11.833 106.266  1.00  0.00     0.242 C 
HETATM   17  O2  UNL     1      42.200  11.469 105.491  1.00  0.00    -0.271 OA
HETATM   18  N7  UNL     1      41.639  12.478 107.471  1.00  0.00    -0.359 N 
ATOM     19  H7  UNL     1      40.910  12.780 108.116  1.00  0.00     0.162 HD
BRANCH  18  20
HETATM   20  C17 UNL     1      43.015  12.712 107.797  1.00  0.00     0.124 C 
BRANCH  20  21
HETATM   21  C18 UNL     1      43.471  14.134 107.687  1.00  0.00     0.047 C 
BRANCH  21  22
HETATM   22  C19 UNL     1      42.213  14.971 107.482  1.00  0.00     0.237 C 
BRANCH  22  23
HETATM   23  N8  UNL     1      42.055  15.981 108.488  1.00  0.00    -0.079 N 
HETATM   24  C20 UNL     1      41.789  17.244 107.796  1.00  0.00     0.271 C 
HETATM   25  C21 UNL     1      40.943  15.623 109.330  1.00  0.00     0.271 C 
HETATM   26  C22 UNL     1      43.254  16.185 109.285  1.00  0.00     0.271 C 
ENDBRANCH  22  23
ENDBRANCH  21  22
ENDBRANCH  20  21
ENDBRANCH  18  20
ENDBRANCH  15  16
BRANCH   1  27
HETATM   27  C9  UNL     1      39.299   7.156 108.161  1.00  0.00     0.128 C 
BRANCH  27  28
HETATM   28  C8  UNL     1      40.243   6.033 108.055  1.00  0.00     0.046 C 
BRANCH  28  29
HETATM   29  C7  UNL     1      41.589   6.366 107.573  1.00  0.00    -0.029 C 
BRANCH  29  30
HETATM   30  C6  UNL     1      42.468   7.335 108.215  1.00  0.00    -0.031 C 
BRANCH  30  31
HETATM   31  C5  UNL     1      43.931   7.234 108.184  1.00  0.00     0.027 C 
BRANCH  31  32
HETATM   32  C4  UNL     1      44.559   7.777 109.497  1.00  0.00     0.005 C 
BRANCH  32  33
HETATM   33  C3  UNL     1      43.530   8.032 110.553  1.00  0.00     0.020 C 
BRANCH  33  34
HETATM   34  C2  UNL     1      43.425   9.546 110.707  1.00  0.00     0.125 C 
BRANCH  34  35
HETATM   35  N1  UNL     1      42.221   9.890 111.439  1.00  0.00    -0.360 N 
HETATM   36  C1  UNL     1      41.262   8.861 111.806  1.00  0.00     0.152 C 
HETATM   37  C23 UNL     1      41.913  11.223 111.833  1.00  0.00     0.183 C 
HETATM   38  N9  UNL     1      41.316  12.039 111.003  1.00  0.00    -0.374 N 
HETATM   39  N10 UNL     1      42.235  11.710 113.115  1.00  0.00    -0.064 NA
ATOM     40  H92 UNL     1      41.083  11.686 110.075  1.00  0.00     0.158 HD
ATOM     41  H91 UNL     1      41.095  12.994 111.286  1.00  0.00     0.158 HD
ENDBRANCH  34  35
ENDBRANCH  33  34
ENDBRANCH  32  33
ENDBRANCH  31  32
ENDBRANCH  30  31
ENDBRANCH  29  30
ENDBRANCH  28  29
ENDBRANCH  27  28
ENDBRANCH   1  27
TORSDOF 14
ENDMDL
MODEL 5
REMARK VINA RESULT: -8.160936844      2.270      7.507
REMARK  14 active torsions:
REMARK  status: ('A' for Active; 'I' for Inactive)
REMARK    1  A    between atoms: N1_2  and  C2_3 
REMARK       I    between atoms: N1_2  and  C23_37 
REMARK    2  A    between atoms: C2_3  and  C3_4 
REMARK    3  A    between atoms: C3_4  and  C4_5 
REMARK    4  A    between atoms: C4_5  and  C5_6 
REMARK    5  A    between atoms: C5_6  and  C6_7 
REMARK    6  A    between atoms: C6_7  and  C7_8 
REMARK    7  A    between atoms: C7_8  and  C8_9 
REMARK    8  A    between atoms: C8_9  and  C9_10 
REMARK    9  A    between atoms: C9_10  and  N2_11 
REMARK       I    between atoms: N2_11  and  C10_13 
REMARK       I    between atoms: C10_13  and  N3_15 
REMARK       I    between atoms: N4_18  and  C13_19 
REMARK   10  A    between atoms: C15_25  and  C16_26 
REMARK       I    between atoms: C16_26  and  N7_28 
REMARK   11  A    between atoms: N7_28  and  C17_30 
REMARK   12  A    between atoms: C17_30  and  C18_31 
REMARK   13  A    between atoms: C18_31  and  C19_32 
REMARK   14  A    between atoms: C19_32  and  N8_33 
ROOT
HETATM    1  N2  UNL     1      42.722  11.567 108.450  1.00  0.00    -0.343 N 
ATOM      2  H2  UNL     1      43.716  11.421 108.624  1.00  0.00     0.164 HD
HETATM    3  C10 UNL     1      41.837  10.524 108.782  1.00  0.00     0.319 C 
HETATM    4  O1  UNL     1      40.578  10.674 108.567  1.00  0.00    -0.247 OA
HETATM    5  N3  UNL     1      42.216   9.291 109.345  1.00  0.00    -0.318 N 
HETATM    6  C11 UNL     1      43.587   8.992 109.635  1.00  0.00     0.148 C 
HETATM    7  C12 UNL     1      43.741   8.609 111.106  1.00  0.00     0.145 C 
HETATM    8  N4  UNL     1      42.557   7.906 111.567  1.00  0.00    -0.352 N 
HETATM    9  C13 UNL     1      42.167   7.834 112.926  1.00  0.00     0.184 C 
HETATM   10  N5  UNL     1      41.992   8.924 113.575  1.00  0.00    -0.374 N 
ATOM     11  H51 UNL     1      41.712   8.873 114.555  1.00  0.00     0.158 HD
ATOM     12  H52 UNL     1      42.135   9.818 113.106  1.00  0.00     0.158 HD
HETATM   13  N6  UNL     1      41.970   6.592 113.577  1.00  0.00    -0.064 NA
HETATM   14  C14 UNL     1      41.759   7.260 110.570  1.00  0.00     0.160 C 
HETATM   15  C15 UNL     1      41.205   8.307 109.637  1.00  0.00     0.199 C 
ENDROOT
BRANCH  15  16
HETATM   16  C16 UNL     1      40.615   7.729 108.397  1.00  0.00     0.242 C 
HETATM   17  O2  UNL     1      41.284   6.996 107.626  1.00  0.00    -0.271 OA
HETATM   18  N7  UNL     1      39.269   7.998 108.061  1.00  0.00    -0.359 N 
ATOM     19  H7  UNL     1      38.707   8.592 108.670  1.00  0.00     0.162 HD
BRANCH  18  20
HETATM   20  C17 UNL     1      38.684   7.446 106.875  1.00  0.00     0.124 C 
BRANCH  20  21
HETATM   21  C18 UNL     1      38.041   8.435 105.953  1.00  0.00     0.047 C 
BRANCH  21  22
HETATM   22  C19 UNL     1      39.130   9.430 105.567  1.00  0.00     0.237 C 
BRANCH  22  23
HETATM   23  N8  UNL     1      38.623  10.760 105.395  1.00  0.00    -0.079 N 
HETATM   24  C20 UNL     1      37.866  10.777 104.141  1.00  0.00     0.271 C 
HETATM   25  C21 UNL     1      37.765  11.075 106.508  1.00  0.00     0.271 C 
HETATM   26  C22 UNL     1      39.673  11.758 105.262  1.00  0.00     0.271 C 
ENDBRANCH  22  23
ENDBRANCH  21  22
ENDBRANCH  20  21
ENDBRANCH  18  20
ENDBRANCH  15  16
BRANCH   1  27
HETATM   27  C9  UNL     1      42.310  12.851 107.869  1.00  0.00     0.128 C 
BRANCH  27  28
HETATM   28  C8  UNL     1      43.450  13.731 107.567  1.00  0.00     0.046 C 
BRANCH  28  29
HETATM   29  C7  UNL     1      43.322  15.125 108.009  1.00  0.00    -0.029 C 
BRANCH  29  30
HETATM   30  C6  UNL     1      42.278  16.032 107.551  1.00  0.00    -0.031 C 
BRANCH  30  31
HETATM   31  C5  UNL     1      41.431  16.806 108.466  1.00  0.00     0.027 C 
BRANCH  31  32
HETATM   32  C4  UNL     1      40.429  15.885 109.216  1.00  0.00     0.005 C 
BRANCH  32  33
HETATM   33  C3  UNL     1      40.748  15.771 110.673  1.00  0.00     0.020 C 
BRANCH  33  34
HETATM   34  C2  UNL     1      40.808  14.281 110.993  1.00  0.00     0.125 C 
BRANCH  34  35
HETATM   35  N1  UNL     1      41.028  14.085 112.413  1.00  0.00    -0.360 N 
HETATM   36  C1  UNL     1      39.985  14.412 113.371  1.00  0.00     0.152 C 
HETATM   37  C23 UNL     1      42.247  13.573 112.942  1.00  0.00     0.183 C 
HETATM   38  N9  UNL     1      43.256  14.372 113.172  1.00  0.00    -0.374 N 
HETATM   39  N10 UNL     1      42.412  12.205 113.233  1.00  0.00    -0.064 NA
ATOM     40  H92 UNL     1      43.137  15.363 112.961  1.00  0.00     0.158 HD
ATOM     41  H91 UNL     1      44.130  14.006 113.551  1.00  0.00     0.158 HD
ENDBRANCH  34  35
ENDBRANCH  33  34
ENDBRANCH  32  33
ENDBRANCH  31  32
ENDBRANCH  30  31
ENDBRANCH  29  30
ENDBRANCH  28  29
ENDBRANCH  27  28
ENDBRANCH   1  27
TORSDOF 14
ENDMDL
