MODEL 1
REMARK VINA RESULT: -8.663730611      0.000      0.000
REMARK  17 active torsions:
REMARK  status: ('A' for Active; 'I' for Inactive)
REMARK    1  A    between atoms: C2_2  and  C3_3 
REMARK    2  A    between atoms: C3_3  and  C4_4 
REMARK    3  A    between atoms: C4_4  and  C5_5 
REMARK    4  A    between atoms: C5_5  and  C6_6 
REMARK    5  A    between atoms: C6_6  and  C7_7 
REMARK    6  A    between atoms: C7_7  and  C8_8 
REMARK    7  A    between atoms: C8_8  and  C9_9 
REMARK    8  A    between atoms: C9_9  and  C10_10 
REMARK    9  A    between atoms: C10_10  and  N1_11 
REMARK   10  A    between atoms: N1_11  and  C11_12 
REMARK   11  A    between atoms: C11_12  and  C12_13 
REMARK       I    between atoms: C12_13  and  N2_15 
REMARK   12  A    between atoms: N2_15  and  C13_17 
REMARK   13  A    between atoms: C13_17  and  C14_18 
REMARK   14  A    between atoms: C14_18  and  N3_19 
REMARK   15  A    between atoms: C14_18  and  N4_23 
REMARK   16  A    between atoms: C21_34  and  C23_36 
REMARK   17  A    between atoms: C23_36  and  N6_37 
ROOT
HETATM    1  N1  UNL     1      41.393   9.779 110.674  1.00  0.00    -0.035 N 
HETATM    2  C15 UNL     1      42.719   9.384 110.338  1.00  0.00     0.241 C 
HETATM    3  C16 UNL     1      43.316  10.346 109.280  1.00  0.00     0.056 C 
HETATM    4  C17 UNL     1      43.470  11.653 109.998  1.00  0.00     0.241 C 
HETATM    5  N5  UNL     1      42.199  12.130 110.449  1.00  0.00    -0.042 N 
HETATM    6  C18 UNL     1      42.500  13.099 111.518  1.00  0.00     0.239 C 
HETATM    7  C19 UNL     1      43.478  14.150 111.094  1.00  0.00     0.029 C 
HETATM    8  C20 UNL     1      42.879  14.987 109.995  1.00  0.00     0.014 C 
HETATM    9  C21 UNL     1      41.697  14.350 109.369  1.00  0.00    -0.004 C 
HETATM   10  C22 UNL     1      40.440  15.019 109.959  1.00  0.00     0.018 C 
HETATM   11  C25 UNL     1      41.596  12.882 109.370  1.00  0.00     0.250 C 
HETATM   12  C26 UNL     1      41.268  11.201 110.929  1.00  0.00     0.473 C 
ENDROOT
BRANCH   1  13
HETATM   13  C10 UNL     1      40.462   9.530 109.598  1.00  0.00     0.240 C 
BRANCH  13  14
HETATM   14  C9  UNL     1      39.567   8.385 109.575  1.00  0.00     0.028 C 
BRANCH  14  15
HETATM   15  C8  UNL     1      39.747   7.354 108.500  1.00  0.00     0.002 C 
BRANCH  15  16
HETATM   16  C7  UNL     1      41.156   6.784 108.493  1.00  0.00     0.000 C 
BRANCH  16  17
HETATM   17  C6  UNL     1      41.770   6.719 107.130  1.00  0.00     0.000 C 
BRANCH  17  18
HETATM   18  C5  UNL     1      42.223   8.085 106.643  1.00  0.00     0.000 C 
BRANCH  18  19
HETATM   19  C4  UNL     1      41.546   8.399 105.335  1.00  0.00     0.000 C 
BRANCH  19  20
HETATM   20  C3  UNL     1      40.349   9.293 105.570  1.00  0.00    -0.000 C 
BRANCH  20  21
HETATM   21  C2  UNL     1      39.237   9.053 104.580  1.00  0.00    -0.005 C 
HETATM   22  C1  UNL     1      38.097   8.378 105.348  1.00  0.00     0.005 C 
ENDBRANCH  20  21
ENDBRANCH  19  20
ENDBRANCH  18  19
ENDBRANCH  17  18
ENDBRANCH  16  17
ENDBRANCH  15  16
ENDBRANCH  14  15
ENDBRANCH  13  14
ENDBRANCH   1  13
BRANCH   1  23
HETATM   23  C11 UNL     1      40.943   9.106 111.858  1.00  0.00     0.341 C 
BRANCH  23  24
HETATM   24  C12 UNL     1      41.776   8.046 112.438  1.00  0.00     0.243 C 
HETATM   25  O1  UNL     1      42.051   6.964 111.914  1.00  0.00    -0.272 OA
HETATM   26  N2  UNL     1      42.305   8.314 113.730  1.00  0.00    -0.356 N 
ATOM     27  H2  UNL     1      42.105   9.194 114.206  1.00  0.00     0.162 HD
BRANCH  26  28
HETATM   28  C13 UNL     1      43.133   7.305 114.346  1.00  0.00     0.184 C 
BRANCH  28  29
HETATM   29  C14 UNL     1      42.305   6.201 114.966  1.00  0.00     0.395 C 
BRANCH  29  30
HETATM   30  N3  UNL     1      41.814   6.577 116.273  1.00  0.00    -0.049 N 
ATOM     31  H33 UNL     1      42.394   7.302 116.696  1.00  0.00     0.276 HD
ATOM     32  H32 UNL     1      40.938   7.096 116.207  1.00  0.00     0.276 HD
ATOM     33  H31 UNL     1      41.723   5.767 116.886  1.00  0.00     0.276 HD
ENDBRANCH  29  30
BRANCH  29  34
HETATM   34  N4  UNL     1      43.157   5.044 115.089  1.00  0.00    -0.049 N 
ATOM     35  H43 UNL     1      42.768   4.213 114.644  1.00  0.00     0.276 HD
ATOM     36  H42 UNL     1      44.005   5.111 114.524  1.00  0.00     0.276 HD
ATOM     37  H41 UNL     1      43.348   4.913 116.082  1.00  0.00     0.276 HD
ENDBRANCH  29  34
ENDBRANCH  28  29
ENDBRANCH  26  28
ENDBRANCH  23  24
ENDBRANCH   1  23
BRANCH   9  38
HETATM   38  C23 UNL     1      41.721  14.775 107.882  1.00  0.00     0.132 C 
BRANCH  38  39
HETATM   39  N6  UNL     1      41.621  13.647 107.019  1.00  0.00    -0.366 N 
HETATM   40  C24 UNL     1      42.637  13.052 106.498  1.00  0.00     0.196 C 
HETATM   41  N7  UNL     1      43.941  13.551 106.804  1.00  0.00    -0.067 NA
HETATM   42  N8  UNL     1      42.539  11.937 105.642  1.00  0.00    -0.067 NA
ATOM     43  H6  UNL     1      40.691  13.288 106.801  1.00  0.00     0.161 HD
ENDBRANCH  38  39
ENDBRANCH   9  38
TORSDOF 17
ENDMDL
MODEL 2
REMARK VINA RESULT: -8.656162181      0.789      1.694
REMARK  17 active torsions:
REMARK  status: ('A' for Active; 'I' for Inactive)
REMARK    1  A    between atoms: C2_2  and  C3_3 
REMARK    2  A    between atoms: C3_3  and  C4_4 
REMARK    3  A    between atoms: C4_4  and  C5_5 
REMARK    4  A    between atoms: C5_5  and  C6_6 
REMARK    5  A    between atoms: C6_6  and  C7_7 
REMARK    6  A    between atoms: C7_7  and  C8_8 
REMARK    7  A    between atoms: C8_8  and  C9_9 
REMARK    8  A    between atoms: C9_9  and  C10_10 
REMARK    9  A    between atoms: C10_10  and  N1_11 
REMARK   10  A    between atoms: N1_11  and  C11_12 
REMARK   11  A    between atoms: C11_12  and  C12_13 
REMARK       I    between atoms: C12_13  and  N2_15 
REMARK   12  A    between atoms: N2_15  and  C13_17 
REMARK   13  A    between atoms: C13_17  and  C14_18 
REMARK   14  A    between atoms: C14_18  and  N3_19 
REMARK   15  A    between atoms: C14_18  and  N4_23 
REMARK   16  A    between atoms: C21_34  and  C23_36 
REMARK   17  A    between atoms: C23_36  and  N6_37 
ROOT
HETATM    1  N1  UNL     1      41.556   9.796 110.817  1.00  0.00    -0.035 N 
HETATM    2  C15 UNL     1      42.853   9.326 110.469  1.00  0.00     0.241 C 
HETATM    3  C16 UNL     1      43.459  10.202 109.344  1.00  0.00     0.056 C 
HETATM    4  C17 UNL     1      43.690  11.538 109.985  1.00  0.00     0.241 C 
HETATM    5  N5  UNL     1      42.454  12.094 110.442  1.00  0.00    -0.042 N 
HETATM    6  C18 UNL     1      42.827  13.105 111.449  1.00  0.00     0.239 C 
HETATM    7  C19 UNL     1      43.836  14.087 110.942  1.00  0.00     0.029 C 
HETATM    8  C20 UNL     1      43.242  14.889 109.815  1.00  0.00     0.014 C 
HETATM    9  C21 UNL     1      42.016  14.273 109.256  1.00  0.00    -0.004 C 
HETATM   10  C22 UNL     1      40.806  15.027 109.842  1.00  0.00     0.018 C 
HETATM   11  C25 UNL     1      41.853  12.813 109.340  1.00  0.00     0.250 C 
HETATM   12  C26 UNL     1      41.499  11.234 110.998  1.00  0.00     0.473 C 
ENDROOT
BRANCH   1  13
HETATM   13  C10 UNL     1      40.584   9.532 109.782  1.00  0.00     0.240 C 
BRANCH  13  14
HETATM   14  C9  UNL     1      39.344   8.812 110.026  1.00  0.00     0.028 C 
BRANCH  14  15
HETATM   15  C8  UNL     1      38.301   8.795 108.948  1.00  0.00     0.002 C 
BRANCH  15  16
HETATM   16  C7  UNL     1      38.791   9.464 107.674  1.00  0.00     0.000 C 
BRANCH  16  17
HETATM   17  C6  UNL     1      38.604   8.629 106.447  1.00  0.00     0.000 C 
BRANCH  17  18
HETATM   18  C5  UNL     1      39.811   8.688 105.528  1.00  0.00     0.000 C 
BRANCH  18  19
HETATM   19  C4  UNL     1      41.064   8.816 106.355  1.00  0.00     0.000 C 
BRANCH  19  20
HETATM   20  C3  UNL     1      41.866   7.535 106.286  1.00  0.00    -0.000 C 
BRANCH  20  21
HETATM   21  C2  UNL     1      42.166   6.960 107.647  1.00  0.00    -0.005 C 
HETATM   22  C1  UNL     1      40.977   6.073 108.026  1.00  0.00     0.005 C 
ENDBRANCH  20  21
ENDBRANCH  19  20
ENDBRANCH  18  19
ENDBRANCH  17  18
ENDBRANCH  16  17
ENDBRANCH  15  16
ENDBRANCH  14  15
ENDBRANCH  13  14
ENDBRANCH   1  13
BRANCH   1  23
HETATM   23  C11 UNL     1      41.111   9.208 112.048  1.00  0.00     0.341 C 
BRANCH  23  24
HETATM   24  C12 UNL     1      41.850   8.067 112.602  1.00  0.00     0.243 C 
HETATM   25  O1  UNL     1      42.006   6.968 112.065  1.00  0.00    -0.272 OA
HETATM   26  N2  UNL     1      42.431   8.272 113.883  1.00  0.00    -0.356 N 
ATOM     27  H2  UNL     1      42.329   9.162 114.370  1.00  0.00     0.162 HD
BRANCH  26  28
HETATM   28  C13 UNL     1      43.170   7.181 114.474  1.00  0.00     0.184 C 
BRANCH  28  29
HETATM   29  C14 UNL     1      42.251   6.109 115.018  1.00  0.00     0.395 C 
BRANCH  29  30
HETATM   30  N3  UNL     1      41.780   6.439 116.345  1.00  0.00    -0.049 N 
ATOM     31  H33 UNL     1      41.763   5.619 116.950  1.00  0.00     0.276 HD
ATOM     32  H32 UNL     1      42.464   6.997 116.855  1.00  0.00     0.276 HD
ATOM     33  H31 UNL     1      40.870   6.900 116.314  1.00  0.00     0.276 HD
ENDBRANCH  29  30
BRANCH  29  34
HETATM   34  N4  UNL     1      43.006   4.882 115.068  1.00  0.00    -0.049 N 
ATOM     35  H43 UNL     1      42.498   4.085 114.686  1.00  0.00     0.276 HD
ATOM     36  H42 UNL     1      43.788   4.867 114.412  1.00  0.00     0.276 HD
ATOM     37  H41 UNL     1      43.295   4.745 116.037  1.00  0.00     0.276 HD
ENDBRANCH  29  34
ENDBRANCH  28  29
ENDBRANCH  26  28
ENDBRANCH  23  24
ENDBRANCH   1  23
BRANCH   9  38
HETATM   38  C23 UNL     1      42.015  14.616 107.748  1.00  0.00     0.132 C 
BRANCH  38  39
HETATM   39  N6  UNL     1      41.103  13.791 107.030  1.00  0.00    -0.366 N 
HETATM   40  C24 UNL     1      41.457  12.968 106.107  1.00  0.00     0.196 C 
HETATM   41  N7  UNL     1      42.846  12.873 105.783  1.00  0.00    -0.067 NA
HETATM   42  N8  UNL     1      40.554  12.153 105.394  1.00  0.00    -0.067 NA
ATOM     43  H6  UNL     1      40.111  13.857 107.261  1.00  0.00     0.161 HD
ENDBRANCH  38  39
ENDBRANCH   9  38
TORSDOF 17
ENDMDL
MODEL 3
REMARK VINA RESULT: -8.567647082      1.472      5.367
REMARK  17 active torsions:
REMARK  status: ('A' for Active; 'I' for Inactive)
REMARK    1  A    between atoms: C2_2  and  C3_3 
REMARK    2  A    between atoms: C3_3  and  C4_4 
REMARK    3  A    between atoms: C4_4  and  C5_5 
REMARK    4  A    between atoms: C5_5  and  C6_6 
REMARK    5  A    between atoms: C6_6  and  C7_7 
REMARK    6  A    between atoms: C7_7  and  C8_8 
REMARK    7  A    between atoms: C8_8  and  C9_9 
REMARK    8  A    between atoms: C9_9  and  C10_10 
REMARK    9  A    between atoms: C10_10  and  N1_11 
REMARK   10  A    between atoms: N1_11  and  C11_12 
REMARK   11  A    between atoms: C11_12  and  C12_13 
REMARK       I    between atoms: C12_13  and  N2_15 
REMARK   12  A    between atoms: N2_15  and  C13_17 
REMARK   13  A    between atoms: C13_17  and  C14_18 
REMARK   14  A    between atoms: C14_18  and  N3_19 
REMARK   15  A    between atoms: C14_18  and  N4_23 
REMARK   16  A    between atoms: C21_34  and  C23_36 
REMARK   17  A    between atoms: C23_36  and  N6_37 
ROOT
HETATM    1  N1  UNL     1      42.366   8.896 111.238  1.00  0.00    -0.035 N 
HETATM    2  C15 UNL     1      41.118   8.989 111.917  1.00  0.00     0.241 C 
HETATM    3  C16 UNL     1      40.030   9.552 110.968  1.00  0.00     0.056 C 
HETATM    4  C17 UNL     1      39.832   8.482 109.937  1.00  0.00     0.241 C 
HETATM    5  N5  UNL     1      41.048   8.246 109.221  1.00  0.00    -0.042 N 
HETATM    6  C18 UNL     1      40.896   6.907 108.621  1.00  0.00     0.239 C 
HETATM    7  C19 UNL     1      39.634   6.764 107.829  1.00  0.00     0.029 C 
HETATM    8  C20 UNL     1      39.666   7.697 106.648  1.00  0.00     0.014 C 
HETATM    9  C21 UNL     1      40.701   8.749 106.777  1.00  0.00    -0.004 C 
HETATM   10  C22 UNL     1      41.906   8.327 105.914  1.00  0.00     0.018 C 
HETATM   11  C25 UNL     1      41.108   9.185 108.123  1.00  0.00     0.250 C 
HETATM   12  C26 UNL     1      42.258   8.291 109.924  1.00  0.00     0.473 C 
ENDROOT
BRANCH   1  13
HETATM   13  C10 UNL     1      42.945  10.194 110.982  1.00  0.00     0.240 C 
BRANCH  13  14
HETATM   14  C9  UNL     1      43.906  10.436 109.918  1.00  0.00     0.028 C 
BRANCH  14  15
HETATM   15  C8  UNL     1      43.791  11.702 109.121  1.00  0.00     0.002 C 
BRANCH  15  16
HETATM   16  C7  UNL     1      44.612  12.829 109.726  1.00  0.00     0.000 C 
BRANCH  16  17
HETATM   17  C6  UNL     1      44.020  14.186 109.508  1.00  0.00     0.000 C 
BRANCH  17  18
HETATM   18  C5  UNL     1      42.528  14.120 109.235  1.00  0.00     0.000 C 
BRANCH  18  19
HETATM   19  C4  UNL     1      41.774  14.537 110.471  1.00  0.00     0.000 C 
BRANCH  19  20
HETATM   20  C3  UNL     1      41.022  13.358 111.045  1.00  0.00    -0.000 C 
BRANCH  20  21
HETATM   21  C2  UNL     1      41.107  13.287 112.549  1.00  0.00    -0.005 C 
HETATM   22  C1  UNL     1      42.572  13.529 112.923  1.00  0.00     0.005 C 
ENDBRANCH  20  21
ENDBRANCH  19  20
ENDBRANCH  18  19
ENDBRANCH  17  18
ENDBRANCH  16  17
ENDBRANCH  15  16
ENDBRANCH  14  15
ENDBRANCH  13  14
ENDBRANCH   1  13
BRANCH   1  23
HETATM   23  C11 UNL     1      43.297   8.098 111.984  1.00  0.00     0.341 C 
BRANCH  23  24
HETATM   24  C12 UNL     1      42.786   7.154 112.985  1.00  0.00     0.243 C 
HETATM   25  O1  UNL     1      42.129   6.135 112.760  1.00  0.00    -0.272 OA
HETATM   26  N2  UNL     1      43.089   7.466 114.338  1.00  0.00    -0.356 N 
ATOM     27  H2  UNL     1      43.627   8.299 114.577  1.00  0.00     0.162 HD
BRANCH  26  28
HETATM   28  C13 UNL     1      42.610   6.569 115.364  1.00  0.00     0.184 C 
BRANCH  28  29
HETATM   29  C14 UNL     1      43.679   5.590 115.797  1.00  0.00     0.395 C 
BRANCH  29  30
HETATM   30  N3  UNL     1      45.002   6.071 115.467  1.00  0.00    -0.049 N 
ATOM     31  H33 UNL     1      45.693   5.765 116.153  1.00  0.00     0.276 HD
ATOM     32  H32 UNL     1      45.377   5.598 114.645  1.00  0.00     0.276 HD
ATOM     33  H31 UNL     1      45.014   7.085 115.353  1.00  0.00     0.276 HD
ENDBRANCH  29  30
BRANCH  29  34
HETATM   34  N4  UNL     1      43.432   4.352 115.101  1.00  0.00    -0.049 N 
ATOM     35  H43 UNL     1      44.160   3.655 115.255  1.00  0.00     0.276 HD
ATOM     36  H42 UNL     1      42.656   3.820 115.496  1.00  0.00     0.276 HD
ATOM     37  H41 UNL     1      43.299   4.580 114.116  1.00  0.00     0.276 HD
ENDBRANCH  29  34
ENDBRANCH  28  29
ENDBRANCH  26  28
ENDBRANCH  23  24
ENDBRANCH   1  23
BRANCH   9  38
HETATM   38  C23 UNL     1      40.124  10.003 106.079  1.00  0.00     0.132 C 
BRANCH  38  39
HETATM   39  N6  UNL     1      41.157  10.914 105.715  1.00  0.00    -0.366 N 
HETATM   40  C24 UNL     1      41.183  12.148 106.079  1.00  0.00     0.196 C 
HETATM   41  N7  UNL     1      40.116  12.633 106.897  1.00  0.00    -0.067 NA
HETATM   42  N8  UNL     1      42.203  13.051 105.717  1.00  0.00    -0.067 NA
ATOM     43  H6  UNL     1      41.920  10.568 105.132  1.00  0.00     0.161 HD
ENDBRANCH  38  39
ENDBRANCH   9  38
TORSDOF 17
ENDMDL
MODEL 4
REMARK VINA RESULT: -8.472656171      1.360      2.204
REMARK  17 active torsions:
REMARK  status: ('A' for Active; 'I' for Inactive)
REMARK    1  A    between atoms: C2_2  and  C3_3 
REMARK    2  A    between atoms: C3_3  and  C4_4 
REMARK    3  A    between atoms: C4_4  and  C5_5 
REMARK    4  A    between atoms: C5_5  and  C6_6 
REMARK    5  A    between atoms: C6_6  and  C7_7 
REMARK    6  A    between atoms: C7_7  and  C8_8 
REMARK    7  A    between atoms: C8_8  and  C9_9 
REMARK    8  A    between atoms: C9_9  and  C10_10 
REMARK    9  A    between atoms: C10_10  and  N1_11 
REMARK   10  A    between atoms: N1_11  and  C11_12 
REMARK   11  A    between atoms: C11_12  and  C12_13 
REMARK       I    between atoms: C12_13  and  N2_15 
REMARK   12  A    between atoms: N2_15  and  C13_17 
REMARK   13  A    between atoms: C13_17  and  C14_18 
REMARK   14  A    between atoms: C14_18  and  N3_19 
REMARK   15  A    between atoms: C14_18  and  N4_23 
REMARK   16  A    between atoms: C21_34  and  C23_36 
REMARK   17  A    between atoms: C23_36  and  N6_37 
ROOT
HETATM    1  N1  UNL     1      41.399   9.912 110.706  1.00  0.00    -0.035 N 
HETATM    2  C15 UNL     1      42.665   9.425 110.271  1.00  0.00     0.241 C 
HETATM    3  C16 UNL     1      43.253  10.355 109.180  1.00  0.00     0.056 C 
HETATM    4  C17 UNL     1      43.556  11.637 109.895  1.00  0.00     0.241 C 
HETATM    5  N5  UNL     1      42.359  12.200 110.441  1.00  0.00    -0.042 N 
HETATM    6  C18 UNL     1      42.809  13.130 111.493  1.00  0.00     0.239 C 
HETATM    7  C19 UNL     1      43.829  14.112 111.007  1.00  0.00     0.029 C 
HETATM    8  C20 UNL     1      43.216  15.005 109.961  1.00  0.00     0.014 C 
HETATM    9  C21 UNL     1      41.948  14.465 109.418  1.00  0.00    -0.004 C 
HETATM   10  C22 UNL     1      40.790  15.217 110.103  1.00  0.00     0.018 C 
HETATM   11  C25 UNL     1      41.738  13.009 109.415  1.00  0.00     0.250 C 
HETATM   12  C26 UNL     1      41.399  11.336 110.981  1.00  0.00     0.473 C 
ENDROOT
BRANCH   1  13
HETATM   13  C10 UNL     1      40.377   9.747 109.699  1.00  0.00     0.240 C 
BRANCH  13  14
HETATM   14  C9  UNL     1      39.322   8.752 109.798  1.00  0.00     0.028 C 
BRANCH  14  15
HETATM   15  C8  UNL     1      38.458   8.499 108.598  1.00  0.00     0.002 C 
BRANCH  15  16
HETATM   16  C7  UNL     1      38.644   9.566 107.532  1.00  0.00     0.000 C 
BRANCH  16  17
HETATM   17  C6  UNL     1      39.294   9.060 106.283  1.00  0.00     0.000 C 
BRANCH  17  18
HETATM   18  C5  UNL     1      40.396   9.985 105.798  1.00  0.00     0.000 C 
BRANCH  18  19
HETATM   19  C4  UNL     1      41.733   9.321 106.003  1.00  0.00     0.000 C 
BRANCH  19  20
HETATM   20  C3  UNL     1      41.558   7.823 106.116  1.00  0.00    -0.000 C 
BRANCH  20  21
HETATM   21  C2  UNL     1      42.262   7.241 107.315  1.00  0.00    -0.005 C 
HETATM   22  C1  UNL     1      41.327   6.182 107.907  1.00  0.00     0.005 C 
ENDBRANCH  20  21
ENDBRANCH  19  20
ENDBRANCH  18  19
ENDBRANCH  17  18
ENDBRANCH  16  17
ENDBRANCH  15  16
ENDBRANCH  14  15
ENDBRANCH  13  14
ENDBRANCH   1  13
BRANCH   1  23
HETATM   23  C11 UNL     1      40.987   9.259 111.914  1.00  0.00     0.341 C 
BRANCH  23  24
HETATM   24  C12 UNL     1      41.776   8.129 112.421  1.00  0.00     0.243 C 
HETATM   25  O1  UNL     1      42.012   7.077 111.822  1.00  0.00    -0.272 OA
HETATM   26  N2  UNL     1      42.306   8.285 113.730  1.00  0.00    -0.356 N 
ATOM     27  H2  UNL     1      42.137   9.136 114.267  1.00  0.00     0.162 HD
BRANCH  26  28
HETATM   28  C13 UNL     1      43.091   7.203 114.277  1.00  0.00     0.184 C 
BRANCH  28  29
HETATM   29  C14 UNL     1      42.222   6.156 114.937  1.00  0.00     0.395 C 
BRANCH  29  30
HETATM   30  N3  UNL     1      41.839   6.552 116.274  1.00  0.00    -0.049 N 
ATOM     31  H33 UNL     1      40.834   6.459 116.417  1.00  0.00     0.276 HD
ATOM     32  H32 UNL     1      42.160   5.879 116.969  1.00  0.00     0.276 HD
ATOM     33  H31 UNL     1      42.161   7.496 116.490  1.00  0.00     0.276 HD
ENDBRANCH  29  30
BRANCH  29  34
HETATM   34  N4  UNL     1      42.991   4.939 114.999  1.00  0.00    -0.049 N 
ATOM     35  H43 UNL     1      42.798   4.387 115.835  1.00  0.00     0.276 HD
ATOM     36  H42 UNL     1      42.697   4.244 114.312  1.00  0.00     0.276 HD
ATOM     37  H41 UNL     1      43.974   5.197 114.910  1.00  0.00     0.276 HD
ENDBRANCH  29  34
ENDBRANCH  28  29
ENDBRANCH  26  28
ENDBRANCH  23  24
ENDBRANCH   1  23
BRANCH   9  38
HETATM   38  C23 UNL     1      41.896  14.907 107.937  1.00  0.00     0.132 C 
BRANCH  38  39
HETATM   39  N6  UNL     1      41.347  16.215 107.805  1.00  0.00    -0.366 N 
HETATM   40  C24 UNL     1      41.960  17.195 107.240  1.00  0.00     0.196 C 
HETATM   41  N7  UNL     1      43.267  16.959 106.711  1.00  0.00    -0.067 NA
HETATM   42  N8  UNL     1      41.418  18.490 107.112  1.00  0.00    -0.067 NA
ATOM     43  H6  UNL     1      40.413  16.384 108.181  1.00  0.00     0.161 HD
ENDBRANCH  38  39
ENDBRANCH   9  38
TORSDOF 17
ENDMDL
MODEL 5
REMARK VINA RESULT: -8.445823081      1.150      1.846
REMARK  17 active torsions:
REMARK  status: ('A' for Active; 'I' for Inactive)
REMARK    1  A    between atoms: C2_2  and  C3_3 
REMARK    2  A    between atoms: C3_3  and  C4_4 
REMARK    3  A    between atoms: C4_4  and  C5_5 
REMARK    4  A    between atoms: C5_5  and  C6_6 
REMARK    5  A    between atoms: C6_6  and  C7_7 
REMARK    6  A    between atoms: C7_7  and  C8_8 
REMARK    7  A    between atoms: C8_8  and  C9_9 
REMARK    8  A    between atoms: C9_9  and  C10_10 
REMARK    9  A    between atoms: C10_10  and  N1_11 
REMARK   10  A    between atoms: N1_11  and  C11_12 
REMARK   11  A    between atoms: C11_12  and  C12_13 
REMARK       I    between atoms: C12_13  and  N2_15 
REMARK   12  A    between atoms: N2_15  and  C13_17 
REMARK   13  A    between atoms: C13_17  and  C14_18 
REMARK   14  A    between atoms: C14_18  and  N3_19 
REMARK   15  A    between atoms: C14_18  and  N4_23 
REMARK   16  A    between atoms: C21_34  and  C23_36 
REMARK   17  A    between atoms: C23_36  and  N6_37 
ROOT
HETATM    1  N1  UNL     1      42.173   9.018 110.445  1.00  0.00    -0.035 N 
HETATM    2  C15 UNL     1      43.585   8.855 110.355  1.00  0.00     0.241 C 
HETATM    3  C16 UNL     1      44.191   9.923 109.411  1.00  0.00     0.056 C 
HETATM    4  C17 UNL     1      43.996  11.223 110.132  1.00  0.00     0.241 C 
HETATM    5  N5  UNL     1      42.604  11.474 110.344  1.00  0.00    -0.042 N 
HETATM    6  C18 UNL     1      42.546  12.458 111.440  1.00  0.00     0.239 C 
HETATM    7  C19 UNL     1      43.394  13.664 111.187  1.00  0.00     0.029 C 
HETATM    8  C20 UNL     1      42.869  14.412 109.990  1.00  0.00     0.014 C 
HETATM    9  C21 UNL     1      41.940  13.602 109.170  1.00  0.00    -0.004 C 
HETATM   10  C22 UNL     1      40.504  14.041 109.520  1.00  0.00     0.018 C 
HETATM   11  C25 UNL     1      42.086  12.137 109.168  1.00  0.00     0.250 C 
HETATM   12  C26 UNL     1      41.770  10.394 110.661  1.00  0.00     0.473 C 
ENDROOT
BRANCH   1  13
HETATM   13  C10 UNL     1      41.502   8.640 109.223  1.00  0.00     0.240 C 
BRANCH  13  14
HETATM   14  C9  UNL     1      41.492   7.278 108.715  1.00  0.00     0.028 C 
BRANCH  14  15
HETATM   15  C8  UNL     1      41.733   7.057 107.251  1.00  0.00     0.002 C 
BRANCH  15  16
HETATM   16  C7  UNL     1      42.438   8.241 106.607  1.00  0.00     0.000 C 
BRANCH  16  17
HETATM   17  C6  UNL     1      41.578   9.001 105.647  1.00  0.00     0.000 C 
BRANCH  17  18
HETATM   18  C5  UNL     1      40.242   8.318 105.415  1.00  0.00     0.000 C 
BRANCH  18  19
HETATM   19  C4  UNL     1      39.143   9.149 106.026  1.00  0.00     0.000 C 
BRANCH  19  20
HETATM   20  C3  UNL     1      37.932   8.287 106.304  1.00  0.00    -0.000 C 
BRANCH  20  21
HETATM   21  C2  UNL     1      37.943   7.693 107.689  1.00  0.00    -0.005 C 
HETATM   22  C1  UNL     1      37.767   8.855 108.671  1.00  0.00     0.005 C 
ENDBRANCH  20  21
ENDBRANCH  19  20
ENDBRANCH  18  19
ENDBRANCH  17  18
ENDBRANCH  16  17
ENDBRANCH  15  16
ENDBRANCH  14  15
ENDBRANCH  13  14
ENDBRANCH   1  13
BRANCH   1  23
HETATM   23  C11 UNL     1      41.638   8.256 111.537  1.00  0.00     0.341 C 
BRANCH  23  24
HETATM   24  C12 UNL     1      42.272   8.358 112.857  1.00  0.00     0.243 C 
HETATM   25  O1  UNL     1      42.293   9.356 113.581  1.00  0.00    -0.272 OA
HETATM   26  N2  UNL     1      42.917   7.181 113.325  1.00  0.00    -0.356 N 
ATOM     27  H2  UNL     1      42.928   6.330 112.763  1.00  0.00     0.162 HD
BRANCH  26  28
HETATM   28  C13 UNL     1      43.555   7.227 114.619  1.00  0.00     0.184 C 
BRANCH  28  29
HETATM   29  C14 UNL     1      43.067   6.119 115.526  1.00  0.00     0.395 C 
BRANCH  29  30
HETATM   30  N3  UNL     1      43.059   4.843 114.846  1.00  0.00    -0.049 N 
ATOM     31  H33 UNL     1      42.483   4.871 114.005  1.00  0.00     0.276 HD
ATOM     32  H32 UNL     1      43.961   4.646 114.413  1.00  0.00     0.276 HD
ATOM     33  H31 UNL     1      42.771   4.089 115.470  1.00  0.00     0.276 HD
ENDBRANCH  29  30
BRANCH  29  34
HETATM   34  N4  UNL     1      41.724   6.457 115.929  1.00  0.00    -0.049 N 
ATOM     35  H43 UNL     1      41.321   7.215 115.379  1.00  0.00     0.276 HD
ATOM     36  H42 UNL     1      41.042   5.739 115.684  1.00  0.00     0.276 HD
ATOM     37  H41 UNL     1      41.750   6.659 116.928  1.00  0.00     0.276 HD
ENDBRANCH  29  34
ENDBRANCH  28  29
ENDBRANCH  26  28
ENDBRANCH  23  24
ENDBRANCH   1  23
BRANCH   9  38
HETATM   38  C23 UNL     1      42.155  14.054 107.707  1.00  0.00     0.132 C 
BRANCH  38  39
HETATM   39  N6  UNL     1      41.118  13.574 106.858  1.00  0.00    -0.366 N 
HETATM   40  C24 UNL     1      41.322  12.821 105.835  1.00  0.00     0.196 C 
HETATM   41  N7  UNL     1      42.667  12.442 105.533  1.00  0.00    -0.067 NA
HETATM   42  N8  UNL     1      40.296  12.347 104.992  1.00  0.00    -0.067 NA
ATOM     43  H6  UNL     1      40.157  13.842 107.073  1.00  0.00     0.161 HD
ENDBRANCH  38  39
ENDBRANCH   9  38
TORSDOF 17
ENDMDL
