MODEL 1
REMARK VINA RESULT: -8.488720572      0.000      0.000
REMARK  16 active torsions:
REMARK  status: ('A' for Active; 'I' for Inactive)
REMARK    1  A    between atoms: C3_3  and  C4_4 
REMARK    2  A    between atoms: C4_4  and  N1_5 
REMARK       I    between atoms: N2_8  and  C7_9 
REMARK       I    between atoms: C7_9  and  N3_11 
REMARK    3  A    between atoms: N3_11  and  C8_13 
REMARK    4  A    between atoms: C8_13  and  C9_14 
REMARK    5  A    between atoms: C9_14  and  C10_15 
REMARK    6  A    between atoms: C10_15  and  C11_16 
REMARK    7  A    between atoms: C11_16  and  C12_17 
REMARK    8  A    between atoms: C12_17  and  C13_18 
REMARK    9  A    between atoms: C13_18  and  C14_19 
REMARK   10  A    between atoms: C14_19  and  N4_20 
REMARK       I    between atoms: N4_20  and  C15_22 
REMARK   11  A    between atoms: N8_31  and  C18_32 
REMARK   12  A    between atoms: C19_33  and  C20_34 
REMARK   13  A    between atoms: C20_34  and  C21_35 
REMARK   14  A    between atoms: C21_35  and  C22_36 
REMARK   15  A    between atoms: C22_36  and  C23_37 
REMARK   16  A    between atoms: N9_39  and  N10_41 
ROOT
HETATM    1  C1  UNL     1      40.375  15.100 114.402  1.00  0.00     0.019 C 
HETATM    2  C2  UNL     1      40.465  15.427 113.251  1.00  0.00    -0.057 C 
HETATM    3  C3  UNL     1      40.578  15.803 111.827  1.00  0.00     0.117 C 
HETATM    4  N9  UNL     1      40.509  17.027 111.569  1.00  0.00    -0.298 N 
ATOM      5  H9  UNL     1      40.585  17.345 110.603  1.00  0.00     0.187 HD
ENDROOT
BRANCH   3   6
HETATM    6  C4  UNL     1      40.773  14.704 110.871  1.00  0.00     0.156 C 
BRANCH   6   7
HETATM    7  N1  UNL     1      41.747  13.728 111.137  1.00  0.00    -0.258 N 
HETATM    8  C5  UNL     1      41.388  12.584 111.829  1.00  0.00     0.110 C 
HETATM    9  C6  UNL     1      41.878  11.288 111.209  1.00  0.00     0.199 C 
HETATM   10  N2  UNL     1      41.965  11.426 109.758  1.00  0.00    -0.127 N 
HETATM   11  C7  UNL     1      41.315  10.553 108.895  1.00  0.00     0.337 C 
HETATM   12  C17 UNL     1      42.816  12.519 109.302  1.00  0.00     0.703 C 
HETATM   13  O1  UNL     1      40.674   9.597 109.474  1.00  0.00    -0.246 OA
HETATM   14  N3  UNL     1      41.276  10.584 107.508  1.00  0.00    -0.342 N 
ATOM     15  H3  UNL     1      41.755  11.343 107.024  1.00  0.00     0.164 HD
HETATM   16  N7  UNL     1      43.495  12.433 108.292  1.00  0.00    -0.232 N 
HETATM   17  N8  UNL     1      42.796  13.646 110.212  1.00  0.00    -0.092 N 
ATOM     18  H72 UNL     1      43.510  11.639 107.652  1.00  0.00     0.174 HD
ATOM     19  H71 UNL     1      44.091  13.197 107.974  1.00  0.00     0.174 HD
BRANCH  14  20
HETATM   20  C8  UNL     1      40.574   9.571 106.705  1.00  0.00     0.124 C 
BRANCH  20  21
HETATM   21  C9  UNL     1      41.515   8.629 106.069  1.00  0.00     0.020 C 
BRANCH  21  22
HETATM   22  C10 UNL     1      41.739   7.285 106.602  1.00  0.00     0.002 C 
BRANCH  22  23
HETATM   23  C11 UNL     1      42.587   7.005 107.762  1.00  0.00     0.000 C 
BRANCH  23  24
HETATM   24  C12 UNL     1      43.809   7.794 108.046  1.00  0.00     0.002 C 
BRANCH  24  25
HETATM   25  C13 UNL     1      44.372   7.600 109.398  1.00  0.00     0.020 C 
BRANCH  25  26
HETATM   26  C14 UNL     1      43.774   8.334 110.539  1.00  0.00     0.122 C 
BRANCH  26  27
HETATM   27  N4  UNL     1      42.766   7.689 111.307  1.00  0.00    -0.365 N 
HETATM   28  C15 UNL     1      42.644   7.663 112.697  1.00  0.00     0.183 C 
HETATM   29  N5  UNL     1      42.524   8.837 113.464  1.00  0.00    -0.064 NA
HETATM   30  N6  UNL     1      42.607   6.522 113.317  1.00  0.00    -0.369 N 
HETATM   31  C16 UNL     1      42.485   6.407 114.740  1.00  0.00     0.148 C 
ATOM     32  H6  UNL     1      42.669   5.667 112.765  1.00  0.00     0.161 HD
ATOM     33  H4  UNL     1      42.050   7.187 110.782  1.00  0.00     0.162 HD
ENDBRANCH  26  27
ENDBRANCH  25  26
ENDBRANCH  24  25
ENDBRANCH  23  24
ENDBRANCH  22  23
ENDBRANCH  21  22
ENDBRANCH  20  21
ENDBRANCH  14  20
BRANCH  17  34
HETATM   34  C18 UNL     1      43.790  14.673 110.186  1.00  0.00     0.131 C 
HETATM   35  C19 UNL     1      43.668  15.886 109.406  1.00  0.00    -0.007 C 
BRANCH  35  36
HETATM   36  C20 UNL     1      43.513  15.930 107.942  1.00  0.00     0.028 C 
BRANCH  36  37
HETATM   37  C21 UNL     1      42.023  16.244 107.599  1.00  0.00     0.004 C 
BRANCH  37  38
HETATM   38  C22 UNL     1      41.780  17.683 107.373  1.00  0.00    -0.000 C 
BRANCH  38  39
HETATM   39  C23 UNL     1      40.773  18.326 108.294  1.00  0.00    -0.005 C 
HETATM   40  C24 UNL     1      40.266  19.627 107.739  1.00  0.00     0.005 C 
ENDBRANCH  38  39
ENDBRANCH  37  38
ENDBRANCH  36  37
ENDBRANCH  35  36
ENDBRANCH  17  34
ENDBRANCH   6   7
ENDBRANCH   3   6
BRANCH   4  41
HETATM   41  N10 UNL     1      40.328  17.979 112.612  1.00  0.00    -0.344 N 
ATOM     42 2H10 UNL     1      39.773  17.714 113.426  1.00  0.00     0.176 HD
ATOM     43 1H10 UNL     1      40.745  18.908 112.547  1.00  0.00     0.176 HD
ENDBRANCH   4  41
TORSDOF 16
ENDMDL
MODEL 2
REMARK VINA RESULT: -8.452557194      1.099      1.521
REMARK  16 active torsions:
REMARK  status: ('A' for Active; 'I' for Inactive)
REMARK    1  A    between atoms: C3_3  and  C4_4 
REMARK    2  A    between atoms: C4_4  and  N1_5 
REMARK       I    between atoms: N2_8  and  C7_9 
REMARK       I    between atoms: C7_9  and  N3_11 
REMARK    3  A    between atoms: N3_11  and  C8_13 
REMARK    4  A    between atoms: C8_13  and  C9_14 
REMARK    5  A    between atoms: C9_14  and  C10_15 
REMARK    6  A    between atoms: C10_15  and  C11_16 
REMARK    7  A    between atoms: C11_16  and  C12_17 
REMARK    8  A    between atoms: C12_17  and  C13_18 
REMARK    9  A    between atoms: C13_18  and  C14_19 
REMARK   10  A    between atoms: C14_19  and  N4_20 
REMARK       I    between atoms: N4_20  and  C15_22 
REMARK   11  A    between atoms: N8_31  and  C18_32 
REMARK   12  A    between atoms: C19_33  and  C20_34 
REMARK   13  A    between atoms: C20_34  and  C21_35 
REMARK   14  A    between atoms: C21_35  and  C22_36 
REMARK   15  A    between atoms: C22_36  and  C23_37 
REMARK   16  A    between atoms: N9_39  and  N10_41 
ROOT
HETATM    1  C1  UNL     1      40.359  15.115 114.613  1.00  0.00     0.019 C 
HETATM    2  C2  UNL     1      40.395  15.510 113.481  1.00  0.00    -0.057 C 
HETATM    3  C3  UNL     1      40.441  15.971 112.077  1.00  0.00     0.117 C 
HETATM    4  N9  UNL     1      40.369  17.209 111.897  1.00  0.00    -0.298 N 
ATOM      5  H9  UNL     1      40.399  17.584 110.949  1.00  0.00     0.187 HD
ENDROOT
BRANCH   3   6
HETATM    6  C4  UNL     1      40.581  14.931 111.049  1.00  0.00     0.156 C 
BRANCH   6   7
HETATM    7  N1  UNL     1      41.811  14.269 110.905  1.00  0.00    -0.258 N 
HETATM    8  C5  UNL     1      42.000  13.047 111.528  1.00  0.00     0.110 C 
HETATM    9  C6  UNL     1      42.600  11.970 110.641  1.00  0.00     0.199 C 
HETATM   10  N2  UNL     1      42.194  12.177 109.254  1.00  0.00    -0.127 N 
HETATM   11  C7  UNL     1      41.565  11.184 108.514  1.00  0.00     0.337 C 
HETATM   12  C17 UNL     1      42.542  13.485 108.709  1.00  0.00     0.703 C 
HETATM   13  O1  UNL     1      41.411  10.065 109.132  1.00  0.00    -0.246 OA
HETATM   14  N3  UNL     1      41.093  11.251 107.211  1.00  0.00    -0.342 N 
ATOM     15  H3  UNL     1      41.179  12.132 106.705  1.00  0.00     0.164 HD
HETATM   16  N7  UNL     1      42.873  13.634 107.544  1.00  0.00    -0.232 N 
HETATM   17  N8  UNL     1      42.506  14.525 109.716  1.00  0.00    -0.092 N 
ATOM     18  H72 UNL     1      42.898  12.901 106.836  1.00  0.00     0.174 HD
ATOM     19  H71 UNL     1      43.116  14.548 107.164  1.00  0.00     0.174 HD
BRANCH  14  20
HETATM   20  C8  UNL     1      40.472  10.106 106.526  1.00  0.00     0.124 C 
BRANCH  20  21
HETATM   21  C9  UNL     1      41.422   9.426 105.625  1.00  0.00     0.020 C 
BRANCH  21  22
HETATM   22  C10 UNL     1      41.941   8.090 105.917  1.00  0.00     0.002 C 
BRANCH  22  23
HETATM   23  C11 UNL     1      41.445   7.250 107.008  1.00  0.00     0.000 C 
BRANCH  23  24
HETATM   24  C12 UNL     1      42.308   6.857 108.147  1.00  0.00     0.002 C 
BRANCH  24  25
HETATM   25  C13 UNL     1      43.709   7.313 108.050  1.00  0.00     0.020 C 
BRANCH  25  26
HETATM   26  C14 UNL     1      44.453   7.623 109.296  1.00  0.00     0.122 C 
BRANCH  26  27
HETATM   27  N4  UNL     1      43.905   8.581 110.192  1.00  0.00    -0.365 N 
HETATM   28  C15 UNL     1      43.332   8.343 111.441  1.00  0.00     0.183 C 
HETATM   29  N5  UNL     1      44.037   7.718 112.487  1.00  0.00    -0.064 NA
HETATM   30  N6  UNL     1      42.115   8.734 111.674  1.00  0.00    -0.369 N 
HETATM   31  C16 UNL     1      41.452   8.530 112.928  1.00  0.00     0.148 C 
ATOM     32  H6  UNL     1      41.607   9.210 110.928  1.00  0.00     0.161 HD
ATOM     33  H4  UNL     1      43.936   9.553 109.886  1.00  0.00     0.162 HD
ENDBRANCH  26  27
ENDBRANCH  25  26
ENDBRANCH  24  25
ENDBRANCH  23  24
ENDBRANCH  22  23
ENDBRANCH  21  22
ENDBRANCH  20  21
ENDBRANCH  14  20
BRANCH  17  34
HETATM   34  C18 UNL     1      43.134  15.797 109.530  1.00  0.00     0.131 C 
HETATM   35  C19 UNL     1      42.457  16.951 108.979  1.00  0.00    -0.007 C 
BRANCH  35  36
HETATM   36  C20 UNL     1      41.843  17.005 107.641  1.00  0.00     0.028 C 
BRANCH  36  37
HETATM   37  C21 UNL     1      41.082  18.359 107.487  1.00  0.00     0.004 C 
BRANCH  37  38
HETATM   38  C22 UNL     1      40.643  18.918 108.781  1.00  0.00    -0.000 C 
BRANCH  38  39
HETATM   39  C23 UNL     1      39.185  19.291 108.868  1.00  0.00    -0.005 C 
HETATM   40  C24 UNL     1      38.317  18.086 109.098  1.00  0.00     0.005 C 
ENDBRANCH  38  39
ENDBRANCH  37  38
ENDBRANCH  36  37
ENDBRANCH  35  36
ENDBRANCH  17  34
ENDBRANCH   6   7
ENDBRANCH   3   6
BRANCH   4  41
HETATM   41  N10 UNL     1      40.246  18.097 113.003  1.00  0.00    -0.344 N 
ATOM     42 2H10 UNL     1      40.886  17.991 113.789  1.00  0.00     0.176 HD
ATOM     43 1H10 UNL     1      39.530  18.824 113.009  1.00  0.00     0.176 HD
ENDBRANCH   4  41
TORSDOF 16
ENDMDL
MODEL 3
REMARK VINA RESULT: -8.258621607      2.741      7.183
REMARK  16 active torsions:
REMARK  status: ('A' for Active; 'I' for Inactive)
REMARK    1  A    between atoms: C3_3  and  C4_4 
REMARK    2  A    between atoms: C4_4  and  N1_5 
REMARK       I    between atoms: N2_8  and  C7_9 
REMARK       I    between atoms: C7_9  and  N3_11 
REMARK    3  A    between atoms: N3_11  and  C8_13 
REMARK    4  A    between atoms: C8_13  and  C9_14 
REMARK    5  A    between atoms: C9_14  and  C10_15 
REMARK    6  A    between atoms: C10_15  and  C11_16 
REMARK    7  A    between atoms: C11_16  and  C12_17 
REMARK    8  A    between atoms: C12_17  and  C13_18 
REMARK    9  A    between atoms: C13_18  and  C14_19 
REMARK   10  A    between atoms: C14_19  and  N4_20 
REMARK       I    between atoms: N4_20  and  C15_22 
REMARK   11  A    between atoms: N8_31  and  C18_32 
REMARK   12  A    between atoms: C19_33  and  C20_34 
REMARK   13  A    between atoms: C20_34  and  C21_35 
REMARK   14  A    between atoms: C21_35  and  C22_36 
REMARK   15  A    between atoms: C22_36  and  C23_37 
REMARK   16  A    between atoms: N9_39  and  N10_41 
ROOT
HETATM    1  C1  UNL     1      37.256  11.768 106.773  1.00  0.00     0.019 C 
HETATM    2  C2  UNL     1      37.838  11.323 105.823  1.00  0.00    -0.057 C 
HETATM    3  C3  UNL     1      38.555  10.751 104.664  1.00  0.00     0.117 C 
HETATM    4  N9  UNL     1      38.810  11.540 103.725  1.00  0.00    -0.298 N 
ATOM      5  H9  UNL     1      39.306  11.201 102.901  1.00  0.00     0.187 HD
ENDROOT
BRANCH   3   6
HETATM    6  C4  UNL     1      38.902   9.325 104.745  1.00  0.00     0.156 C 
BRANCH   6   7
HETATM    7  N1  UNL     1      40.037   8.936 105.474  1.00  0.00    -0.258 N 
HETATM    8  C5  UNL     1      41.295   9.260 104.994  1.00  0.00     0.110 C 
HETATM    9  C6  UNL     1      42.230   9.866 106.025  1.00  0.00     0.199 C 
HETATM   10  N2  UNL     1      41.466  10.618 107.017  1.00  0.00    -0.127 N 
HETATM   11  C7  UNL     1      41.734  11.951 107.297  1.00  0.00     0.337 C 
HETATM   12  C17 UNL     1      40.441   9.843 107.707  1.00  0.00     0.703 C 
HETATM   13  O1  UNL     1      42.729  12.451 106.649  1.00  0.00    -0.246 OA
HETATM   14  N3  UNL     1      41.073  12.796 108.177  1.00  0.00    -0.342 N 
ATOM     15  H3  UNL     1      40.266  12.434 108.686  1.00  0.00     0.164 HD
HETATM   16  N7  UNL     1      40.170  10.030 108.882  1.00  0.00    -0.232 N 
HETATM   17  N8  UNL     1      39.862   8.821 106.860  1.00  0.00    -0.092 N 
ATOM     18  H72 UNL     1      40.578  10.749 109.478  1.00  0.00     0.174 HD
ATOM     19  H71 UNL     1      39.453   9.488 109.364  1.00  0.00     0.174 HD
BRANCH  14  20
HETATM   20  C8  UNL     1      41.482  14.189 108.409  1.00  0.00     0.124 C 
BRANCH  20  21
HETATM   21  C9  UNL     1      41.681  14.470 109.844  1.00  0.00     0.020 C 
BRANCH  21  22
HETATM   22  C10 UNL     1      41.138  13.596 110.884  1.00  0.00     0.002 C 
BRANCH  22  23
HETATM   23  C11 UNL     1      41.764  13.411 112.194  1.00  0.00     0.000 C 
BRANCH  23  24
HETATM   24  C12 UNL     1      42.019  12.063 112.756  1.00  0.00     0.002 C 
BRANCH  24  25
HETATM   25  C13 UNL     1      41.845  10.950 111.801  1.00  0.00     0.020 C 
BRANCH  25  26
HETATM   26  C14 UNL     1      41.420   9.623 112.312  1.00  0.00     0.122 C 
BRANCH  26  27
HETATM   27  N4  UNL     1      41.958   9.168 113.546  1.00  0.00    -0.365 N 
HETATM   28  C15 UNL     1      42.628   7.968 113.789  1.00  0.00     0.183 C 
HETATM   29  N5  UNL     1      43.806   7.612 113.105  1.00  0.00    -0.064 NA
HETATM   30  N6  UNL     1      42.179   7.154 114.696  1.00  0.00    -0.369 N 
HETATM   31  C16 UNL     1      42.805   5.904 115.006  1.00  0.00     0.148 C 
ATOM     32  H6  UNL     1      41.339   7.418 115.212  1.00  0.00     0.161 HD
ATOM     33  H4  UNL     1      41.841   9.789 114.346  1.00  0.00     0.162 HD
ENDBRANCH  26  27
ENDBRANCH  25  26
ENDBRANCH  24  25
ENDBRANCH  23  24
ENDBRANCH  22  23
ENDBRANCH  21  22
ENDBRANCH  20  21
ENDBRANCH  14  20
BRANCH  17  34
HETATM   34  C18 UNL     1      39.112   7.722 107.383  1.00  0.00     0.131 C 
HETATM   35  C19 UNL     1      39.695   6.661 108.175  1.00  0.00    -0.007 C 
BRANCH  35  36
HETATM   36  C20 UNL     1      40.776   5.770 107.720  1.00  0.00     0.028 C 
BRANCH  36  37
HETATM   37  C21 UNL     1      42.099   6.593 107.610  1.00  0.00     0.004 C 
BRANCH  37  38
HETATM   38  C22 UNL     1      42.522   7.169 108.901  1.00  0.00    -0.000 C 
BRANCH  38  39
HETATM   39  C23 UNL     1      43.956   7.629 108.971  1.00  0.00    -0.005 C 
HETATM   40  C24 UNL     1      44.053   9.100 109.263  1.00  0.00     0.005 C 
ENDBRANCH  38  39
ENDBRANCH  37  38
ENDBRANCH  36  37
ENDBRANCH  35  36
ENDBRANCH  17  34
ENDBRANCH   6   7
ENDBRANCH   3   6
BRANCH   4  41
HETATM   41  N10 UNL     1      38.415  12.906 103.798  1.00  0.00    -0.344 N 
ATOM     42 2H10 UNL     1      37.465  13.156 103.527  1.00  0.00     0.176 HD
ATOM     43 1H10 UNL     1      39.071  13.620 104.116  1.00  0.00     0.176 HD
ENDBRANCH   4  41
TORSDOF 16
ENDMDL
MODEL 4
REMARK VINA RESULT: -8.258339201      2.240      4.692
REMARK  16 active torsions:
REMARK  status: ('A' for Active; 'I' for Inactive)
REMARK    1  A    between atoms: C3_3  and  C4_4 
REMARK    2  A    between atoms: C4_4  and  N1_5 
REMARK       I    between atoms: N2_8  and  C7_9 
REMARK       I    between atoms: C7_9  and  N3_11 
REMARK    3  A    between atoms: N3_11  and  C8_13 
REMARK    4  A    between atoms: C8_13  and  C9_14 
REMARK    5  A    between atoms: C9_14  and  C10_15 
REMARK    6  A    between atoms: C10_15  and  C11_16 
REMARK    7  A    between atoms: C11_16  and  C12_17 
REMARK    8  A    between atoms: C12_17  and  C13_18 
REMARK    9  A    between atoms: C13_18  and  C14_19 
REMARK   10  A    between atoms: C14_19  and  N4_20 
REMARK       I    between atoms: N4_20  and  C15_22 
REMARK   11  A    between atoms: N8_31  and  C18_32 
REMARK   12  A    between atoms: C19_33  and  C20_34 
REMARK   13  A    between atoms: C20_34  and  C21_35 
REMARK   14  A    between atoms: C21_35  and  C22_36 
REMARK   15  A    between atoms: C22_36  and  C23_37 
REMARK   16  A    between atoms: N9_39  and  N10_41 
ROOT
HETATM    1  C1  UNL     1      39.944  17.805 112.654  1.00  0.00     0.019 C 
HETATM    2  C2  UNL     1      40.141  16.693 113.058  1.00  0.00    -0.057 C 
HETATM    3  C3  UNL     1      40.381  15.313 113.532  1.00  0.00     0.117 C 
HETATM    4  N9  UNL     1      40.591  15.177 114.759  1.00  0.00    -0.298 N 
ATOM      5  H9  UNL     1      40.760  14.247 115.143  1.00  0.00     0.187 HD
ENDROOT
BRANCH   3   6
HETATM    6  C4  UNL     1      40.332  14.253 112.516  1.00  0.00     0.156 C 
BRANCH   6   7
HETATM    7  N1  UNL     1      41.380  14.142 111.589  1.00  0.00    -0.258 N 
HETATM    8  C5  UNL     1      42.627  13.725 112.023  1.00  0.00     0.110 C 
HETATM    9  C6  UNL     1      43.265  12.641 111.172  1.00  0.00     0.199 C 
HETATM   10  N2  UNL     1      42.232  11.797 110.576  1.00  0.00    -0.127 N 
HETATM   11  C7  UNL     1      42.222  10.418 110.742  1.00  0.00     0.337 C 
HETATM   12  C17 UNL     1      41.252  12.516 109.770  1.00  0.00     0.703 C 
HETATM   13  O1  UNL     1      43.213   9.947 111.418  1.00  0.00    -0.246 OA
HETATM   14  N3  UNL     1      41.293   9.502 110.272  1.00  0.00    -0.342 N 
ATOM     15  H3  UNL     1      40.486   9.848 109.753  1.00  0.00     0.164 HD
HETATM   16  N7  UNL     1      40.764  12.032 108.762  1.00  0.00    -0.232 N 
HETATM   17  N8  UNL     1      41.001  13.850 110.272  1.00  0.00    -0.092 N 
ATOM     18  H72 UNL     1      40.941  11.092 108.408  1.00  0.00     0.174 HD
ATOM     19  H71 UNL     1      40.079  12.534 108.197  1.00  0.00     0.174 HD
BRANCH  14  20
HETATM   20  C8  UNL     1      41.419   8.052 110.488  1.00  0.00     0.124 C 
BRANCH  20  21
HETATM   21  C9  UNL     1      41.025   7.283 109.292  1.00  0.00     0.020 C 
BRANCH  21  22
HETATM   22  C10 UNL     1      40.899   7.913 107.977  1.00  0.00     0.002 C 
BRANCH  22  23
HETATM   23  C11 UNL     1      41.736   7.563 106.828  1.00  0.00     0.000 C 
BRANCH  23  24
HETATM   24  C12 UNL     1      41.746   8.379 105.591  1.00  0.00     0.002 C 
BRANCH  24  25
HETATM   25  C13 UNL     1      40.957   9.625 105.662  1.00  0.00     0.020 C 
BRANCH  25  26
HETATM   26  C14 UNL     1      41.668  10.926 105.707  1.00  0.00     0.122 C 
BRANCH  26  27
HETATM   27  N4  UNL     1      40.953  12.102 105.350  1.00  0.00    -0.365 N 
HETATM   28  C15 UNL     1      39.571  12.288 105.352  1.00  0.00     0.183 C 
HETATM   29  N5  UNL     1      38.790  12.125 106.512  1.00  0.00    -0.064 NA
HETATM   30  N6  UNL     1      38.970  12.655 104.259  1.00  0.00    -0.369 N 
HETATM   31  C16 UNL     1      37.556  12.866 104.175  1.00  0.00     0.148 C 
ATOM     32  H6  UNL     1      39.534  12.798 103.421  1.00  0.00     0.161 HD
ATOM     33  H4  UNL     1      41.516  12.902 105.059  1.00  0.00     0.162 HD
ENDBRANCH  26  27
ENDBRANCH  25  26
ENDBRANCH  24  25
ENDBRANCH  23  24
ENDBRANCH  22  23
ENDBRANCH  21  22
ENDBRANCH  20  21
ENDBRANCH  14  20
BRANCH  17  34
HETATM   34  C18 UNL     1      40.370  14.863 109.483  1.00  0.00     0.131 C 
HETATM   35  C19 UNL     1      41.100  15.823 108.682  1.00  0.00    -0.007 C 
BRANCH  35  36
HETATM   36  C20 UNL     1      42.086  16.780 109.212  1.00  0.00     0.028 C 
BRANCH  36  37
HETATM   37  C21 UNL     1      41.390  18.163 109.417  1.00  0.00     0.004 C 
BRANCH  37  38
HETATM   38  C22 UNL     1      40.602  18.585 108.242  1.00  0.00    -0.000 C 
BRANCH  38  39
HETATM   39  C23 UNL     1      39.246  19.171 108.543  1.00  0.00    -0.005 C 
HETATM   40  C24 UNL     1      38.346  18.171 109.212  1.00  0.00     0.005 C 
ENDBRANCH  38  39
ENDBRANCH  37  38
ENDBRANCH  36  37
ENDBRANCH  35  36
ENDBRANCH  17  34
ENDBRANCH   6   7
ENDBRANCH   3   6
BRANCH   4  41
HETATM   41  N10 UNL     1      40.597  16.308 115.624  1.00  0.00    -0.344 N 
ATOM     42 2H10 UNL     1      41.477  16.591 116.055  1.00  0.00     0.176 HD
ATOM     43 1H10 UNL     1      39.737  16.825 115.810  1.00  0.00     0.176 HD
ENDBRANCH   4  41
TORSDOF 16
ENDMDL
MODEL 5
REMARK VINA RESULT: -8.255900786      2.423      7.774
REMARK  16 active torsions:
REMARK  status: ('A' for Active; 'I' for Inactive)
REMARK    1  A    between atoms: C3_3  and  C4_4 
REMARK    2  A    between atoms: C4_4  and  N1_5 
REMARK       I    between atoms: N2_8  and  C7_9 
REMARK       I    between atoms: C7_9  and  N3_11 
REMARK    3  A    between atoms: N3_11  and  C8_13 
REMARK    4  A    between atoms: C8_13  and  C9_14 
REMARK    5  A    between atoms: C9_14  and  C10_15 
REMARK    6  A    between atoms: C10_15  and  C11_16 
REMARK    7  A    between atoms: C11_16  and  C12_17 
REMARK    8  A    between atoms: C12_17  and  C13_18 
REMARK    9  A    between atoms: C13_18  and  C14_19 
REMARK   10  A    between atoms: C14_19  and  N4_20 
REMARK       I    between atoms: N4_20  and  C15_22 
REMARK   11  A    between atoms: N8_31  and  C18_32 
REMARK   12  A    between atoms: C19_33  and  C20_34 
REMARK   13  A    between atoms: C20_34  and  C21_35 
REMARK   14  A    between atoms: C21_35  and  C22_36 
REMARK   15  A    between atoms: C22_36  and  C23_37 
REMARK   16  A    between atoms: N9_39  and  N10_41 
ROOT
HETATM    1  C1  UNL     1      38.417  12.166 106.389  1.00  0.00     0.019 C 
HETATM    2  C2  UNL     1      39.517  11.726 106.202  1.00  0.00    -0.057 C 
HETATM    3  C3  UNL     1      40.863  11.161 105.973  1.00  0.00     0.117 C 
HETATM    4  N9  UNL     1      41.789  11.985 105.794  1.00  0.00    -0.298 N 
ATOM      5  H9  UNL     1      42.739  11.651 105.634  1.00  0.00     0.187 HD
ENDROOT
BRANCH   3   6
HETATM    6  C4  UNL     1      40.972   9.695 105.996  1.00  0.00     0.156 C 
BRANCH   6   7
HETATM    7  N1  UNL     1      41.335   9.053 107.190  1.00  0.00    -0.258 N 
HETATM    8  C5  UNL     1      42.613   8.535 107.319  1.00  0.00     0.110 C 
HETATM    9  C6  UNL     1      43.313   8.890 108.618  1.00  0.00     0.199 C 
HETATM   10  N2  UNL     1      42.859  10.195 109.093  1.00  0.00    -0.127 N 
HETATM   11  C7  UNL     1      43.747  11.227 109.370  1.00  0.00     0.337 C 
HETATM   12  C17 UNL     1      41.418  10.302 109.289  1.00  0.00     0.703 C 
HETATM   13  O1  UNL     1      44.990  10.927 109.217  1.00  0.00    -0.246 OA
HETATM   14  N3  UNL     1      43.460  12.520 109.786  1.00  0.00    -0.342 N 
ATOM     15  H3  UNL     1      42.483  12.792 109.892  1.00  0.00     0.164 HD
HETATM   16  N7  UNL     1      40.935  10.965 110.192  1.00  0.00    -0.232 N 
HETATM   17  N8  UNL     1      40.675   9.493 108.345  1.00  0.00    -0.092 N 
ATOM     18  H72 UNL     1      41.458  11.534 110.856  1.00  0.00     0.174 HD
ATOM     19  H71 UNL     1      39.927  11.039 110.329  1.00  0.00     0.174 HD
BRANCH  14  20
HETATM   20  C8  UNL     1      44.503  13.514 110.081  1.00  0.00     0.124 C 
BRANCH  20  21
HETATM   21  C9  UNL     1      44.125  14.860 109.608  1.00  0.00     0.020 C 
BRANCH  21  22
HETATM   22  C10 UNL     1      43.566  15.081 108.275  1.00  0.00     0.002 C 
BRANCH  22  23
HETATM   23  C11 UNL     1      43.412  16.405 107.670  1.00  0.00     0.000 C 
BRANCH  23  24
HETATM   24  C12 UNL     1      42.085  16.939 107.284  1.00  0.00     0.002 C 
BRANCH  24  25
HETATM   25  C13 UNL     1      41.364  17.649 108.359  1.00  0.00     0.020 C 
BRANCH  25  26
HETATM   26  C14 UNL     1      40.547  16.866 109.318  1.00  0.00     0.122 C 
BRANCH  26  27
HETATM   27  N4  UNL     1      41.114  16.534 110.579  1.00  0.00    -0.365 N 
HETATM   28  C15 UNL     1      40.782  15.458 111.402  1.00  0.00     0.183 C 
HETATM   29  N5  UNL     1      40.878  14.122 110.970  1.00  0.00    -0.064 NA
HETATM   30  N6  UNL     1      40.398  15.678 112.623  1.00  0.00    -0.369 N 
HETATM   31  C16 UNL     1      40.039  14.631 113.533  1.00  0.00     0.148 C 
ATOM     32  H6  UNL     1      40.350  16.643 112.951  1.00  0.00     0.161 HD
ATOM     33  H4  UNL     1      41.848  17.155 110.921  1.00  0.00     0.162 HD
ENDBRANCH  26  27
ENDBRANCH  25  26
ENDBRANCH  24  25
ENDBRANCH  23  24
ENDBRANCH  22  23
ENDBRANCH  21  22
ENDBRANCH  20  21
ENDBRANCH  14  20
BRANCH  17  34
HETATM   34  C18 UNL     1      39.302   9.147 108.543  1.00  0.00     0.131 C 
HETATM   35  C19 UNL     1      38.727   7.885 108.128  1.00  0.00    -0.007 C 
BRANCH  35  36
HETATM   36  C20 UNL     1      38.703   7.388 106.742  1.00  0.00     0.028 C 
BRANCH  36  37
HETATM   37  C21 UNL     1      37.695   8.246 105.913  1.00  0.00     0.004 C 
BRANCH  37  38
HETATM   38  C22 UNL     1      38.127   8.443 104.516  1.00  0.00    -0.000 C 
BRANCH  38  39
HETATM   39  C23 UNL     1      37.554   9.653 103.821  1.00  0.00    -0.005 C 
HETATM   40  C24 UNL     1      36.056   9.578 103.724  1.00  0.00     0.005 C 
ENDBRANCH  38  39
ENDBRANCH  37  38
ENDBRANCH  36  37
ENDBRANCH  35  36
ENDBRANCH  17  34
ENDBRANCH   6   7
ENDBRANCH   3   6
BRANCH   4  41
HETATM   41  N10 UNL     1      41.526  13.385 105.810  1.00  0.00    -0.344 N 
ATOM     42 2H10 UNL     1      40.656  13.724 105.404  1.00  0.00     0.176 HD
ATOM     43 1H10 UNL     1      42.197  14.034 106.222  1.00  0.00     0.176 HD
ENDBRANCH   4  41
TORSDOF 16
ENDMDL
