MODEL 1
REMARK VINA RESULT: -6.449726290      0.000      0.000
REMARK  5 active torsions:
REMARK  status: ('A' for Active; 'I' for Inactive)
REMARK    1  A    between atoms: N2_4  and  C1_6 
REMARK    2  A    between atoms: C1_6  and  N3_7 
REMARK    3  A    between atoms: C1_6  and  C3_16 
REMARK       I    between atoms: N3_7  and  C2_9 
REMARK       I    between atoms: C2_9  and  N4_11 
REMARK    4  A    between atoms: N4_11  and  N5_13 
REMARK       I    between atoms: C3_16  and  N6_18 
REMARK    5  A    between atoms: N6_18  and  N7_20 
ROOT
HETATM    1  C1  UNL     1      44.475  92.789  35.999  1.00  0.00     0.295 C 
ENDROOT
BRANCH   1   2
HETATM    2  N2  UNL     1      43.659  93.965  35.917  1.00  0.00    -0.311 N 
HETATM    3  N1  UNL     1      42.506  93.950  35.452  1.00  0.00    -0.347 N 
ATOM      4  H12 UNL     1      42.141  93.058  35.119  1.00  0.00     0.176 HD
ATOM      5  H11 UNL     1      41.925  94.787  35.393  1.00  0.00     0.176 HD
ATOM      6  H2  UNL     1      44.040  94.850  36.254  1.00  0.00     0.182 HD
ENDBRANCH   1   2
BRANCH   1   7
HETATM    7  N3  UNL     1      45.370  92.825  34.847  1.00  0.00    -0.311 N 
HETATM    8  C2  UNL     1      46.764  92.955  34.965  1.00  0.00     0.336 C 
HETATM    9  O1  UNL     1      47.294  93.046  36.090  1.00  0.00    -0.246 OA
HETATM   10  N4  UNL     1      47.576  92.984  33.813  1.00  0.00    -0.258 N 
ATOM     11  H4  UNL     1      47.135  92.908  32.896  1.00  0.00     0.191 HD
ATOM     12  H3  UNL     1      44.965  92.752  33.914  1.00  0.00     0.166 HD
BRANCH  10  13
HETATM   13  N5  UNL     1      48.969  93.112  33.888  1.00  0.00    -0.341 N 
ATOM     14  H52 UNL     1      49.352  93.777  34.560  1.00  0.00     0.177 HD
ATOM     15  H51 UNL     1      49.596  92.566  33.298  1.00  0.00     0.177 HD
ENDBRANCH  10  13
ENDBRANCH   1   7
BRANCH   1  16
HETATM   16  C3  UNL     1      43.624  91.593  35.843  1.00  0.00     0.280 C 
HETATM   17  O2  UNL     1      42.724  91.333  36.677  1.00  0.00    -0.267 OA
HETATM   18  N6  UNL     1      43.796  90.697  34.743  1.00  0.00    -0.265 N 
ATOM     19  H6  UNL     1      44.523  90.895  34.056  1.00  0.00     0.190 HD
BRANCH  18  20
HETATM   20  N7  UNL     1      43.014  89.577  34.578  1.00  0.00    -0.273 N 
HETATM   21  C4  UNL     1      43.183  88.789  33.551  1.00  0.00     0.215 C 
HETATM   22  N8  UNL     1      44.184  89.100  32.601  1.00  0.00    -0.065 NA
HETATM   23  N9  UNL     1      42.398  87.632  33.352  1.00  0.00    -0.065 NA
ATOM     24  H7  UNL     1      42.294  89.360  35.267  1.00  0.00     0.189 HD
ENDBRANCH  18  20
ENDBRANCH   1  16
TORSDOF 5
ENDMDL
MODEL 2
REMARK VINA RESULT: -5.816829160      1.715      2.116
REMARK  5 active torsions:
REMARK  status: ('A' for Active; 'I' for Inactive)
REMARK    1  A    between atoms: N2_4  and  C1_6 
REMARK    2  A    between atoms: C1_6  and  N3_7 
REMARK    3  A    between atoms: C1_6  and  C3_16 
REMARK       I    between atoms: N3_7  and  C2_9 
REMARK       I    between atoms: C2_9  and  N4_11 
REMARK    4  A    between atoms: N4_11  and  N5_13 
REMARK       I    between atoms: C3_16  and  N6_18 
REMARK    5  A    between atoms: N6_18  and  N7_20 
ROOT
HETATM    1  C1  UNL     1      44.298  91.050  34.658  1.00  0.00     0.295 C 
ENDROOT
BRANCH   1   2
HETATM    2  N2  UNL     1      43.348  92.123  34.705  1.00  0.00    -0.311 N 
HETATM    3  N1  UNL     1      43.280  92.917  35.659  1.00  0.00    -0.347 N 
ATOM      4  H12 UNL     1      43.933  92.786  36.431  1.00  0.00     0.176 HD
ATOM      5  H11 UNL     1      42.604  93.681  35.692  1.00  0.00     0.176 HD
ATOM      6  H2  UNL     1      42.702  92.239  33.924  1.00  0.00     0.182 HD
ENDBRANCH   1   2
BRANCH   1   7
HETATM    7  N3  UNL     1      45.397  91.506  33.815  1.00  0.00    -0.311 N 
HETATM    8  C2  UNL     1      46.492  92.233  34.312  1.00  0.00     0.336 C 
HETATM    9  O1  UNL     1      46.559  92.517  35.525  1.00  0.00    -0.246 OA
HETATM   10  N4  UNL     1      47.525  92.646  33.447  1.00  0.00    -0.258 N 
ATOM     11  H4  UNL     1      47.463  92.409  32.457  1.00  0.00     0.191 HD
ATOM     12  H3  UNL     1      45.370  91.286  32.820  1.00  0.00     0.166 HD
BRANCH  10  13
HETATM   13  N5  UNL     1      48.632  93.372  33.903  1.00  0.00    -0.341 N 
ATOM     14  H52 UNL     1      49.018  93.131  34.817  1.00  0.00     0.177 HD
ATOM     15  H51 UNL     1      49.053  94.121  33.354  1.00  0.00     0.177 HD
ENDBRANCH  10  13
ENDBRANCH   1   7
BRANCH   1  16
HETATM   16  C3  UNL     1      43.689  89.889  33.978  1.00  0.00     0.280 C 
HETATM   17  O2  UNL     1      42.530  89.510  34.270  1.00  0.00    -0.267 OA
HETATM   18  N6  UNL     1      44.396  89.165  32.970  1.00  0.00    -0.265 N 
ATOM     19  H6  UNL     1      45.340  89.461  32.721  1.00  0.00     0.190 HD
BRANCH  18  20
HETATM   20  N7  UNL     1      43.848  88.081  32.323  1.00  0.00    -0.273 N 
HETATM   21  C4  UNL     1      44.225  86.866  32.616  1.00  0.00     0.215 C 
HETATM   22  N8  UNL     1      45.210  86.672  33.614  1.00  0.00    -0.065 NA
HETATM   23  N9  UNL     1      43.683  85.732  31.972  1.00  0.00    -0.065 NA
ATOM     24  H7  UNL     1      43.139  88.229  31.605  1.00  0.00     0.189 HD
ENDBRANCH  18  20
ENDBRANCH   1  16
TORSDOF 5
ENDMDL
MODEL 3
REMARK VINA RESULT: -5.785763477      2.014      5.278
REMARK  5 active torsions:
REMARK  status: ('A' for Active; 'I' for Inactive)
REMARK    1  A    between atoms: N2_4  and  C1_6 
REMARK    2  A    between atoms: C1_6  and  N3_7 
REMARK    3  A    between atoms: C1_6  and  C3_16 
REMARK       I    between atoms: N3_7  and  C2_9 
REMARK       I    between atoms: C2_9  and  N4_11 
REMARK    4  A    between atoms: N4_11  and  N5_13 
REMARK       I    between atoms: C3_16  and  N6_18 
REMARK    5  A    between atoms: N6_18  and  N7_20 
ROOT
HETATM    1  C1  UNL     1      43.599  90.851  34.635  1.00  0.00     0.295 C 
ENDROOT
BRANCH   1   2
HETATM    2  N2  UNL     1      43.152  91.164  35.960  1.00  0.00    -0.311 N 
HETATM    3  N1  UNL     1      43.408  92.246  36.517  1.00  0.00    -0.347 N 
ATOM      4  H12 UNL     1      43.960  92.927  35.996  1.00  0.00     0.176 HD
ATOM      5  H11 UNL     1      43.090  92.468  37.461  1.00  0.00     0.176 HD
ATOM      6  H2  UNL     1      42.601  90.471  36.467  1.00  0.00     0.182 HD
ENDBRANCH   1   2
BRANCH   1   7
HETATM    7  N3  UNL     1      43.436  89.411  34.471  1.00  0.00    -0.311 N 
HETATM    8  C2  UNL     1      43.785  88.730  33.293  1.00  0.00     0.336 C 
HETATM    9  O1  UNL     1      44.260  89.354  32.323  1.00  0.00    -0.246 OA
HETATM   10  N4  UNL     1      43.603  87.336  33.195  1.00  0.00    -0.258 N 
ATOM     11  H4  UNL     1      43.215  86.832  33.992  1.00  0.00     0.191 HD
ATOM     12  H3  UNL     1      43.051  88.874  35.247  1.00  0.00     0.166 HD
BRANCH  10  13
HETATM   13  N5  UNL     1      43.939  86.621  32.038  1.00  0.00    -0.341 N 
ATOM     14  H52 UNL     1      44.270  87.148  31.230  1.00  0.00     0.177 HD
ATOM     15  H51 UNL     1      43.861  85.606  31.987  1.00  0.00     0.177 HD
ENDBRANCH  10  13
ENDBRANCH   1   7
BRANCH   1  16
HETATM   16  C3  UNL     1      45.045  91.133  34.529  1.00  0.00     0.280 C 
HETATM   17  O2  UNL     1      45.860  90.605  35.322  1.00  0.00    -0.267 OA
HETATM   18  N6  UNL     1      45.559  92.009  33.525  1.00  0.00    -0.265 N 
ATOM     19  H6  UNL     1      44.908  92.445  32.872  1.00  0.00     0.190 HD
BRANCH  18  20
HETATM   20  N7  UNL     1      46.902  92.285  33.408  1.00  0.00    -0.273 N 
HETATM   21  C4  UNL     1      47.445  93.262  34.082  1.00  0.00     0.215 C 
HETATM   22  N8  UNL     1      46.634  94.041  34.941  1.00  0.00    -0.065 NA
HETATM   23  N9  UNL     1      48.820  93.572  33.985  1.00  0.00    -0.065 NA
ATOM     24  H7  UNL     1      47.480  91.719  32.787  1.00  0.00     0.189 HD
ENDBRANCH  18  20
ENDBRANCH   1  16
TORSDOF 5
ENDMDL
MODEL 4
REMARK VINA RESULT: -5.630794549      4.254      5.220
REMARK  5 active torsions:
REMARK  status: ('A' for Active; 'I' for Inactive)
REMARK    1  A    between atoms: N2_4  and  C1_6 
REMARK    2  A    between atoms: C1_6  and  N3_7 
REMARK    3  A    between atoms: C1_6  and  C3_16 
REMARK       I    between atoms: N3_7  and  C2_9 
REMARK       I    between atoms: C2_9  and  N4_11 
REMARK    4  A    between atoms: N4_11  and  N5_13 
REMARK       I    between atoms: C3_16  and  N6_18 
REMARK    5  A    between atoms: N6_18  and  N7_20 
ROOT
HETATM    1  C1  UNL     1      44.879  88.623  34.550  1.00  0.00     0.295 C 
ENDROOT
BRANCH   1   2
HETATM    2  N2  UNL     1      44.656  88.422  33.148  1.00  0.00    -0.311 N 
HETATM    3  N1  UNL     1      43.524  88.238  32.667  1.00  0.00    -0.347 N 
ATOM      4  H12 UNL     1      42.733  88.232  33.311  1.00  0.00     0.176 HD
ATOM      5  H11 UNL     1      43.365  88.095  31.670  1.00  0.00     0.176 HD
ATOM      6  H2  UNL     1      45.459  88.430  32.518  1.00  0.00     0.182 HD
ENDBRANCH   1   2
BRANCH   1   7
HETATM    7  N3  UNL     1      45.850  89.705  34.664  1.00  0.00    -0.311 N 
HETATM    8  C2  UNL     1      45.694  90.944  34.020  1.00  0.00     0.336 C 
HETATM    9  O1  UNL     1      44.692  91.162  33.311  1.00  0.00    -0.246 OA
HETATM   10  N4  UNL     1      46.668  91.952  34.169  1.00  0.00    -0.258 N 
ATOM     11  H4  UNL     1      47.485  91.766  34.751  1.00  0.00     0.191 HD
ATOM     12  H3  UNL     1      46.679  89.556  35.238  1.00  0.00     0.166 HD
BRANCH  10  13
HETATM   13  N5  UNL     1      46.550  93.200  33.544  1.00  0.00    -0.341 N 
ATOM     14  H52 UNL     1      46.469  93.219  32.527  1.00  0.00     0.177 HD
ATOM     15  H51 UNL     1      46.542  94.072  34.072  1.00  0.00     0.177 HD
ENDBRANCH  10  13
ENDBRANCH   1   7
BRANCH   1  16
HETATM   16  C3  UNL     1      45.512  87.417  35.120  1.00  0.00     0.280 C 
HETATM   17  O2  UNL     1      45.649  86.378  34.431  1.00  0.00    -0.267 OA
HETATM   18  N6  UNL     1      45.988  87.395  36.467  1.00  0.00    -0.265 N 
ATOM     19  H6  UNL     1      45.883  88.232  37.040  1.00  0.00     0.190 HD
BRANCH  18  20
HETATM   20  N7  UNL     1      46.581  86.283  37.019  1.00  0.00    -0.273 N 
HETATM   21  C4  UNL     1      47.165  86.345  38.186  1.00  0.00     0.215 C 
HETATM   22  N8  UNL     1      47.181  87.577  38.883  1.00  0.00    -0.065 NA
HETATM   23  N9  UNL     1      47.783  85.224  38.780  1.00  0.00    -0.065 NA
ATOM     24  H7  UNL     1      46.566  85.399  36.510  1.00  0.00     0.189 HD
ENDBRANCH  18  20
ENDBRANCH   1  16
TORSDOF 5
ENDMDL
MODEL 5
REMARK VINA RESULT: -5.574557872      3.737      4.840
REMARK  5 active torsions:
REMARK  status: ('A' for Active; 'I' for Inactive)
REMARK    1  A    between atoms: N2_4  and  C1_6 
REMARK    2  A    between atoms: C1_6  and  N3_7 
REMARK    3  A    between atoms: C1_6  and  C3_16 
REMARK       I    between atoms: N3_7  and  C2_9 
REMARK       I    between atoms: C2_9  and  N4_11 
REMARK    4  A    between atoms: N4_11  and  N5_13 
REMARK       I    between atoms: C3_16  and  N6_18 
REMARK    5  A    between atoms: N6_18  and  N7_20 
ROOT
HETATM    1  C1  UNL     1      44.461  88.863  33.990  1.00  0.00     0.295 C 
ENDROOT
BRANCH   1   2
HETATM    2  N2  UNL     1      44.446  88.650  32.573  1.00  0.00    -0.311 N 
HETATM    3  N1  UNL     1      44.769  87.567  32.054  1.00  0.00    -0.347 N 
ATOM      4  H12 UNL     1      45.053  86.811  32.676  1.00  0.00     0.176 HD
ATOM      5  H11 UNL     1      44.759  87.415  31.045  1.00  0.00     0.176 HD
ATOM      6  H2  UNL     1      44.160  89.418  31.965  1.00  0.00     0.182 HD
ENDBRANCH   1   2
BRANCH   1   7
HETATM    7  N3  UNL     1      45.521  89.830  34.253  1.00  0.00    -0.311 N 
HETATM    8  C2  UNL     1      45.540  91.117  33.691  1.00  0.00     0.336 C 
HETATM    9  O1  UNL     1      44.623  91.483  32.929  1.00  0.00    -0.246 OA
HETATM   10  N4  UNL     1      46.593  92.007  33.983  1.00  0.00    -0.258 N 
ATOM     11  H4  UNL     1      47.339  91.701  34.607  1.00  0.00     0.191 HD
ATOM     12  H3  UNL     1      46.283  89.559  34.874  1.00  0.00     0.166 HD
BRANCH  10  13
HETATM   13  N5  UNL     1      46.648  93.298  33.442  1.00  0.00    -0.341 N 
ATOM     14  H52 UNL     1      45.836  93.903  33.566  1.00  0.00     0.177 HD
ATOM     15  H51 UNL     1      47.465  93.640  32.938  1.00  0.00     0.177 HD
ENDBRANCH  10  13
ENDBRANCH   1   7
BRANCH   1  16
HETATM   16  C3  UNL     1      44.846  87.610  34.668  1.00  0.00     0.280 C 
HETATM   17  O2  UNL     1      44.003  86.703  34.869  1.00  0.00    -0.267 OA
HETATM   18  N6  UNL     1      46.185  87.388  35.115  1.00  0.00    -0.265 N 
ATOM     19  H6  UNL     1      46.882  88.116  34.959  1.00  0.00     0.190 HD
BRANCH  18  20
HETATM   20  N7  UNL     1      46.567  86.228  35.749  1.00  0.00    -0.273 N 
HETATM   21  C4  UNL     1      47.327  85.355  35.144  1.00  0.00     0.215 C 
HETATM   22  N8  UNL     1      47.758  85.615  33.822  1.00  0.00    -0.065 NA
HETATM   23  N9  UNL     1      47.736  84.155  35.765  1.00  0.00    -0.065 NA
ATOM     24  H7  UNL     1      46.252  86.047  36.701  1.00  0.00     0.189 HD
ENDBRANCH  18  20
ENDBRANCH   1  16
TORSDOF 5
ENDMDL
