MODEL 1
REMARK VINA RESULT: -6.779473818      0.000      0.000
REMARK  4 active torsions:
REMARK  status: ('A' for Active; 'I' for Inactive)
REMARK    1  A    between atoms: N2_4  and  N3_6 
REMARK       I    between atoms: N3_6  and  C1_8 
REMARK       I    between atoms: C1_8  and  N6_14 
REMARK       I    between atoms: N4_9  and  C2_11 
REMARK    2  A    between atoms: N6_14  and  N7_16 
REMARK    3  A    between atoms: C3_18  and  C4_19 
REMARK       I    between atoms: C4_19  and  N8_21 
REMARK    4  A    between atoms: N8_21  and  N9_23 
ROOT
HETATM    1  N3  UNL     1      45.124  93.180  36.841  1.00  0.00    -0.117 N 
ATOM      2  H3  UNL     1      45.634  93.498  37.665  1.00  0.00     0.207 HD
HETATM    3  C1  UNL     1      45.870  92.778  35.718  1.00  0.00     0.716 C 
HETATM    4  N4  UNL     1      46.789  93.545  35.279  1.00  0.00    -0.141 N 
ATOM      5  H4  UNL     1      46.929  94.421  35.782  1.00  0.00     0.189 HD
HETATM    6  C2  UNL     1      47.628  93.315  34.182  1.00  0.00     0.347 C 
HETATM    7  N5  UNL     1      47.189  93.281  32.832  1.00  0.00    -0.039 NA
HETATM    8  O1  UNL     1      48.855  93.125  34.387  1.00  0.00    -0.250 OA
HETATM    9  N6  UNL     1      45.595  91.549  35.097  1.00  0.00    -0.131 N 
ATOM     10  H6  UNL     1      45.920  91.365  34.148  1.00  0.00     0.205 HD
ENDROOT
BRANCH   1  11
HETATM   11  N2  UNL     1      43.731  93.172  36.896  1.00  0.00    -0.235 N 
HETATM   12  N1  UNL     1      43.093  93.902  36.105  1.00  0.00    -0.330 N 
ATOM     13  H12 UNL     1      43.597  94.486  35.438  1.00  0.00     0.178 HD
ATOM     14  H11 UNL     1      42.074  93.896  36.146  1.00  0.00     0.178 HD
ATOM     15  H2  UNL     1      43.241  92.584  37.569  1.00  0.00     0.208 HD
ENDBRANCH   1  11
BRANCH   9  16
HETATM   16  N7  UNL     1      44.871  90.584  35.796  1.00  0.00    -0.292 N 
HETATM   17  C3  UNL     1      44.343  89.538  35.322  1.00  0.00     0.183 C 
ATOM     18  H7  UNL     1      44.756  90.738  36.797  1.00  0.00     0.186 HD
BRANCH  17  19
HETATM   19  C4  UNL     1      44.441  89.214  33.907  1.00  0.00     0.276 C 
HETATM   20  O2  UNL     1      44.237  90.160  33.079  1.00  0.00    -0.265 OA
HETATM   21  N8  UNL     1      44.750  87.904  33.456  1.00  0.00    -0.272 N 
ATOM     22  H8  UNL     1      44.910  87.157  34.132  1.00  0.00     0.189 HD
BRANCH  21  23
HETATM   23  N9  UNL     1      44.832  87.643  32.113  1.00  0.00    -0.342 N 
ATOM     24  H92 UNL     1      44.207  88.133  31.474  1.00  0.00     0.176 HD
ATOM     25  H91 UNL     1      45.511  86.965  31.765  1.00  0.00     0.176 HD
ENDBRANCH  21  23
ENDBRANCH  17  19
ENDBRANCH   9  16
TORSDOF 4
ENDMDL
MODEL 2
REMARK VINA RESULT: -6.762603790      1.244      1.436
REMARK  4 active torsions:
REMARK  status: ('A' for Active; 'I' for Inactive)
REMARK    1  A    between atoms: N2_4  and  N3_6 
REMARK       I    between atoms: N3_6  and  C1_8 
REMARK       I    between atoms: C1_8  and  N6_14 
REMARK       I    between atoms: N4_9  and  C2_11 
REMARK    2  A    between atoms: N6_14  and  N7_16 
REMARK    3  A    between atoms: C3_18  and  C4_19 
REMARK       I    between atoms: C4_19  and  N8_21 
REMARK    4  A    between atoms: N8_21  and  N9_23 
ROOT
HETATM    1  N3  UNL     1      43.249  93.639  36.106  1.00  0.00    -0.117 N 
ATOM      2  H3  UNL     1      43.263  94.023  37.051  1.00  0.00     0.207 HD
HETATM    3  C1  UNL     1      44.461  93.175  35.564  1.00  0.00     0.716 C 
HETATM    4  N4  UNL     1      45.490  93.927  35.614  1.00  0.00    -0.141 N 
ATOM      5  H4  UNL     1      45.365  94.838  36.055  1.00  0.00     0.189 HD
HETATM    6  C2  UNL     1      46.771  93.638  35.131  1.00  0.00     0.347 C 
HETATM    7  N5  UNL     1      47.096  93.501  33.755  1.00  0.00    -0.039 NA
HETATM    8  O1  UNL     1      47.709  93.487  35.956  1.00  0.00    -0.250 OA
HETATM    9  N6  UNL     1      44.525  91.900  34.978  1.00  0.00    -0.131 N 
ATOM     10  H6  UNL     1      45.291  91.657  34.350  1.00  0.00     0.205 HD
ENDROOT
BRANCH   1  11
HETATM   11  N2  UNL     1      42.030  93.608  35.430  1.00  0.00    -0.235 N 
HETATM   12  N1  UNL     1      41.676  94.616  34.780  1.00  0.00    -0.330 N 
ATOM     13  H12 UNL     1      42.280  95.438  34.753  1.00  0.00     0.178 HD
ATOM     14  H11 UNL     1      40.784  94.593  34.286  1.00  0.00     0.178 HD
ATOM     15  H2  UNL     1      41.437  92.779  35.466  1.00  0.00     0.208 HD
ENDBRANCH   1  11
BRANCH   9  16
HETATM   16  N7  UNL     1      43.525  90.972  35.264  1.00  0.00    -0.292 N 
HETATM   17  C3  UNL     1      43.269  89.909  34.630  1.00  0.00     0.183 C 
ATOM     18  H7  UNL     1      42.937  91.172  36.073  1.00  0.00     0.186 HD
BRANCH  17  19
HETATM   19  C4  UNL     1      44.041  89.521  33.459  1.00  0.00     0.276 C 
HETATM   20  O2  UNL     1      44.504  90.458  32.732  1.00  0.00    -0.265 OA
HETATM   21  N8  UNL     1      44.274  88.160  33.130  1.00  0.00    -0.272 N 
ATOM     22  H8  UNL     1      43.896  87.421  33.723  1.00  0.00     0.189 HD
BRANCH  21  23
HETATM   23  N9  UNL     1      45.007  87.839  32.018  1.00  0.00    -0.342 N 
ATOM     24  H92 UNL     1      44.715  88.204  31.111  1.00  0.00     0.176 HD
ATOM     25  H91 UNL     1      45.830  87.243  32.103  1.00  0.00     0.176 HD
ENDBRANCH  21  23
ENDBRANCH  17  19
ENDBRANCH   9  16
TORSDOF 4
ENDMDL
MODEL 3
REMARK VINA RESULT: -6.439123154      2.152      4.224
REMARK  4 active torsions:
REMARK  status: ('A' for Active; 'I' for Inactive)
REMARK    1  A    between atoms: N2_4  and  N3_6 
REMARK       I    between atoms: N3_6  and  C1_8 
REMARK       I    between atoms: C1_8  and  N6_14 
REMARK       I    between atoms: N4_9  and  C2_11 
REMARK    2  A    between atoms: N6_14  and  N7_16 
REMARK    3  A    between atoms: C3_18  and  C4_19 
REMARK       I    between atoms: C4_19  and  N8_21 
REMARK    4  A    between atoms: N8_21  and  N9_23 
ROOT
HETATM    1  N3  UNL     1      44.870  90.519  32.984  1.00  0.00    -0.117 N 
ATOM      2  H3  UNL     1      44.295  90.901  32.233  1.00  0.00     0.207 HD
HETATM    3  C1  UNL     1      45.588  91.422  33.788  1.00  0.00     0.716 C 
HETATM    4  N4  UNL     1      46.304  92.316  33.228  1.00  0.00    -0.141 N 
ATOM      5  H4  UNL     1      46.310  92.320  32.208  1.00  0.00     0.189 HD
HETATM    6  C2  UNL     1      47.083  93.293  33.859  1.00  0.00     0.347 C 
HETATM    7  N5  UNL     1      48.250  93.017  34.620  1.00  0.00    -0.039 NA
HETATM    8  O1  UNL     1      46.742  94.499  33.756  1.00  0.00    -0.250 OA
HETATM    9  N6  UNL     1      45.512  91.328  35.187  1.00  0.00    -0.131 N 
ATOM     10  H6  UNL     1      46.216  91.776  35.775  1.00  0.00     0.205 HD
ENDROOT
BRANCH   1  11
HETATM   11  N2  UNL     1      44.896  89.135  33.149  1.00  0.00    -0.235 N 
HETATM   12  N1  UNL     1      44.526  88.408  32.200  1.00  0.00    -0.330 N 
ATOM     13  H12 UNL     1      44.214  88.836  31.328  1.00  0.00     0.178 HD
ATOM     14  H11 UNL     1      44.546  87.396  32.321  1.00  0.00     0.178 HD
ATOM     15  H2  UNL     1      45.211  88.722  34.026  1.00  0.00     0.208 HD
ENDBRANCH   1  11
BRANCH   9  16
HETATM   16  N7  UNL     1      44.461  90.615  35.762  1.00  0.00    -0.292 N 
HETATM   17  C3  UNL     1      43.355  91.079  36.159  1.00  0.00     0.183 C 
ATOM     18  H7  UNL     1      44.600  89.611  35.874  1.00  0.00     0.186 HD
BRANCH  17  19
HETATM   19  C4  UNL     1      43.044  92.496  36.051  1.00  0.00     0.276 C 
HETATM   20  O2  UNL     1      43.606  93.279  36.884  1.00  0.00    -0.265 OA
HETATM   21  N8  UNL     1      42.156  92.998  35.064  1.00  0.00    -0.272 N 
ATOM     22  H8  UNL     1      41.714  92.357  34.404  1.00  0.00     0.189 HD
BRANCH  21  23
HETATM   23  N9  UNL     1      41.891  94.341  34.998  1.00  0.00    -0.342 N 
ATOM     24  H92 UNL     1      41.170  94.672  34.358  1.00  0.00     0.176 HD
ATOM     25  H91 UNL     1      42.413  94.994  35.583  1.00  0.00     0.176 HD
ENDBRANCH  21  23
ENDBRANCH  17  19
ENDBRANCH   9  16
TORSDOF 4
ENDMDL
MODEL 4
REMARK VINA RESULT: -6.265424224      2.560      5.114
REMARK  4 active torsions:
REMARK  status: ('A' for Active; 'I' for Inactive)
REMARK    1  A    between atoms: N2_4  and  N3_6 
REMARK       I    between atoms: N3_6  and  C1_8 
REMARK       I    between atoms: C1_8  and  N6_14 
REMARK       I    between atoms: N4_9  and  C2_11 
REMARK    2  A    between atoms: N6_14  and  N7_16 
REMARK    3  A    between atoms: C3_18  and  C4_19 
REMARK       I    between atoms: C4_19  and  N8_21 
REMARK    4  A    between atoms: N8_21  and  N9_23 
ROOT
HETATM    1  N3  UNL     1      46.175  91.222  33.562  1.00  0.00    -0.117 N 
ATOM      2  H3  UNL     1      47.081  90.877  33.244  1.00  0.00     0.207 HD
HETATM    3  C1  UNL     1      45.323  90.324  34.228  1.00  0.00     0.716 C 
HETATM    4  N4  UNL     1      45.091  89.185  33.703  1.00  0.00    -0.141 N 
ATOM      5  H4  UNL     1      45.550  88.994  32.812  1.00  0.00     0.189 HD
HETATM    6  C2  UNL     1      44.277  88.169  34.215  1.00  0.00     0.347 C 
HETATM    7  N5  UNL     1      42.864  88.259  34.334  1.00  0.00    -0.039 NA
HETATM    8  O1  UNL     1      44.814  87.098  34.599  1.00  0.00    -0.250 OA
HETATM    9  N6  UNL     1      44.740  90.687  35.453  1.00  0.00    -0.131 N 
ATOM     10  H6  UNL     1      43.928  90.184  35.809  1.00  0.00     0.205 HD
ENDROOT
BRANCH   1  11
HETATM   11  N2  UNL     1      45.858  92.556  33.308  1.00  0.00    -0.235 N 
HETATM   12  N1  UNL     1      46.747  93.424  33.452  1.00  0.00    -0.330 N 
ATOM     13  H12 UNL     1      47.682  93.145  33.750  1.00  0.00     0.178 HD
ATOM     14  H11 UNL     1      46.515  94.400  33.266  1.00  0.00     0.178 HD
ATOM     15  H2  UNL     1      44.919  92.820  33.011  1.00  0.00     0.208 HD
ENDBRANCH   1  11
BRANCH   9  16
HETATM   16  N7  UNL     1      45.288  91.745  36.177  1.00  0.00    -0.292 N 
HETATM   17  C3  UNL     1      44.700  92.802  36.542  1.00  0.00     0.183 C 
ATOM     18  H7  UNL     1      46.270  91.657  36.439  1.00  0.00     0.186 HD
BRANCH  17  19
HETATM   19  C4  UNL     1      43.299  93.038  36.224  1.00  0.00     0.276 C 
HETATM   20  O2  UNL     1      42.454  92.192  36.661  1.00  0.00    -0.265 OA
HETATM   21  N8  UNL     1      42.881  94.159  35.461  1.00  0.00    -0.272 N 
ATOM     22  H8  UNL     1      43.570  94.828  35.118  1.00  0.00     0.189 HD
BRANCH  21  23
HETATM   23  N9  UNL     1      41.551  94.343  35.185  1.00  0.00    -0.342 N 
ATOM     24  H92 UNL     1      41.241  95.245  34.823  1.00  0.00     0.176 HD
ATOM     25  H91 UNL     1      40.887  93.584  35.342  1.00  0.00     0.176 HD
ENDBRANCH  21  23
ENDBRANCH  17  19
ENDBRANCH   9  16
TORSDOF 4
ENDMDL
MODEL 5
REMARK VINA RESULT: -6.120607555      1.773      4.328
REMARK  4 active torsions:
REMARK  status: ('A' for Active; 'I' for Inactive)
REMARK    1  A    between atoms: N2_4  and  N3_6 
REMARK       I    between atoms: N3_6  and  C1_8 
REMARK       I    between atoms: C1_8  and  N6_14 
REMARK       I    between atoms: N4_9  and  C2_11 
REMARK    2  A    between atoms: N6_14  and  N7_16 
REMARK    3  A    between atoms: C3_18  and  C4_19 
REMARK       I    between atoms: C4_19  and  N8_21 
REMARK    4  A    between atoms: N8_21  and  N9_23 
ROOT
HETATM    1  N3  UNL     1      42.871  92.601  34.674  1.00  0.00    -0.117 N 
ATOM      2  H3  UNL     1      42.752  92.678  33.664  1.00  0.00     0.207 HD
HETATM    3  C1  UNL     1      43.734  91.605  35.164  1.00  0.00     0.716 C 
HETATM    4  N4  UNL     1      43.599  90.408  34.743  1.00  0.00    -0.141 N 
ATOM      5  H4  UNL     1      42.858  90.247  34.061  1.00  0.00     0.189 HD
HETATM    6  C2  UNL     1      44.358  89.292  35.113  1.00  0.00     0.347 C 
HETATM    7  N5  UNL     1      44.338  88.704  36.406  1.00  0.00    -0.039 NA
HETATM    8  O1  UNL     1      45.113  88.763  34.258  1.00  0.00    -0.250 OA
HETATM    9  N6  UNL     1      44.724  91.934  36.104  1.00  0.00    -0.131 N 
ATOM     10  H6  UNL     1      45.166  91.206  36.666  1.00  0.00     0.205 HD
ENDROOT
BRANCH   1  11
HETATM   11  N2  UNL     1      42.168  93.492  35.484  1.00  0.00    -0.235 N 
HETATM   12  N1  UNL     1      41.600  94.471  34.951  1.00  0.00    -0.330 N 
ATOM     13  H12 UNL     1      41.660  94.601  33.941  1.00  0.00     0.178 HD
ATOM     14  H11 UNL     1      41.085  95.122  35.544  1.00  0.00     0.178 HD
ATOM     15  H2  UNL     1      42.117  93.349  36.492  1.00  0.00     0.208 HD
ENDBRANCH   1  11
BRANCH   9  16
HETATM   16  N7  UNL     1      45.094  93.269  36.259  1.00  0.00    -0.292 N 
HETATM   17  C3  UNL     1      45.994  93.887  35.624  1.00  0.00     0.183 C 
ATOM     18  H7  UNL     1      44.582  93.804  36.961  1.00  0.00     0.186 HD
BRANCH  17  19
HETATM   19  C4  UNL     1      46.789  93.227  34.600  1.00  0.00     0.276 C 
HETATM   20  O2  UNL     1      47.972  92.876  34.919  1.00  0.00    -0.265 OA
HETATM   21  N8  UNL     1      46.282  92.978  33.299  1.00  0.00    -0.272 N 
ATOM     22  H8  UNL     1      45.332  93.265  33.059  1.00  0.00     0.189 HD
BRANCH  21  23
HETATM   23  N9  UNL     1      47.065  92.353  32.364  1.00  0.00    -0.342 N 
ATOM     24  H92 UNL     1      47.771  91.686  32.677  1.00  0.00     0.176 HD
ATOM     25  H91 UNL     1      46.940  92.557  31.373  1.00  0.00     0.176 HD
ENDBRANCH  21  23
ENDBRANCH  17  19
ENDBRANCH   9  16
TORSDOF 4
ENDMDL
