MODEL 1
REMARK VINA RESULT: -6.047581192      0.000      0.000
REMARK  4 active torsions:
REMARK  status: ('A' for Active; 'I' for Inactive)
REMARK    1  A    between atoms: O1_2  and  C2_3 
REMARK    2  A    between atoms: C2_3  and  N1_4 
REMARK    3  A    between atoms: C4_11  and  N5_12 
REMARK    4  A    between atoms: N5_12  and  N6_14 
ROOT
HETATM    1  C2  UNL     1      44.357  90.983  34.893  1.00  0.00     0.317 C 
HETATM    2  N4  UNL     1      45.509  91.578  35.542  1.00  0.00    -0.164 N 
ATOM      3  H4  UNL     1      45.640  91.668  36.551  1.00  0.00     0.183 HD
HETATM    4  C4  UNL     1      46.427  92.016  34.550  1.00  0.00     0.699 C 
HETATM    5  N7  UNL     1      46.078  91.478  33.439  1.00  0.00    -0.152 N 
ATOM      6  H7  UNL     1      46.572  91.626  32.559  1.00  0.00     0.187 HD
HETATM    7  C5  UNL     1      44.929  90.653  33.568  1.00  0.00     0.315 C 
HETATM    8  O2  UNL     1      44.554  89.844  32.690  1.00  0.00    -0.265 OA
ENDROOT
BRANCH   1   9
HETATM    9  O1  UNL     1      43.892  89.873  35.577  1.00  0.00    -0.341 OA
HETATM   10  C1  UNL     1      44.900  88.945  35.833  1.00  0.00     0.207 C 
ENDBRANCH   1   9
BRANCH   1  11
HETATM   11  N1  UNL     1      43.320  91.964  34.847  1.00  0.00    -0.309 N 
HETATM   12  C3  UNL     1      43.010  92.789  35.762  1.00  0.00     0.201 C 
HETATM   13  N2  UNL     1      41.937  93.692  35.517  1.00  0.00    -0.067 NA
HETATM   14  N3  UNL     1      43.654  92.887  37.026  1.00  0.00    -0.067 NA
ATOM     15  H1  UNL     1      42.771  92.008  33.988  1.00  0.00     0.167 HD
ENDBRANCH   1  11
BRANCH   4  16
HETATM   16  N5  UNL     1      47.541  92.904  34.779  1.00  0.00    -0.139 N 
ATOM     17  H5  UNL     1      47.548  93.502  35.604  1.00  0.00     0.205 HD
BRANCH  16  18
HETATM   18  N6  UNL     1      48.607  92.953  33.884  1.00  0.00    -0.331 N 
ATOM     19  H62 UNL     1      48.440  93.310  32.943  1.00  0.00     0.177 HD
ATOM     20  H61 UNL     1      49.536  92.637  34.162  1.00  0.00     0.177 HD
ENDBRANCH  16  18
ENDBRANCH   4  16
TORSDOF 4
ENDMDL
MODEL 2
REMARK VINA RESULT: -5.338631169      2.106      3.880
REMARK  4 active torsions:
REMARK  status: ('A' for Active; 'I' for Inactive)
REMARK    1  A    between atoms: O1_2  and  C2_3 
REMARK    2  A    between atoms: C2_3  and  N1_4 
REMARK    3  A    between atoms: C4_11  and  N5_12 
REMARK    4  A    between atoms: N5_12  and  N6_14 
ROOT
HETATM    1  C2  UNL     1      44.750  91.864  35.052  1.00  0.00     0.317 C 
HETATM    2  N4  UNL     1      45.504  90.876  35.799  1.00  0.00    -0.164 N 
ATOM      3  H4  UNL     1      46.338  91.066  36.357  1.00  0.00     0.183 HD
HETATM    4  C4  UNL     1      44.897  89.604  35.630  1.00  0.00     0.699 C 
HETATM    5  N7  UNL     1      43.732  89.796  35.128  1.00  0.00    -0.152 N 
ATOM      6  H7  UNL     1      43.081  89.043  34.906  1.00  0.00     0.187 HD
HETATM    7  C5  UNL     1      43.449  91.171  34.917  1.00  0.00     0.315 C 
HETATM    8  O2  UNL     1      42.304  91.613  34.671  1.00  0.00    -0.265 OA
ENDROOT
BRANCH   1   9
HETATM    9  O1  UNL     1      44.658  93.068  35.729  1.00  0.00    -0.341 OA
HETATM   10  C1  UNL     1      44.038  92.933  36.970  1.00  0.00     0.207 C 
ENDBRANCH   1   9
BRANCH   1  11
HETATM   11  N1  UNL     1      45.419  92.084  33.809  1.00  0.00    -0.309 N 
HETATM   12  C3  UNL     1      46.604  92.513  33.648  1.00  0.00     0.201 C 
HETATM   13  N2  UNL     1      47.088  92.664  32.317  1.00  0.00    -0.067 NA
HETATM   14  N3  UNL     1      47.498  92.859  34.698  1.00  0.00    -0.067 NA
ATOM     15  H1  UNL     1      44.890  91.874  32.963  1.00  0.00     0.167 HD
ENDBRANCH   1  11
BRANCH   4  16
HETATM   16  N5  UNL     1      45.504  88.339  35.969  1.00  0.00    -0.139 N 
ATOM     17  H5  UNL     1      45.460  88.000  36.930  1.00  0.00     0.205 HD
BRANCH  16  18
HETATM   18  N6  UNL     1      46.150  87.576  34.998  1.00  0.00    -0.331 N 
ATOM     19  H62 UNL     1      45.589  87.132  34.272  1.00  0.00     0.177 HD
ATOM     20  H61 UNL     1      47.163  87.464  35.014  1.00  0.00     0.177 HD
ENDBRANCH  16  18
ENDBRANCH   4  16
TORSDOF 4
ENDMDL
MODEL 3
REMARK VINA RESULT: -5.263660627      1.048      4.113
REMARK  4 active torsions:
REMARK  status: ('A' for Active; 'I' for Inactive)
REMARK    1  A    between atoms: O1_2  and  C2_3 
REMARK    2  A    between atoms: C2_3  and  N1_4 
REMARK    3  A    between atoms: C4_11  and  N5_12 
REMARK    4  A    between atoms: N5_12  and  N6_14 
ROOT
HETATM    1  C2  UNL     1      44.931  91.091  34.519  1.00  0.00     0.317 C 
HETATM    2  N4  UNL     1      43.957  92.135  34.269  1.00  0.00    -0.164 N 
ATOM      3  H4  UNL     1      43.855  92.653  33.395  1.00  0.00     0.183 HD
HETATM    4  C4  UNL     1      43.166  92.322  35.434  1.00  0.00     0.699 C 
HETATM    5  N7  UNL     1      43.373  91.317  36.205  1.00  0.00    -0.152 N 
ATOM      6  H7  UNL     1      42.926  91.200  37.114  1.00  0.00     0.187 HD
HETATM    7  C5  UNL     1      44.292  90.386  35.653  1.00  0.00     0.315 C 
HETATM    8  O2  UNL     1      44.460  89.230  36.101  1.00  0.00    -0.265 OA
ENDROOT
BRANCH   1   9
HETATM    9  O1  UNL     1      45.121  90.282  33.412  1.00  0.00    -0.341 OA
HETATM   10  C1  UNL     1      43.981  89.548  33.088  1.00  0.00     0.207 C 
ENDBRANCH   1   9
BRANCH   1  11
HETATM   11  N1  UNL     1      46.172  91.715  34.852  1.00  0.00    -0.309 N 
HETATM   12  C3  UNL     1      46.919  92.387  34.075  1.00  0.00     0.201 C 
HETATM   13  N2  UNL     1      48.123  92.931  34.605  1.00  0.00    -0.067 NA
HETATM   14  N3  UNL     1      46.648  92.647  32.703  1.00  0.00    -0.067 NA
ATOM     15  H1  UNL     1      46.491  91.610  35.815  1.00  0.00     0.167 HD
ENDBRANCH   1  11
BRANCH   4  16
HETATM   16  N5  UNL     1      42.297  93.448  35.680  1.00  0.00    -0.139 N 
ATOM     17  H5  UNL     1      42.207  93.818  36.626  1.00  0.00     0.205 HD
BRANCH  16  18
HETATM   18  N6  UNL     1      41.581  94.035  34.639  1.00  0.00    -0.331 N 
ATOM     19  H62 UNL     1      41.764  95.011  34.409  1.00  0.00     0.177 HD
ATOM     20  H61 UNL     1      40.887  93.500  34.118  1.00  0.00     0.177 HD
ENDBRANCH  16  18
ENDBRANCH   4  16
TORSDOF 4
ENDMDL
MODEL 4
REMARK VINA RESULT: -5.191842547      2.183      3.748
REMARK  4 active torsions:
REMARK  status: ('A' for Active; 'I' for Inactive)
REMARK    1  A    between atoms: O1_2  and  C2_3 
REMARK    2  A    between atoms: C2_3  and  N1_4 
REMARK    3  A    between atoms: C4_11  and  N5_12 
REMARK    4  A    between atoms: N5_12  and  N6_14 
ROOT
HETATM    1  C2  UNL     1      44.985  90.727  34.341  1.00  0.00     0.317 C 
HETATM    2  N4  UNL     1      45.061  90.109  35.650  1.00  0.00    -0.164 N 
ATOM      3  H4  UNL     1      44.884  90.580  36.538  1.00  0.00     0.183 HD
HETATM    4  C4  UNL     1      45.420  88.744  35.498  1.00  0.00     0.699 C 
HETATM    5  N7  UNL     1      45.266  88.440  34.261  1.00  0.00    -0.152 N 
ATOM      6  H7  UNL     1      45.454  87.514  33.878  1.00  0.00     0.187 HD
HETATM    7  C5  UNL     1      44.803  89.535  33.484  1.00  0.00     0.315 C 
HETATM    8  O2  UNL     1      44.353  89.418  32.322  1.00  0.00    -0.265 OA
ENDROOT
BRANCH   1   9
HETATM    9  O1  UNL     1      43.936  91.627  34.252  1.00  0.00    -0.341 OA
HETATM   10  C1  UNL     1      43.024  91.484  35.296  1.00  0.00     0.207 C 
ENDBRANCH   1   9
BRANCH   1  11
HETATM   11  N1  UNL     1      46.210  91.424  34.110  1.00  0.00    -0.309 N 
HETATM   12  C3  UNL     1      46.748  92.291  34.867  1.00  0.00     0.201 C 
HETATM   13  N2  UNL     1      47.980  92.872  34.452  1.00  0.00    -0.067 NA
HETATM   14  N3  UNL     1      46.217  92.733  36.109  1.00  0.00    -0.067 NA
ATOM     15  H1  UNL     1      46.705  91.202  33.246  1.00  0.00     0.167 HD
ENDBRANCH   1  11
BRANCH   4  16
HETATM   16  N5  UNL     1      45.873  87.878  36.560  1.00  0.00    -0.139 N 
ATOM     17  H5  UNL     1      45.940  88.238  37.511  1.00  0.00     0.205 HD
BRANCH  16  18
HETATM   18  N6  UNL     1      46.219  86.553  36.299  1.00  0.00    -0.331 N 
ATOM     19  H62 UNL     1      46.146  85.871  37.054  1.00  0.00     0.177 HD
ATOM     20  H61 UNL     1      46.540  86.272  35.373  1.00  0.00     0.177 HD
ENDBRANCH  16  18
ENDBRANCH   4  16
TORSDOF 4
ENDMDL
MODEL 5
REMARK VINA RESULT: -5.122013649      2.254      3.629
REMARK  4 active torsions:
REMARK  status: ('A' for Active; 'I' for Inactive)
REMARK    1  A    between atoms: O1_2  and  C2_3 
REMARK    2  A    between atoms: C2_3  and  N1_4 
REMARK    3  A    between atoms: C4_11  and  N5_12 
REMARK    4  A    between atoms: N5_12  and  N6_14 
ROOT
HETATM    1  C2  UNL     1      44.350  89.629  34.621  1.00  0.00     0.317 C 
HETATM    2  N4  UNL     1      45.538  90.080  33.922  1.00  0.00    -0.164 N 
ATOM      3  H4  UNL     1      46.159  89.489  33.368  1.00  0.00     0.183 HD
HETATM    4  C4  UNL     1      45.698  91.475  34.132  1.00  0.00     0.699 C 
HETATM    5  N7  UNL     1      44.595  91.922  34.612  1.00  0.00    -0.152 N 
ATOM      6  H7  UNL     1      44.439  92.900  34.854  1.00  0.00     0.187 HD
HETATM    7  C5  UNL     1      43.616  90.906  34.767  1.00  0.00     0.315 C 
HETATM    8  O2  UNL     1      42.405  91.137  34.981  1.00  0.00    -0.265 OA
ENDROOT
BRANCH   1   9
HETATM    9  O1  UNL     1      43.652  88.678  33.897  1.00  0.00    -0.341 OA
HETATM   10  C1  UNL     1      44.027  88.651  32.555  1.00  0.00     0.207 C 
ENDBRANCH   1   9
BRANCH   1  11
HETATM   11  N1  UNL     1      44.760  89.053  35.862  1.00  0.00    -0.309 N 
HETATM   12  C3  UNL     1      45.543  88.066  36.022  1.00  0.00     0.201 C 
HETATM   13  N2  UNL     1      45.828  87.643  37.352  1.00  0.00    -0.067 NA
HETATM   14  N3  UNL     1      46.167  87.339  34.972  1.00  0.00    -0.067 NA
ATOM     15  H1  UNL     1      44.385  89.481  36.709  1.00  0.00     0.167 HD
ENDBRANCH   1  11
BRANCH   4  16
HETATM   16  N5  UNL     1      46.896  92.229  33.849  1.00  0.00    -0.139 N 
ATOM     17  H5  UNL     1      47.805  91.769  33.897  1.00  0.00     0.205 HD
BRANCH  16  18
HETATM   18  N6  UNL     1      46.824  93.579  33.510  1.00  0.00    -0.331 N 
ATOM     19  H62 UNL     1      45.951  93.941  33.127  1.00  0.00     0.177 HD
ATOM     20  H61 UNL     1      47.628  94.192  33.642  1.00  0.00     0.177 HD
ENDBRANCH  16  18
ENDBRANCH   4  16
TORSDOF 4
ENDMDL
