MODEL 1
REMARK VINA RESULT: -6.254501782      0.000      0.000
REMARK  4 active torsions:
REMARK  status: ('A' for Active; 'I' for Inactive)
REMARK       I    between atoms: N1_2  and  C2_4 
REMARK    1  A    between atoms: C2_4  and  C3_6 
REMARK    2  A    between atoms: C5_8  and  C6_9 
REMARK    3  A    between atoms: C9_12  and  C11_14 
REMARK    4  A    between atoms: C12_16  and  C13_17 
ROOT
HETATM    1  C3  UNL     1      22.524  14.947  20.787  1.00  0.00     0.096 C 
HETATM    2  C4  UNL     1      22.160  13.664  21.505  1.00  0.00     0.023 C 
HETATM    3  C5  UNL     1      22.518  12.621  20.473  1.00  0.00     0.032 C 
HETATM    4  C11 UNL     1      23.391  13.293  19.446  1.00  0.00     0.125 C 
HETATM    5  F1  UNL     1      22.672  13.656  18.345  1.00  0.00    -0.241 F 
HETATM    6  C12 UNL     1      23.880  14.517  20.220  1.00  0.00     0.140 C 
ENDROOT
BRANCH   1   7
HETATM    7  C2  UNL     1      22.619  16.108  21.664  1.00  0.00     0.222 C 
HETATM    8  N1  UNL     1      23.434  16.130  22.793  1.00  0.00    -0.365 N 
HETATM    9  C1  UNL     1      23.513  17.291  23.649  1.00  0.00     0.149 C 
ATOM     10  H1  UNL     1      23.988  15.305  23.021  1.00  0.00     0.161 HD
HETATM   11  O1  UNL     1      21.934  17.125  21.381  1.00  0.00    -0.273 OA
ENDBRANCH   1   7
BRANCH   6  12
HETATM   12  C13 UNL     1      24.486  15.527  19.375  1.00  0.00     0.181 C 
HETATM   13  O2  UNL     1      25.731  15.596  19.277  1.00  0.00    -0.648 OA
HETATM   14  O3  UNL     1      23.707  16.421  18.669  1.00  0.00    -0.648 OA
ENDBRANCH   6  12
BRANCH   3  15
HETATM   15  C6  UNL     1      23.344  11.497  21.054  1.00  0.00     0.002 A 
HETATM   16  C7  UNL     1      22.468  10.378  21.610  1.00  0.00    -0.004 A 
HETATM   17  C8  UNL     1      21.105  10.233  21.008  1.00  0.00     0.013 C 
HETATM   18  C10 UNL     1      23.066  10.322  20.257  1.00  0.00     0.002 A 
HETATM   19  C9  UNL     1      21.716  10.526  19.652  1.00  0.00     0.032 C 
ENDBRANCH   3  15
TORSDOF 4
ENDMDL
MODEL 2
REMARK VINA RESULT: -6.077852495      4.281      5.526
REMARK  4 active torsions:
REMARK  status: ('A' for Active; 'I' for Inactive)
REMARK       I    between atoms: N1_2  and  C2_4 
REMARK    1  A    between atoms: C2_4  and  C3_6 
REMARK    2  A    between atoms: C5_8  and  C6_9 
REMARK    3  A    between atoms: C9_12  and  C11_14 
REMARK    4  A    between atoms: C12_16  and  C13_17 
ROOT
HETATM    1  C3  UNL     1      21.572  11.128  21.712  1.00  0.00     0.096 C 
HETATM    2  C4  UNL     1      21.995  10.946  20.270  1.00  0.00     0.023 C 
HETATM    3  C5  UNL     1      23.460  11.307  20.330  1.00  0.00     0.032 C 
HETATM    4  C11 UNL     1      23.864  11.281  21.781  1.00  0.00     0.125 C 
HETATM    5  F1  UNL     1      23.874  12.536  22.316  1.00  0.00    -0.241 F 
HETATM    6  C12 UNL     1      22.752  10.426  22.389  1.00  0.00     0.140 C 
ENDROOT
BRANCH   1   7
HETATM    7  C2  UNL     1      20.288  10.513  22.032  1.00  0.00     0.222 C 
HETATM    8  N1  UNL     1      19.512  10.918  23.115  1.00  0.00    -0.365 N 
HETATM    9  C1  UNL     1      18.243  10.295  23.414  1.00  0.00     0.149 C 
ATOM     10  H1  UNL     1      19.849  11.673  23.712  1.00  0.00     0.161 HD
HETATM   11  O1  UNL     1      19.875   9.581  21.294  1.00  0.00    -0.273 OA
ENDBRANCH   1   7
BRANCH   6  12
HETATM   12  C13 UNL     1      22.699  10.497  23.836  1.00  0.00     0.181 C 
HETATM   13  O2  UNL     1      23.360  11.368  24.444  1.00  0.00    -0.648 OA
HETATM   14  O3  UNL     1      21.924   9.615  24.562  1.00  0.00    -0.648 OA
ENDBRANCH   6  12
BRANCH   3  15
HETATM   15  C6  UNL     1      24.332  10.288  19.635  1.00  0.00     0.002 A 
HETATM   16  C7  UNL     1      24.649  10.699  18.199  1.00  0.00    -0.004 A 
HETATM   17  C8  UNL     1      24.618  12.165  17.900  1.00  0.00     0.013 C 
HETATM   18  C10 UNL     1      25.579  10.953  19.323  1.00  0.00     0.002 A 
HETATM   19  C9  UNL     1      25.276  12.413  19.242  1.00  0.00     0.032 C 
ENDBRANCH   3  15
TORSDOF 4
ENDMDL
MODEL 3
REMARK VINA RESULT: -6.077758347      1.860      2.312
REMARK  4 active torsions:
REMARK  status: ('A' for Active; 'I' for Inactive)
REMARK       I    between atoms: N1_2  and  C2_4 
REMARK    1  A    between atoms: C2_4  and  C3_6 
REMARK    2  A    between atoms: C5_8  and  C6_9 
REMARK    3  A    between atoms: C9_12  and  C11_14 
REMARK    4  A    between atoms: C12_16  and  C13_17 
ROOT
HETATM    1  C3  UNL     1      21.212  14.748  22.528  1.00  0.00     0.096 C 
HETATM    2  C4  UNL     1      21.198  13.239  22.658  1.00  0.00     0.023 C 
HETATM    3  C5  UNL     1      21.993  12.818  21.445  1.00  0.00     0.032 C 
HETATM    4  C11 UNL     1      22.718  14.040  20.944  1.00  0.00     0.125 C 
HETATM    5  F1  UNL     1      22.057  14.615  19.898  1.00  0.00    -0.241 F 
HETATM    6  C12 UNL     1      22.691  14.936  22.182  1.00  0.00     0.140 C 
ENDROOT
BRANCH   1   7
HETATM    7  C2  UNL     1      20.822  15.448  23.747  1.00  0.00     0.222 C 
HETATM    8  N1  UNL     1      21.447  15.228  24.971  1.00  0.00    -0.365 N 
HETATM    9  C1  UNL     1      21.045  15.933  26.167  1.00  0.00     0.149 C 
ATOM     10  H1  UNL     1      22.208  14.551  25.025  1.00  0.00     0.161 HD
HETATM   11  O1  UNL     1      19.882  16.283  23.678  1.00  0.00    -0.273 OA
ENDBRANCH   1   7
BRANCH   6  12
HETATM   12  C13 UNL     1      23.034  16.316  21.899  1.00  0.00     0.181 C 
HETATM   13  O2  UNL     1      24.142  16.771  22.260  1.00  0.00    -0.648 OA
HETATM   14  O3  UNL     1      22.153  17.144  21.232  1.00  0.00    -0.648 OA
ENDBRANCH   6  12
BRANCH   3  15
HETATM   15  C6  UNL     1      23.062  11.805  21.781  1.00  0.00     0.002 A 
HETATM   16  C7  UNL     1      22.539  10.375  21.682  1.00  0.00    -0.004 A 
HETATM   17  C8  UNL     1      21.387  10.146  20.755  1.00  0.00     0.013 C 
HETATM   18  C10 UNL     1      23.288  11.026  20.584  1.00  0.00     0.002 A 
HETATM   19  C9  UNL     1      22.033  11.108  19.778  1.00  0.00     0.032 C 
ENDBRANCH   3  15
TORSDOF 4
ENDMDL
MODEL 4
REMARK VINA RESULT: -6.037533988      3.594      4.806
REMARK  4 active torsions:
REMARK  status: ('A' for Active; 'I' for Inactive)
REMARK       I    between atoms: N1_2  and  C2_4 
REMARK    1  A    between atoms: C2_4  and  C3_6 
REMARK    2  A    between atoms: C5_8  and  C6_9 
REMARK    3  A    between atoms: C9_12  and  C11_14 
REMARK    4  A    between atoms: C12_16  and  C13_17 
ROOT
HETATM    1  C3  UNL     1      22.600  11.898  22.079  1.00  0.00     0.096 C 
HETATM    2  C4  UNL     1      23.532  12.628  21.135  1.00  0.00     0.023 C 
HETATM    3  C5  UNL     1      23.947  11.522  20.196  1.00  0.00     0.032 C 
HETATM    4  C11 UNL     1      22.977  10.386  20.391  1.00  0.00     0.125 C 
HETATM    5  F1  UNL     1      23.493   9.428  21.214  1.00  0.00    -0.241 F 
HETATM    6  C12 UNL     1      21.797  11.106  21.044  1.00  0.00     0.140 C 
ENDROOT
BRANCH   1   7
HETATM    7  C2  UNL     1      21.766  12.783  22.886  1.00  0.00     0.222 C 
HETATM    8  N1  UNL     1      21.578  12.596  24.252  1.00  0.00    -0.365 N 
HETATM    9  C1  UNL     1      20.748  13.485  25.033  1.00  0.00     0.149 C 
ATOM     10  H1  UNL     1      22.037  11.811  24.714  1.00  0.00     0.161 HD
HETATM   11  O1  UNL     1      21.200  13.751  22.314  1.00  0.00    -0.273 OA
ENDBRANCH   1   7
BRANCH   6  12
HETATM   12  C13 UNL     1      20.835  10.203  21.645  1.00  0.00     0.181 C 
HETATM   13  O2  UNL     1      20.075   9.526  20.918  1.00  0.00    -0.648 OA
HETATM   14  O3  UNL     1      20.742  10.075  23.016  1.00  0.00    -0.648 OA
ENDBRANCH   6  12
BRANCH   3  15
HETATM   15  C6  UNL     1      23.832  11.926  18.744  1.00  0.00     0.002 A 
HETATM   16  C7  UNL     1      25.128  12.538  18.221  1.00  0.00    -0.004 A 
HETATM   17  C8  UNL     1      26.391  12.120  18.909  1.00  0.00     0.013 C 
HETATM   18  C10 UNL     1      24.778  11.115  18.010  1.00  0.00     0.002 A 
HETATM   19  C9  UNL     1      25.838  10.711  18.982  1.00  0.00     0.032 C 
ENDBRANCH   3  15
TORSDOF 4
ENDMDL
MODEL 5
REMARK VINA RESULT: -5.894412269      3.966      5.181
REMARK  4 active torsions:
REMARK  status: ('A' for Active; 'I' for Inactive)
REMARK       I    between atoms: N1_2  and  C2_4 
REMARK    1  A    between atoms: C2_4  and  C3_6 
REMARK    2  A    between atoms: C5_8  and  C6_9 
REMARK    3  A    between atoms: C9_12  and  C11_14 
REMARK    4  A    between atoms: C12_16  and  C13_17 
ROOT
HETATM    1  C3  UNL     1      22.436  12.201  23.737  1.00  0.00     0.096 C 
HETATM    2  C4  UNL     1      22.819  13.206  22.671  1.00  0.00     0.023 C 
HETATM    3  C5  UNL     1      22.877  12.338  21.436  1.00  0.00     0.032 C 
HETATM    4  C11 UNL     1      22.172  11.049  21.766  1.00  0.00     0.125 C 
HETATM    5  F1  UNL     1      23.060  10.067  22.092  1.00  0.00    -0.241 F 
HETATM    6  C12 UNL     1      21.332  11.464  22.974  1.00  0.00     0.140 C 
ENDROOT
BRANCH   1   7
HETATM    7  C2  UNL     1      21.962  12.807  24.976  1.00  0.00     0.222 C 
HETATM    8  N1  UNL     1      22.264  12.285  26.230  1.00  0.00    -0.365 N 
HETATM    9  C1  UNL     1      21.783  12.901  27.445  1.00  0.00     0.149 C 
ATOM     10  H1  UNL     1      22.839  11.445  26.293  1.00  0.00     0.161 HD
HETATM   11  O1  UNL     1      21.252  13.844  24.897  1.00  0.00    -0.273 OA
ENDBRANCH   1   7
BRANCH   6  12
HETATM   12  C13 UNL     1      20.790  10.340  23.711  1.00  0.00     0.181 C 
HETATM   13  O2  UNL     1      19.607   9.980  23.520  1.00  0.00    -0.648 OA
HETATM   14  O3  UNL     1      21.561   9.652  24.625  1.00  0.00    -0.648 OA
ENDBRANCH   6  12
BRANCH   3  15
HETATM   15  C6  UNL     1      22.124  12.942  20.274  1.00  0.00     0.002 A 
HETATM   16  C7  UNL     1      23.037  13.771  19.376  1.00  0.00    -0.004 A 
HETATM   17  C8  UNL     1      24.487  13.403  19.373  1.00  0.00     0.013 C 
HETATM   18  C10 UNL     1      22.684  12.366  19.071  1.00  0.00     0.002 A 
HETATM   19  C9  UNL     1      24.077  11.945  19.409  1.00  0.00     0.032 C 
ENDBRANCH   3  15
TORSDOF 4
ENDMDL
