MODEL 1
REMARK VINA RESULT: -4.835073175      0.000      0.000
REMARK  3 active torsions:
REMARK  status: ('A' for Active; 'I' for Inactive)
REMARK    1  A    between atoms: C1_2  and  C2_3 
REMARK    2  A    between atoms: C2_3  and  N2_4 
REMARK    3  A    between atoms: C7_9  and  O1_10 
ROOT
HETATM    1  N2  UNL     1      24.089  12.114  19.238  1.00  0.00    -0.058 N 
HETATM    2  C3  UNL     1      24.813  13.086  18.440  1.00  0.00     0.238 C 
HETATM    3  C4  UNL     1      26.130  12.420  18.042  1.00  0.00     0.037 C 
HETATM    4  C5  UNL     1      25.983  11.072  18.686  1.00  0.00     0.044 C 
HETATM    5  C6  UNL     1      24.466  10.872  18.529  1.00  0.00     0.245 C 
HETATM    6  C7  UNL     1      26.067  11.268  20.179  1.00  0.00     0.150 C 
HETATM    7  C8  UNL     1      24.702  11.891  20.511  1.00  0.00     0.270 C 
ENDROOT
BRANCH   1   8
HETATM    8  C2  UNL     1      22.685  12.298  19.254  1.00  0.00     0.310 C 
BRANCH   8   9
HETATM    9  C1  UNL     1      22.140  12.868  20.494  1.00  0.00     0.125 C 
HETATM   10  N1  UNL     1      22.302  14.254  20.750  1.00  0.00    -0.085 NA
HETATM   11  N3  UNL     1      21.515  12.158  21.371  1.00  0.00    -0.313 N 
HETATM   12 BR1  UNL     1      21.226  10.307  21.165  1.00  0.00     0.048 Br
ATOM     13  H3  UNL     1      21.162  12.617  22.211  1.00  0.00     0.174 HD
ENDBRANCH   8   9
ENDBRANCH   1   8
BRANCH   6  14
HETATM   14  O1  UNL     1      26.240  10.068  20.841  1.00  0.00    -0.393 OA
ATOM     15  H1  UNL     1      26.449  10.201  21.758  1.00  0.00     0.210 HD
ENDBRANCH   6  14
TORSDOF 3
ENDMDL
MODEL 2
REMARK VINA RESULT: -4.777872019      2.544      3.426
REMARK  3 active torsions:
REMARK  status: ('A' for Active; 'I' for Inactive)
REMARK    1  A    between atoms: C1_2  and  C2_3 
REMARK    2  A    between atoms: C2_3  and  N2_4 
REMARK    3  A    between atoms: C7_9  and  O1_10 
ROOT
HETATM    1  N2  UNL     1      22.817  12.633  21.716  1.00  0.00    -0.058 N 
HETATM    2  C3  UNL     1      22.994  13.861  20.964  1.00  0.00     0.238 C 
HETATM    3  C4  UNL     1      22.743  13.506  19.497  1.00  0.00     0.037 C 
HETATM    4  C5  UNL     1      22.423  12.042  19.602  1.00  0.00     0.044 C 
HETATM    5  C6  UNL     1      21.700  12.029  20.959  1.00  0.00     0.245 C 
HETATM    6  C7  UNL     1      23.694  11.323  19.978  1.00  0.00     0.150 C 
HETATM    7  C8  UNL     1      23.856  11.684  21.462  1.00  0.00     0.270 C 
ENDROOT
BRANCH   1   8
HETATM    8  C2  UNL     1      22.477  12.825  23.078  1.00  0.00     0.310 C 
BRANCH   8   9
HETATM    9  C1  UNL     1      23.456  12.314  24.047  1.00  0.00     0.125 C 
HETATM   10  N1  UNL     1      24.604  13.093  24.350  1.00  0.00    -0.085 NA
HETATM   11  N3  UNL     1      23.320  11.178  24.642  1.00  0.00    -0.313 N 
HETATM   12 BR1  UNL     1      21.849  10.040  24.339  1.00  0.00     0.048 Br
ATOM     13  H3  UNL     1      24.038  10.883  25.305  1.00  0.00     0.174 HD
ENDBRANCH   8   9
ENDBRANCH   1   8
BRANCH   6  14
HETATM   14  O1  UNL     1      23.576   9.958  19.807  1.00  0.00    -0.393 OA
ATOM     15  H1  UNL     1      23.869   9.686  18.945  1.00  0.00     0.210 HD
ENDBRANCH   6  14
TORSDOF 3
ENDMDL
MODEL 3
REMARK VINA RESULT: -4.702644958      1.315      1.611
REMARK  3 active torsions:
REMARK  status: ('A' for Active; 'I' for Inactive)
REMARK    1  A    between atoms: C1_2  and  C2_3 
REMARK    2  A    between atoms: C2_3  and  N2_4 
REMARK    3  A    between atoms: C7_9  and  O1_10 
ROOT
HETATM    1  N2  UNL     1      24.029  12.125  19.274  1.00  0.00    -0.058 N 
HETATM    2  C3  UNL     1      24.782  13.082  18.486  1.00  0.00     0.238 C 
HETATM    3  C4  UNL     1      26.079  12.381  18.080  1.00  0.00     0.037 C 
HETATM    4  C5  UNL     1      25.890  11.031  18.711  1.00  0.00     0.044 C 
HETATM    5  C6  UNL     1      24.369  10.879  18.552  1.00  0.00     0.245 C 
HETATM    6  C7  UNL     1      25.980  11.209  20.206  1.00  0.00     0.150 C 
HETATM    7  C8  UNL     1      24.634  11.870  20.544  1.00  0.00     0.270 C 
ENDROOT
BRANCH   1   8
HETATM    8  C2  UNL     1      22.631  12.351  19.292  1.00  0.00     0.310 C 
BRANCH   8   9
HETATM    9  C1  UNL     1      21.918  11.781  20.443  1.00  0.00     0.125 C 
HETATM   10  N1  UNL     1      21.520  10.419  20.408  1.00  0.00    -0.085 NA
HETATM   11  N3  UNL     1      21.632  12.469  21.496  1.00  0.00    -0.313 N 
HETATM   12 BR1  UNL     1      22.097  14.287  21.681  1.00  0.00     0.048 Br
ATOM     13  H3  UNL     1      21.135  12.011  22.260  1.00  0.00     0.174 HD
ENDBRANCH   8   9
ENDBRANCH   1   8
BRANCH   6  14
HETATM   14  O1  UNL     1      26.117   9.998  20.856  1.00  0.00    -0.393 OA
ATOM     15  H1  UNL     1      27.023   9.715  20.881  1.00  0.00     0.210 HD
ENDBRANCH   6  14
TORSDOF 3
ENDMDL
MODEL 4
REMARK VINA RESULT: -4.682055793      3.034      4.204
REMARK  3 active torsions:
REMARK  status: ('A' for Active; 'I' for Inactive)
REMARK    1  A    between atoms: C1_2  and  C2_3 
REMARK    2  A    between atoms: C2_3  and  N2_4 
REMARK    3  A    between atoms: C7_9  and  O1_10 
ROOT
HETATM    1  N2  UNL     1      24.036  12.196  19.368  1.00  0.00    -0.058 N 
HETATM    2  C3  UNL     1      24.359  12.763  20.663  1.00  0.00     0.238 C 
HETATM    3  C4  UNL     1      23.427  13.960  20.854  1.00  0.00     0.037 C 
HETATM    4  C5  UNL     1      22.633  13.917  19.579  1.00  0.00     0.044 C 
HETATM    5  C6  UNL     1      22.570  12.397  19.361  1.00  0.00     0.245 C 
HETATM    6  C7  UNL     1      23.559  14.304  18.453  1.00  0.00     0.150 C 
HETATM    7  C8  UNL     1      24.426  13.047  18.287  1.00  0.00     0.270 C 
ENDROOT
BRANCH   1   8
HETATM    8  C2  UNL     1      24.373  10.827  19.226  1.00  0.00     0.310 C 
BRANCH   8   9
HETATM    9  C1  UNL     1      24.838  10.165  20.453  1.00  0.00     0.125 C 
HETATM   10  N1  UNL     1      23.883   9.634  21.359  1.00  0.00    -0.085 NA
HETATM   11  N3  UNL     1      26.087  10.044  20.749  1.00  0.00    -0.313 N 
HETATM   12 BR1  UNL     1      27.464  10.701  19.641  1.00  0.00     0.048 Br
ATOM     13  H3  UNL     1      26.342   9.572  21.617  1.00  0.00     0.174 HD
ENDBRANCH   8   9
ENDBRANCH   1   8
BRANCH   6  14
HETATM   14  O1  UNL     1      22.861  14.583  17.294  1.00  0.00    -0.393 OA
ATOM     15  H1  UNL     1      21.947  14.335  17.368  1.00  0.00     0.210 HD
ENDBRANCH   6  14
TORSDOF 3
ENDMDL
MODEL 5
REMARK VINA RESULT: -4.667100166      2.620      3.330
REMARK  3 active torsions:
REMARK  status: ('A' for Active; 'I' for Inactive)
REMARK    1  A    between atoms: C1_2  and  C2_3 
REMARK    2  A    between atoms: C2_3  and  N2_4 
REMARK    3  A    between atoms: C7_9  and  O1_10 
ROOT
HETATM    1  N2  UNL     1      25.786  12.477  19.477  1.00  0.00    -0.058 N 
HETATM    2  C3  UNL     1      25.035  12.014  18.325  1.00  0.00     0.238 C 
HETATM    3  C4  UNL     1      24.656  10.561  18.614  1.00  0.00     0.037 C 
HETATM    4  C5  UNL     1      25.260  10.367  19.975  1.00  0.00     0.044 C 
HETATM    5  C6  UNL     1      25.055  11.776  20.555  1.00  0.00     0.245 C 
HETATM    6  C7  UNL     1      26.759  10.367  19.813  1.00  0.00     0.150 C 
HETATM    7  C8  UNL     1      27.069  11.853  19.575  1.00  0.00     0.270 C 
ENDROOT
BRANCH   1   8
HETATM    8  C2  UNL     1      25.767  13.881  19.663  1.00  0.00     0.310 C 
BRANCH   8   9
HETATM    9  C1  UNL     1      25.539  14.673  18.447  1.00  0.00     0.125 C 
HETATM   10  N1  UNL     1      26.612  14.878  17.541  1.00  0.00    -0.085 NA
HETATM   11  N3  UNL     1      24.396  15.197  18.160  1.00  0.00    -0.313 N 
HETATM   12 BR1  UNL     1      22.883  15.007  19.269  1.00  0.00     0.048 Br
ATOM     13  H3  UNL     1      24.306  15.735  17.298  1.00  0.00     0.174 HD
ENDBRANCH   8   9
ENDBRANCH   1   8
BRANCH   6  14
HETATM   14  O1  UNL     1      27.394   9.902  20.948  1.00  0.00    -0.393 OA
ATOM     15  H1  UNL     1      28.193  10.384  21.125  1.00  0.00     0.210 HD
ENDBRANCH   6  14
TORSDOF 3
ENDMDL
