MODEL 1
REMARK VINA RESULT: -5.631939672      0.000      0.000
REMARK  3 active torsions:
REMARK  status: ('A' for Active; 'I' for Inactive)
REMARK    1  A    between atoms: C1_2  and  C2_3 
REMARK       I    between atoms: C1_2  and  N1_5 
REMARK    2  A    between atoms: N1_5  and  N2_7 
REMARK       I    between atoms: N2_7  and  C3_9 
REMARK    3  A    between atoms: C3_9  and  C4_11 
ROOT
HETATM    1  N2  UNL     1      20.249   9.913  22.392  1.00  0.00    -0.267 N 
ATOM      2  H2  UNL     1      20.217   8.964  22.017  1.00  0.00     0.190 HD
HETATM    3  C3  UNL     1      21.005  10.898  21.725  1.00  0.00     0.240 C 
HETATM    4  O2  UNL     1      21.038  12.057  22.193  1.00  0.00    -0.271 OA
ENDROOT
BRANCH   1   5
HETATM    5  N1  UNL     1      19.538  10.219  23.564  1.00  0.00    -0.267 N 
HETATM    6  C1  UNL     1      18.123  10.213  23.529  1.00  0.00     0.245 C 
HETATM    7  O1  UNL     1      17.517   9.934  22.456  1.00  0.00    -0.271 OA
ATOM      8  H1  UNL     1      20.034  10.443  24.427  1.00  0.00     0.190 HD
BRANCH   6   9
HETATM    9  C2  UNL     1      17.367  10.535  24.760  1.00  0.00     0.189 C 
HETATM   10 BR1  UNL     1      15.870   9.352  24.935  1.00  0.00    -0.087 Br
ENDBRANCH   6   9
ENDBRANCH   1   5
BRANCH   3  11
HETATM   11  C4  UNL     1      21.737  10.576  20.514  1.00  0.00     0.084 C 
HETATM   12  C5  UNL     1      22.175  11.833  19.736  1.00  0.00     0.019 C 
HETATM   13  C6  UNL     1      23.627  11.522  19.573  1.00  0.00    -0.013 C 
HETATM   14  C7  UNL     1      23.664  10.010  19.321  1.00  0.00     0.010 C 
HETATM   15  C9  UNL     1      24.021  11.145  21.008  1.00  0.00     0.010 C 
HETATM   16  C8  UNL     1      23.083   9.962  20.739  1.00  0.00    -0.001 C 
ENDBRANCH   3  11
TORSDOF 3
ENDMDL
MODEL 2
REMARK VINA RESULT: -5.615379397      2.856      3.487
REMARK  3 active torsions:
REMARK  status: ('A' for Active; 'I' for Inactive)
REMARK    1  A    between atoms: C1_2  and  C2_3 
REMARK       I    between atoms: C1_2  and  N1_5 
REMARK    2  A    between atoms: N1_5  and  N2_7 
REMARK       I    between atoms: N2_7  and  C3_9 
REMARK    3  A    between atoms: C3_9  and  C4_11 
ROOT
HETATM    1  N2  UNL     1      23.522   9.933  22.224  1.00  0.00    -0.267 N 
ATOM      2  H2  UNL     1      24.431   9.771  22.659  1.00  0.00     0.190 HD
HETATM    3  C3  UNL     1      23.448  10.156  20.833  1.00  0.00     0.240 C 
HETATM    4  O2  UNL     1      22.331  10.354  20.310  1.00  0.00    -0.271 OA
ENDROOT
BRANCH   1   5
HETATM    5  N1  UNL     1      22.363   9.930  23.017  1.00  0.00    -0.267 N 
HETATM    6  C1  UNL     1      22.335  10.717  24.193  1.00  0.00     0.245 C 
HETATM    7  O1  UNL     1      23.342  11.409  24.516  1.00  0.00    -0.271 OA
ATOM      8  H1  UNL     1      21.553   9.370  22.749  1.00  0.00     0.190 HD
BRANCH   6   9
HETATM    9  C2  UNL     1      21.118  10.719  25.035  1.00  0.00     0.189 C 
HETATM   10 BR1  UNL     1      19.578  11.086  23.955  1.00  0.00    -0.087 Br
ENDBRANCH   6   9
ENDBRANCH   1   5
BRANCH   3  11
HETATM   11  C4  UNL     1      24.649  10.157  20.019  1.00  0.00     0.084 C 
HETATM   12  C5  UNL     1      24.347  10.342  18.519  1.00  0.00     0.019 C 
HETATM   13  C6  UNL     1      25.277  11.473  18.223  1.00  0.00    -0.013 C 
HETATM   14  C7  UNL     1      26.525  11.165  19.058  1.00  0.00     0.010 C 
HETATM   15  C9  UNL     1      24.939  12.451  19.357  1.00  0.00     0.010 C 
HETATM   16  C8  UNL     1      25.545  11.340  20.223  1.00  0.00    -0.001 C 
ENDBRANCH   3  11
TORSDOF 3
ENDMDL
MODEL 3
REMARK VINA RESULT: -5.499639367      3.021      3.319
REMARK  3 active torsions:
REMARK  status: ('A' for Active; 'I' for Inactive)
REMARK    1  A    between atoms: C1_2  and  C2_3 
REMARK       I    between atoms: C1_2  and  N1_5 
REMARK    2  A    between atoms: N1_5  and  N2_7 
REMARK       I    between atoms: N2_7  and  C3_9 
REMARK    3  A    between atoms: C3_9  and  C4_11 
ROOT
HETATM    1  N2  UNL     1      21.414  10.082  24.311  1.00  0.00    -0.267 N 
ATOM      2  H2  UNL     1      20.757   9.562  23.729  1.00  0.00     0.190 HD
HETATM    3  C3  UNL     1      22.555  10.664  23.722  1.00  0.00     0.240 C 
HETATM    4  O2  UNL     1      23.353  11.298  24.446  1.00  0.00    -0.271 OA
ENDROOT
BRANCH   1   5
HETATM    5  N1  UNL     1      21.169  10.208  25.689  1.00  0.00    -0.267 N 
HETATM    6  C1  UNL     1      20.279  11.212  26.138  1.00  0.00     0.245 C 
HETATM    7  O1  UNL     1      19.717  11.979  25.305  1.00  0.00    -0.271 OA
ATOM      8  H1  UNL     1      21.626   9.584  26.356  1.00  0.00     0.190 HD
BRANCH   6   9
HETATM    9  C2  UNL     1      20.017  11.352  27.588  1.00  0.00     0.189 C 
HETATM   10 BR1  UNL     1      21.394  12.407  28.402  1.00  0.00    -0.087 Br
ENDBRANCH   6   9
ENDBRANCH   1   5
BRANCH   3  11
HETATM   11  C4  UNL     1      22.802  10.531  22.299  1.00  0.00     0.084 C 
HETATM   12  C5  UNL     1      21.502  10.364  21.486  1.00  0.00     0.019 C 
HETATM   13  C6  UNL     1      21.715  11.437  20.468  1.00  0.00    -0.013 C 
HETATM   14  C7  UNL     1      23.215  11.373  20.159  1.00  0.00     0.010 C 
HETATM   15  C9  UNL     1      22.098  12.629  21.357  1.00  0.00     0.010 C 
HETATM   16  C8  UNL     1      23.333  11.764  21.636  1.00  0.00    -0.001 C 
ENDBRANCH   3  11
TORSDOF 3
ENDMDL
MODEL 4
REMARK VINA RESULT: -5.489848871      2.292      2.514
REMARK  3 active torsions:
REMARK  status: ('A' for Active; 'I' for Inactive)
REMARK    1  A    between atoms: C1_2  and  C2_3 
REMARK       I    between atoms: C1_2  and  N1_5 
REMARK    2  A    between atoms: N1_5  and  N2_7 
REMARK       I    between atoms: N2_7  and  C3_9 
REMARK    3  A    between atoms: C3_9  and  C4_11 
ROOT
HETATM    1  N2  UNL     1      21.528   9.941  21.746  1.00  0.00    -0.267 N 
ATOM      2  H2  UNL     1      21.830   9.004  21.476  1.00  0.00     0.190 HD
HETATM    3  C3  UNL     1      21.797  11.031  20.894  1.00  0.00     0.240 C 
HETATM    4  O2  UNL     1      21.422  12.174  21.234  1.00  0.00    -0.271 OA
ENDROOT
BRANCH   1   5
HETATM    5  N1  UNL     1      20.848  10.126  22.961  1.00  0.00    -0.267 N 
HETATM    6  C1  UNL     1      21.599  10.249  24.155  1.00  0.00     0.245 C 
HETATM    7  O1  UNL     1      22.861  10.192  24.117  1.00  0.00    -0.271 OA
ATOM      8  H1  UNL     1      19.829  10.172  22.983  1.00  0.00     0.190 HD
BRANCH   6   9
HETATM    9  C2  UNL     1      20.891  10.443  25.440  1.00  0.00     0.189 C 
HETATM   10 BR1  UNL     1      19.335  11.529  25.170  1.00  0.00    -0.087 Br
ENDBRANCH   6   9
ENDBRANCH   1   5
BRANCH   3  11
HETATM   11  C4  UNL     1      22.499  10.833  19.639  1.00  0.00     0.084 C 
HETATM   12  C5  UNL     1      23.039  12.152  19.049  1.00  0.00     0.019 C 
HETATM   13  C6  UNL     1      24.460  11.751  18.824  1.00  0.00    -0.013 C 
HETATM   14  C7  UNL     1      24.373  10.295  18.351  1.00  0.00     0.010 C 
HETATM   15  C9  UNL     1      24.822  11.135  20.183  1.00  0.00     0.010 C 
HETATM   16  C8  UNL     1      23.791  10.085  19.753  1.00  0.00    -0.001 C 
ENDBRANCH   3  11
TORSDOF 3
ENDMDL
MODEL 5
REMARK VINA RESULT: -5.433605974      0.930      1.354
REMARK  3 active torsions:
REMARK  status: ('A' for Active; 'I' for Inactive)
REMARK    1  A    between atoms: C1_2  and  C2_3 
REMARK       I    between atoms: C1_2  and  N1_5 
REMARK    2  A    between atoms: N1_5  and  N2_7 
REMARK       I    between atoms: N2_7  and  C3_9 
REMARK    3  A    between atoms: C3_9  and  C4_11 
ROOT
HETATM    1  N2  UNL     1      20.173  10.166  23.033  1.00  0.00    -0.267 N 
ATOM      2  H2  UNL     1      19.944   9.451  22.342  1.00  0.00     0.190 HD
HETATM    3  C3  UNL     1      21.361  10.911  22.896  1.00  0.00     0.240 C 
HETATM    4  O2  UNL     1      21.632  11.785  23.748  1.00  0.00    -0.271 OA
ENDROOT
BRANCH   1   5
HETATM    5  N1  UNL     1      19.299  10.394  24.109  1.00  0.00    -0.267 N 
HETATM    6  C1  UNL     1      17.903  10.362  23.877  1.00  0.00     0.245 C 
HETATM    7  O1  UNL     1      17.459  10.129  22.717  1.00  0.00    -0.271 OA
ATOM      8  H1  UNL     1      19.664  10.581  25.044  1.00  0.00     0.190 HD
BRANCH   6   9
HETATM    9  C2  UNL     1      16.975  10.602  25.005  1.00  0.00     0.189 C 
HETATM   10 BR1  UNL     1      15.606   9.262  25.021  1.00  0.00    -0.087 Br
ENDBRANCH   6   9
ENDBRANCH   1   5
BRANCH   3  11
HETATM   11  C4  UNL     1      22.260  10.672  21.782  1.00  0.00     0.084 C 
HETATM   12  C5  UNL     1      21.509  10.363  20.471  1.00  0.00     0.019 C 
HETATM   13  C6  UNL     1      22.173  11.355  19.573  1.00  0.00    -0.013 C 
HETATM   14  C7  UNL     1      23.639  11.349  20.022  1.00  0.00     0.010 C 
HETATM   15  C9  UNL     1      22.075  12.638  20.410  1.00  0.00     0.010 C 
HETATM   16  C8  UNL     1      23.033  11.871  21.329  1.00  0.00    -0.001 C 
ENDBRANCH   3  11
TORSDOF 3
ENDMDL
