MODEL 1
REMARK VINA RESULT: -5.868418214      0.000      0.000
REMARK  2 active torsions:
REMARK  status: ('A' for Active; 'I' for Inactive)
REMARK    1  A    between atoms: N1_7  and  O1_9 
REMARK    2  A    between atoms: C7_11  and  O2_12 
ROOT
HETATM    1  C1  UNL     1      16.122 -37.852 -24.798  1.00  0.00     0.010 C 
HETATM    2  C2  UNL     1      16.670 -37.768 -26.200  1.00  0.00    -0.017 C 
HETATM    3  C3  UNL     1      18.022 -37.106 -26.159  1.00  0.00     0.005 C 
HETATM    4  C4  UNL     1      17.973 -35.743 -26.825  1.00  0.00     0.006 C 
HETATM    5  C5  UNL     1      18.710 -35.773 -28.165  1.00  0.00     0.059 C 
HETATM    6  C6  UNL     1      17.980 -34.994 -29.191  1.00  0.00     0.057 C 
HETATM    7  N1  UNL     1      17.942 -33.718 -29.049  1.00  0.00    -0.273 N 
ATOM      8  H1  UNL     1      18.401 -33.274 -28.255  1.00  0.00     0.193 HD
HETATM    9  C7  UNL     1      17.303 -35.661 -30.362  1.00  0.00     0.263 C 
HETATM   10  N2  UNL     1      17.642 -37.038 -30.318  1.00  0.00    -0.382 N 
ATOM     11  H2  UNL     1      18.418 -37.378 -29.751  1.00  0.00     0.157 HD
HETATM   12  C8  UNL     1      16.855 -37.917 -31.093  1.00  0.00     0.042 C 
HETATM   13  C9  UNL     1      15.869 -37.291 -32.011  1.00  0.00     0.040 C 
HETATM   14  C10 UNL     1      17.803 -38.770 -31.945  1.00  0.00     0.040 C 
HETATM   15  C11 UNL     1      16.131 -38.871 -30.138  1.00  0.00     0.197 C 
HETATM   16  O3  UNL     1      15.974 -38.260 -28.876  1.00  0.00    -0.389 OA
HETATM   17  C12 UNL     1      15.715 -39.271 -27.938  1.00  0.00     0.168 C 
HETATM   18  C13 UNL     1      16.708 -39.148 -26.785  1.00  0.00     0.030 C 
ENDROOT
BRANCH   7  19
HETATM   19  O1  UNL     1      17.284 -32.966 -29.967  1.00  0.00    -0.290 OA
ATOM     20  H1  UNL     1      17.289 -33.234 -30.878  1.00  0.00     0.244 HD
ENDBRANCH   7  19
BRANCH   9  21
HETATM   21  O2  UNL     1      15.965 -35.376 -30.262  1.00  0.00    -0.372 OA
ATOM     22  H2  UNL     1      15.792 -34.657 -30.858  1.00  0.00     0.212 HD
ENDBRANCH   9  21
TORSDOF 2
ENDMDL
MODEL 2
REMARK VINA RESULT: -5.761692801      2.468      4.695
REMARK  2 active torsions:
REMARK  status: ('A' for Active; 'I' for Inactive)
REMARK    1  A    between atoms: N1_7  and  O1_9 
REMARK    2  A    between atoms: C7_11  and  O2_12 
ROOT
HETATM    1  C1  UNL     1      16.268 -40.427 -30.938  1.00  0.00     0.010 C 
HETATM    2  C2  UNL     1      17.131 -39.743 -29.908  1.00  0.00    -0.017 C 
HETATM    3  C3  UNL     1      16.933 -40.417 -28.576  1.00  0.00     0.005 C 
HETATM    4  C4  UNL     1      16.224 -39.490 -27.606  1.00  0.00     0.006 C 
HETATM    5  C5  UNL     1      17.190 -39.003 -26.525  1.00  0.00     0.059 C 
HETATM    6  C6  UNL     1      16.968 -37.571 -26.218  1.00  0.00     0.057 C 
HETATM    7  N1  UNL     1      15.875 -37.256 -25.621  1.00  0.00    -0.273 N 
ATOM      8  H1  UNL     1      15.197 -37.977 -25.375  1.00  0.00     0.193 HD
HETATM    9  C7  UNL     1      17.978 -36.514 -26.588  1.00  0.00     0.263 C 
HETATM   10  N2  UNL     1      19.122 -37.182 -27.096  1.00  0.00    -0.382 N 
ATOM     11  H2  UNL     1      19.270 -38.179 -26.942  1.00  0.00     0.157 HD
HETATM   12  C8  UNL     1      20.047 -36.404 -27.824  1.00  0.00     0.042 C 
HETATM   13  C9  UNL     1      19.819 -34.936 -27.833  1.00  0.00     0.040 C 
HETATM   14  C10 UNL     1      21.440 -36.650 -27.231  1.00  0.00     0.040 C 
HETATM   15  C11 UNL     1      20.075 -36.926 -29.264  1.00  0.00     0.197 C 
HETATM   16  O3  UNL     1      18.844 -37.542 -29.575  1.00  0.00    -0.389 OA
HETATM   17  C12 UNL     1      19.045 -38.362 -30.696  1.00  0.00     0.168 C 
HETATM   18  C13 UNL     1      18.554 -39.772 -30.378  1.00  0.00     0.030 C 
ENDROOT
BRANCH   7  19
HETATM   19  O1  UNL     1      15.632 -35.956 -25.321  1.00  0.00    -0.290 OA
ATOM     20  H1  UNL     1      14.772 -35.703 -25.007  1.00  0.00     0.244 HD
ENDBRANCH   7  19
BRANCH   9  21
HETATM   21  O2  UNL     1      17.354 -35.658 -27.460  1.00  0.00    -0.372 OA
ATOM     22  H2  UNL     1      16.489 -35.488 -27.108  1.00  0.00     0.212 HD
ENDBRANCH   9  21
TORSDOF 2
ENDMDL
MODEL 3
REMARK VINA RESULT: -5.550028622      2.461      4.996
REMARK  2 active torsions:
REMARK  status: ('A' for Active; 'I' for Inactive)
REMARK    1  A    between atoms: N1_7  and  O1_9 
REMARK    2  A    between atoms: C7_11  and  O2_12 
ROOT
HETATM    1  C1  UNL     1      14.896 -37.929 -31.354  1.00  0.00     0.010 C 
HETATM    2  C2  UNL     1      16.026 -38.031 -30.362  1.00  0.00    -0.017 C 
HETATM    3  C3  UNL     1      15.856 -39.289 -29.552  1.00  0.00     0.005 C 
HETATM    4  C4  UNL     1      15.523 -38.958 -28.109  1.00  0.00     0.006 C 
HETATM    5  C5  UNL     1      16.713 -39.265 -27.198  1.00  0.00     0.059 C 
HETATM    6  C6  UNL     1      16.878 -38.216 -26.166  1.00  0.00     0.057 C 
HETATM    7  N1  UNL     1      15.981 -38.140 -25.250  1.00  0.00    -0.273 N 
ATOM      8  H1  UNL     1      15.192 -38.786 -25.248  1.00  0.00     0.193 HD
HETATM    9  C7  UNL     1      18.049 -37.266 -26.180  1.00  0.00     0.263 C 
HETATM   10  N2  UNL     1      18.925 -37.689 -27.213  1.00  0.00    -0.382 N 
ATOM     11  H2  UNL     1      18.853 -38.619 -27.626  1.00  0.00     0.157 HD
HETATM   12  C8  UNL     1      19.901 -36.766 -27.644  1.00  0.00     0.042 C 
HETATM   13  C9  UNL     1      20.026 -35.514 -26.854  1.00  0.00     0.040 C 
HETATM   14  C10 UNL     1      21.263 -37.470 -27.612  1.00  0.00     0.040 C 
HETATM   15  C11 UNL     1      19.611 -36.420 -29.108  1.00  0.00     0.197 C 
HETATM   16  O3  UNL     1      18.239 -36.605 -29.382  1.00  0.00    -0.389 OA
HETATM   17  C12 UNL     1      18.088 -36.700 -30.774  1.00  0.00     0.168 C 
HETATM   18  C13 UNL     1      17.326 -37.981 -31.107  1.00  0.00     0.030 C 
ENDROOT
BRANCH   7  19
HETATM   19  O1  UNL     1      16.094 -37.194 -24.285  1.00  0.00    -0.290 OA
ATOM     20  H1  UNL     1      15.376 -36.589 -24.139  1.00  0.00     0.244 HD
ENDBRANCH   7  19
BRANCH   9  21
HETATM   21  O2  UNL     1      17.534 -36.003 -26.320  1.00  0.00    -0.372 OA
ATOM     22  H2  UNL     1      16.720 -35.981 -25.830  1.00  0.00     0.212 HD
ENDBRANCH   9  21
TORSDOF 2
ENDMDL
MODEL 4
REMARK VINA RESULT: -5.533764887      3.243      5.474
REMARK  2 active torsions:
REMARK  status: ('A' for Active; 'I' for Inactive)
REMARK    1  A    between atoms: N1_7  and  O1_9 
REMARK    2  A    between atoms: C7_11  and  O2_12 
ROOT
HETATM    1  C1  UNL     1      21.294 -35.912 -29.098  1.00  0.00     0.010 C 
HETATM    2  C2  UNL     1      20.354 -36.725 -28.246  1.00  0.00    -0.017 C 
HETATM    3  C3  UNL     1      21.067 -37.965 -27.774  1.00  0.00     0.005 C 
HETATM    4  C4  UNL     1      20.472 -39.204 -28.416  1.00  0.00     0.006 C 
HETATM    5  C5  UNL     1      19.678 -40.013 -27.388  1.00  0.00     0.059 C 
HETATM    6  C6  UNL     1      18.428 -40.544 -27.979  1.00  0.00     0.057 C 
HETATM    7  N1  UNL     1      18.538 -41.464 -28.868  1.00  0.00    -0.273 N 
ATOM      8  H1  UNL     1      19.458 -41.805 -29.145  1.00  0.00     0.193 HD
HETATM    9  C7  UNL     1      17.072 -40.031 -27.562  1.00  0.00     0.263 C 
HETATM   10  N2  UNL     1      17.274 -39.138 -26.478  1.00  0.00    -0.382 N 
ATOM     11  H2  UNL     1      18.150 -39.119 -25.958  1.00  0.00     0.157 HD
HETATM   12  C8  UNL     1      16.205 -38.276 -26.152  1.00  0.00     0.042 C 
HETATM   13  C9  UNL     1      14.920 -38.513 -26.859  1.00  0.00     0.040 C 
HETATM   14  C10 UNL     1      15.935 -38.407 -24.648  1.00  0.00     0.040 C 
HETATM   15  C11 UNL     1      16.667 -36.836 -26.399  1.00  0.00     0.197 C 
HETATM   16  O3  UNL     1      17.685 -36.819 -27.376  1.00  0.00    -0.389 OA
HETATM   17  C12 UNL     1      18.364 -35.596 -27.269  1.00  0.00     0.168 C 
HETATM   18  C13 UNL     1      19.859 -35.866 -27.121  1.00  0.00     0.030 C 
ENDROOT
BRANCH   7  19
HETATM   19  O1  UNL     1      17.419 -41.979 -29.435  1.00  0.00    -0.290 OA
ATOM     20  H1  UNL     1      17.468 -42.356 -30.305  1.00  0.00     0.244 HD
ENDBRANCH   7  19
BRANCH   9  21
HETATM   21  O2  UNL     1      16.493 -39.488 -28.679  1.00  0.00    -0.372 OA
ATOM     22  H2  UNL     1      15.645 -39.152 -28.414  1.00  0.00     0.212 HD
ENDBRANCH   9  21
TORSDOF 2
ENDMDL
MODEL 5
REMARK VINA RESULT: -5.302611300      2.017      2.336
REMARK  2 active torsions:
REMARK  status: ('A' for Active; 'I' for Inactive)
REMARK    1  A    between atoms: N1_7  and  O1_9 
REMARK    2  A    between atoms: C7_11  and  O2_12 
ROOT
HETATM    1  C1  UNL     1      15.862 -35.828 -24.627  1.00  0.00     0.010 C 
HETATM    2  C2  UNL     1      16.514 -36.789 -25.588  1.00  0.00    -0.017 C 
HETATM    3  C3  UNL     1      18.010 -36.683 -25.449  1.00  0.00     0.005 C 
HETATM    4  C4  UNL     1      18.623 -36.079 -26.699  1.00  0.00     0.006 C 
HETATM    5  C5  UNL     1      19.388 -37.142 -27.489  1.00  0.00     0.059 C 
HETATM    6  C6  UNL     1      19.170 -36.982 -28.945  1.00  0.00     0.057 C 
HETATM    7  N1  UNL     1      19.683 -35.950 -29.512  1.00  0.00    -0.273 N 
ATOM      8  H1  UNL     1      20.218 -35.276 -28.965  1.00  0.00     0.193 HD
HETATM    9  C7  UNL     1      18.376 -37.986 -29.744  1.00  0.00     0.263 C 
HETATM   10  N2  UNL     1      18.070 -39.068 -28.878  1.00  0.00    -0.382 N 
ATOM     11  H2  UNL     1      18.564 -39.202 -27.996  1.00  0.00     0.157 HD
HETATM   12  C8  UNL     1      17.050 -39.951 -29.292  1.00  0.00     0.042 C 
HETATM   13  C9  UNL     1      16.526 -39.761 -30.668  1.00  0.00     0.040 C 
HETATM   14  C10 UNL     1      17.598 -41.380 -29.200  1.00  0.00     0.040 C 
HETATM   15  C11 UNL     1      15.898 -39.849 -28.286  1.00  0.00     0.197 C 
HETATM   16  O3  UNL     1      15.914 -38.581 -27.667  1.00  0.00    -0.389 OA
HETATM   17  C12 UNL     1      15.155 -38.669 -26.489  1.00  0.00     0.168 C 
HETATM   18  C13 UNL     1      15.994 -38.169 -25.316  1.00  0.00     0.030 C 
ENDROOT
BRANCH   7  19
HETATM   19  O1  UNL     1      19.507 -35.766 -30.844  1.00  0.00    -0.290 OA
ATOM     20  H1  UNL     1      19.595 -34.894 -31.209  1.00  0.00     0.244 HD
ENDBRANCH   7  19
BRANCH   9  21
HETATM   21  O2  UNL     1      17.296 -37.317 -30.261  1.00  0.00    -0.372 OA
ATOM     22  H2  UNL     1      16.620 -37.965 -30.417  1.00  0.00     0.212 HD
ENDBRANCH   9  21
TORSDOF 2
ENDMDL
