MODEL 1
REMARK VINA RESULT: -7.314368066      0.000      0.000
REMARK  3 active torsions:
REMARK  status: ('A' for Active; 'I' for Inactive)
REMARK    1  A    between atoms: N2_13  and  N3_15 
REMARK    2  A    between atoms: N3_15  and  C10_17 
REMARK    3  A    between atoms: C11_20  and  O1_21 
ROOT
HETATM    1  C1  UNL     1      15.295 -38.779 -26.962  1.00  0.00     0.022 C 
HETATM    2  C2  UNL     1      16.720 -38.593 -26.513  1.00  0.00     0.074 C 
HETATM    3  C3  UNL     1      17.706 -38.741 -27.591  1.00  0.00    -0.010 C 
HETATM    4  N1  UNL     1      17.393 -39.366 -28.651  1.00  0.00    -0.405 N 
ATOM      5  H11 UNL     1      18.079 -39.469 -29.400  1.00  0.00     0.155 HD
ATOM      6  H12 UNL     1      16.469 -39.776 -28.782  1.00  0.00     0.155 HD
HETATM    7  C4  UNL     1      19.056 -38.143 -27.399  1.00  0.00     0.061 C 
HETATM    8  C5  UNL     1      18.876 -36.657 -27.185  1.00  0.00    -0.038 C 
HETATM    9  C6  UNL     1      18.361 -36.037 -28.451  1.00  0.00     0.015 C 
HETATM   10  C7  UNL     1      20.241 -36.015 -26.904  1.00  0.00     0.015 C 
HETATM   11  C8  UNL     1      18.011 -36.387 -25.988  1.00  0.00     0.064 C 
HETATM   12  C9  UNL     1      16.838 -37.255 -25.885  1.00  0.00     0.013 C 
HETATM   13  N2  UNL     1      15.822 -36.839 -25.200  1.00  0.00    -0.306 N 
ATOM     14  H2  UNL     1      15.004 -37.445 -25.128  1.00  0.00     0.186 HD
ENDROOT
BRANCH  13  15
HETATM   15  N3  UNL     1      15.791 -35.620 -24.564  1.00  0.00    -0.280 N 
ATOM     16  H3  UNL     1      15.970 -34.762 -25.086  1.00  0.00     0.189 HD
BRANCH  15  17
HETATM   17  C10 UNL     1      15.529 -35.572 -23.275  1.00  0.00     0.165 A 
HETATM   18  N4  UNL     1      14.962 -34.581 -22.591  1.00  0.00    -0.316 N 
HETATM   19  C11 UNL     1      14.784 -34.725 -21.305  1.00  0.00     0.148 A 
ATOM     20  H4  UNL     1      14.672 -33.725 -23.064  1.00  0.00     0.170 HD
HETATM   21  C12 UNL     1      15.197 -35.895 -20.732  1.00  0.00     0.109 A 
HETATM   22  S1  UNL     1      15.825 -36.746 -22.074  1.00  0.00    -0.060 SA
BRANCH  19  23
HETATM   23  O1  UNL     1      14.190 -33.731 -20.476  1.00  0.00    -0.346 OA
ATOM     24  H1  UNL     1      14.688 -33.093 -19.980  1.00  0.00     0.219 HD
ENDBRANCH  19  23
ENDBRANCH  15  17
ENDBRANCH  13  15
TORSDOF 3
ENDMDL
MODEL 2
REMARK VINA RESULT: -6.883578373      1.518      2.888
REMARK  3 active torsions:
REMARK  status: ('A' for Active; 'I' for Inactive)
REMARK    1  A    between atoms: N2_13  and  N3_15 
REMARK    2  A    between atoms: N3_15  and  C10_17 
REMARK    3  A    between atoms: C11_20  and  O1_21 
ROOT
HETATM    1  C1  UNL     1      19.146 -35.990 -26.387  1.00  0.00     0.022 C 
HETATM    2  C2  UNL     1      17.802 -36.278 -27.000  1.00  0.00     0.074 C 
HETATM    3  C3  UNL     1      17.870 -37.089 -28.223  1.00  0.00    -0.010 C 
HETATM    4  N1  UNL     1      18.956 -37.153 -28.879  1.00  0.00    -0.405 N 
ATOM      5  H11 UNL     1      19.003 -37.716 -29.728  1.00  0.00     0.155 HD
ATOM      6  H12 UNL     1      19.794 -36.653 -28.583  1.00  0.00     0.155 HD
HETATM    7  C4  UNL     1      16.646 -37.818 -28.655  1.00  0.00     0.061 C 
HETATM    8  C5  UNL     1      16.251 -38.759 -27.539  1.00  0.00    -0.038 C 
HETATM    9  C6  UNL     1      17.299 -39.824 -27.401  1.00  0.00     0.015 C 
HETATM   10  C7  UNL     1      14.946 -39.472 -27.915  1.00  0.00     0.015 C 
HETATM   11  C8  UNL     1      15.988 -38.005 -26.268  1.00  0.00     0.064 C 
HETATM   12  C9  UNL     1      16.961 -36.949 -25.982  1.00  0.00     0.013 C 
HETATM   13  N2  UNL     1      17.108 -36.564 -24.755  1.00  0.00    -0.306 N 
ATOM     14  H2  UNL     1      17.786 -35.828 -24.556  1.00  0.00     0.186 HD
ENDROOT
BRANCH  13  15
HETATM   15  N3  UNL     1      16.394 -37.098 -23.708  1.00  0.00    -0.280 N 
ATOM     16  H3  UNL     1      16.274 -38.108 -23.628  1.00  0.00     0.189 HD
BRANCH  15  17
HETATM   17  C10 UNL     1      15.867 -36.293 -22.809  1.00  0.00     0.165 A 
HETATM   18  N4  UNL     1      15.724 -36.505 -21.504  1.00  0.00    -0.316 N 
HETATM   19  C11 UNL     1      15.172 -35.575 -20.771  1.00  0.00     0.148 A 
ATOM     20  H4  UNL     1      16.039 -37.380 -21.083  1.00  0.00     0.170 HD
HETATM   21  C12 UNL     1      14.770 -34.427 -21.396  1.00  0.00     0.109 A 
HETATM   22  S1  UNL     1      15.205 -34.735 -23.019  1.00  0.00    -0.060 SA
BRANCH  19  23
HETATM   23  O1  UNL     1      14.968 -35.695 -19.367  1.00  0.00    -0.346 OA
ATOM     24  H1  UNL     1      14.875 -34.951 -18.784  1.00  0.00     0.219 HD
ENDBRANCH  19  23
ENDBRANCH  15  17
ENDBRANCH  13  15
TORSDOF 3
ENDMDL
MODEL 3
REMARK VINA RESULT: -5.604914402      2.231      2.997
REMARK  3 active torsions:
REMARK  status: ('A' for Active; 'I' for Inactive)
REMARK    1  A    between atoms: N2_13  and  N3_15 
REMARK    2  A    between atoms: N3_15  and  C10_17 
REMARK    3  A    between atoms: C11_20  and  O1_21 
ROOT
HETATM    1  C1  UNL     1      16.644 -36.810 -28.905  1.00  0.00     0.022 C 
HETATM    2  C2  UNL     1      16.936 -38.286 -28.897  1.00  0.00     0.074 C 
HETATM    3  C3  UNL     1      18.161 -38.651 -29.622  1.00  0.00    -0.010 C 
HETATM    4  N1  UNL     1      18.643 -37.857 -30.487  1.00  0.00    -0.405 N 
ATOM      5  H11 UNL     1      19.494 -38.110 -30.990  1.00  0.00     0.155 HD
ATOM      6  H12 UNL     1      18.205 -36.961 -30.700  1.00  0.00     0.155 HD
HETATM    7  C4  UNL     1      18.801 -39.959 -29.311  1.00  0.00     0.061 C 
HETATM    8  C5  UNL     1      19.157 -39.960 -27.841  1.00  0.00    -0.038 C 
HETATM    9  C6  UNL     1      20.232 -38.942 -27.595  1.00  0.00     0.015 C 
HETATM   10  C7  UNL     1      19.748 -41.324 -27.463  1.00  0.00     0.015 C 
HETATM   11  C8  UNL     1      17.936 -39.762 -26.991  1.00  0.00     0.064 C 
HETATM   12  C9  UNL     1      17.017 -38.736 -27.488  1.00  0.00     0.013 C 
HETATM   13  N2  UNL     1      16.210 -38.173 -26.647  1.00  0.00    -0.306 N 
ATOM     14  H2  UNL     1      15.570 -37.458 -26.993  1.00  0.00     0.186 HD
ENDROOT
BRANCH  13  15
HETATM   15  N3  UNL     1      16.175 -38.492 -25.310  1.00  0.00    -0.280 N 
ATOM     16  H3  UNL     1      16.299 -39.458 -25.007  1.00  0.00     0.189 HD
BRANCH  15  17
HETATM   17  C10 UNL     1      15.980 -37.537 -24.424  1.00  0.00     0.165 A 
HETATM   18  N4  UNL     1      15.849 -37.658 -23.106  1.00  0.00    -0.316 N 
HETATM   19  C11 UNL     1      15.661 -36.582 -22.390  1.00  0.00     0.148 A 
ATOM     20  H4  UNL     1      15.896 -38.576 -22.662  1.00  0.00     0.170 HD
HETATM   21  C12 UNL     1      15.607 -35.383 -23.045  1.00  0.00     0.109 A 
HETATM   22  S1  UNL     1      15.833 -35.856 -24.671  1.00  0.00    -0.060 SA
BRANCH  19  23
HETATM   23  O1  UNL     1      15.508 -36.593 -20.974  1.00  0.00    -0.346 OA
ATOM     24  H1  UNL     1      15.104 -37.307 -20.495  1.00  0.00     0.219 HD
ENDBRANCH  19  23
ENDBRANCH  15  17
ENDBRANCH  13  15
TORSDOF 3
ENDMDL
MODEL 4
REMARK VINA RESULT: -5.560844667      4.088      5.928
REMARK  3 active torsions:
REMARK  status: ('A' for Active; 'I' for Inactive)
REMARK    1  A    between atoms: N2_13  and  N3_15 
REMARK    2  A    between atoms: N3_15  and  C10_17 
REMARK    3  A    between atoms: C11_20  and  O1_21 
ROOT
HETATM    1  C1  UNL     1      16.192 -35.806 -25.135  1.00  0.00     0.022 C 
HETATM    2  C2  UNL     1      17.105 -36.965 -25.434  1.00  0.00     0.074 C 
HETATM    3  C3  UNL     1      16.458 -38.278 -25.304  1.00  0.00    -0.010 C 
HETATM    4  N1  UNL     1      15.398 -38.394 -24.615  1.00  0.00    -0.405 N 
ATOM      5  H11 UNL     1      14.949 -39.306 -24.525  1.00  0.00     0.155 HD
ATOM      6  H12 UNL     1      14.974 -37.598 -24.140  1.00  0.00     0.155 HD
HETATM    7  C4  UNL     1      17.077 -39.441 -25.998  1.00  0.00     0.061 C 
HETATM    8  C5  UNL     1      17.118 -39.127 -27.477  1.00  0.00    -0.038 C 
HETATM    9  C6  UNL     1      15.715 -39.072 -28.007  1.00  0.00     0.015 C 
HETATM   10  C7  UNL     1      17.824 -40.270 -28.218  1.00  0.00     0.015 C 
HETATM   11  C8  UNL     1      17.911 -37.880 -27.741  1.00  0.00     0.064 C 
HETATM   12  C9  UNL     1      17.646 -36.789 -26.802  1.00  0.00     0.013 C 
HETATM   13  N2  UNL     1      17.899 -35.577 -27.179  1.00  0.00    -0.306 N 
ATOM     14  H2  UNL     1      17.714 -34.817 -26.525  1.00  0.00     0.186 HD
ENDROOT
BRANCH  13  15
HETATM   15  N3  UNL     1      18.403 -35.265 -28.420  1.00  0.00    -0.280 N 
ATOM     16  H3  UNL     1      19.375 -35.475 -28.649  1.00  0.00     0.189 HD
BRANCH  15  17
HETATM   17  C10 UNL     1      17.619 -34.694 -29.311  1.00  0.00     0.165 A 
HETATM   18  N4  UNL     1      17.465 -33.395 -29.552  1.00  0.00    -0.316 N 
HETATM   19  C11 UNL     1      16.632 -33.023 -30.487  1.00  0.00     0.148 A 
ATOM     20  H4  UNL     1      17.988 -32.702 -29.016  1.00  0.00     0.170 HD
HETATM   21  C12 UNL     1      15.961 -34.001 -31.168  1.00  0.00     0.109 A 
HETATM   22  S1  UNL     1      16.560 -35.421 -30.432  1.00  0.00    -0.060 SA
BRANCH  19  23
HETATM   23  O1  UNL     1      16.388 -31.662 -30.829  1.00  0.00    -0.346 OA
ATOM     24  H1  UNL     1      16.558 -30.935 -30.242  1.00  0.00     0.219 HD
ENDBRANCH  19  23
ENDBRANCH  15  17
ENDBRANCH  13  15
TORSDOF 3
ENDMDL
MODEL 5
REMARK VINA RESULT: -5.478318028      4.093      6.033
REMARK  3 active torsions:
REMARK  status: ('A' for Active; 'I' for Inactive)
REMARK    1  A    between atoms: N2_13  and  N3_15 
REMARK    2  A    between atoms: N3_15  and  C10_17 
REMARK    3  A    between atoms: C11_20  and  O1_21 
ROOT
HETATM    1  C1  UNL     1      16.014 -35.777 -24.784  1.00  0.00     0.022 C 
HETATM    2  C2  UNL     1      16.915 -36.922 -25.160  1.00  0.00     0.074 C 
HETATM    3  C3  UNL     1      16.291 -38.243 -25.003  1.00  0.00    -0.010 C 
HETATM    4  N1  UNL     1      15.282 -38.379 -24.244  1.00  0.00    -0.405 N 
ATOM      5  H11 UNL     1      14.848 -39.296 -24.136  1.00  0.00     0.155 HD
ATOM      6  H12 UNL     1      14.884 -37.592 -23.732  1.00  0.00     0.155 HD
HETATM    7  C4  UNL     1      16.872 -39.391 -25.752  1.00  0.00     0.061 C 
HETATM    8  C5  UNL     1      16.810 -39.060 -27.226  1.00  0.00    -0.038 C 
HETATM    9  C6  UNL     1      15.373 -39.012 -27.658  1.00  0.00     0.015 C 
HETATM   10  C7  UNL     1      17.474 -40.187 -28.028  1.00  0.00     0.015 C 
HETATM   11  C8  UNL     1      17.571 -37.802 -27.527  1.00  0.00     0.064 C 
HETATM   12  C9  UNL     1      17.361 -36.725 -26.559  1.00  0.00     0.013 C 
HETATM   13  N2  UNL     1      17.575 -35.506 -26.937  1.00  0.00    -0.306 N 
ATOM     14  H2  UNL     1      17.429 -34.755 -26.262  1.00  0.00     0.186 HD
ENDROOT
BRANCH  13  15
HETATM   15  N3  UNL     1      17.991 -35.174 -28.206  1.00  0.00    -0.280 N 
ATOM     16  H3  UNL     1      17.340 -35.217 -28.990  1.00  0.00     0.189 HD
BRANCH  15  17
HETATM   17  C10 UNL     1      19.239 -34.799 -28.398  1.00  0.00     0.165 A 
HETATM   18  N4  UNL     1      20.328 -35.223 -27.763  1.00  0.00    -0.316 N 
HETATM   19  C11 UNL     1      21.488 -34.727 -28.101  1.00  0.00     0.148 A 
ATOM     20  H4  UNL     1      20.258 -35.924 -27.024  1.00  0.00     0.170 HD
HETATM   21  C12 UNL     1      21.514 -33.790 -29.097  1.00  0.00     0.109 A 
HETATM   22  S1  UNL     1      19.861 -33.664 -29.508  1.00  0.00    -0.060 SA
BRANCH  19  23
HETATM   23  O1  UNL     1      22.716 -35.107 -27.489  1.00  0.00    -0.346 OA
ATOM     24  H1  UNL     1      23.519 -34.604 -27.563  1.00  0.00     0.219 HD
ENDBRANCH  19  23
ENDBRANCH  15  17
ENDBRANCH  13  15
TORSDOF 3
ENDMDL
