MODEL 1
REMARK VINA RESULT: -7.853398600      0.000      0.000
REMARK  10 active torsions:
REMARK  status: ('A' for Active; 'I' for Inactive)
REMARK    1  A    between atoms: O1_2  and  C2_3 
REMARK    2  A    between atoms: C2_3  and  C3_5 
REMARK    3  A    between atoms: C4_6  and  C5_7 
REMARK    4  A    between atoms: C4_6  and  N5_35 
REMARK    5  A    between atoms: C7_9  and  O3_10 
REMARK    6  A    between atoms: C8_12  and  C9_13 
REMARK       I    between atoms: C9_13  and  N1_15 
REMARK    7  A    between atoms: N2_17  and  C10_19 
REMARK    8  A    between atoms: C11_20  and  O5_21 
REMARK    9  A    between atoms: C14_29  and  O7_30 
REMARK   10  A    between atoms: C15_32  and  O8_33 
ROOT
HETATM    1  C5  UNL     1      18.759  -7.694   4.616  1.00  0.00     0.029 A 
HETATM    2  C6  UNL     1      18.341  -8.394   3.522  1.00  0.00     0.054 A 
HETATM    3  C7  UNL     1      18.661  -9.745   3.282  1.00  0.00     0.085 A 
HETATM    4  C8  UNL     1      19.432 -10.423   4.176  1.00  0.00     0.102 A 
HETATM    5  C14 UNL     1      19.885  -9.740   5.318  1.00  0.00     0.118 A 
HETATM    6  C15 UNL     1      19.553  -8.410   5.525  1.00  0.00     0.112 A 
ENDROOT
BRANCH   4   7
HETATM    7  C9  UNL     1      19.825 -11.815   4.051  1.00  0.00     0.275 C 
HETATM    8  O4  UNL     1      20.679 -12.336   4.808  1.00  0.00    -0.266 OA
HETATM    9  N1  UNL     1      19.270 -12.684   3.061  1.00  0.00    -0.264 N 
HETATM   10  N2  UNL     1      19.865 -13.098   2.044  1.00  0.00    -0.279 N 
ATOM     11  H1  UNL     1      18.307 -12.991   3.196  1.00  0.00     0.190 HD
ATOM     12  H2  UNL     1      19.334 -13.714   1.429  1.00  0.00     0.189 HD
BRANCH  10  13
HETATM   13  C10 UNL     1      21.189 -12.810   1.649  1.00  0.00     0.178 A 
HETATM   14  C11 UNL     1      22.306 -13.384   2.190  1.00  0.00     0.191 A 
HETATM   15  N3  UNL     1      23.381 -12.849   1.552  1.00  0.00    -0.286 N 
HETATM   16  C12 UNL     1      22.937 -11.961   0.631  1.00  0.00     0.329 A 
ATOM     17  H3  UNL     1      24.357 -13.079   1.735  1.00  0.00     0.172 HD
HETATM   18  O6  UNL     1      23.646 -11.262  -0.159  1.00  0.00    -0.246 OA
HETATM   19  N4  UNL     1      21.598 -11.932   0.685  1.00  0.00    -0.285 N 
HETATM   20  C13 UNL     1      20.679 -11.120  -0.126  1.00  0.00     0.163 C 
BRANCH  14  21
HETATM   21  O5  UNL     1      22.431 -14.346   3.210  1.00  0.00    -0.343 OA
ATOM     22  H5  UNL     1      22.216 -15.271   3.211  1.00  0.00     0.219 HD
ENDBRANCH  14  21
ENDBRANCH  10  13
ENDBRANCH   4   7
BRANCH   3  23
HETATM   23  O3  UNL     1      18.157 -10.290   2.133  1.00  0.00    -0.360 OA
ATOM     24  H3  UNL     1      17.892 -11.201   2.181  1.00  0.00     0.217 HD
ENDBRANCH   3  23
BRANCH   5  25
HETATM   25  O7  UNL     1      20.666 -10.446   6.209  1.00  0.00    -0.357 OA
ATOM     26  H7  UNL     1      21.457 -10.025   6.524  1.00  0.00     0.217 HD
ENDBRANCH   5  25
BRANCH   6  27
HETATM   27  O8  UNL     1      20.030  -7.823   6.657  1.00  0.00    -0.357 OA
ATOM     28  H8  UNL     1      20.874  -8.068   7.017  1.00  0.00     0.217 HD
ENDBRANCH   6  27
BRANCH   1  29
HETATM   29  C4  UNL     1      18.411  -6.299   4.846  1.00  0.00     0.048 C 
HETATM   30  C3  UNL     1      18.790  -5.392   3.973  1.00  0.00     0.112 C 
BRANCH  30  31
HETATM   31  C2  UNL     1      18.545  -3.970   4.020  1.00  0.00     0.284 C 
HETATM   32  O2  UNL     1      17.332  -3.572   3.841  1.00  0.00    -0.260 OA
BRANCH  31  33
HETATM   33  O1  UNL     1      19.438  -2.957   4.235  1.00  0.00    -0.323 OA
HETATM   34  C1  UNL     1      20.029  -2.266   3.177  1.00  0.00     0.213 C 
ENDBRANCH  31  33
ENDBRANCH  30  31
BRANCH  29  35
HETATM   35  N5  UNL     1      17.675  -5.876   5.984  1.00  0.00    -0.389 N 
HETATM   36  C16 UNL     1      16.250  -6.216   6.141  1.00  0.00     0.149 C 
HETATM   37  C17 UNL     1      18.221  -5.082   7.071  1.00  0.00     0.149 C 
ENDBRANCH  29  35
ENDBRANCH   1  29
TORSDOF 10
ENDMDL
MODEL 2
REMARK VINA RESULT: -7.792262235      0.764      1.885
REMARK  10 active torsions:
REMARK  status: ('A' for Active; 'I' for Inactive)
REMARK    1  A    between atoms: O1_2  and  C2_3 
REMARK    2  A    between atoms: C2_3  and  C3_5 
REMARK    3  A    between atoms: C4_6  and  C5_7 
REMARK    4  A    between atoms: C4_6  and  N5_35 
REMARK    5  A    between atoms: C7_9  and  O3_10 
REMARK    6  A    between atoms: C8_12  and  C9_13 
REMARK       I    between atoms: C9_13  and  N1_15 
REMARK    7  A    between atoms: N2_17  and  C10_19 
REMARK    8  A    between atoms: C11_20  and  O5_21 
REMARK    9  A    between atoms: C14_29  and  O7_30 
REMARK   10  A    between atoms: C15_32  and  O8_33 
ROOT
HETATM    1  C5  UNL     1      18.766  -8.059   4.669  1.00  0.00     0.029 A 
HETATM    2  C6  UNL     1      19.809  -8.699   5.272  1.00  0.00     0.054 A 
HETATM    3  C7  UNL     1      20.168 -10.037   5.012  1.00  0.00     0.085 A 
HETATM    4  C8  UNL     1      19.454 -10.763   4.110  1.00  0.00     0.102 A 
HETATM    5  C14 UNL     1      18.370 -10.143   3.465  1.00  0.00     0.118 A 
HETATM    6  C15 UNL     1      18.041  -8.825   3.743  1.00  0.00     0.112 A 
ENDROOT
BRANCH   4   7
HETATM    7  C9  UNL     1      19.724 -12.142   3.747  1.00  0.00     0.275 C 
HETATM    8  O4  UNL     1      20.533 -12.853   4.390  1.00  0.00    -0.266 OA
HETATM    9  N1  UNL     1      19.093 -12.782   2.636  1.00  0.00    -0.264 N 
HETATM   10  N2  UNL     1      19.646 -13.067   1.553  1.00  0.00    -0.279 N 
ATOM     11  H1  UNL     1      18.108 -13.025   2.735  1.00  0.00     0.190 HD
ATOM     12  H2  UNL     1      19.062 -13.524   0.853  1.00  0.00     0.189 HD
BRANCH  10  13
HETATM   13  C10 UNL     1      20.988 -12.830   1.188  1.00  0.00     0.178 A 
HETATM   14  C11 UNL     1      22.054 -13.576   1.609  1.00  0.00     0.191 A 
HETATM   15  N3  UNL     1      23.169 -13.036   1.048  1.00  0.00    -0.286 N 
HETATM   16  C12 UNL     1      22.800 -11.974   0.293  1.00  0.00     0.329 A 
ATOM     17  H3  UNL     1      24.123 -13.373   1.175  1.00  0.00     0.172 HD
HETATM   18  O6  UNL     1      23.563 -11.217  -0.385  1.00  0.00    -0.246 OA
HETATM   19  N4  UNL     1      21.468 -11.844   0.374  1.00  0.00    -0.285 N 
HETATM   20  C13 UNL     1      20.618 -10.836  -0.278  1.00  0.00     0.163 C 
BRANCH  14  21
HETATM   21  O5  UNL     1      22.100 -14.700   2.456  1.00  0.00    -0.343 OA
ATOM     22  H5  UNL     1      22.303 -15.607   2.262  1.00  0.00     0.219 HD
ENDBRANCH  14  21
ENDBRANCH  10  13
ENDBRANCH   4   7
BRANCH   3  23
HETATM   23  O3  UNL     1      21.243 -10.519   5.709  1.00  0.00    -0.360 OA
ATOM     24  H3  UNL     1      21.150 -11.393   6.070  1.00  0.00     0.217 HD
ENDBRANCH   3  23
BRANCH   5  25
HETATM   25  O7  UNL     1      17.657 -10.897   2.556  1.00  0.00    -0.357 OA
ATOM     26  H7  UNL     1      16.836 -11.274   2.850  1.00  0.00     0.217 HD
ENDBRANCH   5  25
BRANCH   6  27
HETATM   27  O8  UNL     1      16.979  -8.299   3.074  1.00  0.00    -0.357 OA
ATOM     28  H8  UNL     1      16.094  -8.397   3.403  1.00  0.00     0.217 HD
ENDBRANCH   6  27
BRANCH   1  29
HETATM   29  C4  UNL     1      18.417  -6.674   4.949  1.00  0.00     0.048 C 
HETATM   30  C3  UNL     1      18.751  -5.742   4.083  1.00  0.00     0.112 C 
BRANCH  30  31
HETATM   31  C2  UNL     1      18.496  -4.324   4.176  1.00  0.00     0.284 C 
HETATM   32  O2  UNL     1      17.276  -3.932   4.046  1.00  0.00    -0.260 OA
BRANCH  31  33
HETATM   33  O1  UNL     1      19.388  -3.309   4.390  1.00  0.00    -0.323 OA
HETATM   34  C1  UNL     1      19.842  -2.502   3.347  1.00  0.00     0.213 C 
ENDBRANCH  31  33
ENDBRANCH  30  31
BRANCH  29  35
HETATM   35  N5  UNL     1      17.728  -6.286   6.128  1.00  0.00    -0.389 N 
HETATM   36  C16 UNL     1      18.455  -5.775   7.304  1.00  0.00     0.149 C 
HETATM   37  C17 UNL     1      16.288  -6.358   6.304  1.00  0.00     0.149 C 
ENDBRANCH  29  35
ENDBRANCH   1  29
TORSDOF 10
ENDMDL
MODEL 3
REMARK VINA RESULT: -7.771186894      1.581      2.791
REMARK  10 active torsions:
REMARK  status: ('A' for Active; 'I' for Inactive)
REMARK    1  A    between atoms: O1_2  and  C2_3 
REMARK    2  A    between atoms: C2_3  and  C3_5 
REMARK    3  A    between atoms: C4_6  and  C5_7 
REMARK    4  A    between atoms: C4_6  and  N5_35 
REMARK    5  A    between atoms: C7_9  and  O3_10 
REMARK    6  A    between atoms: C8_12  and  C9_13 
REMARK       I    between atoms: C9_13  and  N1_15 
REMARK    7  A    between atoms: N2_17  and  C10_19 
REMARK    8  A    between atoms: C11_20  and  O5_21 
REMARK    9  A    between atoms: C14_29  and  O7_30 
REMARK   10  A    between atoms: C15_32  and  O8_33 
ROOT
HETATM    1  C5  UNL     1      18.780  -8.103   4.744  1.00  0.00     0.029 A 
HETATM    2  C6  UNL     1      19.808  -8.738   5.377  1.00  0.00     0.054 A 
HETATM    3  C7  UNL     1      20.229 -10.049   5.076  1.00  0.00     0.085 A 
HETATM    4  C8  UNL     1      19.594 -10.752   4.100  1.00  0.00     0.102 A 
HETATM    5  C14 UNL     1      18.528 -10.137   3.421  1.00  0.00     0.118 A 
HETATM    6  C15 UNL     1      18.138  -8.845   3.741  1.00  0.00     0.112 A 
ENDROOT
BRANCH   4   7
HETATM    7  C9  UNL     1      19.934 -12.103   3.689  1.00  0.00     0.275 C 
HETATM    8  O4  UNL     1      19.846 -13.079   4.471  1.00  0.00    -0.266 OA
HETATM    9  N1  UNL     1      20.394 -12.411   2.372  1.00  0.00    -0.264 N 
HETATM   10  N2  UNL     1      21.565 -12.717   2.065  1.00  0.00    -0.279 N 
ATOM     11  H1  UNL     1      19.707 -12.379   1.618  1.00  0.00     0.190 HD
ATOM     12  H2  UNL     1      21.739 -12.910   1.078  1.00  0.00     0.189 HD
BRANCH  10  13
HETATM   13  C10 UNL     1      22.677 -12.824   2.927  1.00  0.00     0.178 A 
HETATM   14  C11 UNL     1      23.355 -11.762   3.460  1.00  0.00     0.191 A 
HETATM   15  N3  UNL     1      24.354 -12.270   4.230  1.00  0.00    -0.286 N 
HETATM   16  C12 UNL     1      24.295 -13.622   4.175  1.00  0.00     0.329 A 
ATOM     17  H3  UNL     1      25.034 -11.725   4.759  1.00  0.00     0.172 HD
HETATM   18  O6  UNL     1      25.064 -14.444   4.765  1.00  0.00    -0.246 OA
HETATM   19  N4  UNL     1      23.271 -13.966   3.381  1.00  0.00    -0.285 N 
HETATM   20  C13 UNL     1      22.821 -15.320   3.025  1.00  0.00     0.163 C 
BRANCH  14  21
HETATM   21  O5  UNL     1      23.145 -10.378   3.306  1.00  0.00    -0.343 OA
ATOM     22  H5  UNL     1      23.532  -9.644   3.767  1.00  0.00     0.219 HD
ENDBRANCH  14  21
ENDBRANCH  10  13
ENDBRANCH   4   7
BRANCH   3  23
HETATM   23  O3  UNL     1      21.278 -10.529   5.812  1.00  0.00    -0.360 OA
ATOM     24  H3  UNL     1      22.012 -10.877   5.319  1.00  0.00     0.217 HD
ENDBRANCH   3  23
BRANCH   5  25
HETATM   25  O7  UNL     1      17.897 -10.868   2.436  1.00  0.00    -0.357 OA
ATOM     26  H7  UNL     1      18.332 -10.932   1.594  1.00  0.00     0.217 HD
ENDBRANCH   5  25
BRANCH   6  27
HETATM   27  O8  UNL     1      17.098  -8.322   3.035  1.00  0.00    -0.357 OA
ATOM     28  H8  UNL     1      16.650  -8.832   2.371  1.00  0.00     0.217 HD
ENDBRANCH   6  27
BRANCH   1  29
HETATM   29  C4  UNL     1      18.366  -6.745   5.067  1.00  0.00     0.048 C 
HETATM   30  C3  UNL     1      18.660  -5.770   4.234  1.00  0.00     0.112 C 
BRANCH  30  31
HETATM   31  C2  UNL     1      18.340  -4.370   4.373  1.00  0.00     0.284 C 
HETATM   32  O2  UNL     1      17.093  -4.048   4.404  1.00  0.00    -0.260 OA
BRANCH  31  33
HETATM   33  O1  UNL     1      19.194  -3.306   4.480  1.00  0.00    -0.323 OA
HETATM   34  C1  UNL     1      19.649  -2.617   3.357  1.00  0.00     0.213 C 
ENDBRANCH  31  33
ENDBRANCH  30  31
BRANCH  29  35
HETATM   35  N5  UNL     1      17.655  -6.429   6.254  1.00  0.00    -0.389 N 
HETATM   36  C16 UNL     1      16.203  -6.654   6.357  1.00  0.00     0.149 C 
HETATM   37  C17 UNL     1      18.255  -5.856   7.447  1.00  0.00     0.149 C 
ENDBRANCH  29  35
ENDBRANCH   1  29
TORSDOF 10
ENDMDL
MODEL 4
REMARK VINA RESULT: -7.729779750      1.940      2.788
REMARK  10 active torsions:
REMARK  status: ('A' for Active; 'I' for Inactive)
REMARK    1  A    between atoms: O1_2  and  C2_3 
REMARK    2  A    between atoms: C2_3  and  C3_5 
REMARK    3  A    between atoms: C4_6  and  C5_7 
REMARK    4  A    between atoms: C4_6  and  N5_35 
REMARK    5  A    between atoms: C7_9  and  O3_10 
REMARK    6  A    between atoms: C8_12  and  C9_13 
REMARK       I    between atoms: C9_13  and  N1_15 
REMARK    7  A    between atoms: N2_17  and  C10_19 
REMARK    8  A    between atoms: C11_20  and  O5_21 
REMARK    9  A    between atoms: C14_29  and  O7_30 
REMARK   10  A    between atoms: C15_32  and  O8_33 
ROOT
HETATM    1  C5  UNL     1      18.787  -7.844   4.471  1.00  0.00     0.029 A 
HETATM    2  C6  UNL     1      18.405  -8.455   3.313  1.00  0.00     0.054 A 
HETATM    3  C7  UNL     1      18.743  -9.780   2.972  1.00  0.00     0.085 A 
HETATM    4  C8  UNL     1      19.495 -10.524   3.828  1.00  0.00     0.102 A 
HETATM    5  C14 UNL     1      19.911  -9.934   5.034  1.00  0.00     0.118 A 
HETATM    6  C15 UNL     1      19.562  -8.627   5.340  1.00  0.00     0.112 A 
ENDROOT
BRANCH   4   7
HETATM    7  C9  UNL     1      19.903 -11.899   3.601  1.00  0.00     0.275 C 
HETATM    8  O4  UNL     1      19.386 -12.858   4.221  1.00  0.00    -0.266 OA
HETATM    9  N1  UNL     1      20.920 -12.252   2.661  1.00  0.00    -0.264 N 
HETATM   10  N2  UNL     1      22.072 -12.639   2.950  1.00  0.00    -0.279 N 
ATOM     11  H1  UNL     1      20.686 -12.182   1.671  1.00  0.00     0.190 HD
ATOM     12  H2  UNL     1      22.687 -12.854   2.165  1.00  0.00     0.189 HD
BRANCH  10  13
HETATM   13  C10 UNL     1      22.620 -12.811   4.239  1.00  0.00     0.178 A 
HETATM   14  C11 UNL     1      23.257 -11.834   4.952  1.00  0.00     0.191 A 
HETATM   15  N3  UNL     1      23.640 -12.385   6.134  1.00  0.00    -0.286 N 
HETATM   16  C12 UNL     1      23.247 -13.681   6.154  1.00  0.00     0.329 A 
ATOM     17  H3  UNL     1      24.140 -11.903   6.882  1.00  0.00     0.172 HD
HETATM   18  O6  UNL     1      23.427 -14.519   7.091  1.00  0.00    -0.246 OA
HETATM   19  N4  UNL     1      22.623 -13.947   4.997  1.00  0.00    -0.285 N 
HETATM   20  C13 UNL     1      22.024 -15.220   4.567  1.00  0.00     0.163 C 
BRANCH  14  21
HETATM   21  O5  UNL     1      23.519 -10.490   4.621  1.00  0.00    -0.343 OA
ATOM     22  H5  UNL     1      23.776  -9.761   5.173  1.00  0.00     0.219 HD
ENDBRANCH  14  21
ENDBRANCH  10  13
ENDBRANCH   4   7
BRANCH   3  23
HETATM   23  O3  UNL     1      18.275 -10.232   1.768  1.00  0.00    -0.360 OA
ATOM     24  H3  UNL     1      17.503 -10.785   1.799  1.00  0.00     0.217 HD
ENDBRANCH   3  23
BRANCH   5  25
HETATM   25  O7  UNL     1      20.674 -10.705   5.886  1.00  0.00    -0.357 OA
ATOM     26  H7  UNL     1      20.212 -11.264   6.500  1.00  0.00     0.217 HD
ENDBRANCH   5  25
BRANCH   6  27
HETATM   27  O8  UNL     1      20.003  -8.132   6.529  1.00  0.00    -0.357 OA
ATOM     28  H8  UNL     1      20.443  -8.689   7.159  1.00  0.00     0.217 HD
ENDBRANCH   6  27
BRANCH   1  29
HETATM   29  C4  UNL     1      18.420  -6.476   4.804  1.00  0.00     0.048 C 
HETATM   30  C3  UNL     1      18.765  -5.503   3.989  1.00  0.00     0.112 C 
BRANCH  30  31
HETATM   31  C2  UNL     1      18.498  -4.093   4.141  1.00  0.00     0.284 C 
HETATM   32  O2  UNL     1      17.265  -3.717   4.107  1.00  0.00    -0.260 OA
BRANCH  31  33
HETATM   33  O1  UNL     1      19.388  -3.069   4.319  1.00  0.00    -0.323 OA
HETATM   34  C1  UNL     1      19.893  -2.343   3.242  1.00  0.00     0.213 C 
ENDBRANCH  31  33
ENDBRANCH  30  31
BRANCH  29  35
HETATM   35  N5  UNL     1      17.702  -6.146   5.984  1.00  0.00    -0.389 N 
HETATM   36  C16 UNL     1      16.283  -6.513   6.141  1.00  0.00     0.149 C 
HETATM   37  C17 UNL     1      18.260  -5.427   7.116  1.00  0.00     0.149 C 
ENDBRANCH  29  35
ENDBRANCH   1  29
TORSDOF 10
ENDMDL
MODEL 5
REMARK VINA RESULT: -7.706057142      1.223      2.451
REMARK  10 active torsions:
REMARK  status: ('A' for Active; 'I' for Inactive)
REMARK    1  A    between atoms: O1_2  and  C2_3 
REMARK    2  A    between atoms: C2_3  and  C3_5 
REMARK    3  A    between atoms: C4_6  and  C5_7 
REMARK    4  A    between atoms: C4_6  and  N5_35 
REMARK    5  A    between atoms: C7_9  and  O3_10 
REMARK    6  A    between atoms: C8_12  and  C9_13 
REMARK       I    between atoms: C9_13  and  N1_15 
REMARK    7  A    between atoms: N2_17  and  C10_19 
REMARK    8  A    between atoms: C11_20  and  O5_21 
REMARK    9  A    between atoms: C14_29  and  O7_30 
REMARK   10  A    between atoms: C15_32  and  O8_33 
ROOT
HETATM    1  C5  UNL     1      18.723  -7.992   4.685  1.00  0.00     0.029 A 
HETATM    2  C6  UNL     1      19.784  -8.643   5.243  1.00  0.00     0.054 A 
HETATM    3  C7  UNL     1      20.164  -9.959   4.912  1.00  0.00     0.085 A 
HETATM    4  C8  UNL     1      19.452 -10.651   3.982  1.00  0.00     0.102 A 
HETATM    5  C14 UNL     1      18.350 -10.019   3.380  1.00  0.00     0.118 A 
HETATM    6  C15 UNL     1      18.002  -8.723   3.728  1.00  0.00     0.112 A 
ENDROOT
BRANCH   4   7
HETATM    7  C9  UNL     1      19.743 -12.005   3.547  1.00  0.00     0.275 C 
HETATM    8  O4  UNL     1      20.812 -12.587   3.852  1.00  0.00    -0.266 OA
HETATM    9  N1  UNL     1      18.839 -12.765   2.743  1.00  0.00    -0.264 N 
HETATM   10  N2  UNL     1      18.994 -13.034   1.533  1.00  0.00    -0.279 N 
ATOM     11  H1  UNL     1      17.994 -13.115   3.195  1.00  0.00     0.190 HD
ATOM     12  H2  UNL     1      18.257 -13.588   1.095  1.00  0.00     0.189 HD
BRANCH  10  13
HETATM   13  C10 UNL     1      20.072 -12.660   0.704  1.00  0.00     0.178 A 
HETATM   14  C11 UNL     1      20.166 -11.469   0.039  1.00  0.00     0.191 A 
HETATM   15  N3  UNL     1      21.338 -11.486  -0.650  1.00  0.00    -0.286 N 
HETATM   16  C12 UNL     1      21.959 -12.666  -0.416  1.00  0.00     0.329 A 
ATOM     17  H3  UNL     1      21.691 -10.736  -1.244  1.00  0.00     0.172 HD
HETATM   18  O6  UNL     1      23.076 -13.048  -0.885  1.00  0.00    -0.246 OA
HETATM   19  N4  UNL     1      21.189 -13.388   0.412  1.00  0.00    -0.285 N 
HETATM   20  C13 UNL     1      21.453 -14.733   0.945  1.00  0.00     0.163 C 
BRANCH  14  21
HETATM   21  O5  UNL     1      19.282 -10.373   0.004  1.00  0.00    -0.343 OA
ATOM     22  H5  UNL     1      19.007  -9.830  -0.724  1.00  0.00     0.219 HD
ENDBRANCH  14  21
ENDBRANCH  10  13
ENDBRANCH   4   7
BRANCH   3  23
HETATM   23  O3  UNL     1      21.255 -10.456   5.573  1.00  0.00    -0.360 OA
ATOM     24  H3  UNL     1      21.979  -9.854   5.698  1.00  0.00     0.217 HD
ENDBRANCH   3  23
BRANCH   5  25
HETATM   25  O7  UNL     1      17.641 -10.740   2.442  1.00  0.00    -0.357 OA
ATOM     26  H7  UNL     1      17.554 -10.360   1.575  1.00  0.00     0.217 HD
ENDBRANCH   5  25
BRANCH   6  27
HETATM   27  O8  UNL     1      16.923  -8.183   3.097  1.00  0.00    -0.357 OA
ATOM     28  H8  UNL     1      16.341  -8.721   2.574  1.00  0.00     0.217 HD
ENDBRANCH   6  27
BRANCH   1  29
HETATM   29  C4  UNL     1      18.353  -6.629   5.038  1.00  0.00     0.048 C 
HETATM   30  C3  UNL     1      18.643  -5.651   4.208  1.00  0.00     0.112 C 
BRANCH  30  31
HETATM   31  C2  UNL     1      18.361  -4.245   4.374  1.00  0.00     0.284 C 
HETATM   32  O2  UNL     1      17.124  -3.893   4.440  1.00  0.00    -0.260 OA
BRANCH  31  33
HETATM   33  O1  UNL     1      19.243  -3.204   4.474  1.00  0.00    -0.323 OA
HETATM   34  C1  UNL     1      19.705  -2.525   3.347  1.00  0.00     0.213 C 
ENDBRANCH  31  33
ENDBRANCH  30  31
BRANCH  29  35
HETATM   35  N5  UNL     1      17.688  -6.311   6.251  1.00  0.00    -0.389 N 
HETATM   36  C16 UNL     1      16.232  -6.487   6.392  1.00  0.00     0.149 C 
HETATM   37  C17 UNL     1      18.342  -5.785   7.436  1.00  0.00     0.149 C 
ENDBRANCH  29  35
ENDBRANCH   1  29
TORSDOF 10
ENDMDL
