MODEL 1
REMARK VINA RESULT: -7.831724203      0.000      0.000
REMARK  8 active torsions:
REMARK  status: ('A' for Active; 'I' for Inactive)
REMARK    1  A    between atoms: C2_2  and  O1_3 
REMARK    2  A    between atoms: O1_3  and  C3_4 
REMARK    3  A    between atoms: C3_4  and  C4_5 
REMARK    4  A    between atoms: C3_4  and  C17_28 
REMARK    5  A    between atoms: C9_10  and  O2_11 
REMARK    6  A    between atoms: C10_13  and  O3_14 
REMARK    7  A    between atoms: C11_18  and  O4_19 
REMARK    8  A    between atoms: O4_19  and  C12_20 
ROOT
HETATM    1  C4  UNL     1      16.451  -1.745   3.991  1.00  0.00     0.016 A 
HETATM    2  C5  UNL     1      15.970  -2.727   3.150  1.00  0.00    -0.034 A 
HETATM    3  C6  UNL     1      14.836  -3.504   3.594  1.00  0.00     0.050 C 
HETATM    4  C7  UNL     1      16.535  -3.048   1.938  1.00  0.00     0.047 A 
HETATM    5  C8  UNL     1      17.656  -2.368   1.507  1.00  0.00     0.081 A 
HETATM    6  C9  UNL     1      18.180  -1.384   2.293  1.00  0.00     0.127 A 
HETATM    7  C10 UNL     1      17.593  -1.078   3.510  1.00  0.00     0.110 A 
HETATM    8  N1  UNL     1      18.193  -2.776   0.246  1.00  0.00    -0.359 N 
ATOM      9  H1  UNL     1      18.589  -2.087  -0.394  1.00  0.00     0.162 HD
HETATM   10  C11 UNL     1      18.169  -4.165  -0.108  1.00  0.00     0.256 C 
HETATM   11  C14 UNL     1      16.860  -4.825   0.158  1.00  0.00     0.216 C 
HETATM   12  C15 UNL     1      16.148  -4.845  -1.160  1.00  0.00     0.076 C 
HETATM   13  N2  UNL     1      15.604  -4.880  -2.178  1.00  0.00    -0.196 NA
HETATM   14  C16 UNL     1      16.001  -4.051   1.054  1.00  0.00     0.184 C 
HETATM   15  O6  UNL     1      14.736  -4.223   1.098  1.00  0.00    -0.291 OA
ENDROOT
BRANCH  10  16
HETATM   16  O4  UNL     1      18.528  -4.228  -1.488  1.00  0.00    -0.294 OA
BRANCH  16  17
HETATM   17  C12 UNL     1      19.766  -4.683  -1.910  1.00  0.00     0.256 C 
HETATM   18  C13 UNL     1      21.043  -4.360  -1.198  1.00  0.00     0.126 C 
HETATM   19  O5  UNL     1      19.833  -5.391  -2.923  1.00  0.00    -0.266 OA
ENDBRANCH  16  17
ENDBRANCH  10  16
BRANCH   6  20
HETATM   20  O2  UNL     1      19.317  -0.707   1.833  1.00  0.00    -0.356 OA
ATOM     21  H2  UNL     1      20.070  -0.653   2.410  1.00  0.00     0.218 HD
ENDBRANCH   6  20
BRANCH   1  22
HETATM   22  C3  UNL     1      15.923  -1.274   5.220  1.00  0.00     0.196 C 
BRANCH  22  23
HETATM   23  O1  UNL     1      15.820  -2.371   6.088  1.00  0.00    -0.379 OA
BRANCH  23  24
HETATM   24  C2  UNL     1      16.853  -2.919   6.689  1.00  0.00     0.164 C 
HETATM   25  C1  UNL     1      16.738  -4.462   6.779  1.00  0.00     0.033 C 
ENDBRANCH  23  24
ENDBRANCH  22  23
BRANCH  22  26
HETATM   26  C17 UNL     1      14.675  -0.515   5.351  1.00  0.00     0.288 C 
HETATM   27  N3  UNL     1      14.063  -0.953   6.644  1.00  0.00    -0.061 N 
HETATM   28  C18 UNL     1      13.164   0.113   6.999  1.00  0.00     0.240 C 
ATOM     29  H32 UNL     1      13.623  -1.872   6.605  1.00  0.00     0.278 HD
ATOM     30  H31 UNL     1      14.743  -1.182   7.369  1.00  0.00     0.278 HD
HETATM   31  C19 UNL     1      13.578   1.362   6.303  1.00  0.00     0.108 C 
HETATM   32  C20 UNL     1      14.851   0.935   5.656  1.00  0.00     0.162 C 
HETATM   33  O7  UNL     1      15.827   1.665   5.436  1.00  0.00    -0.296 OA
ENDBRANCH  22  26
ENDBRANCH   1  22
BRANCH   7  34
HETATM   34  O3  UNL     1      18.218  -0.059   4.211  1.00  0.00    -0.357 OA
ATOM     35  H3  UNL     1      17.908   0.839   4.200  1.00  0.00     0.217 HD
ENDBRANCH   7  34
TORSDOF 8
ENDMDL
MODEL 2
REMARK VINA RESULT: -7.788165994      4.318      8.166
REMARK  8 active torsions:
REMARK  status: ('A' for Active; 'I' for Inactive)
REMARK    1  A    between atoms: C2_2  and  O1_3 
REMARK    2  A    between atoms: O1_3  and  C3_4 
REMARK    3  A    between atoms: C3_4  and  C4_5 
REMARK    4  A    between atoms: C3_4  and  C17_28 
REMARK    5  A    between atoms: C9_10  and  O2_11 
REMARK    6  A    between atoms: C10_13  and  O3_14 
REMARK    7  A    between atoms: C11_18  and  O4_19 
REMARK    8  A    between atoms: O4_19  and  C12_20 
ROOT
HETATM    1  C4  UNL     1      17.757   0.634   5.345  1.00  0.00     0.016 A 
HETATM    2  C5  UNL     1      17.304   1.891   5.005  1.00  0.00    -0.034 A 
HETATM    3  C6  UNL     1      18.269   2.965   4.938  1.00  0.00     0.050 C 
HETATM    4  C7  UNL     1      15.983   2.199   4.777  1.00  0.00     0.047 A 
HETATM    5  C8  UNL     1      15.024   1.214   4.889  1.00  0.00     0.081 A 
HETATM    6  C9  UNL     1      15.408  -0.052   5.222  1.00  0.00     0.127 A 
HETATM    7  C10 UNL     1      16.744  -0.339   5.447  1.00  0.00     0.110 A 
HETATM    8  N1  UNL     1      13.673   1.620   4.655  1.00  0.00    -0.359 N 
ATOM      9  H1  UNL     1      13.021   0.995   4.181  1.00  0.00     0.162 HD
HETATM   10  C11 UNL     1      13.247   2.917   5.095  1.00  0.00     0.256 C 
HETATM   11  C14 UNL     1      14.203   4.006   4.753  1.00  0.00     0.216 C 
HETATM   12  C15 UNL     1      13.657   4.642   3.512  1.00  0.00     0.076 C 
HETATM   13  N2  UNL     1      13.229   5.148   2.567  1.00  0.00    -0.196 NA
HETATM   14  C16 UNL     1      15.529   3.509   4.386  1.00  0.00     0.184 C 
HETATM   15  O6  UNL     1      16.350   4.208   3.701  1.00  0.00    -0.291 OA
ENDROOT
BRANCH  10  16
HETATM   16  O4  UNL     1      11.963   3.131   4.510  1.00  0.00    -0.294 OA
BRANCH  16  17
HETATM   17  C12 UNL     1      10.790   2.752   5.141  1.00  0.00     0.256 C 
HETATM   18  C13 UNL     1      10.457   3.136   6.550  1.00  0.00     0.126 C 
HETATM   19  O5  UNL     1       9.970   2.061   4.522  1.00  0.00    -0.266 OA
ENDBRANCH  16  17
ENDBRANCH  10  16
BRANCH   6  20
HETATM   20  O2  UNL     1      14.416  -1.036   5.330  1.00  0.00    -0.356 OA
ATOM     21  H2  UNL     1      14.478  -1.659   6.044  1.00  0.00     0.218 HD
ENDBRANCH   6  20
BRANCH   1  22
HETATM   22  C3  UNL     1      19.086   0.176   5.535  1.00  0.00     0.196 C 
BRANCH  22  23
HETATM   23  O1  UNL     1      19.301  -0.889   4.649  1.00  0.00    -0.379 OA
BRANCH  23  24
HETATM   24  C2  UNL     1      19.770  -0.733   3.430  1.00  0.00     0.164 C 
HETATM   25  C1  UNL     1      18.766  -1.197   2.344  1.00  0.00     0.033 C 
ENDBRANCH  23  24
ENDBRANCH  22  23
BRANCH  22  26
HETATM   26  C17 UNL     1      19.646  -0.231   6.828  1.00  0.00     0.288 C 
HETATM   27  N3  UNL     1      19.647  -1.726   6.820  1.00  0.00    -0.061 N 
HETATM   28  C18 UNL     1      20.624  -2.094   7.810  1.00  0.00     0.240 C 
ATOM     29  H32 UNL     1      18.729  -2.144   6.968  1.00  0.00     0.278 HD
ATOM     30  H31 UNL     1      19.813  -2.137   5.902  1.00  0.00     0.278 HD
HETATM   31  C19 UNL     1      21.562  -0.958   8.025  1.00  0.00     0.108 C 
HETATM   32  C20 UNL     1      21.113   0.002   6.977  1.00  0.00     0.162 C 
HETATM   33  O7  UNL     1      21.839   0.809   6.381  1.00  0.00    -0.296 OA
ENDBRANCH  22  26
ENDBRANCH   1  22
BRANCH   7  34
HETATM   34  O3  UNL     1      17.003  -1.660   5.776  1.00  0.00    -0.357 OA
ATOM     35  H3  UNL     1      16.353  -2.347   5.693  1.00  0.00     0.217 HD
ENDBRANCH   7  34
TORSDOF 8
ENDMDL
MODEL 3
REMARK VINA RESULT: -7.776742280      2.862      7.316
REMARK  8 active torsions:
REMARK  status: ('A' for Active; 'I' for Inactive)
REMARK    1  A    between atoms: C2_2  and  O1_3 
REMARK    2  A    between atoms: O1_3  and  C3_4 
REMARK    3  A    between atoms: C3_4  and  C4_5 
REMARK    4  A    between atoms: C3_4  and  C17_28 
REMARK    5  A    between atoms: C9_10  and  O2_11 
REMARK    6  A    between atoms: C10_13  and  O3_14 
REMARK    7  A    between atoms: C11_18  and  O4_19 
REMARK    8  A    between atoms: O4_19  and  C12_20 
ROOT
HETATM    1  C4  UNL     1      16.087  -2.383   2.255  1.00  0.00     0.016 A 
HETATM    2  C5  UNL     1      17.293  -2.077   2.850  1.00  0.00    -0.034 A 
HETATM    3  C6  UNL     1      18.296  -3.115   2.922  1.00  0.00     0.050 C 
HETATM    4  C7  UNL     1      17.582  -0.862   3.426  1.00  0.00     0.047 A 
HETATM    5  C8  UNL     1      16.629   0.135   3.430  1.00  0.00     0.081 A 
HETATM    6  C9  UNL     1      15.414  -0.104   2.856  1.00  0.00     0.127 A 
HETATM    7  C10 UNL     1      15.146  -1.336   2.281  1.00  0.00     0.110 A 
HETATM    8  N1  UNL     1      17.001   1.361   4.065  1.00  0.00    -0.359 N 
ATOM      9  H1  UNL     1      16.689   2.255   3.686  1.00  0.00     0.162 HD
HETATM   10  C11 UNL     1      17.819   1.317   5.243  1.00  0.00     0.256 C 
HETATM   11  C14 UNL     1      18.983   0.396   5.125  1.00  0.00     0.216 C 
HETATM   12  C15 UNL     1      20.150   1.270   4.781  1.00  0.00     0.076 C 
HETATM   13  N2  UNL     1      21.057   1.942   4.535  1.00  0.00    -0.196 NA
HETATM   14  C16 UNL     1      18.859  -0.544   4.012  1.00  0.00     0.184 C 
HETATM   15  O6  UNL     1      19.873  -1.131   3.501  1.00  0.00    -0.291 OA
ENDROOT
BRANCH  10  16
HETATM   16  O4  UNL     1      18.226   2.662   5.492  1.00  0.00    -0.294 OA
BRANCH  16  17
HETATM   17  C12 UNL     1      17.405   3.745   5.221  1.00  0.00     0.256 C 
HETATM   18  C13 UNL     1      17.908   5.026   4.631  1.00  0.00     0.126 C 
HETATM   19  O5  UNL     1      16.196   3.661   5.475  1.00  0.00    -0.266 OA
ENDBRANCH  16  17
ENDBRANCH  10  16
BRANCH   6  20
HETATM   20  O2  UNL     1      14.462   0.924   2.871  1.00  0.00    -0.356 OA
ATOM     21  H2  UNL     1      13.915   1.038   2.103  1.00  0.00     0.218 HD
ENDBRANCH   6  20
BRANCH   1  22
HETATM   22  C3  UNL     1      15.694  -3.561   1.571  1.00  0.00     0.196 C 
BRANCH  22  23
HETATM   23  O1  UNL     1      15.910  -4.646   2.431  1.00  0.00    -0.379 OA
BRANCH  23  24
HETATM   24  C2  UNL     1      15.039  -5.040   3.334  1.00  0.00     0.164 C 
HETATM   25  C1  UNL     1      15.428  -4.595   4.768  1.00  0.00     0.033 C 
ENDBRANCH  23  24
ENDBRANCH  22  23
BRANCH  22  26
HETATM   26  C17 UNL     1      16.196  -3.961   0.252  1.00  0.00     0.288 C 
HETATM   27  N3  UNL     1      17.290  -4.947   0.514  1.00  0.00    -0.061 N 
HETATM   28  C18 UNL     1      17.414  -5.686  -0.714  1.00  0.00     0.240 C 
ATOM     29  H32 UNL     1      18.161  -4.526   0.835  1.00  0.00     0.278 HD
ATOM     30  H31 UNL     1      17.136  -5.531   1.336  1.00  0.00     0.278 HD
HETATM   31  C19 UNL     1      16.148  -5.572  -1.490  1.00  0.00     0.108 C 
HETATM   32  C20 UNL     1      15.276  -4.837  -0.531  1.00  0.00     0.162 C 
HETATM   33  O7  UNL     1      14.047  -4.958  -0.437  1.00  0.00    -0.296 OA
ENDBRANCH  22  26
ENDBRANCH   1  22
BRANCH   7  34
HETATM   34  O3  UNL     1      13.880  -1.452   1.731  1.00  0.00    -0.357 OA
ATOM     35  H3  UNL     1      13.435  -0.727   1.306  1.00  0.00     0.217 HD
ENDBRANCH   7  34
TORSDOF 8
ENDMDL
MODEL 4
REMARK VINA RESULT: -7.696952436      3.334      9.403
REMARK  8 active torsions:
REMARK  status: ('A' for Active; 'I' for Inactive)
REMARK    1  A    between atoms: C2_2  and  O1_3 
REMARK    2  A    between atoms: O1_3  and  C3_4 
REMARK    3  A    between atoms: C3_4  and  C4_5 
REMARK    4  A    between atoms: C3_4  and  C17_28 
REMARK    5  A    between atoms: C9_10  and  O2_11 
REMARK    6  A    between atoms: C10_13  and  O3_14 
REMARK    7  A    between atoms: C11_18  and  O4_19 
REMARK    8  A    between atoms: O4_19  and  C12_20 
ROOT
HETATM    1  C4  UNL     1      21.751  -4.582  -1.470  1.00  0.00     0.016 A 
HETATM    2  C5  UNL     1      21.454  -3.879  -0.320  1.00  0.00    -0.034 A 
HETATM    3  C6  UNL     1      22.547  -3.509   0.550  1.00  0.00     0.050 C 
HETATM    4  C7  UNL     1      20.178  -3.555   0.076  1.00  0.00     0.047 A 
HETATM    5  C8  UNL     1      19.104  -3.943  -0.698  1.00  0.00     0.081 A 
HETATM    6  C9  UNL     1      19.331  -4.641  -1.848  1.00  0.00     0.127 A 
HETATM    7  C10 UNL     1      20.626  -4.956  -2.228  1.00  0.00     0.110 A 
HETATM    8  N1  UNL     1      17.810  -3.583  -0.207  1.00  0.00    -0.359 N 
ATOM      9  H1  UNL     1      17.070  -3.308  -0.853  1.00  0.00     0.162 HD
HETATM   10  C11 UNL     1      17.566  -3.615   1.207  1.00  0.00     0.256 C 
HETATM   11  C14 UNL     1      18.644  -2.977   2.011  1.00  0.00     0.216 C 
HETATM   12  C15 UNL     1      18.149  -1.597   2.319  1.00  0.00     0.076 C 
HETATM   13  N2  UNL     1      17.764  -0.539   2.575  1.00  0.00    -0.196 NA
HETATM   14  C16 UNL     1      19.884  -2.789   1.260  1.00  0.00     0.184 C 
HETATM   15  O6  UNL     1      20.769  -1.937   1.612  1.00  0.00    -0.291 OA
ENDROOT
BRANCH  10  16
HETATM   16  O4  UNL     1      16.304  -2.977   1.404  1.00  0.00    -0.294 OA
BRANCH  16  17
HETATM   17  C12 UNL     1      15.126  -3.694   1.533  1.00  0.00     0.256 C 
HETATM   18  C13 UNL     1      14.293  -3.685   2.778  1.00  0.00     0.126 C 
HETATM   19  O5  UNL     1      14.732  -4.380   0.580  1.00  0.00    -0.266 OA
ENDBRANCH  16  17
ENDBRANCH  10  16
BRANCH   6  20
HETATM   20  O2  UNL     1      18.225  -5.023  -2.618  1.00  0.00    -0.356 OA
ATOM     21  H2  UNL     1      18.087  -4.588  -3.451  1.00  0.00     0.218 HD
ENDBRANCH   6  20
BRANCH   1  22
HETATM   22  C3  UNL     1      23.015  -4.915  -2.020  1.00  0.00     0.196 C 
BRANCH  22  23
HETATM   23  O1  UNL     1      23.125  -4.267  -3.258  1.00  0.00    -0.379 OA
BRANCH  23  24
HETATM   24  C2  UNL     1      23.591  -3.045  -3.398  1.00  0.00     0.164 C 
HETATM   25  C1  UNL     1      23.545  -2.558  -4.870  1.00  0.00     0.033 C 
ENDBRANCH  23  24
ENDBRANCH  22  23
BRANCH  22  26
HETATM   26  C17 UNL     1      23.501  -6.285  -2.216  1.00  0.00     0.288 C 
HETATM   27  N3  UNL     1      24.753  -6.163  -3.025  1.00  0.00    -0.061 N 
HETATM   28  C18 UNL     1      25.464  -7.389  -2.780  1.00  0.00     0.240 C 
ATOM     29  H32 UNL     1      24.592  -5.966  -4.013  1.00  0.00     0.278 HD
ATOM     30  H31 UNL     1      25.295  -5.322  -2.828  1.00  0.00     0.278 HD
HETATM   31  C19 UNL     1      24.990  -7.989  -1.503  1.00  0.00     0.108 C 
HETATM   32  C20 UNL     1      24.073  -6.929  -0.997  1.00  0.00     0.162 C 
HETATM   33  O7  UNL     1      23.859  -6.670   0.195  1.00  0.00    -0.296 OA
ENDBRANCH  22  26
ENDBRANCH   1  22
BRANCH   7  34
HETATM   34  O3  UNL     1      20.722  -5.664  -3.415  1.00  0.00    -0.357 OA
ATOM     35  H3  UNL     1      21.439  -6.259  -3.602  1.00  0.00     0.217 HD
ENDBRANCH   7  34
TORSDOF 8
ENDMDL
MODEL 5
REMARK VINA RESULT: -7.687279926      3.410      8.956
REMARK  8 active torsions:
REMARK  status: ('A' for Active; 'I' for Inactive)
REMARK    1  A    between atoms: C2_2  and  O1_3 
REMARK    2  A    between atoms: O1_3  and  C3_4 
REMARK    3  A    between atoms: C3_4  and  C4_5 
REMARK    4  A    between atoms: C3_4  and  C17_28 
REMARK    5  A    between atoms: C9_10  and  O2_11 
REMARK    6  A    between atoms: C10_13  and  O3_14 
REMARK    7  A    between atoms: C11_18  and  O4_19 
REMARK    8  A    between atoms: O4_19  and  C12_20 
ROOT
HETATM    1  C4  UNL     1      15.593   0.714   4.799  1.00  0.00     0.016 A 
HETATM    2  C5  UNL     1      14.954   1.851   4.349  1.00  0.00    -0.034 A 
HETATM    3  C6  UNL     1      15.607   2.635   3.325  1.00  0.00     0.050 C 
HETATM    4  C7  UNL     1      13.761   2.314   4.851  1.00  0.00     0.047 A 
HETATM    5  C8  UNL     1      13.137   1.626   5.870  1.00  0.00     0.081 A 
HETATM    6  C9  UNL     1      13.717   0.493   6.360  1.00  0.00     0.127 A 
HETATM    7  C10 UNL     1      14.919   0.044   5.838  1.00  0.00     0.110 A 
HETATM    8  N1  UNL     1      11.910   2.184   6.349  1.00  0.00    -0.359 N 
ATOM      9  H1  UNL     1      11.142   1.576   6.633  1.00  0.00     0.162 HD
HETATM   10  C11 UNL     1      11.773   3.610   6.424  1.00  0.00     0.256 C 
HETATM   11  C14 UNL     1      12.248   4.319   5.203  1.00  0.00     0.216 C 
HETATM   12  C15 UNL     1      11.015   4.602   4.402  1.00  0.00     0.076 C 
HETATM   13  N2  UNL     1      10.065   4.840   3.789  1.00  0.00    -0.196 NA
HETATM   14  C16 UNL     1      13.088   3.483   4.346  1.00  0.00     0.184 C 
HETATM   15  O6  UNL     1      13.266   3.744   3.108  1.00  0.00    -0.291 OA
ENDROOT
BRANCH  10  16
HETATM   16  O4  UNL     1      10.393   3.862   6.685  1.00  0.00    -0.294 OA
BRANCH  16  17
HETATM   17  C12 UNL     1       9.473   2.840   6.845  1.00  0.00     0.256 C 
HETATM   18  C13 UNL     1       8.831   2.514   8.159  1.00  0.00     0.126 C 
HETATM   19  O5  UNL     1       9.158   2.155   5.863  1.00  0.00    -0.266 OA
ENDBRANCH  16  17
ENDBRANCH  10  16
BRANCH   6  20
HETATM   20  O2  UNL     1      13.064  -0.190   7.395  1.00  0.00    -0.356 OA
ATOM     21  H2  UNL     1      12.151  -0.423   7.271  1.00  0.00     0.218 HD
ENDBRANCH   6  20
BRANCH   1  22
HETATM   22  C3  UNL     1      16.778   0.098   4.322  1.00  0.00     0.196 C 
BRANCH  22  23
HETATM   23  O1  UNL     1      17.797   1.061   4.344  1.00  0.00    -0.379 OA
BRANCH  23  24
HETATM   24  C2  UNL     1      18.397   1.457   5.445  1.00  0.00     0.164 C 
HETATM   25  C1  UNL     1      18.590   2.994   5.496  1.00  0.00     0.033 C 
ENDBRANCH  23  24
ENDBRANCH  22  23
BRANCH  22  26
HETATM   26  C17 UNL     1      16.889  -0.605   3.040  1.00  0.00     0.288 C 
HETATM   27  N3  UNL     1      18.340  -0.568   2.678  1.00  0.00    -0.061 N 
HETATM   28  C18 UNL     1      18.508  -1.649   1.743  1.00  0.00     0.240 C 
ATOM     29  H32 UNL     1      18.659   0.336   2.330  1.00  0.00     0.278 HD
ATOM     30  H31 UNL     1      18.970  -0.610   3.479  1.00  0.00     0.278 HD
HETATM   31  C19 UNL     1      17.407  -2.634   1.922  1.00  0.00     0.108 C 
HETATM   32  C20 UNL     1      16.707  -2.085   3.118  1.00  0.00     0.162 C 
HETATM   33  O7  UNL     1      16.110  -2.753   3.973  1.00  0.00    -0.296 OA
ENDBRANCH  22  26
ENDBRANCH   1  22
BRANCH   7  34
HETATM   34  O3  UNL     1      15.402  -1.117   6.419  1.00  0.00    -0.357 OA
ATOM     35  H3  UNL     1      15.191  -1.983   6.090  1.00  0.00     0.217 HD
ENDBRANCH   7  34
TORSDOF 8
ENDMDL
