MODEL 1
REMARK VINA RESULT: -7.137327777      0.000      0.000
REMARK  11 active torsions:
REMARK  status: ('A' for Active; 'I' for Inactive)
REMARK       I    between atoms: N1_2  and  C2_4 
REMARK    1  A    between atoms: C2_4  and  C3_6 
REMARK    2  A    between atoms: C3_6  and  O2_7 
REMARK    3  A    between atoms: C3_6  and  O3_9 
REMARK    4  A    between atoms: C3_6  and  C4_11 
REMARK    5  A    between atoms: C6_14  and  O5_15 
REMARK    6  A    between atoms: C9_18  and  O6_19 
REMARK    7  A    between atoms: O6_19  and  C10_20 
REMARK    8  A    between atoms: C13_24  and  O8_25 
REMARK    9  A    between atoms: C14_27  and  O9_28 
REMARK   10  A    between atoms: C16_30  and  O10_31 
REMARK   11  A    between atoms: C17_33  and  O11_34 
ROOT
HETATM    1  C4  UNL     1      15.604   2.750   4.702  1.00  0.00     0.167 C 
HETATM    2  C5  UNL     1      14.703   2.472   5.874  1.00  0.00     0.174 C 
HETATM    3  O4  UNL     1      14.360   3.338   6.591  1.00  0.00    -0.294 OA
HETATM    4  C6  UNL     1      14.254   1.052   6.103  1.00  0.00     0.227 C 
HETATM    5  C8  UNL     1      15.247   0.159   5.394  1.00  0.00     0.014 C 
HETATM    6  C9  UNL     1      14.909  -0.969   4.915  1.00  0.00     0.156 C 
HETATM    7  C12 UNL     1      16.605   0.672   5.315  1.00  0.00     0.021 A 
HETATM    8  C13 UNL     1      17.691  -0.136   5.590  1.00  0.00     0.113 A 
HETATM    9  C14 UNL     1      18.978   0.331   5.530  1.00  0.00     0.138 A 
HETATM   10  C16 UNL     1      19.168   1.665   5.181  1.00  0.00     0.136 A 
HETATM   11  C17 UNL     1      18.108   2.523   4.896  1.00  0.00     0.110 A 
HETATM   12  C18 UNL     1      16.843   2.028   4.963  1.00  0.00     0.009 A 
ENDROOT
BRANCH   1  13
HETATM   13  C3  UNL     1      15.539   4.125   4.257  1.00  0.00     0.258 C 
BRANCH  13  14
HETATM   14  C2  UNL     1      14.101   4.349   3.766  1.00  0.00     0.281 C 
HETATM   15  N1  UNL     1      13.150   4.951   4.623  1.00  0.00    -0.361 N 
HETATM   16  C1  UNL     1      11.802   5.149   4.129  1.00  0.00     0.149 C 
ATOM     17  H1  UNL     1      13.407   5.238   5.567  1.00  0.00     0.162 HD
HETATM   18  O1  UNL     1      13.734   4.015   2.621  1.00  0.00    -0.267 OA
ENDBRANCH  13  14
BRANCH  13  19
HETATM   19  O2  UNL     1      15.724   5.096   5.234  1.00  0.00    -0.357 OA
ATOM     20  H2  UNL     1      15.377   4.701   6.026  1.00  0.00     0.213 HD
ENDBRANCH  13  19
BRANCH  13  21
HETATM   21  O3  UNL     1      16.241   4.387   3.071  1.00  0.00    -0.357 OA
ATOM     22  H3  UNL     1      16.441   3.498   2.801  1.00  0.00     0.213 HD
ENDBRANCH  13  21
ENDBRANCH   1  13
BRANCH   4  23
HETATM   23  O5  UNL     1      12.963   0.822   5.716  1.00  0.00    -0.378 OA
HETATM   24  C7  UNL     1      12.068   0.666   6.763  1.00  0.00     0.203 C 
ENDBRANCH   4  23
BRANCH  11  25
HETATM   25  O11 UNL     1      18.313   3.843   4.556  1.00  0.00    -0.357 OA
ATOM     26  H11 UNL     1      17.963   4.554   5.080  1.00  0.00     0.217 HD
ENDBRANCH  11  25
BRANCH   8  27
HETATM   27  O8  UNL     1      17.430  -1.472   5.943  1.00  0.00    -0.357 OA
ATOM     28  H8  UNL     1      17.862  -2.150   5.436  1.00  0.00     0.217 HD
ENDBRANCH   8  27
BRANCH  10  29
HETATM   29  O10 UNL     1      20.453   2.150   5.117  1.00  0.00    -0.356 OA
ATOM     30  H10 UNL     1      21.058   1.753   4.502  1.00  0.00     0.218 HD
ENDBRANCH  10  29
BRANCH   6  31
HETATM   31  O6  UNL     1      15.586  -1.942   4.240  1.00  0.00    -0.291 OA
BRANCH  31  32
HETATM   32  C10 UNL     1      15.474  -2.192   2.883  1.00  0.00     0.259 C 
HETATM   33  C11 UNL     1      16.609  -2.690   2.072  1.00  0.00     0.126 C 
HETATM   34  O7  UNL     1      14.371  -1.993   2.302  1.00  0.00    -0.265 OA
ENDBRANCH  31  32
ENDBRANCH   6  31
BRANCH   9  35
HETATM   35  O9  UNL     1      20.030  -0.507   5.809  1.00  0.00    -0.351 OA
HETATM   36  C15 UNL     1      20.585  -0.685   7.102  1.00  0.00     0.210 C 
ENDBRANCH   9  35
TORSDOF 11
ENDMDL
MODEL 2
REMARK VINA RESULT: -6.990102907      2.316      5.913
REMARK  11 active torsions:
REMARK  status: ('A' for Active; 'I' for Inactive)
REMARK       I    between atoms: N1_2  and  C2_4 
REMARK    1  A    between atoms: C2_4  and  C3_6 
REMARK    2  A    between atoms: C3_6  and  O2_7 
REMARK    3  A    between atoms: C3_6  and  O3_9 
REMARK    4  A    between atoms: C3_6  and  C4_11 
REMARK    5  A    between atoms: C6_14  and  O5_15 
REMARK    6  A    between atoms: C9_18  and  O6_19 
REMARK    7  A    between atoms: O6_19  and  C10_20 
REMARK    8  A    between atoms: C13_24  and  O8_25 
REMARK    9  A    between atoms: C14_27  and  O9_28 
REMARK   10  A    between atoms: C16_30  and  O10_31 
REMARK   11  A    between atoms: C17_33  and  O11_34 
ROOT
HETATM    1  C4  UNL     1      17.723   0.579   5.351  1.00  0.00     0.167 C 
HETATM    2  C5  UNL     1      17.308  -0.556   4.456  1.00  0.00     0.174 C 
HETATM    3  O4  UNL     1      18.005  -0.922   3.583  1.00  0.00    -0.294 OA
HETATM    4  C6  UNL     1      15.975  -1.211   4.711  1.00  0.00     0.227 C 
HETATM    5  C8  UNL     1      15.140  -0.217   5.487  1.00  0.00     0.014 C 
HETATM    6  C9  UNL     1      14.249  -0.592   6.312  1.00  0.00     0.156 C 
HETATM    7  C12 UNL     1      15.418   1.184   5.211  1.00  0.00     0.021 A 
HETATM    8  C13 UNL     1      14.393   2.090   5.017  1.00  0.00     0.113 A 
HETATM    9  C14 UNL     1      14.635   3.411   4.748  1.00  0.00     0.138 A 
HETATM   10  C16 UNL     1      15.961   3.826   4.670  1.00  0.00     0.136 A 
HETATM   11  C17 UNL     1      17.031   2.953   4.855  1.00  0.00     0.110 A 
HETATM   12  C18 UNL     1      16.758   1.648   5.123  1.00  0.00     0.009 A 
ENDROOT
BRANCH   1  13
HETATM   13  C3  UNL     1      19.156   0.769   5.391  1.00  0.00     0.258 C 
BRANCH  13  14
HETATM   14  C2  UNL     1      19.750  -0.554   5.898  1.00  0.00     0.281 C 
HETATM   15  N1  UNL     1      20.659  -1.273   5.088  1.00  0.00    -0.361 N 
HETATM   16  C1  UNL     1      21.202  -2.518   5.595  1.00  0.00     0.149 C 
ATOM     17  H1  UNL     1      20.927  -0.924   4.168  1.00  0.00     0.162 HD
HETATM   18  O1  UNL     1      19.455  -1.026   7.015  1.00  0.00    -0.267 OA
ENDBRANCH  13  14
BRANCH  13  19
HETATM   19  O2  UNL     1      19.782   0.980   4.169  1.00  0.00    -0.357 OA
ATOM     20  H2  UNL     1      20.321   0.208   4.044  1.00  0.00     0.213 HD
ENDBRANCH  13  19
BRANCH  13  21
HETATM   21  O3  UNL     1      19.601   1.634   6.402  1.00  0.00    -0.357 OA
ATOM     22  H3  UNL     1      18.797   2.111   6.573  1.00  0.00     0.213 HD
ENDBRANCH  13  21
ENDBRANCH   1  13
BRANCH   4  23
HETATM   23  O5  UNL     1      16.076  -2.422   5.336  1.00  0.00    -0.378 OA
HETATM   24  C7  UNL     1      15.760  -3.510   4.537  1.00  0.00     0.203 C 
ENDBRANCH   4  23
BRANCH  11  25
HETATM   25  O11 UNL     1      18.339   3.379   4.771  1.00  0.00    -0.357 OA
ATOM     26  H11 UNL     1      19.005   2.865   4.330  1.00  0.00     0.217 HD
ENDBRANCH  11  25
BRANCH   8  27
HETATM   27  O8  UNL     1      13.076   1.605   5.103  1.00  0.00    -0.357 OA
ATOM     28  H8  UNL     1      12.479   1.837   4.401  1.00  0.00     0.217 HD
ENDBRANCH   8  27
BRANCH  10  29
HETATM   29  O10 UNL     1      16.221   5.149   4.400  1.00  0.00    -0.356 OA
ATOM     30  H10 UNL     1      17.020   5.369   3.937  1.00  0.00     0.218 HD
ENDBRANCH  10  29
BRANCH   6  31
HETATM   31  O6  UNL     1      13.384   0.078   7.125  1.00  0.00    -0.291 OA
BRANCH  31  32
HETATM   32  C10 UNL     1      12.103  -0.344   7.443  1.00  0.00     0.259 C 
HETATM   33  C11 UNL     1      11.845  -1.591   8.200  1.00  0.00     0.126 C 
HETATM   34  O7  UNL     1      11.111   0.347   7.079  1.00  0.00    -0.265 OA
ENDBRANCH  31  32
ENDBRANCH   6  31
BRANCH   9  35
HETATM   35  O9  UNL     1      13.587   4.281   4.564  1.00  0.00    -0.351 OA
HETATM   36  C15 UNL     1      12.981   4.543   3.308  1.00  0.00     0.210 C 
ENDBRANCH   9  35
TORSDOF 11
ENDMDL
MODEL 3
REMARK VINA RESULT: -6.834936550      3.277      5.226
REMARK  11 active torsions:
REMARK  status: ('A' for Active; 'I' for Inactive)
REMARK       I    between atoms: N1_2  and  C2_4 
REMARK    1  A    between atoms: C2_4  and  C3_6 
REMARK    2  A    between atoms: C3_6  and  O2_7 
REMARK    3  A    between atoms: C3_6  and  O3_9 
REMARK    4  A    between atoms: C3_6  and  C4_11 
REMARK    5  A    between atoms: C6_14  and  O5_15 
REMARK    6  A    between atoms: C9_18  and  O6_19 
REMARK    7  A    between atoms: O6_19  and  C10_20 
REMARK    8  A    between atoms: C13_24  and  O8_25 
REMARK    9  A    between atoms: C14_27  and  O9_28 
REMARK   10  A    between atoms: C16_30  and  O10_31 
REMARK   11  A    between atoms: C17_33  and  O11_34 
ROOT
HETATM    1  C4  UNL     1      16.775  -1.332   3.797  1.00  0.00     0.167 C 
HETATM    2  C5  UNL     1      16.458  -2.595   4.551  1.00  0.00     0.174 C 
HETATM    3  O4  UNL     1      16.603  -2.655   5.715  1.00  0.00    -0.294 OA
HETATM    4  C6  UNL     1      15.948  -3.778   3.771  1.00  0.00     0.227 C 
HETATM    5  C8  UNL     1      16.377  -3.573   2.334  1.00  0.00     0.014 C 
HETATM    6  C9  UNL     1      15.695  -4.028   1.362  1.00  0.00     0.156 C 
HETATM    7  C12 UNL     1      17.619  -2.840   2.150  1.00  0.00     0.021 A 
HETATM    8  C13 UNL     1      18.578  -3.274   1.256  1.00  0.00     0.113 A 
HETATM    9  C14 UNL     1      19.758  -2.602   1.075  1.00  0.00     0.138 A 
HETATM   10  C16 UNL     1      19.973  -1.452   1.829  1.00  0.00     0.136 A 
HETATM   11  C17 UNL     1      19.039  -0.973   2.745  1.00  0.00     0.110 A 
HETATM   12  C18 UNL     1      17.876  -1.662   2.900  1.00  0.00     0.009 A 
ENDROOT
BRANCH   1  13
HETATM   13  C3  UNL     1      16.727  -0.152   4.631  1.00  0.00     0.258 C 
BRANCH  13  14
HETATM   14  C2  UNL     1      15.291  -0.065   5.170  1.00  0.00     0.281 C 
HETATM   15  N1  UNL     1      15.046  -0.241   6.551  1.00  0.00    -0.361 N 
HETATM   16  C1  UNL     1      13.679  -0.152   7.028  1.00  0.00     0.149 C 
ATOM     17  H1  UNL     1      15.812  -0.425   7.198  1.00  0.00     0.162 HD
HETATM   18  O1  UNL     1      14.317   0.158   4.421  1.00  0.00    -0.267 OA
ENDBRANCH  13  14
BRANCH  13  19
HETATM   19  O2  UNL     1      17.521  -0.174   5.772  1.00  0.00    -0.357 OA
ATOM     20  H2  UNL     1      16.957   0.166   6.457  1.00  0.00     0.213 HD
ENDBRANCH  13  19
BRANCH  13  21
HETATM   21  O3  UNL     1      16.794   1.061   3.929  1.00  0.00    -0.357 OA
ATOM     22  H3  UNL     1      16.943   0.731   3.050  1.00  0.00     0.213 HD
ENDBRANCH  13  21
ENDBRANCH   1  13
BRANCH   4  23
HETATM   23  O5  UNL     1      14.602  -3.975   3.900  1.00  0.00    -0.378 OA
HETATM   24  C7  UNL     1      14.250  -5.188   4.472  1.00  0.00     0.203 C 
ENDBRANCH   4  23
BRANCH  11  25
HETATM   25  O11 UNL     1      19.268   0.166   3.488  1.00  0.00    -0.357 OA
ATOM     26  H11 UNL     1      18.968   1.019   3.200  1.00  0.00     0.217 HD
ENDBRANCH  11  25
BRANCH   8  27
HETATM   27  O8  UNL     1      18.303  -4.447   0.530  1.00  0.00    -0.357 OA
ATOM     28  H8  UNL     1      18.868  -5.196   0.680  1.00  0.00     0.217 HD
ENDBRANCH   8  27
BRANCH  10  29
HETATM   29  O10 UNL     1      21.152  -0.766   1.660  1.00  0.00    -0.356 OA
ATOM     30  H10 UNL     1      21.650  -0.524   2.431  1.00  0.00     0.218 HD
ENDBRANCH  10  29
BRANCH   6  31
HETATM   31  O6  UNL     1      15.848  -3.980   0.008  1.00  0.00    -0.291 OA
BRANCH  31  32
HETATM   32  C10 UNL     1      15.335  -4.908  -0.883  1.00  0.00     0.259 C 
HETATM   33  C11 UNL     1      16.174  -5.572  -1.908  1.00  0.00     0.126 C 
HETATM   34  O7  UNL     1      14.109  -5.209  -0.832  1.00  0.00    -0.265 OA
ENDBRANCH  31  32
ENDBRANCH   6  31
BRANCH   9  35
HETATM   35  O9  UNL     1      20.686  -3.066   0.173  1.00  0.00    -0.351 OA
HETATM   36  C15 UNL     1      21.806  -3.863   0.523  1.00  0.00     0.210 C 
ENDBRANCH   9  35
TORSDOF 11
ENDMDL
MODEL 4
REMARK VINA RESULT: -6.814617322      4.242      7.860
REMARK  11 active torsions:
REMARK  status: ('A' for Active; 'I' for Inactive)
REMARK       I    between atoms: N1_2  and  C2_4 
REMARK    1  A    between atoms: C2_4  and  C3_6 
REMARK    2  A    between atoms: C3_6  and  O2_7 
REMARK    3  A    between atoms: C3_6  and  O3_9 
REMARK    4  A    between atoms: C3_6  and  C4_11 
REMARK    5  A    between atoms: C6_14  and  O5_15 
REMARK    6  A    between atoms: C9_18  and  O6_19 
REMARK    7  A    between atoms: O6_19  and  C10_20 
REMARK    8  A    between atoms: C13_24  and  O8_25 
REMARK    9  A    between atoms: C14_27  and  O9_28 
REMARK   10  A    between atoms: C16_30  and  O10_31 
REMARK   11  A    between atoms: C17_33  and  O11_34 
ROOT
HETATM    1  C4  UNL     1      16.866  -3.272   2.782  1.00  0.00     0.167 C 
HETATM    2  C5  UNL     1      17.207  -1.815   2.930  1.00  0.00     0.174 C 
HETATM    3  O4  UNL     1      16.366  -1.014   3.111  1.00  0.00    -0.294 OA
HETATM    4  C6  UNL     1      18.655  -1.411   2.842  1.00  0.00     0.227 C 
HETATM    5  C8  UNL     1      19.373  -2.517   2.099  1.00  0.00     0.014 C 
HETATM    6  C9  UNL     1      20.596  -2.786   2.319  1.00  0.00     0.156 C 
HETATM    7  C12 UNL     1      18.575  -3.230   1.115  1.00  0.00     0.021 A 
HETATM    8  C13 UNL     1      19.076  -3.515  -0.140  1.00  0.00     0.113 A 
HETATM    9  C14 UNL     1      18.336  -4.178  -1.083  1.00  0.00     0.138 A 
HETATM   10  C16 UNL     1      17.043  -4.564  -0.741  1.00  0.00     0.136 A 
HETATM   11  C17 UNL     1      16.490  -4.300   0.510  1.00  0.00     0.110 A 
HETATM   12  C18 UNL     1      17.251  -3.641   1.425  1.00  0.00     0.009 A 
ENDROOT
BRANCH   1  13
HETATM   13  C3  UNL     1      15.604  -3.620   3.396  1.00  0.00     0.258 C 
BRANCH  13  14
HETATM   14  C2  UNL     1      15.721  -3.221   4.874  1.00  0.00     0.281 C 
HETATM   15  N1  UNL     1      14.867  -2.224   5.403  1.00  0.00    -0.361 N 
HETATM   16  C1  UNL     1      15.003  -1.870   6.802  1.00  0.00     0.149 C 
ATOM     17  H1  UNL     1      14.172  -1.766   4.814  1.00  0.00     0.162 HD
HETATM   18  O1  UNL     1      16.555  -3.749   5.637  1.00  0.00    -0.267 OA
ENDBRANCH  13  14
BRANCH  13  19
HETATM   19  O2  UNL     1      14.488  -2.928   2.940  1.00  0.00    -0.357 OA
ATOM     20  H2  UNL     1      13.763  -3.308   3.423  1.00  0.00     0.213 HD
ENDBRANCH  13  19
BRANCH  13  21
HETATM   21  O3  UNL     1      15.386  -4.999   3.537  1.00  0.00    -0.357 OA
ATOM     22  H3  UNL     1      14.619  -5.099   2.984  1.00  0.00     0.213 HD
ENDBRANCH  13  21
ENDBRANCH   1  13
BRANCH   4  23
HETATM   23  O5  UNL     1      19.218  -1.136   4.057  1.00  0.00    -0.378 OA
HETATM   24  C7  UNL     1      19.462   0.209   4.286  1.00  0.00     0.203 C 
ENDBRANCH   4  23
BRANCH  11  25
HETATM   25  O11 UNL     1      15.206  -4.685   0.832  1.00  0.00    -0.357 OA
ATOM     26  H11 UNL     1      14.542  -4.053   1.080  1.00  0.00     0.217 HD
ENDBRANCH  11  25
BRANCH   8  27
HETATM   27  O8  UNL     1      20.386  -3.092  -0.425  1.00  0.00    -0.357 OA
ATOM     28  H8  UNL     1      21.048  -3.764  -0.537  1.00  0.00     0.217 HD
ENDBRANCH   8  27
BRANCH  10  29
HETATM   29  O10 UNL     1      16.287  -5.230  -1.677  1.00  0.00    -0.356 OA
ATOM     30  H10 UNL     1      15.518  -4.799  -2.029  1.00  0.00     0.218 HD
ENDBRANCH  10  29
BRANCH   6  31
HETATM   31  O6  UNL     1      21.458  -3.710   1.808  1.00  0.00    -0.291 OA
BRANCH  31  32
HETATM   32  C10 UNL     1      22.835  -3.566   1.750  1.00  0.00     0.259 C 
HETATM   33  C11 UNL     1      23.486  -2.255   1.525  1.00  0.00     0.126 C 
HETATM   34  O7  UNL     1      23.574  -4.580   1.893  1.00  0.00    -0.265 OA
ENDBRANCH  31  32
ENDBRANCH   6  31
BRANCH   9  35
HETATM   35  O9  UNL     1      18.873  -4.444  -2.320  1.00  0.00    -0.351 OA
HETATM   36  C15 UNL     1      20.025  -5.244  -2.533  1.00  0.00     0.210 C 
ENDBRANCH   9  35
TORSDOF 11
ENDMDL
MODEL 5
REMARK VINA RESULT: -6.724888434      3.194      6.643
REMARK  11 active torsions:
REMARK  status: ('A' for Active; 'I' for Inactive)
REMARK       I    between atoms: N1_2  and  C2_4 
REMARK    1  A    between atoms: C2_4  and  C3_6 
REMARK    2  A    between atoms: C3_6  and  O2_7 
REMARK    3  A    between atoms: C3_6  and  O3_9 
REMARK    4  A    between atoms: C3_6  and  C4_11 
REMARK    5  A    between atoms: C6_14  and  O5_15 
REMARK    6  A    between atoms: C9_18  and  O6_19 
REMARK    7  A    between atoms: O6_19  and  C10_20 
REMARK    8  A    between atoms: C13_24  and  O8_25 
REMARK    9  A    between atoms: C14_27  and  O9_28 
REMARK   10  A    between atoms: C16_30  and  O10_31 
REMARK   11  A    between atoms: C17_33  and  O11_34 
ROOT
HETATM    1  C4  UNL     1      16.252  -2.534   4.675  1.00  0.00     0.167 C 
HETATM    2  C5  UNL     1      15.690  -1.141   4.592  1.00  0.00     0.174 C 
HETATM    3  O4  UNL     1      14.534  -0.950   4.681  1.00  0.00    -0.294 OA
HETATM    4  C6  UNL     1      16.651   0.002   4.394  1.00  0.00     0.227 C 
HETATM    5  C8  UNL     1      17.912  -0.586   3.800  1.00  0.00     0.014 C 
HETATM    6  C9  UNL     1      19.055  -0.071   4.015  1.00  0.00     0.156 C 
HETATM    7  C12 UNL     1      17.723  -1.758   2.963  1.00  0.00     0.021 A 
HETATM    8  C13 UNL     1      18.367  -1.879   1.747  1.00  0.00     0.113 A 
HETATM    9  C14 UNL     1      18.194  -2.973   0.939  1.00  0.00     0.138 A 
HETATM   10  C16 UNL     1      17.336  -3.976   1.380  1.00  0.00     0.136 A 
HETATM   11  C17 UNL     1      16.660  -3.902   2.596  1.00  0.00     0.110 A 
HETATM   12  C18 UNL     1      16.855  -2.805   3.376  1.00  0.00     0.009 A 
ENDROOT
BRANCH   1  13
HETATM   13  C3  UNL     1      15.381  -3.451   5.377  1.00  0.00     0.258 C 
BRANCH  13  14
HETATM   14  C2  UNL     1      15.181  -2.862   6.782  1.00  0.00     0.281 C 
HETATM   15  N1  UNL     1      13.882  -2.519   7.223  1.00  0.00    -0.361 N 
HETATM   16  C1  UNL     1      13.727  -1.966   8.554  1.00  0.00     0.149 C 
ATOM     17  H1  UNL     1      13.073  -2.658   6.619  1.00  0.00     0.162 HD
HETATM   18  O1  UNL     1      16.138  -2.671   7.560  1.00  0.00    -0.267 OA
ENDBRANCH  13  14
BRANCH  13  19
HETATM   19  O2  UNL     1      14.092  -3.582   4.873  1.00  0.00    -0.357 OA
ATOM     20  H2  UNL     1      14.153  -4.305   4.260  1.00  0.00     0.213 HD
ENDBRANCH  13  19
BRANCH  13  21
HETATM   21  O3  UNL     1      15.975  -4.676   5.713  1.00  0.00    -0.357 OA
ATOM     22  H3  UNL     1      15.294  -5.272   5.424  1.00  0.00     0.213 HD
ENDBRANCH  13  21
ENDBRANCH   1  13
BRANCH   4  23
HETATM   23  O5  UNL     1      16.886   0.718   5.535  1.00  0.00    -0.378 OA
HETATM   24  C7  UNL     1      16.434   2.028   5.493  1.00  0.00     0.203 C 
ENDBRANCH   4  23
BRANCH  11  25
HETATM   25  O11 UNL     1      15.810  -4.903   3.016  1.00  0.00    -0.357 OA
ATOM     26  H11 UNL     1      15.942  -5.809   2.765  1.00  0.00     0.217 HD
ENDBRANCH  11  25
BRANCH   8  27
HETATM   27  O8  UNL     1      19.215  -0.828   1.357  1.00  0.00    -0.357 OA
ATOM     28  H8  UNL     1      18.967  -0.329   0.587  1.00  0.00     0.217 HD
ENDBRANCH   8  27
BRANCH  10  29
HETATM   29  O10 UNL     1      17.150  -5.079   0.581  1.00  0.00    -0.356 OA
ATOM     30  H10 UNL     1      16.546  -5.015  -0.148  1.00  0.00     0.218 HD
ENDBRANCH  10  29
BRANCH   6  31
HETATM   31  O6  UNL     1      20.319  -0.396   3.618  1.00  0.00    -0.291 OA
BRANCH  31  32
HETATM   32  C10 UNL     1      21.466   0.291   3.978  1.00  0.00     0.259 C 
HETATM   33  C11 UNL     1      21.447   1.723   4.356  1.00  0.00     0.126 C 
HETATM   34  O7  UNL     1      22.576  -0.312   3.989  1.00  0.00    -0.265 OA
ENDBRANCH  31  32
ENDBRANCH   6  31
BRANCH   9  35
HETATM   35  O9  UNL     1      18.856  -3.055  -0.262  1.00  0.00    -0.351 OA
HETATM   36  C15 UNL     1      20.134  -3.648  -0.427  1.00  0.00     0.210 C 
ENDBRANCH   9  35
TORSDOF 11
ENDMDL
