MODEL 1
REMARK VINA RESULT: -6.318556456      0.000      0.000
REMARK  7 active torsions:
REMARK  status: ('A' for Active; 'I' for Inactive)
REMARK    1  A    between atoms: C6_7  and  N2_8 
REMARK    2  A    between atoms: N2_8  and  C7_10 
REMARK    3  A    between atoms: C7_10  and  C8_11 
REMARK    4  A    between atoms: C8_11  and  C9_12 
REMARK    5  A    between atoms: C9_12  and  N3_13 
REMARK    6  A    between atoms: N3_13  and  C10_15 
REMARK    7  A    between atoms: C10_15  and  C11_16 
ROOT
HETATM    1  N1  UNL     1      -5.568  14.496 -32.122  1.00  0.00    -0.191 NA
HETATM    2  C1  UNL     1      -5.776  14.097 -33.194  1.00  0.00     0.099 C 
HETATM    3  C2  UNL     1      -6.044  13.628 -34.537  1.00  0.00     0.046 A 
HETATM    4  C3  UNL     1      -6.426  12.313 -34.771  1.00  0.00     0.023 A 
HETATM    5  C4  UNL     1      -6.681  11.866 -36.050  1.00  0.00     0.004 A 
HETATM    6  C5  UNL     1      -6.557  12.730 -37.116  1.00  0.00     0.029 A 
HETATM    7  C6  UNL     1      -6.178  14.056 -36.935  1.00  0.00     0.029 A 
HETATM    8  C14 UNL     1      -5.936  14.446 -35.632  1.00  0.00     0.051 A 
ENDROOT
BRANCH   7   9
HETATM    9  N2  UNL     1      -6.052  14.941 -38.035  1.00  0.00    -0.390 N 
ATOM     10  H2  UNL     1      -5.388  14.732 -38.781  1.00  0.00     0.159 HD
BRANCH   9  11
HETATM   11  C7  UNL     1      -6.851  16.126 -38.109  1.00  0.00     0.125 C 
BRANCH  11  12
HETATM   12  C8  UNL     1      -8.313  15.839 -38.462  1.00  0.00     0.064 C 
BRANCH  12  13
HETATM   13  C9  UNL     1      -9.114  17.016 -38.042  1.00  0.00     0.061 C 
BRANCH  13  14
HETATM   14  N3  UNL     1     -10.367  16.780 -37.527  1.00  0.00    -0.380 N 
ATOM     15  H3  UNL     1     -10.960  17.608 -37.479  1.00  0.00     0.164 HD
BRANCH  14  16
HETATM   16  C10 UNL     1     -10.964  15.639 -37.067  1.00  0.00     0.092 C 
BRANCH  16  17
HETATM   17  C11 UNL     1     -10.861  15.201 -35.656  1.00  0.00     0.225 C 
HETATM   18  C12 UNL     1      -9.651  14.223 -35.499  1.00  0.00     0.066 C 
HETATM   19  C13 UNL     1      -9.319  15.048 -34.288  1.00  0.00     0.235 C 
HETATM   20  N4  UNL     1     -10.203  16.106 -34.718  1.00  0.00    -0.066 N 
ATOM     21  H42 UNL     1      -9.812  16.985 -35.055  1.00  0.00     0.278 HD
ATOM     22  H41 UNL     1     -10.759  16.609 -34.028  1.00  0.00     0.278 HD
ENDBRANCH  16  17
ENDBRANCH  14  16
ENDBRANCH  13  14
ENDBRANCH  12  13
ENDBRANCH  11  12
ENDBRANCH   9  11
ENDBRANCH   7   9
TORSDOF 7
ENDMDL
MODEL 2
REMARK VINA RESULT: -6.117748520      2.124      4.692
REMARK  7 active torsions:
REMARK  status: ('A' for Active; 'I' for Inactive)
REMARK    1  A    between atoms: C6_7  and  N2_8 
REMARK    2  A    between atoms: N2_8  and  C7_10 
REMARK    3  A    between atoms: C7_10  and  C8_11 
REMARK    4  A    between atoms: C8_11  and  C9_12 
REMARK    5  A    between atoms: C9_12  and  N3_13 
REMARK    6  A    between atoms: N3_13  and  C10_15 
REMARK    7  A    between atoms: C10_15  and  C11_16 
ROOT
HETATM    1  N1  UNL     1     -11.571  15.418 -32.160  1.00  0.00    -0.191 NA
HETATM    2  C1  UNL     1     -11.269  15.254 -33.271  1.00  0.00     0.099 C 
HETATM    3  C2  UNL     1     -10.862  15.048 -34.645  1.00  0.00     0.046 A 
HETATM    4  C3  UNL     1     -11.594  15.589 -35.694  1.00  0.00     0.023 A 
HETATM    5  C4  UNL     1     -11.208  15.393 -37.003  1.00  0.00     0.004 A 
HETATM    6  C5  UNL     1     -10.081  14.651 -37.281  1.00  0.00     0.029 A 
HETATM    7  C6  UNL     1      -9.314  14.088 -36.267  1.00  0.00     0.029 A 
HETATM    8  C14 UNL     1      -9.750  14.319 -34.976  1.00  0.00     0.051 A 
ENDROOT
BRANCH   7   9
HETATM    9  N2  UNL     1      -8.155  13.325 -36.559  1.00  0.00    -0.390 N 
ATOM     10  H2  UNL     1      -8.156  12.686 -37.353  1.00  0.00     0.159 HD
BRANCH   9  11
HETATM   11  C7  UNL     1      -6.983  13.446 -35.746  1.00  0.00     0.125 C 
BRANCH  11  12
HETATM   12  C8  UNL     1      -6.059  14.581 -36.197  1.00  0.00     0.064 C 
BRANCH  12  13
HETATM   13  C9  UNL     1      -5.883  14.457 -37.666  1.00  0.00     0.061 C 
BRANCH  13  14
HETATM   14  N3  UNL     1      -6.216  15.545 -38.439  1.00  0.00    -0.380 N 
ATOM     15  H3  UNL     1      -5.425  15.967 -38.925  1.00  0.00     0.164 HD
BRANCH  14  16
HETATM   16  C10 UNL     1      -7.411  16.164 -38.675  1.00  0.00     0.092 C 
BRANCH  16  17
HETATM   17  C11 UNL     1      -7.631  17.602 -38.396  1.00  0.00     0.225 C 
HETATM   18  C12 UNL     1      -7.833  17.812 -36.860  1.00  0.00     0.066 C 
HETATM   19  C13 UNL     1      -6.870  18.952 -37.029  1.00  0.00     0.235 C 
HETATM   20  N4  UNL     1      -6.452  18.459 -38.320  1.00  0.00    -0.066 N 
ATOM     21  H42 UNL     1      -5.523  18.052 -38.428  1.00  0.00     0.278 HD
ATOM     22  H41 UNL     1      -6.257  19.119 -39.073  1.00  0.00     0.278 HD
ENDBRANCH  16  17
ENDBRANCH  14  16
ENDBRANCH  13  14
ENDBRANCH  12  13
ENDBRANCH  11  12
ENDBRANCH   9  11
ENDBRANCH   7   9
TORSDOF 7
ENDMDL
MODEL 3
REMARK VINA RESULT: -6.056653582      2.646      4.411
REMARK  7 active torsions:
REMARK  status: ('A' for Active; 'I' for Inactive)
REMARK    1  A    between atoms: C6_7  and  N2_8 
REMARK    2  A    between atoms: N2_8  and  C7_10 
REMARK    3  A    between atoms: C7_10  and  C8_11 
REMARK    4  A    between atoms: C8_11  and  C9_12 
REMARK    5  A    between atoms: C9_12  and  N3_13 
REMARK    6  A    between atoms: N3_13  and  C10_15 
REMARK    7  A    between atoms: C10_15  and  C11_16 
ROOT
HETATM    1  N1  UNL     1      -6.955   8.144 -34.028  1.00  0.00    -0.191 NA
HETATM    2  C1  UNL     1      -6.706   9.210 -33.637  1.00  0.00     0.099 C 
HETATM    3  C2  UNL     1      -6.384  10.545 -33.179  1.00  0.00     0.046 A 
HETATM    4  C3  UNL     1      -6.080  10.788 -31.845  1.00  0.00     0.023 A 
HETATM    5  C4  UNL     1      -5.773  12.058 -31.407  1.00  0.00     0.004 A 
HETATM    6  C5  UNL     1      -5.768  13.108 -32.300  1.00  0.00     0.029 A 
HETATM    7  C6  UNL     1      -6.065  12.918 -33.645  1.00  0.00     0.029 A 
HETATM    8  C14 UNL     1      -6.364  11.624 -34.025  1.00  0.00     0.051 A 
ENDROOT
BRANCH   7   9
HETATM    9  N2  UNL     1      -6.058  14.002 -34.560  1.00  0.00    -0.390 N 
ATOM     10  H2  UNL     1      -5.174  14.438 -34.821  1.00  0.00     0.159 HD
BRANCH   9  11
HETATM   11  C7  UNL     1      -7.283  14.487 -35.120  1.00  0.00     0.125 C 
BRANCH  11  12
HETATM   12  C8  UNL     1      -7.529  13.980 -36.543  1.00  0.00     0.064 C 
BRANCH  12  13
HETATM   13  C9  UNL     1      -6.356  14.366 -37.365  1.00  0.00     0.061 C 
BRANCH  13  14
HETATM   14  N3  UNL     1      -6.497  15.446 -38.206  1.00  0.00    -0.380 N 
ATOM     15  H3  UNL     1      -5.618  15.798 -38.583  1.00  0.00     0.164 HD
BRANCH  14  16
HETATM   16  C10 UNL     1      -7.601  16.133 -38.630  1.00  0.00     0.092 C 
BRANCH  16  17
HETATM   17  C11 UNL     1      -7.779  17.582 -38.381  1.00  0.00     0.225 C 
HETATM   18  C12 UNL     1      -7.522  17.889 -36.870  1.00  0.00     0.066 C 
HETATM   19  C13 UNL     1      -6.694  19.033 -37.385  1.00  0.00     0.235 C 
HETATM   20  N4  UNL     1      -6.662  18.463 -38.711  1.00  0.00    -0.066 N 
ATOM     21  H42 UNL     1      -5.794  18.065 -39.069  1.00  0.00     0.278 HD
ATOM     22  H41 UNL     1      -6.725  19.074 -39.525  1.00  0.00     0.278 HD
ENDBRANCH  16  17
ENDBRANCH  14  16
ENDBRANCH  13  14
ENDBRANCH  12  13
ENDBRANCH  11  12
ENDBRANCH   9  11
ENDBRANCH   7   9
TORSDOF 7
ENDMDL
MODEL 4
REMARK VINA RESULT: -6.046747946      1.727      3.183
REMARK  7 active torsions:
REMARK  status: ('A' for Active; 'I' for Inactive)
REMARK    1  A    between atoms: C6_7  and  N2_8 
REMARK    2  A    between atoms: N2_8  and  C7_10 
REMARK    3  A    between atoms: C7_10  and  C8_11 
REMARK    4  A    between atoms: C8_11  and  C9_12 
REMARK    5  A    between atoms: C9_12  and  N3_13 
REMARK    6  A    between atoms: N3_13  and  C10_15 
REMARK    7  A    between atoms: C10_15  and  C11_16 
ROOT
HETATM    1  N1  UNL     1      -5.669  14.244 -32.035  1.00  0.00    -0.191 NA
HETATM    2  C1  UNL     1      -5.910  14.153 -33.168  1.00  0.00     0.099 C 
HETATM    3  C2  UNL     1      -6.238  14.027 -34.572  1.00  0.00     0.046 A 
HETATM    4  C3  UNL     1      -5.241  13.886 -35.529  1.00  0.00     0.023 A 
HETATM    5  C4  UNL     1      -5.552  13.766 -36.866  1.00  0.00     0.004 A 
HETATM    6  C5  UNL     1      -6.870  13.784 -37.267  1.00  0.00     0.029 A 
HETATM    7  C6  UNL     1      -7.906  13.922 -36.350  1.00  0.00     0.029 A 
HETATM    8  C14 UNL     1      -7.533  14.038 -35.025  1.00  0.00     0.051 A 
ENDROOT
BRANCH   7   9
HETATM    9  N2  UNL     1      -9.261  13.941 -36.768  1.00  0.00    -0.390 N 
ATOM     10  H2  UNL     1      -9.531  13.467 -37.630  1.00  0.00     0.159 HD
BRANCH   9  11
HETATM   11  C7  UNL     1     -10.252  14.619 -35.989  1.00  0.00     0.125 C 
BRANCH  11  12
HETATM   12  C8  UNL     1     -10.376  16.103 -36.343  1.00  0.00     0.064 C 
BRANCH  12  13
HETATM   13  C9  UNL     1     -10.440  16.206 -37.823  1.00  0.00     0.061 C 
BRANCH  13  14
HETATM   14  N3  UNL     1      -9.550  17.055 -38.439  1.00  0.00    -0.380 N 
ATOM     15  H3  UNL     1      -9.940  17.968 -38.672  1.00  0.00     0.164 HD
BRANCH  14  16
HETATM   16  C10 UNL     1      -8.240  16.899 -38.797  1.00  0.00     0.092 C 
BRANCH  16  17
HETATM   17  C11 UNL     1      -7.122  17.374 -37.948  1.00  0.00     0.225 C 
HETATM   18  C12 UNL     1      -6.648  18.778 -38.445  1.00  0.00     0.066 C 
HETATM   19  C13 UNL     1      -6.674  19.149 -36.990  1.00  0.00     0.235 C 
HETATM   20  N4  UNL     1      -7.464  17.984 -36.667  1.00  0.00    -0.066 N 
ATOM     21  H42 UNL     1      -8.444  18.095 -36.405  1.00  0.00     0.278 HD
ATOM     22  H41 UNL     1      -7.284  17.477 -35.801  1.00  0.00     0.278 HD
ENDBRANCH  16  17
ENDBRANCH  14  16
ENDBRANCH  13  14
ENDBRANCH  12  13
ENDBRANCH  11  12
ENDBRANCH   9  11
ENDBRANCH   7   9
TORSDOF 7
ENDMDL
MODEL 5
REMARK VINA RESULT: -6.034593822      2.342      3.809
REMARK  7 active torsions:
REMARK  status: ('A' for Active; 'I' for Inactive)
REMARK    1  A    between atoms: C6_7  and  N2_8 
REMARK    2  A    between atoms: N2_8  and  C7_10 
REMARK    3  A    between atoms: C7_10  and  C8_11 
REMARK    4  A    between atoms: C8_11  and  C9_12 
REMARK    5  A    between atoms: C9_12  and  N3_13 
REMARK    6  A    between atoms: N3_13  and  C10_15 
REMARK    7  A    between atoms: C10_15  and  C11_16 
ROOT
HETATM    1  N1  UNL     1      -6.998   8.130 -33.897  1.00  0.00    -0.191 NA
HETATM    2  C1  UNL     1      -6.718   9.236 -33.674  1.00  0.00     0.099 C 
HETATM    3  C2  UNL     1      -6.361  10.617 -33.427  1.00  0.00     0.046 A 
HETATM    4  C3  UNL     1      -5.901  11.023 -32.181  1.00  0.00     0.023 A 
HETATM    5  C4  UNL     1      -5.560  12.337 -31.944  1.00  0.00     0.004 A 
HETATM    6  C5  UNL     1      -5.676  13.267 -32.954  1.00  0.00     0.029 A 
HETATM    7  C6  UNL     1      -6.132  12.913 -34.219  1.00  0.00     0.029 A 
HETATM    8  C14 UNL     1      -6.457  11.582 -34.396  1.00  0.00     0.051 A 
ENDROOT
BRANCH   7   9
HETATM    9  N2  UNL     1      -6.249  13.874 -35.254  1.00  0.00    -0.390 N 
ATOM     10  H2  UNL     1      -5.640  13.816 -36.071  1.00  0.00     0.159 HD
BRANCH   9  11
HETATM   11  C7  UNL     1      -7.217  14.925 -35.163  1.00  0.00     0.125 C 
BRANCH  11  12
HETATM   12  C8  UNL     1      -8.642  14.407 -34.955  1.00  0.00     0.064 C 
BRANCH  12  13
HETATM   13  C9  UNL     1      -9.496  15.571 -34.610  1.00  0.00     0.061 C 
BRANCH  13  14
HETATM   14  N3  UNL     1     -10.056  16.277 -35.650  1.00  0.00    -0.380 N 
ATOM     15  H3  UNL     1     -10.184  17.270 -35.457  1.00  0.00     0.164 HD
BRANCH  14  16
HETATM   16  C10 UNL     1     -10.473  15.891 -36.893  1.00  0.00     0.092 C 
BRANCH  16  17
HETATM   17  C11 UNL     1      -9.712  16.212 -38.122  1.00  0.00     0.225 C 
HETATM   18  C12 UNL     1      -8.591  17.249 -37.787  1.00  0.00     0.066 C 
HETATM   19  C13 UNL     1      -7.705  16.346 -38.598  1.00  0.00     0.235 C 
HETATM   20  N4  UNL     1      -8.670  15.275 -38.532  1.00  0.00    -0.066 N 
ATOM     21  H42 UNL     1      -8.475  14.454 -37.957  1.00  0.00     0.278 HD
ATOM     22  H41 UNL     1      -8.819  14.678 -39.345  1.00  0.00     0.278 HD
ENDBRANCH  16  17
ENDBRANCH  14  16
ENDBRANCH  13  14
ENDBRANCH  12  13
ENDBRANCH  11  12
ENDBRANCH   9  11
ENDBRANCH   7   9
TORSDOF 7
ENDMDL
