MODEL 1
REMARK VINA RESULT: -7.277233731      0.000      0.000
REMARK  7 active torsions:
REMARK  status: ('A' for Active; 'I' for Inactive)
REMARK    1  A    between atoms: N1_1  and  C1_5 
REMARK    2  A    between atoms: C1_5  and  C2_6 
REMARK    3  A    between atoms: C1_5  and  C9_19 
REMARK    4  A    between atoms: C2_6  and  N2_7 
REMARK    5  A    between atoms: N2_7  and  N3_9 
REMARK    6  A    between atoms: C3_11  and  C4_12 
REMARK    7  A    between atoms: C9_19  and  C10_20 
ROOT
HETATM    1  C2  UNL     1      -6.566  14.457 -36.439  1.00  0.00     0.172 C 
ENDROOT
BRANCH   1   2
HETATM    2  C1  UNL     1      -7.082  13.411 -35.513  1.00  0.00     0.206 C 
BRANCH   2   3
HETATM    3  N1  UNL     1      -8.515  13.473 -35.312  1.00  0.00    -0.073 N 
ATOM      4  H13 UNL     1      -8.969  12.641 -35.688  1.00  0.00     0.274 HD
ATOM      5  H12 UNL     1      -8.746  13.362 -34.324  1.00  0.00     0.274 HD
ATOM      6  H11 UNL     1      -8.941  14.319 -35.689  1.00  0.00     0.274 HD
ENDBRANCH   2   3
BRANCH   2   7
HETATM    7  C9  UNL     1      -6.701  12.009 -35.865  1.00  0.00     0.073 C 
BRANCH   7   8
HETATM    8  C10 UNL     1      -6.486  11.265 -34.563  1.00  0.00    -0.056 A 
HETATM    9  C11 UNL     1      -6.046  11.921 -33.435  1.00  0.00     0.007 A 
HETATM   10  C12 UNL     1      -5.854  11.224 -32.246  1.00  0.00     0.001 A 
HETATM   11  C13 UNL     1      -6.091   9.871 -32.148  1.00  0.00     0.000 A 
HETATM   12  C14 UNL     1      -6.532   9.222 -33.282  1.00  0.00     0.001 A 
HETATM   13  C15 UNL     1      -6.724   9.912 -34.462  1.00  0.00     0.007 A 
ENDBRANCH   7   8
ENDBRANCH   2   7
ENDBRANCH   1   2
BRANCH   1  14
HETATM   14  N2  UNL     1      -6.987  14.280 -37.796  1.00  0.00    -0.335 N 
ATOM     15  H2  UNL     1      -6.453  13.647 -38.391  1.00  0.00     0.180 HD
BRANCH  14  16
HETATM   16  N3  UNL     1      -8.068  14.917 -38.332  1.00  0.00    -0.314 N 
HETATM   17  C3  UNL     1      -8.444  16.086 -38.475  1.00  0.00     0.136 C 
ATOM     18  H3  UNL     1      -8.743  14.255 -38.715  1.00  0.00     0.185 HD
BRANCH  17  19
HETATM   19  C4  UNL     1      -7.783  17.317 -38.076  1.00  0.00     0.049 A 
HETATM   20  C5  UNL     1      -7.922  17.875 -36.839  1.00  0.00     0.031 A 
HETATM   21  C6  UNL     1      -7.239  19.059 -36.567  1.00  0.00     0.004 A 
HETATM   22  C7  UNL     1      -6.447  19.648 -37.523  1.00  0.00     0.017 A 
HETATM   23  C8  UNL     1      -6.317  19.075 -38.763  1.00  0.00     0.088 A 
HETATM   24  N4  UNL     1      -6.984  17.943 -38.989  1.00  0.00    -0.365 N 
ATOM     25  H4  UNL     1      -6.890  17.513 -39.909  1.00  0.00     0.165 HD
ENDBRANCH  17  19
ENDBRANCH  14  16
ENDBRANCH   1  14
TORSDOF 7
ENDMDL
MODEL 2
REMARK VINA RESULT: -7.272328254      1.125      1.803
REMARK  7 active torsions:
REMARK  status: ('A' for Active; 'I' for Inactive)
REMARK    1  A    between atoms: N1_1  and  C1_5 
REMARK    2  A    between atoms: C1_5  and  C2_6 
REMARK    3  A    between atoms: C1_5  and  C9_19 
REMARK    4  A    between atoms: C2_6  and  N2_7 
REMARK    5  A    between atoms: N2_7  and  N3_9 
REMARK    6  A    between atoms: C3_11  and  C4_12 
REMARK    7  A    between atoms: C9_19  and  C10_20 
ROOT
HETATM    1  C2  UNL     1      -7.808  13.912 -36.440  1.00  0.00     0.172 C 
ENDROOT
BRANCH   1   2
HETATM    2  C1  UNL     1      -7.040  12.719 -35.985  1.00  0.00     0.206 C 
BRANCH   2   3
HETATM    3  N1  UNL     1      -6.905  11.697 -37.003  1.00  0.00    -0.073 N 
ATOM      4  H13 UNL     1      -6.844  12.117 -37.930  1.00  0.00     0.274 HD
ATOM      5  H12 UNL     1      -5.986  11.258 -36.954  1.00  0.00     0.274 HD
ATOM      6  H11 UNL     1      -7.644  10.994 -36.973  1.00  0.00     0.274 HD
ENDBRANCH   2   3
BRANCH   2   7
HETATM    7  C9  UNL     1      -5.692  13.014 -35.411  1.00  0.00     0.073 C 
BRANCH   7   8
HETATM    8  C10 UNL     1      -5.757  12.690 -33.933  1.00  0.00    -0.056 A 
HETATM    9  C11 UNL     1      -5.981  11.403 -33.497  1.00  0.00     0.007 A 
HETATM   10  C12 UNL     1      -6.037  11.121 -32.135  1.00  0.00     0.001 A 
HETATM   11  C13 UNL     1      -5.873  12.100 -31.181  1.00  0.00     0.000 A 
HETATM   12  C14 UNL     1      -5.648  13.386 -31.626  1.00  0.00     0.001 A 
HETATM   13  C15 UNL     1      -5.592  13.667 -32.976  1.00  0.00     0.007 A 
ENDBRANCH   7   8
ENDBRANCH   2   7
ENDBRANCH   1   2
BRANCH   1  14
HETATM   14  N2  UNL     1      -7.486  14.328 -37.771  1.00  0.00    -0.335 N 
ATOM     15  H2  UNL     1      -6.586  14.051 -38.161  1.00  0.00     0.180 HD
BRANCH  14  16
HETATM   16  N3  UNL     1      -8.325  15.078 -38.542  1.00  0.00    -0.314 N 
HETATM   17  C3  UNL     1      -8.508  16.280 -38.766  1.00  0.00     0.136 C 
ATOM     18  H3  UNL     1      -8.971  14.494 -39.073  1.00  0.00     0.185 HD
BRANCH  17  19
HETATM   19  C4  UNL     1      -7.808  17.432 -38.221  1.00  0.00     0.049 A 
HETATM   20  C5  UNL     1      -7.973  17.871 -36.940  1.00  0.00     0.031 A 
HETATM   21  C6  UNL     1      -7.248  18.987 -36.526  1.00  0.00     0.004 A 
HETATM   22  C7  UNL     1      -6.391  19.627 -37.387  1.00  0.00     0.017 A 
HETATM   23  C8  UNL     1      -6.236  19.173 -38.674  1.00  0.00     0.088 A 
HETATM   24  N4  UNL     1      -6.944  18.103 -39.036  1.00  0.00    -0.365 N 
ATOM     25  H4  UNL     1      -6.832  17.763 -39.991  1.00  0.00     0.165 HD
ENDBRANCH  17  19
ENDBRANCH  14  16
ENDBRANCH   1  14
TORSDOF 7
ENDMDL
MODEL 3
REMARK VINA RESULT: -7.167430785      1.694      7.263
REMARK  7 active torsions:
REMARK  status: ('A' for Active; 'I' for Inactive)
REMARK    1  A    between atoms: N1_1  and  C1_5 
REMARK    2  A    between atoms: C1_5  and  C2_6 
REMARK    3  A    between atoms: C1_5  and  C9_19 
REMARK    4  A    between atoms: C2_6  and  N2_7 
REMARK    5  A    between atoms: N2_7  and  N3_9 
REMARK    6  A    between atoms: C3_11  and  C4_12 
REMARK    7  A    between atoms: C9_19  and  C10_20 
ROOT
HETATM    1  C2  UNL     1      -9.949  14.356 -36.795  1.00  0.00     0.172 C 
ENDROOT
BRANCH   1   2
HETATM    2  C1  UNL     1      -9.872  15.825 -37.028  1.00  0.00     0.206 C 
BRANCH   2   3
HETATM    3  N1  UNL     1     -11.167  16.474 -37.059  1.00  0.00    -0.073 N 
ATOM      4  H13 UNL     1     -11.283  17.006 -37.921  1.00  0.00     0.274 HD
ATOM      5  H12 UNL     1     -11.912  15.787 -37.181  1.00  0.00     0.274 HD
ATOM      6  H11 UNL     1     -11.346  17.061 -36.245  1.00  0.00     0.274 HD
ENDBRANCH   2   3
BRANCH   2   7
HETATM    7  C9  UNL     1      -8.977  16.569 -36.090  1.00  0.00     0.073 C 
BRANCH   7   8
HETATM    8  C10 UNL     1      -8.067  17.436 -36.935  1.00  0.00    -0.056 A 
HETATM    9  C11 UNL     1      -7.850  17.152 -38.266  1.00  0.00     0.007 A 
HETATM   10  C12 UNL     1      -7.011  17.957 -39.030  1.00  0.00     0.001 A 
HETATM   11  C13 UNL     1      -6.372  19.055 -38.497  1.00  0.00     0.000 A 
HETATM   12  C14 UNL     1      -6.595  19.332 -37.165  1.00  0.00     0.001 A 
HETATM   13  C15 UNL     1      -7.427  18.534 -36.406  1.00  0.00     0.007 A 
ENDBRANCH   7   8
ENDBRANCH   2   7
ENDBRANCH   1   2
BRANCH   1  14
HETATM   14  N2  UNL     1      -8.805  13.820 -36.121  1.00  0.00    -0.335 N 
ATOM     15  H2  UNL     1      -8.661  14.065 -35.142  1.00  0.00     0.180 HD
BRANCH  14  16
HETATM   16  N3  UNL     1      -7.898  13.000 -36.725  1.00  0.00    -0.314 N 
HETATM   17  C3  UNL     1      -6.910  12.342 -36.380  1.00  0.00     0.136 C 
ATOM     18  H3  UNL     1      -8.084  12.904 -37.723  1.00  0.00     0.185 HD
BRANCH  17  19
HETATM   19  C4  UNL     1      -6.314  12.205 -35.062  1.00  0.00     0.049 A 
HETATM   20  C5  UNL     1      -5.422  13.099 -34.546  1.00  0.00     0.031 A 
HETATM   21  C6  UNL     1      -4.916  12.864 -33.269  1.00  0.00     0.004 A 
HETATM   22  C7  UNL     1      -5.307  11.761 -32.550  1.00  0.00     0.017 A 
HETATM   23  C8  UNL     1      -6.206  10.871 -33.083  1.00  0.00     0.088 A 
HETATM   24  N4  UNL     1      -6.670  11.125 -34.306  1.00  0.00    -0.365 N 
ATOM     25  H4  UNL     1      -7.337  10.466 -34.706  1.00  0.00     0.165 HD
ENDBRANCH  17  19
ENDBRANCH  14  16
ENDBRANCH   1  14
TORSDOF 7
ENDMDL
MODEL 4
REMARK VINA RESULT: -7.141890150      1.695      7.194
REMARK  7 active torsions:
REMARK  status: ('A' for Active; 'I' for Inactive)
REMARK    1  A    between atoms: N1_1  and  C1_5 
REMARK    2  A    between atoms: C1_5  and  C2_6 
REMARK    3  A    between atoms: C1_5  and  C9_19 
REMARK    4  A    between atoms: C2_6  and  N2_7 
REMARK    5  A    between atoms: N2_7  and  N3_9 
REMARK    6  A    between atoms: C3_11  and  C4_12 
REMARK    7  A    between atoms: C9_19  and  C10_20 
ROOT
HETATM    1  C2  UNL     1      -9.948  14.364 -36.787  1.00  0.00     0.172 C 
ENDROOT
BRANCH   1   2
HETATM    2  C1  UNL     1      -9.872  15.832 -37.029  1.00  0.00     0.206 C 
BRANCH   2   3
HETATM    3  N1  UNL     1     -11.168  16.478 -37.075  1.00  0.00    -0.073 N 
ATOM      4  H13 UNL     1     -11.198  17.173 -37.820  1.00  0.00     0.274 HD
ATOM      5  H12 UNL     1     -11.881  15.832 -37.415  1.00  0.00     0.274 HD
ATOM      6  H11 UNL     1     -11.448  16.890 -36.185  1.00  0.00     0.274 HD
ENDBRANCH   2   3
BRANCH   2   7
HETATM    7  C9  UNL     1      -8.987  16.584 -36.088  1.00  0.00     0.073 C 
BRANCH   7   8
HETATM    8  C10 UNL     1      -8.072  17.449 -36.931  1.00  0.00    -0.056 A 
HETATM    9  C11 UNL     1      -7.428  18.539 -36.389  1.00  0.00     0.007 A 
HETATM   10  C12 UNL     1      -6.590  19.324 -37.176  1.00  0.00     0.001 A 
HETATM   11  C13 UNL     1      -6.373  19.048 -38.507  1.00  0.00     0.000 A 
HETATM   12  C14 UNL     1      -7.021  17.954 -39.041  1.00  0.00     0.001 A 
HETATM   13  C15 UNL     1      -7.852  17.175 -38.262  1.00  0.00     0.007 A 
ENDBRANCH   7   8
ENDBRANCH   2   7
ENDBRANCH   1   2
BRANCH   1  14
HETATM   14  N2  UNL     1      -8.798  13.831 -36.122  1.00  0.00    -0.335 N 
ATOM     15  H2  UNL     1      -8.636  14.091 -35.150  1.00  0.00     0.180 HD
BRANCH  14  16
HETATM   16  N3  UNL     1      -7.907  12.993 -36.727  1.00  0.00    -0.314 N 
HETATM   17  C3  UNL     1      -6.925  12.325 -36.384  1.00  0.00     0.136 C 
ATOM     18  H3  UNL     1      -8.103  12.891 -37.722  1.00  0.00     0.185 HD
BRANCH  17  19
HETATM   19  C4  UNL     1      -6.320  12.192 -35.069  1.00  0.00     0.049 A 
HETATM   20  C5  UNL     1      -5.417  13.082 -34.566  1.00  0.00     0.031 A 
HETATM   21  C6  UNL     1      -4.903  12.852 -33.291  1.00  0.00     0.004 A 
HETATM   22  C7  UNL     1      -5.296  11.756 -32.563  1.00  0.00     0.017 A 
HETATM   23  C8  UNL     1      -6.205  10.869 -33.083  1.00  0.00     0.088 A 
HETATM   24  N4  UNL     1      -6.677  11.119 -34.304  1.00  0.00    -0.365 N 
ATOM     25  H4  UNL     1      -7.352  10.462 -34.695  1.00  0.00     0.165 HD
ENDBRANCH  17  19
ENDBRANCH  14  16
ENDBRANCH   1  14
TORSDOF 7
ENDMDL
MODEL 5
REMARK VINA RESULT: -7.129399286      1.428      2.012
REMARK  7 active torsions:
REMARK  status: ('A' for Active; 'I' for Inactive)
REMARK    1  A    between atoms: N1_1  and  C1_5 
REMARK    2  A    between atoms: C1_5  and  C2_6 
REMARK    3  A    between atoms: C1_5  and  C9_19 
REMARK    4  A    between atoms: C2_6  and  N2_7 
REMARK    5  A    between atoms: N2_7  and  N3_9 
REMARK    6  A    between atoms: C3_11  and  C4_12 
REMARK    7  A    between atoms: C9_19  and  C10_20 
ROOT
HETATM    1  C2  UNL     1      -8.430  14.135 -35.944  1.00  0.00     0.172 C 
ENDROOT
BRANCH   1   2
HETATM    2  C1  UNL     1      -7.101  13.630 -36.387  1.00  0.00     0.206 C 
BRANCH   2   3
HETATM    3  N1  UNL     1      -6.765  14.004 -37.746  1.00  0.00    -0.073 N 
ATOM      4  H13 UNL     1      -5.784  13.806 -37.943  1.00  0.00     0.274 HD
ATOM      5  H12 UNL     1      -7.204  13.370 -38.414  1.00  0.00     0.274 HD
ATOM      6  H11 UNL     1      -6.989  14.974 -37.967  1.00  0.00     0.274 HD
ENDBRANCH   2   3
BRANCH   2   7
HETATM    7  C9  UNL     1      -5.958  13.980 -35.490  1.00  0.00     0.073 C 
BRANCH   7   8
HETATM    8  C10 UNL     1      -5.934  12.954 -34.377  1.00  0.00    -0.056 A 
HETATM    9  C11 UNL     1      -5.458  13.275 -33.125  1.00  0.00     0.007 A 
HETATM   10  C12 UNL     1      -5.442  12.321 -32.112  1.00  0.00     0.001 A 
HETATM   11  C13 UNL     1      -5.894  11.036 -32.314  1.00  0.00     0.000 A 
HETATM   12  C14 UNL     1      -6.370  10.723 -33.570  1.00  0.00     0.001 A 
HETATM   13  C15 UNL     1      -6.386  11.669 -34.576  1.00  0.00     0.007 A 
ENDBRANCH   7   8
ENDBRANCH   2   7
ENDBRANCH   1   2
BRANCH   1  14
HETATM   14  N2  UNL     1      -9.442  14.047 -36.953  1.00  0.00    -0.335 N 
ATOM     15  H2  UNL     1      -9.550  13.167 -37.457  1.00  0.00     0.180 HD
BRANCH  14  16
HETATM   16  N3  UNL     1     -10.269  15.083 -37.273  1.00  0.00    -0.314 N 
HETATM   17  C3  UNL     1     -10.142  16.272 -37.589  1.00  0.00     0.136 C 
ATOM     18  H3  UNL     1     -11.250  14.805 -37.244  1.00  0.00     0.185 HD
BRANCH  17  19
HETATM   19  C4  UNL     1      -8.928  17.054 -37.745  1.00  0.00     0.049 A 
HETATM   20  C5  UNL     1      -8.183  17.063 -38.888  1.00  0.00     0.031 A 
HETATM   21  C6  UNL     1      -7.036  17.853 -38.923  1.00  0.00     0.004 A 
HETATM   22  C7  UNL     1      -6.666  18.604 -37.834  1.00  0.00     0.017 A 
HETATM   23  C8  UNL     1      -7.426  18.585 -36.691  1.00  0.00     0.088 A 
HETATM   24  N4  UNL     1      -8.516  17.819 -36.691  1.00  0.00    -0.365 N 
ATOM     25  H4  UNL     1      -9.084  17.801 -35.844  1.00  0.00     0.165 HD
ENDBRANCH  17  19
ENDBRANCH  14  16
ENDBRANCH   1  14
TORSDOF 7
ENDMDL
