MODEL 1
REMARK VINA RESULT: -6.249211179      0.000      0.000
REMARK  8 active torsions:
REMARK  status: ('A' for Active; 'I' for Inactive)
REMARK    1  A    between atoms: N1_1  and  C1_5 
REMARK    2  A    between atoms: C1_5  and  C2_6 
REMARK    3  A    between atoms: C2_6  and  C3_7 
REMARK    4  A    between atoms: C3_7  and  C4_8 
REMARK    5  A    between atoms: C4_8  and  C5_9 
REMARK    6  A    between atoms: C5_9  and  N2_10 
REMARK    7  A    between atoms: N2_10  and  C6_12 
REMARK    8  A    between atoms: C6_12  and  C7_13 
ROOT
HETATM    1  C5  UNL     1      -8.939  15.476 -35.868  1.00  0.00     0.145 A 
HETATM    2  C10 UNL     1      -9.193  15.277 -37.365  1.00  0.00     0.123 A 
HETATM    3  C11 UNL     1      -8.429  16.361 -38.009  1.00  0.00     0.065 A 
HETATM    4  N3  UNL     1      -8.183  16.914 -39.230  1.00  0.00    -0.302 N 
ATOM      5  H3  UNL     1      -8.579  16.595 -40.114  1.00  0.00     0.186 HD
HETATM    6  N4  UNL     1      -7.354  17.923 -39.085  1.00  0.00    -0.309 N 
ATOM      7  H4  UNL     1      -7.004  18.514 -39.840  1.00  0.00     0.186 HD
HETATM    8  C12 UNL     1      -7.041  18.053 -37.791  1.00  0.00     0.146 A 
HETATM    9  C13 UNL     1      -7.725  17.055 -37.082  1.00  0.00     0.113 A 
HETATM   10  O1  UNL     1      -7.962  16.511 -35.841  1.00  0.00    -0.316 OA
ENDROOT
BRANCH   1  11
HETATM   11  C4  UNL     1      -8.263  14.213 -35.419  1.00  0.00     0.062 C 
BRANCH  11  12
HETATM   12  C3  UNL     1      -6.916  14.277 -34.844  1.00  0.00     0.006 C 
BRANCH  12  13
HETATM   13  C2  UNL     1      -6.062  13.163 -35.501  1.00  0.00     0.027 C 
BRANCH  13  14
HETATM   14  C1  UNL     1      -6.107  13.284 -36.993  1.00  0.00     0.229 C 
BRANCH  14  15
HETATM   15  N1  UNL     1      -5.281  14.419 -37.400  1.00  0.00    -0.079 N 
ATOM     16  H13 UNL     1      -5.257  15.155 -36.694  1.00  0.00     0.274 HD
ATOM     17  H12 UNL     1      -4.287  14.195 -37.405  1.00  0.00     0.274 HD
ATOM     18  H11 UNL     1      -5.609  14.757 -38.305  1.00  0.00     0.274 HD
ENDBRANCH  14  15
ENDBRANCH  13  14
ENDBRANCH  12  13
ENDBRANCH  11  12
ENDBRANCH   1  11
BRANCH   1  19
HETATM   19  N2  UNL     1     -10.074  15.909 -35.189  1.00  0.00    -0.370 N 
ATOM     20  H2  UNL     1     -10.129  16.890 -34.916  1.00  0.00     0.161 HD
BRANCH  19  21
HETATM   21  C6  UNL     1     -11.146  15.067 -34.861  1.00  0.00     0.063 C 
BRANCH  21  22
HETATM   22  C7  UNL     1     -11.211  14.876 -33.351  1.00  0.00     0.024 A 
HETATM   23  C8  UNL     1     -12.125  15.601 -32.474  1.00  0.00     0.010 A 
HETATM   24  C9  UNL     1     -12.552  14.253 -32.862  1.00  0.00     0.010 A 
ENDBRANCH  21  22
ENDBRANCH  19  21
ENDBRANCH   1  19
TORSDOF 8
ENDMDL
MODEL 2
REMARK VINA RESULT: -6.187876758      1.459      1.589
REMARK  8 active torsions:
REMARK  status: ('A' for Active; 'I' for Inactive)
REMARK    1  A    between atoms: N1_1  and  C1_5 
REMARK    2  A    between atoms: C1_5  and  C2_6 
REMARK    3  A    between atoms: C2_6  and  C3_7 
REMARK    4  A    between atoms: C3_7  and  C4_8 
REMARK    5  A    between atoms: C4_8  and  C5_9 
REMARK    6  A    between atoms: C5_9  and  N2_10 
REMARK    7  A    between atoms: N2_10  and  C6_12 
REMARK    8  A    between atoms: C6_12  and  C7_13 
ROOT
HETATM    1  C5  UNL     1      -8.651  15.286 -35.192  1.00  0.00     0.145 A 
HETATM    2  C10 UNL     1      -8.987  14.496 -36.459  1.00  0.00     0.123 A 
HETATM    3  C11 UNL     1      -8.396  15.291 -37.550  1.00  0.00     0.065 A 
HETATM    4  N3  UNL     1      -8.301  15.335 -38.909  1.00  0.00    -0.302 N 
ATOM      5  H3  UNL     1      -8.722  14.667 -39.553  1.00  0.00     0.186 HD
HETATM    6  N4  UNL     1      -7.580  16.378 -39.256  1.00  0.00    -0.309 N 
ATOM      7  H4  UNL     1      -7.352  16.647 -40.213  1.00  0.00     0.186 HD
HETATM    8  C12 UNL     1      -7.191  17.029 -38.154  1.00  0.00     0.146 A 
HETATM    9  C13 UNL     1      -7.708  16.344 -37.045  1.00  0.00     0.113 A 
HETATM   10  O1  UNL     1      -7.794  16.317 -35.673  1.00  0.00    -0.316 OA
ENDROOT
BRANCH   1  11
HETATM   11  C4  UNL     1      -7.808  14.356 -34.368  1.00  0.00     0.062 C 
BRANCH  11  12
HETATM   12  C3  UNL     1      -6.358  14.555 -34.304  1.00  0.00     0.006 C 
BRANCH  12  13
HETATM   13  C2  UNL     1      -5.683  13.160 -34.298  1.00  0.00     0.027 C 
BRANCH  13  14
HETATM   14  C1  UNL     1      -6.588  12.141 -34.919  1.00  0.00     0.229 C 
BRANCH  14  15
HETATM   15  N1  UNL     1      -6.617  10.954 -34.068  1.00  0.00    -0.079 N 
ATOM     16  H13 UNL     1      -7.478  10.418 -34.176  1.00  0.00     0.274 HD
ATOM     17  H12 UNL     1      -5.963  10.236 -34.379  1.00  0.00     0.274 HD
ATOM     18  H11 UNL     1      -6.453  11.236 -33.101  1.00  0.00     0.274 HD
ENDBRANCH  14  15
ENDBRANCH  13  14
ENDBRANCH  12  13
ENDBRANCH  11  12
ENDBRANCH   1  11
BRANCH   1  19
HETATM   19  N2  UNL     1      -9.774  15.868 -34.613  1.00  0.00    -0.370 N 
ATOM     20  H2  UNL     1      -9.697  16.821 -34.258  1.00  0.00     0.161 HD
BRANCH  19  21
HETATM   21  C6  UNL     1     -11.007  15.212 -34.491  1.00  0.00     0.063 C 
BRANCH  21  22
HETATM   22  C7  UNL     1     -11.310  14.945 -33.022  1.00  0.00     0.024 A 
HETATM   23  C8  UNL     1     -12.357  15.627 -32.267  1.00  0.00     0.010 A 
HETATM   24  C9  UNL     1     -12.708  14.300 -32.784  1.00  0.00     0.010 A 
ENDBRANCH  21  22
ENDBRANCH  19  21
ENDBRANCH   1  19
TORSDOF 8
ENDMDL
MODEL 3
REMARK VINA RESULT: -6.164294939      2.269      2.989
REMARK  8 active torsions:
REMARK  status: ('A' for Active; 'I' for Inactive)
REMARK    1  A    between atoms: N1_1  and  C1_5 
REMARK    2  A    between atoms: C1_5  and  C2_6 
REMARK    3  A    between atoms: C2_6  and  C3_7 
REMARK    4  A    between atoms: C3_7  and  C4_8 
REMARK    5  A    between atoms: C4_8  and  C5_9 
REMARK    6  A    between atoms: C5_9  and  N2_10 
REMARK    7  A    between atoms: N2_10  and  C6_12 
REMARK    8  A    between atoms: C6_12  and  C7_13 
ROOT
HETATM    1  C5  UNL     1      -7.845  14.225 -35.303  1.00  0.00     0.145 A 
HETATM    2  C10 UNL     1      -7.254  13.901 -36.678  1.00  0.00     0.123 A 
HETATM    3  C11 UNL     1      -7.060  15.220 -37.308  1.00  0.00     0.065 A 
HETATM    4  N3  UNL     1      -6.672  15.796 -38.481  1.00  0.00    -0.302 N 
ATOM      5  H3  UNL     1      -6.379  15.293 -39.318  1.00  0.00     0.186 HD
HETATM    6  N4  UNL     1      -6.734  17.103 -38.359  1.00  0.00    -0.309 N 
ATOM      7  H4  UNL     1      -6.498  17.776 -39.088  1.00  0.00     0.186 HD
HETATM    8  C12 UNL     1      -7.156  17.410 -37.127  1.00  0.00     0.146 A 
HETATM    9  C13 UNL     1      -7.372  16.209 -36.436  1.00  0.00     0.113 A 
HETATM   10  O1  UNL     1      -7.768  15.645 -35.245  1.00  0.00    -0.316 OA
ENDROOT
BRANCH   1  11
HETATM   11  C4  UNL     1      -6.850  13.685 -34.317  1.00  0.00     0.062 C 
BRANCH  11  12
HETATM   12  C3  UNL     1      -6.352  12.315 -34.467  1.00  0.00     0.006 C 
BRANCH  12  13
HETATM   13  C2  UNL     1      -5.679  11.902 -33.134  1.00  0.00     0.027 C 
BRANCH  13  14
HETATM   14  C1  UNL     1      -6.207  10.579 -32.672  1.00  0.00     0.229 C 
BRANCH  14  15
HETATM   15  N1  UNL     1      -6.800   9.883 -33.812  1.00  0.00    -0.079 N 
ATOM     16  H13 UNL     1      -7.694  10.287 -34.092  1.00  0.00     0.274 HD
ATOM     17  H12 UNL     1      -6.290  10.051 -34.679  1.00  0.00     0.274 HD
ATOM     18  H11 UNL     1      -6.874   8.890 -33.590  1.00  0.00     0.274 HD
ENDBRANCH  14  15
ENDBRANCH  13  14
ENDBRANCH  12  13
ENDBRANCH  11  12
ENDBRANCH   1  11
BRANCH   1  19
HETATM   19  N2  UNL     1      -9.178  13.841 -35.193  1.00  0.00    -0.370 N 
ATOM     20  H2  UNL     1      -9.388  12.849 -35.087  1.00  0.00     0.161 HD
BRANCH  19  21
HETATM   21  C6  UNL     1     -10.247  14.748 -35.218  1.00  0.00     0.063 C 
BRANCH  21  22
HETATM   22  C7  UNL     1     -10.930  14.706 -36.579  1.00  0.00     0.024 A 
HETATM   23  C8  UNL     1     -12.161  15.422 -36.898  1.00  0.00     0.010 A 
HETATM   24  C9  UNL     1     -10.918  16.076 -37.321  1.00  0.00     0.010 A 
ENDBRANCH  21  22
ENDBRANCH  19  21
ENDBRANCH   1  19
TORSDOF 8
ENDMDL
MODEL 4
REMARK VINA RESULT: -6.153389862      2.142      4.745
REMARK  8 active torsions:
REMARK  status: ('A' for Active; 'I' for Inactive)
REMARK    1  A    between atoms: N1_1  and  C1_5 
REMARK    2  A    between atoms: C1_5  and  C2_6 
REMARK    3  A    between atoms: C2_6  and  C3_7 
REMARK    4  A    between atoms: C3_7  and  C4_8 
REMARK    5  A    between atoms: C4_8  and  C5_9 
REMARK    6  A    between atoms: C5_9  and  N2_10 
REMARK    7  A    between atoms: N2_10  and  C6_12 
REMARK    8  A    between atoms: C6_12  and  C7_13 
ROOT
HETATM    1  C5  UNL     1      -7.102  14.113 -36.472  1.00  0.00     0.145 A 
HETATM    2  C10 UNL     1      -7.023  15.321 -35.534  1.00  0.00     0.123 A 
HETATM    3  C11 UNL     1      -8.381  15.432 -34.973  1.00  0.00     0.065 A 
HETATM    4  N3  UNL     1      -9.140  16.223 -34.163  1.00  0.00    -0.302 N 
ATOM      5  H3  UNL     1      -8.820  17.072 -33.698  1.00  0.00     0.186 HD
HETATM    6  N4  UNL     1     -10.350  15.716 -34.077  1.00  0.00    -0.309 N 
ATOM      7  H4  UNL     1     -11.119  16.110 -33.535  1.00  0.00     0.186 HD
HETATM    8  C12 UNL     1     -10.412  14.601 -34.814  1.00  0.00     0.146 A 
HETATM    9  C13 UNL     1      -9.153  14.403 -35.399  1.00  0.00     0.113 A 
HETATM   10  O1  UNL     1      -8.403  13.593 -36.220  1.00  0.00    -0.316 OA
ENDROOT
BRANCH   1  11
HETATM   11  C4  UNL     1      -6.114  13.128 -35.918  1.00  0.00     0.062 C 
BRANCH  11  12
HETATM   12  C3  UNL     1      -6.592  11.978 -35.146  1.00  0.00     0.006 C 
BRANCH  12  13
HETATM   13  C2  UNL     1      -5.919  12.027 -33.751  1.00  0.00     0.027 C 
BRANCH  13  14
HETATM   14  C1  UNL     1      -6.217  10.775 -32.984  1.00  0.00     0.229 C 
BRANCH  14  15
HETATM   15  N1  UNL     1      -6.802   9.792 -33.894  1.00  0.00    -0.079 N 
ATOM     16  H13 UNL     1      -6.129   9.085 -34.187  1.00  0.00     0.274 HD
ATOM     17  H12 UNL     1      -7.464   9.174 -33.425  1.00  0.00     0.274 HD
ATOM     18  H11 UNL     1      -7.221  10.283 -34.684  1.00  0.00     0.274 HD
ENDBRANCH  14  15
ENDBRANCH  13  14
ENDBRANCH  12  13
ENDBRANCH  11  12
ENDBRANCH   1  11
BRANCH   1  19
HETATM   19  N2  UNL     1      -7.013  14.474 -37.813  1.00  0.00    -0.370 N 
ATOM     20  H2  UNL     1      -7.155  13.752 -38.519  1.00  0.00     0.161 HD
BRANCH  19  21
HETATM   21  C6  UNL     1      -6.737  15.779 -38.245  1.00  0.00     0.063 C 
BRANCH  21  22
HETATM   22  C7  UNL     1      -7.975  16.380 -38.898  1.00  0.00     0.024 A 
HETATM   23  C8  UNL     1      -9.333  16.208 -38.390  1.00  0.00     0.010 A 
HETATM   24  C9  UNL     1      -8.673  17.465 -38.024  1.00  0.00     0.010 A 
ENDBRANCH  21  22
ENDBRANCH  19  21
ENDBRANCH   1  19
TORSDOF 8
ENDMDL
MODEL 5
REMARK VINA RESULT: -6.126189038      1.913      2.130
REMARK  8 active torsions:
REMARK  status: ('A' for Active; 'I' for Inactive)
REMARK    1  A    between atoms: N1_1  and  C1_5 
REMARK    2  A    between atoms: C1_5  and  C2_6 
REMARK    3  A    between atoms: C2_6  and  C3_7 
REMARK    4  A    between atoms: C3_7  and  C4_8 
REMARK    5  A    between atoms: C4_8  and  C5_9 
REMARK    6  A    between atoms: C5_9  and  N2_10 
REMARK    7  A    between atoms: N2_10  and  C6_12 
REMARK    8  A    between atoms: C6_12  and  C7_13 
ROOT
HETATM    1  C5  UNL     1      -8.310  14.496 -35.555  1.00  0.00     0.145 A 
HETATM    2  C10 UNL     1      -7.596  14.168 -36.869  1.00  0.00     0.123 A 
HETATM    3  C11 UNL     1      -7.263  15.486 -37.438  1.00  0.00     0.065 A 
HETATM    4  N3  UNL     1      -6.720  16.063 -38.547  1.00  0.00    -0.302 N 
ATOM      5  H3  UNL     1      -6.369  15.562 -39.363  1.00  0.00     0.186 HD
HETATM    6  N4  UNL     1      -6.721  17.369 -38.396  1.00  0.00    -0.309 N 
ATOM      7  H4  UNL     1      -6.371  18.043 -39.078  1.00  0.00     0.186 HD
HETATM    8  C12 UNL     1      -7.253  17.673 -37.207  1.00  0.00     0.146 A 
HETATM    9  C13 UNL     1      -7.609  16.473 -36.576  1.00  0.00     0.113 A 
HETATM   10  O1  UNL     1      -8.160  15.908 -35.449  1.00  0.00    -0.316 OA
ENDROOT
BRANCH   1  11
HETATM   11  C4  UNL     1      -7.458  13.876 -34.486  1.00  0.00     0.062 C 
BRANCH  11  12
HETATM   12  C3  UNL     1      -6.733  12.634 -34.766  1.00  0.00     0.006 C 
BRANCH  12  13
HETATM   13  C2  UNL     1      -5.711  12.408 -33.624  1.00  0.00     0.027 C 
BRANCH  13  14
HETATM   14  C1  UNL     1      -5.994  11.118 -32.919  1.00  0.00     0.229 C 
BRANCH  14  15
HETATM   15  N1  UNL     1      -6.758  10.249 -33.811  1.00  0.00    -0.079 N 
ATOM     16  H13 UNL     1      -6.226   9.430 -34.106  1.00  0.00     0.274 HD
ATOM     17  H12 UNL     1      -7.512   9.762 -33.328  1.00  0.00     0.274 HD
ATOM     18  H11 UNL     1      -7.094  10.801 -34.601  1.00  0.00     0.274 HD
ENDBRANCH  14  15
ENDBRANCH  13  14
ENDBRANCH  12  13
ENDBRANCH  11  12
ENDBRANCH   1  11
BRANCH   1  19
HETATM   19  N2  UNL     1      -9.667  14.189 -35.595  1.00  0.00    -0.370 N 
ATOM     20  H2  UNL     1      -9.950  13.302 -36.012  1.00  0.00     0.161 HD
BRANCH  19  21
HETATM   21  C6  UNL     1     -10.666  15.036 -35.093  1.00  0.00     0.063 C 
BRANCH  21  22
HETATM   22  C7  UNL     1     -11.228  14.462 -33.799  1.00  0.00     0.024 A 
HETATM   23  C8  UNL     1     -11.609  15.270 -32.644  1.00  0.00     0.010 A 
HETATM   24  C9  UNL     1     -12.708  14.871 -33.531  1.00  0.00     0.010 A 
ENDBRANCH  21  22
ENDBRANCH  19  21
ENDBRANCH   1  19
TORSDOF 8
ENDMDL
