MODEL 1
REMARK VINA RESULT: -6.930610017      0.000      0.000
REMARK  8 active torsions:
REMARK  status: ('A' for Active; 'I' for Inactive)
REMARK    1  A    between atoms: N1_1  and  C1_5 
REMARK    2  A    between atoms: C1_5  and  C2_6 
REMARK    3  A    between atoms: C1_5  and  C10_18 
REMARK    4  A    between atoms: C2_6  and  S1_7 
REMARK    5  A    between atoms: S1_7  and  C3_8 
REMARK    6  A    between atoms: C3_8  and  N2_10 
REMARK    7  A    between atoms: N2_10  and  C4_12 
REMARK       I    between atoms: C10_18  and  N3_20 
REMARK    8  A    between atoms: C14_24  and  C15_25 
ROOT
HETATM    1  C1  UNL     1       6.063  11.353  23.507  1.00  0.00     0.284 C 
ENDROOT
BRANCH   1   2
HETATM    2  N1  UNL     1       5.618  12.371  24.368  1.00  0.00    -0.066 N 
ATOM      3  H13 UNL     1       6.421  12.881  24.735  1.00  0.00     0.275 HD
ATOM      4  H12 UNL     1       5.163  13.103  23.823  1.00  0.00     0.275 HD
ATOM      5  H11 UNL     1       5.011  12.091  25.137  1.00  0.00     0.275 HD
ENDBRANCH   1   2
BRANCH   1   6
HETATM    6  C2  UNL     1       6.745  10.163  24.151  1.00  0.00     0.124 C 
BRANCH   6   7
HETATM    7  S1  UNL     1       5.631   9.124  25.063  1.00  0.00    -0.098 SA
BRANCH   7   8
HETATM    8  C3  UNL     1       6.195   7.504  25.398  1.00  0.00     0.134 C 
HETATM    9  S2  UNL     1       6.025   6.301  24.324  1.00  0.00    -0.053 SA
BRANCH   8  10
HETATM   10  N2  UNL     1       6.780   7.230  26.678  1.00  0.00    -0.371 N 
ATOM     11  H2  UNL     1       6.726   6.280  27.044  1.00  0.00     0.161 HD
BRANCH  10  12
HETATM   12  C4  UNL     1       7.449   8.248  27.479  1.00  0.00     0.083 C 
HETATM   13  C5  UNL     1       8.931   8.140  27.470  1.00  0.00     0.025 C 
HETATM   14  C6  UNL     1       9.564   7.578  28.701  1.00  0.00     0.002 C 
HETATM   15  C7  UNL     1       8.906   8.029  29.958  1.00  0.00     0.000 C 
HETATM   16  C8  UNL     1       7.455   7.540  29.903  1.00  0.00     0.002 C 
HETATM   17  C9  UNL     1       6.798   8.340  28.817  1.00  0.00     0.025 C 
ENDBRANCH  10  12
ENDBRANCH   8  10
ENDBRANCH   7   8
ENDBRANCH   6   7
ENDBRANCH   1   6
BRANCH   1  18
HETATM   18  C10 UNL     1       6.800  11.830  22.336  1.00  0.00     0.252 C 
HETATM   19  O1  UNL     1       7.553  12.852  22.529  1.00  0.00    -0.271 OA
HETATM   20  N3  UNL     1       6.762  11.284  21.039  1.00  0.00    -0.336 N 
HETATM   21  C11 UNL     1       6.034  10.118  20.626  1.00  0.00     0.127 C 
HETATM   22  C14 UNL     1       7.462  11.825  19.867  1.00  0.00     0.188 C 
HETATM   23  C12 UNL     1       6.826   9.594  19.415  1.00  0.00     0.022 C 
HETATM   24  C13 UNL     1       7.162  10.898  18.745  1.00  0.00     0.038 C 
BRANCH  22  25
HETATM   25  C15 UNL     1       7.023  13.219  19.586  1.00  0.00     0.196 C 
HETATM   26  O2  UNL     1       5.809  13.406  19.327  1.00  0.00    -0.646 OA
HETATM   27  O3  UNL     1       7.877  14.281  19.598  1.00  0.00    -0.646 OA
ENDBRANCH  22  25
ENDBRANCH   1  18
TORSDOF 8
ENDMDL
MODEL 2
REMARK VINA RESULT: -6.880346750      1.012      1.137
REMARK  8 active torsions:
REMARK  status: ('A' for Active; 'I' for Inactive)
REMARK    1  A    between atoms: N1_1  and  C1_5 
REMARK    2  A    between atoms: C1_5  and  C2_6 
REMARK    3  A    between atoms: C1_5  and  C10_18 
REMARK    4  A    between atoms: C2_6  and  S1_7 
REMARK    5  A    between atoms: S1_7  and  C3_8 
REMARK    6  A    between atoms: C3_8  and  N2_10 
REMARK    7  A    between atoms: N2_10  and  C4_12 
REMARK       I    between atoms: C10_18  and  N3_20 
REMARK    8  A    between atoms: C14_24  and  C15_25 
ROOT
HETATM    1  C1  UNL     1       5.964  11.669  23.222  1.00  0.00     0.284 C 
ENDROOT
BRANCH   1   2
HETATM    2  N1  UNL     1       5.648  12.511  24.302  1.00  0.00    -0.066 N 
ATOM      3  H13 UNL     1       5.468  11.948  25.132  1.00  0.00     0.275 HD
ATOM      4  H12 UNL     1       6.484  13.017  24.595  1.00  0.00     0.275 HD
ATOM      5  H11 UNL     1       4.882  13.169  24.164  1.00  0.00     0.275 HD
ENDBRANCH   1   2
BRANCH   1   6
HETATM    6  C2  UNL     1       6.522  10.303  23.561  1.00  0.00     0.124 C 
BRANCH   6   7
HETATM    7  S1  UNL     1       5.297   9.018  23.538  1.00  0.00    -0.098 SA
BRANCH   7   8
HETATM    8  C3  UNL     1       5.641   7.614  24.519  1.00  0.00     0.134 C 
HETATM    9  S2  UNL     1       6.064   6.194  23.859  1.00  0.00    -0.053 SA
BRANCH   8  10
HETATM   10  N2  UNL     1       5.497   7.715  25.942  1.00  0.00    -0.371 N 
ATOM     11  H2  UNL     1       4.810   7.121  26.405  1.00  0.00     0.161 HD
BRANCH  10  12
HETATM   12  C4  UNL     1       6.290   8.629  26.756  1.00  0.00     0.083 C 
HETATM   13  C5  UNL     1       7.748   8.563  26.484  1.00  0.00     0.025 C 
HETATM   14  C6  UNL     1       8.583   7.851  27.500  1.00  0.00     0.002 C 
HETATM   15  C7  UNL     1       8.145   8.105  28.900  1.00  0.00     0.000 C 
HETATM   16  C8  UNL     1       6.708   7.590  29.020  1.00  0.00     0.002 C 
HETATM   17  C9  UNL     1       5.874   8.516  28.184  1.00  0.00     0.025 C 
ENDBRANCH  10  12
ENDBRANCH   8  10
ENDBRANCH   7   8
ENDBRANCH   6   7
ENDBRANCH   1   6
BRANCH   1  18
HETATM   18  C10 UNL     1       6.728  12.316  22.154  1.00  0.00     0.252 C 
HETATM   19  O1  UNL     1       7.613  13.164  22.537  1.00  0.00    -0.271 OA
HETATM   20  N3  UNL     1       6.588  12.100  20.770  1.00  0.00    -0.336 N 
HETATM   21  C11 UNL     1       5.704  11.161  20.139  1.00  0.00     0.127 C 
HETATM   22  C14 UNL     1       7.324  12.812  19.718  1.00  0.00     0.188 C 
HETATM   23  C12 UNL     1       6.391  10.846  18.799  1.00  0.00     0.022 C 
HETATM   24  C13 UNL     1       6.878  12.220  18.430  1.00  0.00     0.038 C 
BRANCH  22  25
HETATM   25  C15 UNL     1       7.064  14.277  19.790  1.00  0.00     0.196 C 
HETATM   26  O2  UNL     1       5.887  14.668  19.601  1.00  0.00    -0.646 OA
HETATM   27  O3  UNL     1       8.041  15.190  20.049  1.00  0.00    -0.646 OA
ENDBRANCH  22  25
ENDBRANCH   1  18
TORSDOF 8
ENDMDL
MODEL 3
REMARK VINA RESULT: -6.854588365      1.576      2.197
REMARK  8 active torsions:
REMARK  status: ('A' for Active; 'I' for Inactive)
REMARK    1  A    between atoms: N1_1  and  C1_5 
REMARK    2  A    between atoms: C1_5  and  C2_6 
REMARK    3  A    between atoms: C1_5  and  C10_18 
REMARK    4  A    between atoms: C2_6  and  S1_7 
REMARK    5  A    between atoms: S1_7  and  C3_8 
REMARK    6  A    between atoms: C3_8  and  N2_10 
REMARK    7  A    between atoms: N2_10  and  C4_12 
REMARK       I    between atoms: C10_18  and  N3_20 
REMARK    8  A    between atoms: C14_24  and  C15_25 
ROOT
HETATM    1  C1  UNL     1       6.528   8.625  23.052  1.00  0.00     0.284 C 
ENDROOT
BRANCH   1   2
HETATM    2  N1  UNL     1       6.704   7.640  22.066  1.00  0.00    -0.066 N 
ATOM      3  H13 UNL     1       6.392   8.000  21.165  1.00  0.00     0.275 HD
ATOM      4  H12 UNL     1       7.700   7.515  21.884  1.00  0.00     0.275 HD
ATOM      5  H11 UNL     1       6.272   6.733  22.239  1.00  0.00     0.275 HD
ENDBRANCH   1   2
BRANCH   1   6
HETATM    6  C2  UNL     1       5.174   8.680  23.730  1.00  0.00     0.124 C 
BRANCH   6   7
HETATM    7  S1  UNL     1       5.265   8.513  25.495  1.00  0.00    -0.098 SA
BRANCH   7   8
HETATM    8  C3  UNL     1       6.045   7.067  26.089  1.00  0.00     0.134 C 
HETATM    9  S2  UNL     1       6.110   5.708  25.207  1.00  0.00    -0.053 SA
BRANCH   8  10
HETATM   10  N2  UNL     1       6.600   7.078  27.411  1.00  0.00    -0.371 N 
ATOM     11  H2  UNL     1       6.408   6.287  28.026  1.00  0.00     0.161 HD
BRANCH  10  12
HETATM   12  C4  UNL     1       7.428   8.167  27.916  1.00  0.00     0.083 C 
HETATM   13  C5  UNL     1       8.854   8.073  27.512  1.00  0.00     0.025 C 
HETATM   14  C6  UNL     1       9.815   7.625  28.565  1.00  0.00     0.002 C 
HETATM   15  C7  UNL     1       9.507   8.175  29.914  1.00  0.00     0.000 C 
HETATM   16  C8  UNL     1       8.113   7.669  30.295  1.00  0.00     0.002 C 
HETATM   17  C9  UNL     1       7.161   8.367  29.369  1.00  0.00     0.025 C 
ENDBRANCH  10  12
ENDBRANCH   8  10
ENDBRANCH   7   8
ENDBRANCH   6   7
ENDBRANCH   1   6
BRANCH   1  18
HETATM   18  C10 UNL     1       6.992   9.958  22.665  1.00  0.00     0.252 C 
HETATM   19  O1  UNL     1       7.936  10.450  23.383  1.00  0.00    -0.271 OA
HETATM   20  N3  UNL     1       6.512  10.739  21.597  1.00  0.00    -0.336 N 
HETATM   21  C11 UNL     1       5.507  10.356  20.645  1.00  0.00     0.127 C 
HETATM   22  C14 UNL     1       6.952  12.101  21.272  1.00  0.00     0.188 C 
HETATM   23  C12 UNL     1       5.838  11.192  19.397  1.00  0.00     0.022 C 
HETATM   24  C13 UNL     1       6.203  12.496  20.051  1.00  0.00     0.038 C 
BRANCH  22  25
HETATM   25  C15 UNL     1       6.703  13.024  22.414  1.00  0.00     0.196 C 
HETATM   26  O2  UNL     1       7.475  14.003  22.551  1.00  0.00    -0.646 OA
HETATM   27  O3  UNL     1       5.683  12.844  23.301  1.00  0.00    -0.646 OA
ENDBRANCH  22  25
ENDBRANCH   1  18
TORSDOF 8
ENDMDL
MODEL 4
REMARK VINA RESULT: -6.845408971      1.490      1.911
REMARK  8 active torsions:
REMARK  status: ('A' for Active; 'I' for Inactive)
REMARK    1  A    between atoms: N1_1  and  C1_5 
REMARK    2  A    between atoms: C1_5  and  C2_6 
REMARK    3  A    between atoms: C1_5  and  C10_18 
REMARK    4  A    between atoms: C2_6  and  S1_7 
REMARK    5  A    between atoms: S1_7  and  C3_8 
REMARK    6  A    between atoms: C3_8  and  N2_10 
REMARK    7  A    between atoms: N2_10  and  C4_12 
REMARK       I    between atoms: C10_18  and  N3_20 
REMARK    8  A    between atoms: C14_24  and  C15_25 
ROOT
HETATM    1  C1  UNL     1       5.890  10.948  22.597  1.00  0.00     0.284 C 
ENDROOT
BRANCH   1   2
HETATM    2  N1  UNL     1       4.505  11.099  22.423  1.00  0.00    -0.066 N 
ATOM      3  H13 UNL     1       4.041  11.066  23.331  1.00  0.00     0.275 HD
ATOM      4  H12 UNL     1       4.299  12.058  22.143  1.00  0.00     0.275 HD
ATOM      5  H11 UNL     1       4.047  10.451  21.783  1.00  0.00     0.275 HD
ENDBRANCH   1   2
BRANCH   1   6
HETATM    6  C2  UNL     1       6.347  10.211  23.840  1.00  0.00     0.124 C 
BRANCH   6   7
HETATM    7  S1  UNL     1       7.110   8.647  23.488  1.00  0.00    -0.098 SA
BRANCH   7   8
HETATM    8  C3  UNL     1       6.836   7.380  24.660  1.00  0.00     0.134 C 
HETATM    9  S2  UNL     1       5.562   6.382  24.555  1.00  0.00    -0.053 SA
BRANCH   8  10
HETATM   10  N2  UNL     1       7.740   7.256  25.765  1.00  0.00    -0.371 N 
ATOM     11  H2  UNL     1       8.270   6.391  25.866  1.00  0.00     0.161 HD
BRANCH  10  12
HETATM   12  C4  UNL     1       7.938   8.312  26.752  1.00  0.00     0.083 C 
HETATM   13  C5  UNL     1       9.020   8.026  27.727  1.00  0.00     0.025 C 
HETATM   14  C6  UNL     1       8.589   7.619  29.099  1.00  0.00     0.002 C 
HETATM   15  C7  UNL     1       7.392   8.362  29.583  1.00  0.00     0.000 C 
HETATM   16  C8  UNL     1       6.249   8.050  28.612  1.00  0.00     0.002 C 
HETATM   17  C9  UNL     1       6.621   8.718  27.320  1.00  0.00     0.025 C 
ENDBRANCH  10  12
ENDBRANCH   8  10
ENDBRANCH   7   8
ENDBRANCH   6   7
ENDBRANCH   1   6
BRANCH   1  18
HETATM   18  C10 UNL     1       6.665  12.171  22.379  1.00  0.00     0.252 C 
HETATM   19  O1  UNL     1       6.876  12.890  23.421  1.00  0.00    -0.271 OA
HETATM   20  N3  UNL     1       7.192  12.625  21.155  1.00  0.00    -0.336 N 
HETATM   21  C11 UNL     1       7.118  11.948  19.892  1.00  0.00     0.127 C 
HETATM   22  C14 UNL     1       7.909  13.890  20.954  1.00  0.00     0.188 C 
HETATM   23  C12 UNL     1       8.343  12.467  19.118  1.00  0.00     0.022 C 
HETATM   24  C13 UNL     1       8.306  13.915  19.522  1.00  0.00     0.038 C 
BRANCH  22  25
HETATM   25  C15 UNL     1       7.050  15.049  21.325  1.00  0.00     0.196 C 
HETATM   26  O2  UNL     1       6.035  15.269  20.622  1.00  0.00    -0.646 OA
HETATM   27  O3  UNL     1       7.324  15.864  22.382  1.00  0.00    -0.646 OA
ENDBRANCH  22  25
ENDBRANCH   1  18
TORSDOF 8
ENDMDL
MODEL 5
REMARK VINA RESULT: -6.774514203      2.474      2.930
REMARK  8 active torsions:
REMARK  status: ('A' for Active; 'I' for Inactive)
REMARK    1  A    between atoms: N1_1  and  C1_5 
REMARK    2  A    between atoms: C1_5  and  C2_6 
REMARK    3  A    between atoms: C1_5  and  C10_18 
REMARK    4  A    between atoms: C2_6  and  S1_7 
REMARK    5  A    between atoms: S1_7  and  C3_8 
REMARK    6  A    between atoms: C3_8  and  N2_10 
REMARK    7  A    between atoms: N2_10  and  C4_12 
REMARK       I    between atoms: C10_18  and  N3_20 
REMARK    8  A    between atoms: C14_24  and  C15_25 
ROOT
HETATM    1  C1  UNL     1       7.171   9.682  23.549  1.00  0.00     0.284 C 
ENDROOT
BRANCH   1   2
HETATM    2  N1  UNL     1       8.445   9.236  23.937  1.00  0.00    -0.066 N 
ATOM      3  H13 UNL     1       8.726   9.709  24.795  1.00  0.00     0.275 HD
ATOM      4  H12 UNL     1       8.384   8.272  24.265  1.00  0.00     0.275 HD
ATOM      5  H11 UNL     1       9.190   9.314  23.246  1.00  0.00     0.275 HD
ENDBRANCH   1   2
BRANCH   1   6
HETATM    6  C2  UNL     1       6.151   9.882  24.652  1.00  0.00     0.124 C 
BRANCH   6   7
HETATM    7  S1  UNL     1       5.267   8.401  25.068  1.00  0.00    -0.098 SA
BRANCH   7   8
HETATM    8  C3  UNL     1       6.205   7.134  25.822  1.00  0.00     0.134 C 
HETATM    9  S2  UNL     1       6.708   5.834  24.993  1.00  0.00    -0.053 SA
BRANCH   8  10
HETATM   10  N2  UNL     1       6.494   7.232  27.223  1.00  0.00    -0.371 N 
ATOM     11  H2  UNL     1       6.074   6.550  27.855  1.00  0.00     0.161 HD
BRANCH  10  12
HETATM   12  C4  UNL     1       7.360   8.261  27.785  1.00  0.00     0.083 C 
HETATM   13  C5  UNL     1       8.785   8.126  27.390  1.00  0.00     0.025 C 
HETATM   14  C6  UNL     1       9.716   7.590  28.429  1.00  0.00     0.002 C 
HETATM   15  C7  UNL     1       9.416   8.091  29.800  1.00  0.00     0.000 C 
HETATM   16  C8  UNL     1       7.998   7.627  30.145  1.00  0.00     0.002 C 
HETATM   17  C9  UNL     1       7.086   8.405  29.244  1.00  0.00     0.025 C 
ENDBRANCH  10  12
ENDBRANCH   8  10
ENDBRANCH   7   8
ENDBRANCH   6   7
ENDBRANCH   1   6
BRANCH   1  18
HETATM   18  C10 UNL     1       6.599   8.962  22.410  1.00  0.00     0.252 C 
HETATM   19  O1  UNL     1       7.119   7.816  22.156  1.00  0.00    -0.271 OA
HETATM   20  N3  UNL     1       5.551   9.400  21.579  1.00  0.00    -0.336 N 
HETATM   21  C11 UNL     1       4.801  10.615  21.721  1.00  0.00     0.127 C 
HETATM   22  C14 UNL     1       5.042   8.685  20.401  1.00  0.00     0.188 C 
HETATM   23  C12 UNL     1       3.446  10.297  21.064  1.00  0.00     0.022 C 
HETATM   24  C13 UNL     1       3.918   9.503  19.876  1.00  0.00     0.038 C 
BRANCH  22  25
HETATM   25  C15 UNL     1       6.121   8.491  19.394  1.00  0.00     0.196 C 
HETATM   26  O2  UNL     1       6.281   7.337  18.927  1.00  0.00    -0.646 OA
HETATM   27  O3  UNL     1       6.928   9.504  18.969  1.00  0.00    -0.646 OA
ENDBRANCH  22  25
ENDBRANCH   1  18
TORSDOF 8
ENDMDL
