MODEL 1
REMARK VINA RESULT: -8.486327254      0.000      0.000
REMARK  5 active torsions:
REMARK  status: ('A' for Active; 'I' for Inactive)
REMARK    1  A    between atoms: C6_7  and  C7_8 
REMARK       I    between atoms: C7_8  and  N2_10 
REMARK    2  A    between atoms: N2_10  and  C8_12 
REMARK    3  A    between atoms: C11_15  and  C12_16 
REMARK    4  A    between atoms: C12_16  and  N3_17 
REMARK    5  A    between atoms: C18_23  and  O2_24 
ROOT
HETATM    1  N1  UNL     1      10.801   7.297  29.137  1.00  0.00    -0.195 NA
HETATM    2  C1  UNL     1       9.776   7.726  28.791  1.00  0.00     0.092 C 
HETATM    3  C2  UNL     1       8.486   8.265  28.340  1.00  0.00     0.292 C 
HETATM    4  C3  UNL     1       7.374   7.731  29.226  1.00  0.00     0.048 C 
HETATM    5  C4  UNL     1       6.028   8.078  28.679  1.00  0.00     0.005 C 
HETATM    6  C5  UNL     1       6.205   9.001  27.490  1.00  0.00     0.043 C 
HETATM    7  C6  UNL     1       7.052   8.307  26.433  1.00  0.00     0.278 C 
HETATM    8  N4  UNL     1       8.300   7.849  26.959  1.00  0.00    -0.046 N 
ATOM      9  H41 UNL     1       8.399   6.839  26.858  1.00  0.00     0.279 HD
ATOM     10  H42 UNL     1       9.081   8.144  26.374  1.00  0.00     0.279 HD
ENDROOT
BRANCH   7  11
HETATM   11  C7  UNL     1       7.217   9.211  25.268  1.00  0.00     0.248 C 
HETATM   12  O1  UNL     1       8.315   9.243  24.680  1.00  0.00    -0.271 OA
HETATM   13  N2  UNL     1       6.149  10.041  24.810  1.00  0.00    -0.354 N 
ATOM     14  H2  UNL     1       5.252  10.010  25.294  1.00  0.00     0.162 HD
BRANCH  13  15
HETATM   15  C8  UNL     1       6.307  10.917  23.682  1.00  0.00     0.088 C 
HETATM   16  C9  UNL     1       5.821  12.338  23.964  1.00  0.00     0.052 C 
HETATM   17  C10 UNL     1       6.405  13.152  22.837  1.00  0.00    -0.020 C 
HETATM   18  C11 UNL     1       6.492  12.663  21.611  1.00  0.00    -0.056 C 
HETATM   19  C19 UNL     1       6.026  11.295  21.285  1.00  0.00     0.037 C 
HETATM   20  C20 UNL     1       5.575  10.478  22.442  1.00  0.00     0.029 C 
BRANCH  18  21
HETATM   21  C12 UNL     1       7.070  13.475  20.510  1.00  0.00     0.306 C 
BRANCH  21  22
HETATM   22  N3  UNL     1       7.288  14.830  20.914  1.00  0.00     0.097 N 
HETATM   23  C13 UNL     1       8.705  15.178  20.954  1.00  0.00     0.280 C 
HETATM   24  C14 UNL     1       8.881  16.257  19.924  1.00  0.00     0.045 C 
HETATM   25  C15 UNL     1       7.763  15.875  18.943  1.00  0.00     0.044 C 
HETATM   26  C18 UNL     1       8.285  17.519  20.505  1.00  0.00     0.126 C 
HETATM   27  C16 UNL     1       6.679  15.765  20.031  1.00  0.00     0.226 C 
HETATM   28  C17 UNL     1       6.821  17.144  20.653  1.00  0.00     0.068 C 
BRANCH  26  29
HETATM   29  O2  UNL     1       8.469  18.533  19.562  1.00  0.00    -0.395 OA
ATOM     30  H2  UNL     1       7.661  18.606  19.067  1.00  0.00     0.210 HD
ENDBRANCH  26  29
ENDBRANCH  21  22
ENDBRANCH  18  21
ENDBRANCH  13  15
ENDBRANCH   7  11
TORSDOF 5
ENDMDL
MODEL 2
REMARK VINA RESULT: -8.387688343      1.025      1.157
REMARK  5 active torsions:
REMARK  status: ('A' for Active; 'I' for Inactive)
REMARK    1  A    between atoms: C6_7  and  C7_8 
REMARK       I    between atoms: C7_8  and  N2_10 
REMARK    2  A    between atoms: N2_10  and  C8_12 
REMARK    3  A    between atoms: C11_15  and  C12_16 
REMARK    4  A    between atoms: C12_16  and  N3_17 
REMARK    5  A    between atoms: C18_23  and  O2_24 
ROOT
HETATM    1  N1  UNL     1      10.374   7.483  29.136  1.00  0.00    -0.195 NA
HETATM    2  C1  UNL     1       9.371   7.894  28.716  1.00  0.00     0.092 C 
HETATM    3  C2  UNL     1       8.108   8.412  28.171  1.00  0.00     0.292 C 
HETATM    4  C3  UNL     1       6.940   7.799  28.925  1.00  0.00     0.048 C 
HETATM    5  C4  UNL     1       5.637   8.128  28.271  1.00  0.00     0.005 C 
HETATM    6  C5  UNL     1       5.888   9.113  27.147  1.00  0.00     0.043 C 
HETATM    7  C6  UNL     1       6.854   8.498  26.143  1.00  0.00     0.278 C 
HETATM    8  N4  UNL     1       8.065   8.057  26.762  1.00  0.00    -0.046 N 
ATOM      9  H41 UNL     1       8.209   7.056  26.626  1.00  0.00     0.279 HD
ATOM     10  H42 UNL     1       8.885   8.405  26.266  1.00  0.00     0.279 HD
ENDROOT
BRANCH   7  11
HETATM   11  C7  UNL     1       7.092   9.463  25.040  1.00  0.00     0.248 C 
HETATM   12  O1  UNL     1       8.175   9.424  24.428  1.00  0.00    -0.271 OA
HETATM   13  N2  UNL     1       6.108  10.429  24.669  1.00  0.00    -0.354 N 
ATOM     14  H2  UNL     1       5.222  10.457  25.174  1.00  0.00     0.162 HD
BRANCH  13  15
HETATM   15  C8  UNL     1       6.336  11.363  23.602  1.00  0.00     0.088 C 
HETATM   16  C9  UNL     1       5.803  12.761  23.915  1.00  0.00     0.052 C 
HETATM   17  C10 UNL     1       6.457  13.639  22.879  1.00  0.00    -0.020 C 
HETATM   18  C11 UNL     1       6.647  13.215  21.640  1.00  0.00    -0.056 C 
HETATM   19  C19 UNL     1       6.233  11.858  21.211  1.00  0.00     0.037 C 
HETATM   20  C20 UNL     1       5.710  10.977  22.289  1.00  0.00     0.029 C 
BRANCH  18  21
HETATM   21  C12 UNL     1       7.293  14.090  20.629  1.00  0.00     0.306 C 
BRANCH  21  22
HETATM   22  N3  UNL     1       6.719  15.400  20.624  1.00  0.00     0.097 N 
HETATM   23  C13 UNL     1       7.706  16.439  20.347  1.00  0.00     0.280 C 
HETATM   24  C14 UNL     1       7.270  17.070  19.055  1.00  0.00     0.045 C 
HETATM   25  C15 UNL     1       6.564  15.875  18.398  1.00  0.00     0.044 C 
HETATM   26  C18 UNL     1       6.066  17.930  19.371  1.00  0.00     0.126 C 
HETATM   27  C16 UNL     1       5.707  15.546  19.634  1.00  0.00     0.226 C 
HETATM   28  C17 UNL     1       5.053  16.901  19.842  1.00  0.00     0.068 C 
BRANCH  26  29
HETATM   29  O2  UNL     1       5.672  18.541  18.178  1.00  0.00    -0.395 OA
ATOM     30  H2  UNL     1       5.233  19.351  18.410  1.00  0.00     0.210 HD
ENDBRANCH  26  29
ENDBRANCH  21  22
ENDBRANCH  18  21
ENDBRANCH  13  15
ENDBRANCH   7  11
TORSDOF 5
ENDMDL
MODEL 3
REMARK VINA RESULT: -8.222314685      1.745      2.178
REMARK  5 active torsions:
REMARK  status: ('A' for Active; 'I' for Inactive)
REMARK    1  A    between atoms: C6_7  and  C7_8 
REMARK       I    between atoms: C7_8  and  N2_10 
REMARK    2  A    between atoms: N2_10  and  C8_12 
REMARK    3  A    between atoms: C11_15  and  C12_16 
REMARK    4  A    between atoms: C12_16  and  N3_17 
REMARK    5  A    between atoms: C18_23  and  O2_24 
ROOT
HETATM    1  N1  UNL     1      10.145   7.728  28.803  1.00  0.00    -0.195 NA
HETATM    2  C1  UNL     1       9.178   8.025  28.228  1.00  0.00     0.092 C 
HETATM    3  C2  UNL     1       7.966   8.401  27.488  1.00  0.00     0.292 C 
HETATM    4  C3  UNL     1       6.800   7.547  27.955  1.00  0.00     0.048 C 
HETATM    5  C4  UNL     1       5.600   7.742  27.087  1.00  0.00     0.005 C 
HETATM    6  C5  UNL     1       5.881   8.865  26.108  1.00  0.00     0.043 C 
HETATM    7  C6  UNL     1       7.099   8.508  25.267  1.00  0.00     0.278 C 
HETATM    8  N4  UNL     1       8.236   8.191  26.075  1.00  0.00    -0.046 N 
ATOM      9  H41 UNL     1       8.567   7.243  25.896  1.00  0.00     0.279 HD
ATOM     10  H42 UNL     1       9.062   8.708  25.774  1.00  0.00     0.279 HD
ENDROOT
BRANCH   7  11
HETATM   11  C7  UNL     1       7.367   9.606  24.305  1.00  0.00     0.248 C 
HETATM   12  O1  UNL     1       8.546   9.867  24.001  1.00  0.00    -0.271 OA
HETATM   13  N2  UNL     1       6.306  10.365  23.724  1.00  0.00    -0.354 N 
ATOM     14  H2  UNL     1       5.342  10.147  23.977  1.00  0.00     0.162 HD
BRANCH  13  15
HETATM   15  C8  UNL     1       6.563  11.428  22.793  1.00  0.00     0.088 C 
HETATM   16  C9  UNL     1       6.072  12.785  23.294  1.00  0.00     0.052 C 
HETATM   17  C10 UNL     1       6.754  13.776  22.384  1.00  0.00    -0.020 C 
HETATM   18  C11 UNL     1       6.933  13.518  21.098  1.00  0.00    -0.056 C 
HETATM   19  C19 UNL     1       6.478  12.245  20.491  1.00  0.00     0.037 C 
HETATM   20  C20 UNL     1       5.927  11.242  21.441  1.00  0.00     0.029 C 
BRANCH  18  21
HETATM   21  C12 UNL     1       7.606  14.501  20.213  1.00  0.00     0.306 C 
BRANCH  21  22
HETATM   22  N3  UNL     1       9.019  14.286  20.168  1.00  0.00     0.097 N 
HETATM   23  C13 UNL     1       9.479  13.885  18.842  1.00  0.00     0.280 C 
HETATM   24  C14 UNL     1      10.398  14.983  18.388  1.00  0.00     0.045 C 
HETATM   25  C15 UNL     1       9.785  16.173  19.139  1.00  0.00     0.044 C 
HETATM   26  C18 UNL     1      11.684  14.830  19.168  1.00  0.00     0.126 C 
HETATM   27  C16 UNL     1       9.758  15.457  20.501  1.00  0.00     0.226 C 
HETATM   28  C17 UNL     1      11.222  15.064  20.596  1.00  0.00     0.068 C 
BRANCH  26  29
HETATM   29  O2  UNL     1      12.553  15.832  18.731  1.00  0.00    -0.395 OA
ATOM     30  H2  UNL     1      13.288  15.402  18.309  1.00  0.00     0.210 HD
ENDBRANCH  26  29
ENDBRANCH  21  22
ENDBRANCH  18  21
ENDBRANCH  13  15
ENDBRANCH   7  11
TORSDOF 5
ENDMDL
MODEL 4
REMARK VINA RESULT: -8.031664030      1.250      1.595
REMARK  5 active torsions:
REMARK  status: ('A' for Active; 'I' for Inactive)
REMARK    1  A    between atoms: C6_7  and  C7_8 
REMARK       I    between atoms: C7_8  and  N2_10 
REMARK    2  A    between atoms: N2_10  and  C8_12 
REMARK    3  A    between atoms: C11_15  and  C12_16 
REMARK    4  A    between atoms: C12_16  and  N3_17 
REMARK    5  A    between atoms: C18_23  and  O2_24 
ROOT
HETATM    1  N1  UNL     1      10.834   7.405  28.935  1.00  0.00    -0.195 NA
HETATM    2  C1  UNL     1       9.781   7.753  28.584  1.00  0.00     0.092 C 
HETATM    3  C2  UNL     1       8.455   8.188  28.126  1.00  0.00     0.292 C 
HETATM    4  C3  UNL     1       7.390   7.652  29.068  1.00  0.00     0.048 C 
HETATM    5  C4  UNL     1       6.017   7.887  28.528  1.00  0.00     0.005 C 
HETATM    6  C5  UNL     1       6.120   8.739  27.279  1.00  0.00     0.043 C 
HETATM    7  C6  UNL     1       6.987   8.025  26.251  1.00  0.00     0.278 C 
HETATM    8  N4  UNL     1       8.268   7.673  26.779  1.00  0.00    -0.046 N 
ATOM      9  H41 UNL     1       8.422   6.665  26.742  1.00  0.00     0.279 HD
ATOM     10  H42 UNL     1       9.021   7.972  26.160  1.00  0.00     0.279 HD
ENDROOT
BRANCH   7  11
HETATM   11  C7  UNL     1       7.081   8.860  25.027  1.00  0.00     0.248 C 
HETATM   12  O1  UNL     1       8.089   9.572  24.858  1.00  0.00    -0.271 OA
HETATM   13  N2  UNL     1       6.044   8.863  24.045  1.00  0.00    -0.354 N 
ATOM     14  H2  UNL     1       5.221   8.278  24.188  1.00  0.00     0.162 HD
BRANCH  13  15
HETATM   15  C8  UNL     1       6.133   9.670  22.860  1.00  0.00     0.088 C 
HETATM   16  C9  UNL     1       4.779   9.879  22.184  1.00  0.00     0.052 C 
HETATM   17  C10 UNL     1       5.023  11.017  21.225  1.00  0.00    -0.020 C 
HETATM   18  C11 UNL     1       6.167  11.129  20.569  1.00  0.00    -0.056 C 
HETATM   19  C19 UNL     1       7.263  10.147  20.746  1.00  0.00     0.037 C 
HETATM   20  C20 UNL     1       7.035   9.114  21.791  1.00  0.00     0.029 C 
BRANCH  18  21
HETATM   21  C12 UNL     1       6.396  12.254  19.629  1.00  0.00     0.306 C 
BRANCH  21  22
HETATM   22  N3  UNL     1       6.433  13.511  20.312  1.00  0.00     0.097 N 
HETATM   23  C13 UNL     1       7.345  13.498  21.452  1.00  0.00     0.280 C 
HETATM   24  C14 UNL     1       8.409  14.507  21.124  1.00  0.00     0.045 C 
HETATM   25  C15 UNL     1       8.398  14.419  19.591  1.00  0.00     0.044 C 
HETATM   26  C18 UNL     1       7.787  15.873  21.302  1.00  0.00     0.126 C 
HETATM   27  C16 UNL     1       6.871  14.574  19.472  1.00  0.00     0.226 C 
HETATM   28  C17 UNL     1       6.698  15.870  20.244  1.00  0.00     0.068 C 
BRANCH  26  29
HETATM   29  O2  UNL     1       8.780  16.817  21.025  1.00  0.00    -0.395 OA
ATOM     30  H2  UNL     1       8.653  17.541  21.627  1.00  0.00     0.210 HD
ENDBRANCH  26  29
ENDBRANCH  21  22
ENDBRANCH  18  21
ENDBRANCH  13  15
ENDBRANCH   7  11
TORSDOF 5
ENDMDL
MODEL 5
REMARK VINA RESULT: -7.882301705      1.450      1.892
REMARK  5 active torsions:
REMARK  status: ('A' for Active; 'I' for Inactive)
REMARK    1  A    between atoms: C6_7  and  C7_8 
REMARK       I    between atoms: C7_8  and  N2_10 
REMARK    2  A    between atoms: N2_10  and  C8_12 
REMARK    3  A    between atoms: C11_15  and  C12_16 
REMARK    4  A    between atoms: C12_16  and  N3_17 
REMARK    5  A    between atoms: C18_23  and  O2_24 
ROOT
HETATM    1  N1  UNL     1      10.147   7.752  28.796  1.00  0.00    -0.195 NA
HETATM    2  C1  UNL     1       9.173   8.031  28.226  1.00  0.00     0.092 C 
HETATM    3  C2  UNL     1       7.950   8.386  27.493  1.00  0.00     0.292 C 
HETATM    4  C3  UNL     1       6.821   7.459  27.909  1.00  0.00     0.048 C 
HETATM    5  C4  UNL     1       5.618   7.640  27.040  1.00  0.00     0.005 C 
HETATM    6  C5  UNL     1       5.856   8.817  26.115  1.00  0.00     0.043 C 
HETATM    7  C6  UNL     1       7.095   8.554  25.270  1.00  0.00     0.278 C 
HETATM    8  N4  UNL     1       8.239   8.252  26.074  1.00  0.00    -0.046 N 
ATOM      9  H41 UNL     1       8.614   7.329  25.856  1.00  0.00     0.279 HD
ATOM     10  H42 UNL     1       9.043   8.818  25.804  1.00  0.00     0.279 HD
ENDROOT
BRANCH   7  11
HETATM   11  C7  UNL     1       7.320   9.705  24.361  1.00  0.00     0.248 C 
HETATM   12  O1  UNL     1       8.467   9.912  23.921  1.00  0.00    -0.271 OA
HETATM   13  N2  UNL     1       6.254  10.577  23.983  1.00  0.00    -0.354 N 
ATOM     14  H2  UNL     1       5.316  10.403  24.346  1.00  0.00     0.162 HD
BRANCH  13  15
HETATM   15  C8  UNL     1       6.469  11.691  23.102  1.00  0.00     0.088 C 
HETATM   16  C9  UNL     1       5.762  12.961  23.573  1.00  0.00     0.052 C 
HETATM   17  C10 UNL     1       6.403  14.057  22.758  1.00  0.00    -0.020 C 
HETATM   18  C11 UNL     1       6.744  13.862  21.494  1.00  0.00    -0.056 C 
HETATM   19  C19 UNL     1       6.519  12.562  20.820  1.00  0.00     0.037 C 
HETATM   20  C20 UNL     1       6.004  11.470  21.688  1.00  0.00     0.029 C 
BRANCH  18  21
HETATM   21  C12 UNL     1       7.375  14.948  20.703  1.00  0.00     0.306 C 
BRANCH  21  22
HETATM   22  N3  UNL     1       6.496  15.436  19.686  1.00  0.00     0.097 N 
HETATM   23  C13 UNL     1       5.725  16.595  20.125  1.00  0.00     0.280 C 
HETATM   24  C14 UNL     1       6.154  17.724  19.230  1.00  0.00     0.045 C 
HETATM   25  C15 UNL     1       7.591  17.283  18.915  1.00  0.00     0.044 C 
HETATM   26  C18 UNL     1       5.515  17.481  17.881  1.00  0.00     0.126 C 
HETATM   27  C16 UNL     1       7.194  15.850  18.516  1.00  0.00     0.226 C 
HETATM   28  C17 UNL     1       6.159  16.173  17.453  1.00  0.00     0.068 C 
BRANCH  26  29
HETATM   29  O2  UNL     1       5.889  18.541  17.051  1.00  0.00    -0.395 OA
ATOM     30  H2  UNL     1       6.832  18.494  16.945  1.00  0.00     0.210 HD
ENDBRANCH  26  29
ENDBRANCH  21  22
ENDBRANCH  18  21
ENDBRANCH  13  15
ENDBRANCH   7  11
TORSDOF 5
ENDMDL
