MODEL 1
REMARK VINA RESULT: -7.796302755      0.000      0.000
REMARK  5 active torsions:
REMARK  status: ('A' for Active; 'I' for Inactive)
REMARK    1  A    between atoms: C3_6  and  N3_7 
REMARK    2  A    between atoms: N3_7  and  C4_9 
REMARK    3  A    between atoms: C11_17  and  C12_18 
REMARK    4  A    between atoms: C12_18  and  N4_19 
REMARK       I    between atoms: N4_19  and  C13_21 
REMARK       I    between atoms: C13_21  and  N5_23 
REMARK    5  A    between atoms: N5_23  and  C14_25 
ROOT
HETATM    1  N1  UNL     1       7.441   9.514  20.311  1.00  0.00    -0.190 NA
HETATM    2  C1  UNL     1       7.147  10.376  21.058  1.00  0.00     0.119 C 
HETATM    3  C2  UNL     1       6.762  11.461  21.974  1.00  0.00     0.130 A 
HETATM    4  N2  UNL     1       6.843  12.725  21.650  1.00  0.00    -0.327 N 
ATOM      5  H2  UNL     1       7.184  13.006  20.730  1.00  0.00     0.168 HD
HETATM    6  C3  UNL     1       6.472  13.641  22.548  1.00  0.00     0.146 A 
HETATM    7  S1  UNL     1       5.994  12.698  23.884  1.00  0.00    -0.054 SA
HETATM    8  C11 UNL     1       6.295  11.153  23.225  1.00  0.00     0.041 A 
ENDROOT
BRANCH   8   9
HETATM    9  C12 UNL     1       6.129   9.792  23.840  1.00  0.00     0.173 C 
BRANCH   9  10
HETATM   10  N4  UNL     1       6.365   9.900  25.245  1.00  0.00    -0.338 N 
HETATM   11  C13 UNL     1       6.870   8.790  25.962  1.00  0.00     0.316 C 
HETATM   12  O1  UNL     1       7.128   7.697  25.360  1.00  0.00    -0.247 OA
HETATM   13  N5  UNL     1       7.081   8.929  27.356  1.00  0.00    -0.336 N 
ATOM     14  H5  UNL     1       6.870   9.811  27.821  1.00  0.00     0.164 HD
ATOM     15  H4  UNL     1       6.170  10.776  25.730  1.00  0.00     0.164 HD
BRANCH  13  16
HETATM   16  C14 UNL     1       7.592   7.819  28.110  1.00  0.00     0.112 C 
HETATM   17  C15 UNL     1       7.090   7.737  29.516  1.00  0.00     0.053 C 
HETATM   18  C16 UNL     1       8.342   7.387  30.290  1.00  0.00     0.169 C 
HETATM   19  O2  UNL     1       9.352   8.069  29.622  1.00  0.00    -0.389 OA
HETATM   20  C17 UNL     1       9.085   8.000  28.282  1.00  0.00     0.192 C 
ENDBRANCH  13  16
ENDBRANCH   9  10
ENDBRANCH   8   9
BRANCH   6  21
HETATM   21  N3  UNL     1       6.482  14.952  22.407  1.00  0.00    -0.365 N 
ATOM     22  H3  UNL     1       5.872  15.529  22.985  1.00  0.00     0.162 HD
BRANCH  21  23
HETATM   23  C4  UNL     1       7.342  15.562  21.453  1.00  0.00     0.088 C 
HETATM   24  C5  UNL     1       7.919  16.885  21.935  1.00  0.00     0.030 C 
HETATM   25  C6  UNL     1       7.878  17.692  20.648  1.00  0.00    -0.012 C 
HETATM   26  C7  UNL     1       8.680  16.988  19.587  1.00  0.00     0.005 C 
HETATM   27  C10 UNL     1       6.450  17.336  20.198  1.00  0.00     0.011 C 
HETATM   28  C8  UNL     1       7.822  15.832  19.085  1.00  0.00     0.007 C 
HETATM   29  C9  UNL     1       6.715  15.823  20.117  1.00  0.00     0.009 C 
ENDBRANCH  21  23
ENDBRANCH   6  21
TORSDOF 5
ENDMDL
MODEL 2
REMARK VINA RESULT: -7.742399387      4.607      9.588
REMARK  5 active torsions:
REMARK  status: ('A' for Active; 'I' for Inactive)
REMARK    1  A    between atoms: C3_6  and  N3_7 
REMARK    2  A    between atoms: N3_7  and  C4_9 
REMARK    3  A    between atoms: C11_17  and  C12_18 
REMARK    4  A    between atoms: C12_18  and  N4_19 
REMARK       I    between atoms: N4_19  and  C13_21 
REMARK       I    between atoms: C13_21  and  N5_23 
REMARK    5  A    between atoms: N5_23  and  C14_25 
ROOT
HETATM    1  N1  UNL     1       6.328  13.152  23.911  1.00  0.00    -0.190 NA
HETATM    2  C1  UNL     1       6.364  11.974  23.903  1.00  0.00     0.119 C 
HETATM    3  C2  UNL     1       6.401  10.503  23.917  1.00  0.00     0.130 A 
HETATM    4  N2  UNL     1       7.185   9.821  24.712  1.00  0.00    -0.327 N 
ATOM      5  H2  UNL     1       7.809  10.299  25.363  1.00  0.00     0.168 HD
HETATM    6  C3  UNL     1       7.150   8.488  24.654  1.00  0.00     0.146 A 
HETATM    7  S1  UNL     1       5.984   8.185  23.450  1.00  0.00    -0.054 SA
HETATM    8  C11 UNL     1       5.587   9.800  23.069  1.00  0.00     0.041 A 
ENDROOT
BRANCH   8   9
HETATM    9  C12 UNL     1       4.621  10.343  22.054  1.00  0.00     0.173 C 
BRANCH   9  10
HETATM   10  N4  UNL     1       4.159   9.258  21.246  1.00  0.00    -0.338 N 
HETATM   11  C13 UNL     1       3.342   9.516  20.120  1.00  0.00     0.316 C 
HETATM   12  O1  UNL     1       3.026  10.712  19.814  1.00  0.00    -0.247 OA
HETATM   13  N5  UNL     1       2.893   8.417  19.349  1.00  0.00    -0.336 N 
ATOM     14  H5  UNL     1       3.157   7.466  19.608  1.00  0.00     0.164 HD
ATOM     15  H4  UNL     1       4.417   8.300  21.481  1.00  0.00     0.164 HD
BRANCH  13  16
HETATM   16  C14 UNL     1       2.062   8.648  18.200  1.00  0.00     0.112 C 
HETATM   17  C15 UNL     1       0.698   8.041  18.286  1.00  0.00     0.053 C 
HETATM   18  C16 UNL     1       0.511   7.462  16.901  1.00  0.00     0.169 C 
HETATM   19  O2  UNL     1       1.783   7.031  16.542  1.00  0.00    -0.389 OA
HETATM   20  C17 UNL     1       2.682   7.950  17.009  1.00  0.00     0.192 C 
ENDBRANCH  13  16
ENDBRANCH   9  10
ENDBRANCH   8   9
BRANCH   6  21
HETATM   21  N3  UNL     1       7.859   7.636  25.369  1.00  0.00    -0.365 N 
ATOM     22  H3  UNL     1       8.653   7.156  24.947  1.00  0.00     0.162 HD
BRANCH  21  23
HETATM   23  C4  UNL     1       7.518   7.386  26.727  1.00  0.00     0.088 C 
HETATM   24  C5  UNL     1       6.016   7.291  26.955  1.00  0.00     0.030 C 
HETATM   25  C6  UNL     1       5.892   7.997  28.295  1.00  0.00    -0.012 C 
HETATM   26  C7  UNL     1       6.744   7.291  29.315  1.00  0.00     0.005 C 
HETATM   27  C10 UNL     1       6.776   9.220  27.994  1.00  0.00     0.011 C 
HETATM   28  C8  UNL     1       8.185   7.706  29.043  1.00  0.00     0.007 C 
HETATM   29  C9  UNL     1       8.042   8.395  27.704  1.00  0.00     0.009 C 
ENDBRANCH  21  23
ENDBRANCH   6  21
TORSDOF 5
ENDMDL
MODEL 3
REMARK VINA RESULT: -7.679109985      2.873      8.904
REMARK  5 active torsions:
REMARK  status: ('A' for Active; 'I' for Inactive)
REMARK    1  A    between atoms: C3_6  and  N3_7 
REMARK    2  A    between atoms: N3_7  and  C4_9 
REMARK    3  A    between atoms: C11_17  and  C12_18 
REMARK    4  A    between atoms: C12_18  and  N4_19 
REMARK       I    between atoms: N4_19  and  C13_21 
REMARK       I    between atoms: C13_21  and  N5_23 
REMARK    5  A    between atoms: N5_23  and  C14_25 
ROOT
HETATM    1  N1  UNL     1       5.273   7.110  20.829  1.00  0.00    -0.190 NA
HETATM    2  C1  UNL     1       5.700   7.651  21.785  1.00  0.00     0.119 C 
HETATM    3  C2  UNL     1       6.255   8.322  22.971  1.00  0.00     0.130 A 
HETATM    4  N2  UNL     1       7.025   7.713  23.834  1.00  0.00    -0.327 N 
ATOM      5  H2  UNL     1       7.272   6.731  23.711  1.00  0.00     0.168 HD
HETATM    6  C3  UNL     1       7.482   8.403  24.881  1.00  0.00     0.146 A 
HETATM    7  S1  UNL     1       6.811   9.951  24.645  1.00  0.00    -0.054 SA
HETATM    8  C11 UNL     1       5.964   9.642  23.197  1.00  0.00     0.041 A 
ENDROOT
BRANCH   8   9
HETATM    9  C12 UNL     1       5.095  10.550  22.374  1.00  0.00     0.173 C 
BRANCH   9  10
HETATM   10  N4  UNL     1       5.936  11.331  21.523  1.00  0.00    -0.338 N 
HETATM   11  C13 UNL     1       6.425  12.581  21.969  1.00  0.00     0.316 C 
HETATM   12  O1  UNL     1       6.128  13.010  23.131  1.00  0.00    -0.247 OA
HETATM   13  N5  UNL     1       7.246  13.334  21.094  1.00  0.00    -0.336 N 
ATOM     14  H5  UNL     1       7.474  12.974  20.168  1.00  0.00     0.164 HD
ATOM     15  H4  UNL     1       6.184  10.987  20.595  1.00  0.00     0.164 HD
BRANCH  13  16
HETATM   16  C14 UNL     1       7.756  14.607  21.521  1.00  0.00     0.112 C 
HETATM   17  C15 UNL     1       6.888  15.773  21.172  1.00  0.00     0.053 C 
HETATM   18  C16 UNL     1       7.894  16.797  20.693  1.00  0.00     0.169 C 
HETATM   19  O2  UNL     1       8.866  16.039  20.050  1.00  0.00    -0.389 OA
HETATM   20  C17 UNL     1       9.039  14.888  20.769  1.00  0.00     0.192 C 
ENDBRANCH  13  16
ENDBRANCH   9  10
ENDBRANCH   8   9
BRANCH   6  21
HETATM   21  N3  UNL     1       8.264   7.967  25.850  1.00  0.00    -0.365 N 
ATOM     22  H3  UNL     1       9.273   7.925  25.708  1.00  0.00     0.162 HD
BRANCH  21  23
HETATM   23  C4  UNL     1       7.703   7.558  27.091  1.00  0.00     0.088 C 
HETATM   24  C5  UNL     1       6.193   7.385  27.032  1.00  0.00     0.030 C 
HETATM   25  C6  UNL     1       5.796   7.935  28.392  1.00  0.00    -0.012 C 
HETATM   26  C7  UNL     1       6.491   7.152  29.473  1.00  0.00     0.005 C 
HETATM   27  C10 UNL     1       6.650   9.214  28.382  1.00  0.00     0.011 C 
HETATM   28  C8  UNL     1       7.933   7.645  29.510  1.00  0.00     0.007 C 
HETATM   29  C9  UNL     1       7.990   8.472  28.244  1.00  0.00     0.009 C 
ENDBRANCH  21  23
ENDBRANCH   6  21
TORSDOF 5
ENDMDL
MODEL 4
REMARK VINA RESULT: -7.670288741      1.609      2.498
REMARK  5 active torsions:
REMARK  status: ('A' for Active; 'I' for Inactive)
REMARK    1  A    between atoms: C3_6  and  N3_7 
REMARK    2  A    between atoms: N3_7  and  C4_9 
REMARK    3  A    between atoms: C11_17  and  C12_18 
REMARK    4  A    between atoms: C12_18  and  N4_19 
REMARK       I    between atoms: N4_19  and  C13_21 
REMARK       I    between atoms: C13_21  and  N5_23 
REMARK    5  A    between atoms: N5_23  and  C14_25 
ROOT
HETATM    1  N1  UNL     1       5.273   6.262  21.801  1.00  0.00    -0.190 NA
HETATM    2  C1  UNL     1       5.516   7.398  21.995  1.00  0.00     0.119 C 
HETATM    3  C2  UNL     1       5.805   8.824  22.217  1.00  0.00     0.130 A 
HETATM    4  N2  UNL     1       6.431   9.565  21.340  1.00  0.00    -0.327 N 
ATOM      5  H2  UNL     1       6.745   9.170  20.454  1.00  0.00     0.168 HD
HETATM    6  C3  UNL     1       6.649  10.850  21.629  1.00  0.00     0.146 A 
HETATM    7  S1  UNL     1       5.956  11.020  23.177  1.00  0.00    -0.054 SA
HETATM    8  C11 UNL     1       5.410   9.417  23.387  1.00  0.00     0.041 A 
ENDROOT
BRANCH   8   9
HETATM    9  C12 UNL     1       4.701   8.784  24.551  1.00  0.00     0.173 C 
BRANCH   9  10
HETATM   10  N4  UNL     1       5.361   9.186  25.754  1.00  0.00    -0.338 N 
HETATM   11  C13 UNL     1       6.151   8.256  26.469  1.00  0.00     0.316 C 
HETATM   12  O1  UNL     1       6.288   7.064  26.040  1.00  0.00    -0.247 OA
HETATM   13  N5  UNL     1       6.780   8.685  27.663  1.00  0.00    -0.336 N 
ATOM     14  H5  UNL     1       6.660   9.643  27.990  1.00  0.00     0.164 HD
ATOM     15  H4  UNL     1       5.262  10.142  26.096  1.00  0.00     0.164 HD
BRANCH  13  16
HETATM   16  C14 UNL     1       7.588   7.762  28.410  1.00  0.00     0.112 C 
HETATM   17  C15 UNL     1       7.582   7.985  29.888  1.00  0.00     0.053 C 
HETATM   18  C16 UNL     1       9.040   7.809  30.252  1.00  0.00     0.169 C 
HETATM   19  O2  UNL     1       9.724   8.330  29.159  1.00  0.00    -0.389 OA
HETATM   20  C17 UNL     1       9.037   7.974  28.030  1.00  0.00     0.192 C 
ENDBRANCH  13  16
ENDBRANCH   9  10
ENDBRANCH   8   9
BRANCH   6  21
HETATM   21  N3  UNL     1       7.257  11.748  20.880  1.00  0.00    -0.365 N 
ATOM     22  H3  UNL     1       8.063  11.478  20.316  1.00  0.00     0.162 HD
BRANCH  21  23
HETATM   23  C4  UNL     1       6.792  13.092  20.856  1.00  0.00     0.088 C 
HETATM   24  C5  UNL     1       6.694  13.661  19.448  1.00  0.00     0.030 C 
HETATM   25  C6  UNL     1       7.170  15.084  19.688  1.00  0.00    -0.012 C 
HETATM   26  C7  UNL     1       6.286  15.743  20.712  1.00  0.00     0.005 C 
HETATM   27  C10 UNL     1       8.406  14.772  20.550  1.00  0.00     0.011 C 
HETATM   28  C8  UNL     1       6.707  15.196  22.071  1.00  0.00     0.007 C 
HETATM   29  C9  UNL     1       7.613  14.057  21.657  1.00  0.00     0.009 C 
ENDBRANCH  21  23
ENDBRANCH   6  21
TORSDOF 5
ENDMDL
MODEL 5
REMARK VINA RESULT: -7.521020276      4.112      6.040
REMARK  5 active torsions:
REMARK  status: ('A' for Active; 'I' for Inactive)
REMARK    1  A    between atoms: C3_6  and  N3_7 
REMARK    2  A    between atoms: N3_7  and  C4_9 
REMARK    3  A    between atoms: C11_17  and  C12_18 
REMARK    4  A    between atoms: C12_18  and  N4_19 
REMARK       I    between atoms: N4_19  and  C13_21 
REMARK       I    between atoms: C13_21  and  N5_23 
REMARK    5  A    between atoms: N5_23  and  C14_25 
ROOT
HETATM    1  N1  UNL     1       7.199  12.682  22.484  1.00  0.00    -0.190 NA
HETATM    2  C1  UNL     1       6.604  11.748  22.081  1.00  0.00     0.119 C 
HETATM    3  C2  UNL     1       5.861  10.591  21.556  1.00  0.00     0.130 A 
HETATM    4  N2  UNL     1       4.671  10.696  21.025  1.00  0.00    -0.327 N 
ATOM      5  H2  UNL     1       4.208  11.603  20.957  1.00  0.00     0.168 HD
HETATM    6  C3  UNL     1       4.073   9.591  20.575  1.00  0.00     0.146 A 
HETATM    7  S1  UNL     1       5.216   8.372  20.906  1.00  0.00    -0.054 SA
HETATM    8  C11 UNL     1       6.425   9.344  21.615  1.00  0.00     0.041 A 
ENDROOT
BRANCH   8   9
HETATM    9  C12 UNL     1       7.760   8.960  22.190  1.00  0.00     0.173 C 
BRANCH   9  10
HETATM   10  N4  UNL     1       7.536   8.185  23.370  1.00  0.00    -0.338 N 
HETATM   11  C13 UNL     1       7.484   8.823  24.632  1.00  0.00     0.316 C 
HETATM   12  O1  UNL     1       7.623  10.086  24.721  1.00  0.00    -0.247 OA
HETATM   13  N5  UNL     1       7.273   8.023  25.782  1.00  0.00    -0.336 N 
ATOM     14  H5  UNL     1       7.163   7.014  25.691  1.00  0.00     0.164 HD
ATOM     15  H4  UNL     1       7.415   7.175  23.303  1.00  0.00     0.164 HD
BRANCH  13  16
HETATM   16  C14 UNL     1       7.216   8.643  27.076  1.00  0.00     0.112 C 
HETATM   17  C15 UNL     1       8.228   8.137  28.054  1.00  0.00     0.053 C 
HETATM   18  C16 UNL     1       7.418   8.009  29.325  1.00  0.00     0.169 C 
HETATM   19  O2  UNL     1       6.160   7.614  28.884  1.00  0.00    -0.389 OA
HETATM   20  C17 UNL     1       5.896   8.287  27.723  1.00  0.00     0.192 C 
ENDBRANCH  13  16
ENDBRANCH   9  10
ENDBRANCH   8   9
BRANCH   6  21
HETATM   21  N3  UNL     1       2.884   9.494  20.014  1.00  0.00    -0.365 N 
ATOM     22  H3  UNL     1       2.043   9.616  20.579  1.00  0.00     0.162 HD
BRANCH  21  23
HETATM   23  C4  UNL     1       2.770   9.222  18.623  1.00  0.00     0.088 C 
HETATM   24  C5  UNL     1       2.059  10.329  17.857  1.00  0.00     0.030 C 
HETATM   25  C6  UNL     1       1.242   9.507  16.873  1.00  0.00    -0.012 C 
HETATM   26  C7  UNL     1       2.163   8.645  16.052  1.00  0.00     0.005 C 
HETATM   27  C10 UNL     1       0.684   8.461  17.854  1.00  0.00     0.011 C 
HETATM   28  C8  UNL     1       2.576   7.478  16.940  1.00  0.00     0.007 C 
HETATM   29  C9  UNL     1       2.066   7.942  18.287  1.00  0.00     0.009 C 
ENDBRANCH  21  23
ENDBRANCH   6  21
TORSDOF 5
ENDMDL
