MODEL 1
REMARK VINA RESULT: -7.560200601      0.000      0.000
REMARK  6 active torsions:
REMARK  status: ('A' for Active; 'I' for Inactive)
REMARK    1  A    between atoms: C2_2  and  C3_3 
REMARK    2  A    between atoms: C3_3  and  C4_4 
REMARK    3  A    between atoms: C8_10  and  N2_11 
REMARK       I    between atoms: N2_11  and  C9_13 
REMARK       I    between atoms: C9_13  and  N3_15 
REMARK    4  A    between atoms: N3_15  and  C10_17 
REMARK    5  A    between atoms: C10_17  and  C11_18 
REMARK    6  A    between atoms: C11_18  and  N4_19 
ROOT
HETATM    1  N2  UNL     1      18.816  15.155  -8.129  1.00  0.00    -0.289 N 
ATOM      2  H2  UNL     1      18.420  15.936  -8.651  1.00  0.00     0.172 HD
HETATM    3  C9  UNL     1      17.985  14.070  -7.868  1.00  0.00     0.322 C 
HETATM    4  O1  UNL     1      18.499  12.929  -7.861  1.00  0.00    -0.247 OA
HETATM    5  N3  UNL     1      16.592  14.300  -7.624  1.00  0.00    -0.332 N 
ATOM      6  H3  UNL     1      16.238  15.257  -7.644  1.00  0.00     0.165 HD
ENDROOT
BRANCH   1   7
HETATM    7  C8  UNL     1      20.061  15.250  -7.756  1.00  0.00     0.153 A 
HETATM    8  N1  UNL     1      21.185  14.732  -8.221  1.00  0.00    -0.339 N 
HETATM    9  C7  UNL     1      22.330  15.028  -7.625  1.00  0.00     0.024 A 
ATOM     10  H1  UNL     1      21.171  14.110  -9.030  1.00  0.00     0.168 HD
HETATM   11  C6  UNL     1      23.709  14.506  -8.049  1.00  0.00     0.058 C 
HETATM   12  C20 UNL     1      22.276  15.865  -6.548  1.00  0.00     0.009 A 
HETATM   13  C5  UNL     1      24.512  14.434  -6.783  1.00  0.00     0.011 C 
HETATM   14  C4  UNL     1      24.738  15.923  -6.394  1.00  0.00    -0.009 C 
HETATM   15  C21 UNL     1      23.462  16.320  -5.743  1.00  0.00     0.053 C 
HETATM   16  S1  UNL     1      20.607  16.197  -6.427  1.00  0.00    -0.056 SA
BRANCH  14  17
HETATM   17  C3  UNL     1      25.963  15.943  -5.575  1.00  0.00     0.004 C 
BRANCH  17  18
HETATM   18  C2  UNL     1      26.892  17.082  -5.695  1.00  0.00    -0.004 C 
HETATM   19  C1  UNL     1      27.270  17.419  -7.097  1.00  0.00     0.005 C 
ENDBRANCH  17  18
ENDBRANCH  14  17
ENDBRANCH   1   7
BRANCH   5  20
HETATM   20  C10 UNL     1      15.690  13.240  -7.358  1.00  0.00     0.065 C 
HETATM   21  C16 UNL     1      14.355  13.738  -6.769  1.00  0.00     0.059 C 
HETATM   22  C17 UNL     1      13.187  13.169  -7.519  1.00  0.00     0.170 C 
HETATM   23  O3  UNL     1      13.264  11.786  -7.643  1.00  0.00    -0.391 OA
HETATM   24  C18 UNL     1      14.315  11.459  -8.478  1.00  0.00     0.170 C 
HETATM   25  C19 UNL     1      15.318  12.549  -8.678  1.00  0.00     0.059 C 
BRANCH  20  26
HETATM   26  C11 UNL     1      16.181  12.135  -6.470  1.00  0.00     0.303 C 
BRANCH  26  27
HETATM   27  N4  UNL     1      16.112  12.324  -5.073  1.00  0.00     0.095 N 
HETATM   28  C12 UNL     1      15.339  11.188  -4.515  1.00  0.00     0.298 C 
HETATM   29  C13 UNL     1      16.274  10.090  -4.067  1.00  0.00     0.198 C 
HETATM   30  O2  UNL     1      16.910  10.477  -2.878  1.00  0.00    -0.388 OA
HETATM   31  C14 UNL     1      17.115  11.866  -2.885  1.00  0.00     0.198 C 
HETATM   32  C15 UNL     1      17.331  12.339  -4.330  1.00  0.00     0.298 C 
ENDBRANCH  26  27
ENDBRANCH  20  26
ENDBRANCH   5  20
TORSDOF 6
ENDMDL
MODEL 2
REMARK VINA RESULT: -7.413126700      1.481      1.796
REMARK  6 active torsions:
REMARK  status: ('A' for Active; 'I' for Inactive)
REMARK    1  A    between atoms: C2_2  and  C3_3 
REMARK    2  A    between atoms: C3_3  and  C4_4 
REMARK    3  A    between atoms: C8_10  and  N2_11 
REMARK       I    between atoms: N2_11  and  C9_13 
REMARK       I    between atoms: C9_13  and  N3_15 
REMARK    4  A    between atoms: N3_15  and  C10_17 
REMARK    5  A    between atoms: C10_17  and  C11_18 
REMARK    6  A    between atoms: C11_18  and  N4_19 
ROOT
HETATM    1  N2  UNL     1      18.419  15.145  -6.241  1.00  0.00    -0.289 N 
ATOM      2  H2  UNL     1      17.880  16.011  -6.242  1.00  0.00     0.172 HD
HETATM    3  C9  UNL     1      17.713  13.951  -6.131  1.00  0.00     0.322 C 
HETATM    4  O1  UNL     1      18.150  12.954  -6.748  1.00  0.00    -0.247 OA
HETATM    5  N3  UNL     1      16.527  13.913  -5.327  1.00  0.00    -0.332 N 
ATOM      6  H3  UNL     1      16.226  14.763  -4.849  1.00  0.00     0.165 HD
ENDROOT
BRANCH   1   7
HETATM    7  C8  UNL     1      19.714  15.242  -6.344  1.00  0.00     0.153 A 
HETATM    8  N1  UNL     1      20.590  14.761  -7.211  1.00  0.00    -0.339 N 
HETATM    9  C7  UNL     1      21.874  15.047  -7.059  1.00  0.00     0.024 A 
ATOM     10  H1  UNL     1      20.279  14.177  -7.988  1.00  0.00     0.168 HD
HETATM   11  C6  UNL     1      23.002  14.565  -7.981  1.00  0.00     0.058 C 
HETATM   12  C20 UNL     1      22.219  15.833  -5.998  1.00  0.00     0.009 A 
HETATM   13  C5  UNL     1      24.211  14.447  -7.099  1.00  0.00     0.011 C 
HETATM   14  C4  UNL     1      24.567  15.919  -6.749  1.00  0.00    -0.009 C 
HETATM   15  C21 UNL     1      23.618  16.268  -5.659  1.00  0.00     0.053 C 
HETATM   16  S1  UNL     1      20.710  16.134  -5.262  1.00  0.00    -0.056 SA
BRANCH  14  17
HETATM   17  C3  UNL     1      26.007  15.920  -6.432  1.00  0.00     0.004 C 
BRANCH  17  18
HETATM   18  C2  UNL     1      26.602  17.103  -5.782  1.00  0.00    -0.004 C 
HETATM   19  C1  UNL     1      26.905  16.918  -4.334  1.00  0.00     0.005 C 
ENDBRANCH  17  18
ENDBRANCH  14  17
ENDBRANCH   1   7
BRANCH   5  20
HETATM   20  C10 UNL     1      15.759  12.732  -5.175  1.00  0.00     0.065 C 
HETATM   21  C16 UNL     1      14.466  12.971  -4.370  1.00  0.00     0.059 C 
HETATM   22  C17 UNL     1      13.270  12.423  -5.091  1.00  0.00     0.170 C 
HETATM   23  O3  UNL     1      13.451  11.101  -5.482  1.00  0.00    -0.391 OA
HETATM   24  C18 UNL     1      14.419  11.042  -6.467  1.00  0.00     0.170 C 
HETATM   25  C19 UNL     1      15.292  12.252  -6.558  1.00  0.00     0.059 C 
BRANCH  20  26
HETATM   26  C11 UNL     1      16.447  11.545  -4.568  1.00  0.00     0.303 C 
BRANCH  26  27
HETATM   27  N4  UNL     1      16.016  11.105  -3.298  1.00  0.00     0.095 N 
HETATM   28  C12 UNL     1      16.176   9.631  -3.267  1.00  0.00     0.298 C 
HETATM   29  C13 UNL     1      17.511   9.264  -2.663  1.00  0.00     0.198 C 
HETATM   30  O2  UNL     1      17.466   9.470  -1.276  1.00  0.00    -0.388 OA
HETATM   31  C14 UNL     1      16.637  10.567  -0.990  1.00  0.00     0.198 C 
HETATM   32  C15 UNL     1      16.715  11.575  -2.145  1.00  0.00     0.298 C 
ENDBRANCH  26  27
ENDBRANCH  20  26
ENDBRANCH   5  20
TORSDOF 6
ENDMDL
MODEL 3
REMARK VINA RESULT: -7.245020860      2.081      2.461
REMARK  6 active torsions:
REMARK  status: ('A' for Active; 'I' for Inactive)
REMARK    1  A    between atoms: C2_2  and  C3_3 
REMARK    2  A    between atoms: C3_3  and  C4_4 
REMARK    3  A    between atoms: C8_10  and  N2_11 
REMARK       I    between atoms: N2_11  and  C9_13 
REMARK       I    between atoms: C9_13  and  N3_15 
REMARK    4  A    between atoms: N3_15  and  C10_17 
REMARK    5  A    between atoms: C10_17  and  C11_18 
REMARK    6  A    between atoms: C11_18  and  N4_19 
ROOT
HETATM    1  N2  UNL     1      19.250  14.059  -8.479  1.00  0.00    -0.289 N 
ATOM      2  H2  UNL     1      19.190  13.947  -9.491  1.00  0.00     0.172 HD
HETATM    3  C9  UNL     1      18.105  13.790  -7.735  1.00  0.00     0.322 C 
HETATM    4  O1  UNL     1      18.252  13.280  -6.601  1.00  0.00    -0.247 OA
HETATM    5  N3  UNL     1      16.821  14.101  -8.291  1.00  0.00    -0.332 N 
ATOM      6  H3  UNL     1      16.774  14.518  -9.221  1.00  0.00     0.165 HD
ENDROOT
BRANCH   1   7
HETATM    7  C8  UNL     1      20.392  14.444  -7.983  1.00  0.00     0.153 A 
HETATM    8  N1  UNL     1      21.648  14.196  -8.312  1.00  0.00    -0.339 N 
HETATM    9  C7  UNL     1      22.623  14.755  -7.611  1.00  0.00     0.024 A 
ATOM     10  H1  UNL     1      21.865  13.581  -9.097  1.00  0.00     0.168 HD
HETATM   11  C6  UNL     1      24.122  14.563  -7.872  1.00  0.00     0.058 C 
HETATM   12  C20 UNL     1      22.262  15.565  -6.574  1.00  0.00     0.009 A 
HETATM   13  C5  UNL     1      24.779  14.690  -6.528  1.00  0.00     0.011 C 
HETATM   14  C4  UNL     1      24.613  16.194  -6.168  1.00  0.00    -0.009 C 
HETATM   15  C21 UNL     1      23.217  16.290  -5.666  1.00  0.00     0.053 C 
HETATM   16  S1  UNL     1      20.559  15.502  -6.637  1.00  0.00    -0.056 SA
BRANCH  14  17
HETATM   17  C3  UNL     1      25.705  16.505  -5.227  1.00  0.00     0.004 C 
BRANCH  17  18
HETATM   18  C2  UNL     1      27.002  16.966  -5.754  1.00  0.00    -0.004 C 
HETATM   19  C1  UNL     1      26.959  17.419  -7.174  1.00  0.00     0.005 C 
ENDBRANCH  17  18
ENDBRANCH  14  17
ENDBRANCH   1   7
BRANCH   5  20
HETATM   20  C10 UNL     1      15.617  13.848  -7.589  1.00  0.00     0.065 C 
HETATM   21  C16 UNL     1      14.402  14.543  -8.237  1.00  0.00     0.059 C 
HETATM   22  C17 UNL     1      13.274  13.575  -8.446  1.00  0.00     0.170 C 
HETATM   23  O3  UNL     1      12.965  12.870  -7.288  1.00  0.00    -0.391 OA
HETATM   24  C18 UNL     1      14.008  12.016  -6.980  1.00  0.00     0.170 C 
HETATM   25  C19 UNL     1      15.304  12.346  -7.647  1.00  0.00     0.059 C 
BRANCH  20  26
HETATM   26  C11 UNL     1      15.595  14.190  -6.128  1.00  0.00     0.303 C 
BRANCH  26  27
HETATM   27  N4  UNL     1      15.519  15.552  -5.765  1.00  0.00     0.095 N 
HETATM   28  C12 UNL     1      14.410  15.684  -4.789  1.00  0.00     0.298 C 
HETATM   29  C13 UNL     1      14.943  15.597  -3.379  1.00  0.00     0.198 C 
HETATM   30  O2  UNL     1      15.608  16.790  -3.059  1.00  0.00    -0.388 OA
HETATM   31  C14 UNL     1      16.228  17.306  -4.208  1.00  0.00     0.198 C 
HETATM   32  C15 UNL     1      16.647  16.145  -5.122  1.00  0.00     0.298 C 
ENDBRANCH  26  27
ENDBRANCH  20  26
ENDBRANCH   5  20
TORSDOF 6
ENDMDL
MODEL 4
REMARK VINA RESULT: -7.235885367      3.451      9.225
REMARK  6 active torsions:
REMARK  status: ('A' for Active; 'I' for Inactive)
REMARK    1  A    between atoms: C2_2  and  C3_3 
REMARK    2  A    between atoms: C3_3  and  C4_4 
REMARK    3  A    between atoms: C8_10  and  N2_11 
REMARK       I    between atoms: N2_11  and  C9_13 
REMARK       I    between atoms: C9_13  and  N3_15 
REMARK    4  A    between atoms: N3_15  and  C10_17 
REMARK    5  A    between atoms: C10_17  and  C11_18 
REMARK    6  A    between atoms: C11_18  and  N4_19 
ROOT
HETATM    1  N2  UNL     1      20.214  11.864  -5.834  1.00  0.00    -0.289 N 
ATOM      2  H2  UNL     1      20.962  11.233  -6.119  1.00  0.00     0.172 HD
HETATM    3  C9  UNL     1      20.234  13.157  -6.348  1.00  0.00     0.322 C 
HETATM    4  O1  UNL     1      19.136  13.707  -6.592  1.00  0.00    -0.247 OA
HETATM    5  N3  UNL     1      21.495  13.799  -6.576  1.00  0.00    -0.332 N 
ATOM      6  H3  UNL     1      22.353  13.294  -6.353  1.00  0.00     0.165 HD
ENDROOT
BRANCH   1   7
HETATM    7  C8  UNL     1      19.312  11.399  -5.016  1.00  0.00     0.153 A 
HETATM    8  N1  UNL     1      18.302  11.959  -4.371  1.00  0.00    -0.339 N 
HETATM    9  C7  UNL     1      17.530  11.208  -3.601  1.00  0.00     0.024 A 
ATOM     10  H1  UNL     1      18.120  12.958  -4.467  1.00  0.00     0.168 HD
HETATM   11  C6  UNL     1      16.326  11.712  -2.795  1.00  0.00     0.058 C 
HETATM   12  C20 UNL     1      17.832   9.879  -3.519  1.00  0.00     0.009 A 
HETATM   13  C5  UNL     1      16.255  10.823  -1.588  1.00  0.00     0.011 C 
HETATM   14  C4  UNL     1      15.818   9.445  -2.160  1.00  0.00    -0.009 C 
HETATM   15  C21 UNL     1      17.076   8.867  -2.702  1.00  0.00     0.053 C 
HETATM   16  S1  UNL     1      19.194   9.751  -4.536  1.00  0.00    -0.056 SA
BRANCH  14  17
HETATM   17  C3  UNL     1      15.161   8.737  -1.047  1.00  0.00     0.004 C 
BRANCH  17  18
HETATM   18  C2  UNL     1      15.902   7.690  -0.320  1.00  0.00    -0.004 C 
HETATM   19  C1  UNL     1      16.452   8.131   0.994  1.00  0.00     0.005 C 
ENDBRANCH  17  18
ENDBRANCH  14  17
ENDBRANCH   1   7
BRANCH   5  20
HETATM   20  C10 UNL     1      21.587  15.111  -7.102  1.00  0.00     0.065 C 
HETATM   21  C16 UNL     1      20.911  15.240  -8.482  1.00  0.00     0.059 C 
HETATM   22  C17 UNL     1      19.964  16.403  -8.514  1.00  0.00     0.170 C 
HETATM   23  O3  UNL     1      20.560  17.578  -8.068  1.00  0.00    -0.391 OA
HETATM   24  C18 UNL     1      20.823  17.475  -6.716  1.00  0.00     0.170 C 
HETATM   25  C19 UNL     1      20.823  16.078  -6.184  1.00  0.00     0.059 C 
BRANCH  20  26
HETATM   26  C11 UNL     1      22.961  15.701  -7.224  1.00  0.00     0.303 C 
BRANCH  26  27
HETATM   27  N4  UNL     1      23.823  15.615  -6.109  1.00  0.00     0.095 N 
HETATM   28  C12 UNL     1      25.159  15.220  -6.618  1.00  0.00     0.298 C 
HETATM   29  C13 UNL     1      26.007  16.445  -6.862  1.00  0.00     0.198 C 
HETATM   30  O2  UNL     1      26.431  16.970  -5.632  1.00  0.00    -0.388 OA
HETATM   31  C14 UNL     1      25.435  16.763  -4.664  1.00  0.00     0.198 C 
HETATM   32  C15 UNL     1      24.056  16.795  -5.341  1.00  0.00     0.298 C 
ENDBRANCH  26  27
ENDBRANCH  20  26
ENDBRANCH   5  20
TORSDOF 6
ENDMDL
MODEL 5
REMARK VINA RESULT: -7.177698052      2.483      4.197
REMARK  6 active torsions:
REMARK  status: ('A' for Active; 'I' for Inactive)
REMARK    1  A    between atoms: C2_2  and  C3_3 
REMARK    2  A    between atoms: C3_3  and  C4_4 
REMARK    3  A    between atoms: C8_10  and  N2_11 
REMARK       I    between atoms: N2_11  and  C9_13 
REMARK       I    between atoms: C9_13  and  N3_15 
REMARK    4  A    between atoms: N3_15  and  C10_17 
REMARK    5  A    between atoms: C10_17  and  C11_18 
REMARK    6  A    between atoms: C11_18  and  N4_19 
ROOT
HETATM    1  N2  UNL     1      18.469  15.423  -6.261  1.00  0.00    -0.289 N 
ATOM      2  H2  UNL     1      18.053  15.687  -5.369  1.00  0.00     0.172 HD
HETATM    3  C9  UNL     1      17.606  15.048  -7.286  1.00  0.00     0.322 C 
HETATM    4  O1  UNL     1      17.925  15.350  -8.458  1.00  0.00    -0.247 OA
HETATM    5  N3  UNL     1      16.401  14.343  -6.962  1.00  0.00    -0.332 N 
ATOM      6  H3  UNL     1      16.203  14.127  -5.985  1.00  0.00     0.165 HD
ENDROOT
BRANCH   1   7
HETATM    7  C8  UNL     1      19.769  15.461  -6.354  1.00  0.00     0.153 A 
HETATM    8  N1  UNL     1      20.626  14.961  -7.228  1.00  0.00    -0.339 N 
HETATM    9  C7  UNL     1      21.921  15.182  -7.063  1.00  0.00     0.024 A 
ATOM     10  H1  UNL     1      20.294  14.412  -8.021  1.00  0.00     0.168 HD
HETATM   11  C6  UNL     1      23.032  14.671  -7.989  1.00  0.00     0.058 C 
HETATM   12  C20 UNL     1      22.296  15.925  -5.980  1.00  0.00     0.009 A 
HETATM   13  C5  UNL     1      24.228  14.475  -7.105  1.00  0.00     0.011 C 
HETATM   14  C4  UNL     1      24.651  15.919  -6.716  1.00  0.00    -0.009 C 
HETATM   15  C21 UNL     1      23.711  16.285  -5.623  1.00  0.00     0.053 C 
HETATM   16  S1  UNL     1      20.798  16.278  -5.244  1.00  0.00    -0.056 SA
BRANCH  14  17
HETATM   17  C3  UNL     1      26.087  15.845  -6.391  1.00  0.00     0.004 C 
BRANCH  17  18
HETATM   18  C2  UNL     1      26.769  17.039  -5.858  1.00  0.00    -0.004 C 
HETATM   19  C1  UNL     1      27.022  16.993  -4.389  1.00  0.00     0.005 C 
ENDBRANCH  17  18
ENDBRANCH  14  17
ENDBRANCH   1   7
BRANCH   5  20
HETATM   20  C10 UNL     1      15.477  13.937  -7.956  1.00  0.00     0.065 C 
HETATM   21  C16 UNL     1      16.064  12.872  -8.904  1.00  0.00     0.059 C 
HETATM   22  C17 UNL     1      15.143  11.694  -9.032  1.00  0.00     0.170 C 
HETATM   23  O3  UNL     1      13.844  12.075  -9.351  1.00  0.00    -0.391 OA
HETATM   24  C18 UNL     1      13.287  12.746  -8.280  1.00  0.00     0.170 C 
HETATM   25  C19 UNL     1      14.274  13.260  -7.282  1.00  0.00     0.059 C 
BRANCH  20  26
HETATM   26  C11 UNL     1      14.882  15.014  -8.813  1.00  0.00     0.303 C 
BRANCH  26  27
HETATM   27  N4  UNL     1      14.249  16.101  -8.172  1.00  0.00     0.095 N 
HETATM   28  C12 UNL     1      15.023  17.320  -8.511  1.00  0.00     0.298 C 
HETATM   29  C13 UNL     1      14.418  18.004  -9.714  1.00  0.00     0.198 C 
HETATM   30  O2  UNL     1      13.228  18.644  -9.336  1.00  0.00    -0.388 OA
HETATM   31  C14 UNL     1      12.592  17.899  -8.329  1.00  0.00     0.198 C 
HETATM   32  C15 UNL     1      12.902  16.408  -8.531  1.00  0.00     0.298 C 
ENDBRANCH  26  27
ENDBRANCH  20  26
ENDBRANCH   5  20
TORSDOF 6
ENDMDL
