MODEL 1
REMARK VINA RESULT: -8.313909841      0.000      0.000
REMARK  6 active torsions:
REMARK  status: ('A' for Active; 'I' for Inactive)
REMARK    1  A    between atoms: C2_2  and  N1_3 
REMARK       I    between atoms: N1_3  and  C4_5 
REMARK       I    between atoms: C4_5  and  N2_7 
REMARK    2  A    between atoms: N2_7  and  C5_9 
REMARK    3  A    between atoms: C5_9  and  C6_10 
REMARK    4  A    between atoms: C9_13  and  C10_14 
REMARK       I    between atoms: C10_14  and  N3_16 
REMARK    5  A    between atoms: N3_16  and  C11_18 
REMARK    6  A    between atoms: C12_23  and  C13_24 
ROOT
HETATM    1  C10 UNL     1      20.491  14.235  -6.349  1.00  0.00     0.227 C 
HETATM    2  O2  UNL     1      20.852  14.738  -5.268  1.00  0.00    -0.273 OA
HETATM    3  N3  UNL     1      20.503  12.834  -6.576  1.00  0.00    -0.306 N 
ATOM      4  H3  UNL     1      21.046  12.442  -7.346  1.00  0.00     0.171 HD
ENDROOT
BRANCH   1   5
HETATM    5  C9  UNL     1      20.034  15.161  -7.434  1.00  0.00     0.078 C 
HETATM    6  C8  UNL     1      18.658  15.665  -7.153  1.00  0.00     0.014 C 
HETATM    7  C7  UNL     1      18.405  17.083  -7.612  1.00  0.00     0.007 C 
HETATM    8  C6  UNL     1      19.313  17.553  -8.699  1.00  0.00     0.003 C 
HETATM    9  C20 UNL     1      20.761  17.247  -8.521  1.00  0.00     0.007 C 
HETATM   10  C19 UNL     1      21.067  16.283  -7.453  1.00  0.00     0.014 C 
BRANCH   8  11
HETATM   11  C5  UNL     1      19.196  19.037  -8.867  1.00  0.00     0.129 C 
BRANCH  11  12
HETATM   12  N2  UNL     1      20.249  19.641  -9.626  1.00  0.00    -0.343 N 
HETATM   13  C4  UNL     1      20.914  20.738  -9.036  1.00  0.00     0.317 C 
HETATM   14  N1  UNL     1      21.974  21.413  -9.644  1.00  0.00    -0.339 N 
HETATM   15  O1  UNL     1      20.536  21.125  -7.891  1.00  0.00    -0.247 OA
HETATM   16  C3  UNL     1      22.633  22.534  -8.925  1.00  0.00     0.154 C 
ATOM     17  H2  UNL     1      20.506  19.296 -10.551  1.00  0.00     0.164 HD
BRANCH  14  18
HETATM   18  C2  UNL     1      22.497  21.102 -10.952  1.00  0.00     0.122 C 
HETATM   19  C1  UNL     1      23.969  20.784 -10.927  1.00  0.00     0.026 C 
ENDBRANCH  14  18
ENDBRANCH  11  12
ENDBRANCH   8  11
ENDBRANCH   1   5
BRANCH   3  20
HETATM   20  C11 UNL     1      19.810  12.047  -5.792  1.00  0.00     0.167 A 
HETATM   21  N4  UNL     1      20.040  10.775  -5.455  1.00  0.00    -0.279 N 
HETATM   22  N5  UNL     1      19.229  10.202  -4.666  1.00  0.00    -0.295 N 
ATOM     23  H4  UNL     1      20.849  10.277  -5.824  1.00  0.00     0.189 HD
HETATM   24  C12 UNL     1      18.190  10.818  -4.181  1.00  0.00     0.078 A 
ATOM     25  H5  UNL     1      19.395   9.230  -4.404  1.00  0.00     0.187 HD
HETATM   26  S1  UNL     1      18.367  12.378  -4.917  1.00  0.00    -0.037 SA
BRANCH  24  27
HETATM   27  C13 UNL     1      17.108  10.339  -3.240  1.00  0.00     0.011 C 
HETATM   28  C14 UNL     1      15.958   9.959  -4.189  1.00  0.00     0.022 C 
HETATM   29  C15 UNL     1      16.731  11.483  -2.375  1.00  0.00     0.042 C 
HETATM   30  C16 UNL     1      16.385  11.131  -0.950  1.00  0.00     0.168 C 
HETATM   31  O3  UNL     1      17.124  10.078  -0.448  1.00  0.00    -0.391 OA
HETATM   32  C17 UNL     1      16.779   8.967  -1.240  1.00  0.00     0.168 C 
HETATM   33  C18 UNL     1      17.554   9.109  -2.537  1.00  0.00     0.042 C 
ENDBRANCH  24  27
ENDBRANCH   3  20
TORSDOF 6
ENDMDL
MODEL 2
REMARK VINA RESULT: -7.914250695      3.823     11.889
REMARK  6 active torsions:
REMARK  status: ('A' for Active; 'I' for Inactive)
REMARK    1  A    between atoms: C2_2  and  N1_3 
REMARK       I    between atoms: N1_3  and  C4_5 
REMARK       I    between atoms: C4_5  and  N2_7 
REMARK    2  A    between atoms: N2_7  and  C5_9 
REMARK    3  A    between atoms: C5_9  and  C6_10 
REMARK    4  A    between atoms: C9_13  and  C10_14 
REMARK       I    between atoms: C10_14  and  N3_16 
REMARK    5  A    between atoms: N3_16  and  C11_18 
REMARK    6  A    between atoms: C12_23  and  C13_24 
ROOT
HETATM    1  C10 UNL     1      17.722  11.543  -4.136  1.00  0.00     0.227 C 
HETATM    2  O2  UNL     1      17.988  12.167  -3.091  1.00  0.00    -0.273 OA
HETATM    3  N3  UNL     1      17.753  12.156  -5.416  1.00  0.00    -0.306 N 
ATOM      4  H3  UNL     1      16.919  12.162  -6.003  1.00  0.00     0.171 HD
ENDROOT
BRANCH   1   5
HETATM    5  C9  UNL     1      17.358  10.095  -4.013  1.00  0.00     0.078 C 
HETATM    6  C8  UNL     1      17.843   9.537  -2.717  1.00  0.00     0.014 C 
HETATM    7  C7  UNL     1      16.942   8.484  -2.113  1.00  0.00     0.007 C 
HETATM    8  C6  UNL     1      16.051   7.796  -3.093  1.00  0.00     0.003 C 
HETATM    9  C20 UNL     1      15.347   8.677  -4.068  1.00  0.00     0.007 C 
HETATM   10  C19 UNL     1      15.837  10.062  -4.124  1.00  0.00     0.014 C 
BRANCH   8  11
HETATM   11  C5  UNL     1      14.998   7.010  -2.374  1.00  0.00     0.129 C 
BRANCH  11  12
HETATM   12  N2  UNL     1      14.918   7.260  -0.965  1.00  0.00    -0.343 N 
HETATM   13  C4  UNL     1      15.208   6.177  -0.108  1.00  0.00     0.317 C 
HETATM   14  N1  UNL     1      15.194   6.273   1.286  1.00  0.00    -0.339 N 
HETATM   15  O1  UNL     1      15.505   5.060  -0.627  1.00  0.00    -0.247 OA
HETATM   16  C3  UNL     1      15.549   5.085   2.102  1.00  0.00     0.154 C 
ATOM     17  H2  UNL     1      14.662   8.177  -0.600  1.00  0.00     0.164 HD
BRANCH  14  18
HETATM   18  C2  UNL     1      14.853   7.469   2.017  1.00  0.00     0.122 C 
HETATM   19  C1  UNL     1      16.039   8.372   2.237  1.00  0.00     0.026 C 
ENDBRANCH  14  18
ENDBRANCH  11  12
ENDBRANCH   8  11
ENDBRANCH   1   5
BRANCH   3  20
HETATM   20  C11 UNL     1      18.860  12.715  -5.838  1.00  0.00     0.167 A 
HETATM   21  N4  UNL     1      19.940  12.146  -6.378  1.00  0.00    -0.279 N 
HETATM   22  N5  UNL     1      20.908  12.890  -6.724  1.00  0.00    -0.295 N 
ATOM     23  H4  UNL     1      19.986  11.136  -6.510  1.00  0.00     0.189 HD
HETATM   24  C12 UNL     1      20.872  14.181  -6.567  1.00  0.00     0.078 A 
ATOM     25  H5  UNL     1      21.738  12.464  -7.136  1.00  0.00     0.187 HD
HETATM   26  S1  UNL     1      19.305  14.376  -5.849  1.00  0.00    -0.037 SA
BRANCH  24  27
HETATM   27  C13 UNL     1      21.892  15.246  -6.899  1.00  0.00     0.011 C 
HETATM   28  C14 UNL     1      21.085  16.264  -7.723  1.00  0.00     0.022 C 
HETATM   29  C15 UNL     1      22.948  14.610  -7.721  1.00  0.00     0.042 C 
HETATM   30  C16 UNL     1      24.350  15.112  -7.478  1.00  0.00     0.168 C 
HETATM   31  O3  UNL     1      24.590  15.458  -6.164  1.00  0.00    -0.391 OA
HETATM   32  C17 UNL     1      23.717  16.529  -5.892  1.00  0.00     0.168 C 
HETATM   33  C18 UNL     1      22.349  15.917  -5.655  1.00  0.00     0.042 C 
ENDBRANCH  24  27
ENDBRANCH   3  20
TORSDOF 6
ENDMDL
MODEL 3
REMARK VINA RESULT: -7.852835171      3.625     11.047
REMARK  6 active torsions:
REMARK  status: ('A' for Active; 'I' for Inactive)
REMARK    1  A    between atoms: C2_2  and  N1_3 
REMARK       I    between atoms: N1_3  and  C4_5 
REMARK       I    between atoms: C4_5  and  N2_7 
REMARK    2  A    between atoms: N2_7  and  C5_9 
REMARK    3  A    between atoms: C5_9  and  C6_10 
REMARK    4  A    between atoms: C9_13  and  C10_14 
REMARK       I    between atoms: C10_14  and  N3_16 
REMARK    5  A    between atoms: N3_16  and  C11_18 
REMARK    6  A    between atoms: C12_23  and  C13_24 
ROOT
HETATM    1  C10 UNL     1      17.125  12.920  -4.956  1.00  0.00     0.227 C 
HETATM    2  O2  UNL     1      16.618  14.051  -4.830  1.00  0.00    -0.273 OA
HETATM    3  N3  UNL     1      17.725  12.488  -6.168  1.00  0.00    -0.306 N 
ATOM      4  H3  UNL     1      17.384  11.651  -6.641  1.00  0.00     0.171 HD
ENDROOT
BRANCH   1   5
HETATM    5  C9  UNL     1      17.087  12.000  -3.775  1.00  0.00     0.078 C 
HETATM    6  C8  UNL     1      15.680  11.685  -3.395  1.00  0.00     0.014 C 
HETATM    7  C7  UNL     1      15.474  10.286  -2.860  1.00  0.00     0.007 C 
HETATM    8  C6  UNL     1      16.703   9.651  -2.301  1.00  0.00     0.003 C 
HETATM    9  C20 UNL     1      17.941   9.786  -3.120  1.00  0.00     0.007 C 
HETATM   10  C19 UNL     1      17.858  10.761  -4.218  1.00  0.00     0.014 C 
BRANCH   8  11
HETATM   11  C5  UNL     1      16.478   8.186  -2.086  1.00  0.00     0.129 C 
BRANCH  11  12
HETATM   12  N2  UNL     1      16.252   7.430  -3.282  1.00  0.00    -0.343 N 
HETATM   13  C4  UNL     1      15.152   6.545  -3.279  1.00  0.00     0.317 C 
HETATM   14  N1  UNL     1      14.792   5.761  -4.377  1.00  0.00    -0.339 N 
HETATM   15  O1  UNL     1      14.448   6.463  -2.229  1.00  0.00    -0.247 OA
HETATM   16  C3  UNL     1      13.595   4.887  -4.288  1.00  0.00     0.154 C 
ATOM     17  H2  UNL     1      16.857   7.527  -4.097  1.00  0.00     0.164 HD
BRANCH  14  18
HETATM   18  C2  UNL     1      15.510   5.731  -5.629  1.00  0.00     0.122 C 
HETATM   19  C1  UNL     1      14.634   5.336  -6.789  1.00  0.00     0.026 C 
ENDBRANCH  14  18
ENDBRANCH  11  12
ENDBRANCH   8  11
ENDBRANCH   1   5
BRANCH   3  20
HETATM   20  C11 UNL     1      18.722  13.171  -6.674  1.00  0.00     0.167 A 
HETATM   21  N4  UNL     1      19.025  13.399  -7.954  1.00  0.00    -0.279 N 
HETATM   22  N5  UNL     1      20.048  14.101  -8.218  1.00  0.00    -0.295 N 
ATOM     23  H4  UNL     1      18.447  13.017  -8.702  1.00  0.00     0.189 HD
HETATM   24  C12 UNL     1      20.800  14.601  -7.281  1.00  0.00     0.078 A 
ATOM     25  H5  UNL     1      20.288  14.280  -9.193  1.00  0.00     0.187 HD
HETATM   26  S1  UNL     1      19.983  14.016  -5.867  1.00  0.00    -0.037 SA
BRANCH  24  27
HETATM   27  C13 UNL     1      22.046  15.452  -7.362  1.00  0.00     0.011 C 
HETATM   28  C14 UNL     1      21.602  16.648  -8.221  1.00  0.00     0.022 C 
HETATM   29  C15 UNL     1      23.087  14.653  -8.053  1.00  0.00     0.042 C 
HETATM   30  C16 UNL     1      24.496  14.851  -7.551  1.00  0.00     0.168 C 
HETATM   31  O3  UNL     1      24.568  15.081  -6.192  1.00  0.00    -0.391 OA
HETATM   32  C17 UNL     1      23.883  16.293  -5.980  1.00  0.00     0.168 C 
HETATM   33  C18 UNL     1      22.403  15.959  -6.012  1.00  0.00     0.042 C 
ENDBRANCH  24  27
ENDBRANCH   3  20
TORSDOF 6
ENDMDL
MODEL 4
REMARK VINA RESULT: -7.814125009      3.922      5.238
REMARK  6 active torsions:
REMARK  status: ('A' for Active; 'I' for Inactive)
REMARK    1  A    between atoms: C2_2  and  N1_3 
REMARK       I    between atoms: N1_3  and  C4_5 
REMARK       I    between atoms: C4_5  and  N2_7 
REMARK    2  A    between atoms: N2_7  and  C5_9 
REMARK    3  A    between atoms: C5_9  and  C6_10 
REMARK    4  A    between atoms: C9_13  and  C10_14 
REMARK       I    between atoms: C10_14  and  N3_16 
REMARK    5  A    between atoms: N3_16  and  C11_18 
REMARK    6  A    between atoms: C12_23  and  C13_24 
ROOT
HETATM    1  C10 UNL     1      17.425  12.480  -5.155  1.00  0.00     0.227 C 
HETATM    2  O2  UNL     1      16.844  12.409  -6.255  1.00  0.00    -0.273 OA
HETATM    3  N3  UNL     1      16.916  11.852  -3.987  1.00  0.00    -0.306 N 
ATOM      4  H3  UNL     1      16.708  12.406  -3.156  1.00  0.00     0.171 HD
ENDROOT
BRANCH   1   5
HETATM    5  C9  UNL     1      18.701  13.260  -5.085  1.00  0.00     0.078 C 
HETATM    6  C8  UNL     1      19.758  12.619  -5.921  1.00  0.00     0.014 C 
HETATM    7  C7  UNL     1      20.710  13.592  -6.581  1.00  0.00     0.007 C 
HETATM    8  C6  UNL     1      20.799  14.921  -5.910  1.00  0.00     0.003 C 
HETATM    9  C20 UNL     1      19.504  15.547  -5.519  1.00  0.00     0.007 C 
HETATM   10  C19 UNL     1      18.336  14.654  -5.584  1.00  0.00     0.014 C 
BRANCH   8  11
HETATM   11  C5  UNL     1      21.509  15.900  -6.792  1.00  0.00     0.129 C 
BRANCH  11  12
HETATM   12  N2  UNL     1      22.937  15.894  -6.673  1.00  0.00    -0.343 N 
HETATM   13  C4  UNL     1      23.488  16.578  -5.567  1.00  0.00     0.317 C 
HETATM   14  N1  UNL     1      24.858  16.639  -5.305  1.00  0.00    -0.339 N 
HETATM   15  O1  UNL     1      22.698  17.161  -4.766  1.00  0.00    -0.247 OA
HETATM   16  C3  UNL     1      25.337  17.354  -4.095  1.00  0.00     0.154 C 
ATOM     17  H2  UNL     1      23.527  15.418  -7.354  1.00  0.00     0.164 HD
BRANCH  14  18
HETATM   18  C2  UNL     1      25.875  16.046  -6.139  1.00  0.00     0.122 C 
HETATM   19  C1  UNL     1      27.025  16.983  -6.404  1.00  0.00     0.026 C 
ENDBRANCH  14  18
ENDBRANCH  11  12
ENDBRANCH   8  11
ENDBRANCH   1   5
BRANCH   3  20
HETATM   20  C11 UNL     1      16.718  10.558  -3.984  1.00  0.00     0.167 A 
HETATM   21  N4  UNL     1      17.554   9.577  -3.637  1.00  0.00    -0.279 N 
HETATM   22  N5  UNL     1      17.143   8.378  -3.707  1.00  0.00    -0.295 N 
ATOM     23  H4  UNL     1      18.501   9.785  -3.323  1.00  0.00     0.189 HD
HETATM   24  C12 UNL     1      15.938   8.087  -4.103  1.00  0.00     0.078 A 
ATOM     25  H5  UNL     1      17.775   7.622  -3.446  1.00  0.00     0.187 HD
HETATM   26  S1  UNL     1      15.309   9.672  -4.418  1.00  0.00    -0.037 SA
BRANCH  24  27
HETATM   27  C13 UNL     1      15.246   6.752  -4.263  1.00  0.00     0.011 C 
HETATM   28  C14 UNL     1      15.734   5.953  -3.042  1.00  0.00     0.022 C 
HETATM   29  C15 UNL     1      15.731   6.148  -5.527  1.00  0.00     0.042 C 
HETATM   30  C16 UNL     1      14.704   5.361  -6.304  1.00  0.00     0.168 C 
HETATM   31  O3  UNL     1      13.429   5.880  -6.212  1.00  0.00    -0.391 OA
HETATM   32  C17 UNL     1      13.079   5.778  -4.852  1.00  0.00     0.168 C 
HETATM   33  C18 UNL     1      13.776   6.926  -4.144  1.00  0.00     0.042 C 
ENDBRANCH  24  27
ENDBRANCH   3  20
TORSDOF 6
ENDMDL
MODEL 5
REMARK VINA RESULT: -7.733754687      5.671      8.970
REMARK  6 active torsions:
REMARK  status: ('A' for Active; 'I' for Inactive)
REMARK    1  A    between atoms: C2_2  and  N1_3 
REMARK       I    between atoms: N1_3  and  C4_5 
REMARK       I    between atoms: C4_5  and  N2_7 
REMARK    2  A    between atoms: N2_7  and  C5_9 
REMARK    3  A    between atoms: C5_9  and  C6_10 
REMARK    4  A    between atoms: C9_13  and  C10_14 
REMARK       I    between atoms: C10_14  and  N3_16 
REMARK    5  A    between atoms: N3_16  and  C11_18 
REMARK    6  A    between atoms: C12_23  and  C13_24 
ROOT
HETATM    1  C10 UNL     1      16.590  17.652  -8.425  1.00  0.00     0.227 C 
HETATM    2  O2  UNL     1      16.600  18.384  -7.417  1.00  0.00    -0.273 OA
HETATM    3  N3  UNL     1      17.687  17.580  -9.323  1.00  0.00    -0.306 N 
ATOM      4  H3  UNL     1      17.559  17.804 -10.310  1.00  0.00     0.171 HD
ENDROOT
BRANCH   1   5
HETATM    5  C9  UNL     1      15.365  16.827  -8.679  1.00  0.00     0.078 C 
HETATM    6  C8  UNL     1      14.891  17.004 -10.083  1.00  0.00     0.014 C 
HETATM    7  C7  UNL     1      14.278  15.766 -10.697  1.00  0.00     0.007 C 
HETATM    8  C6  UNL     1      13.761  14.776  -9.708  1.00  0.00     0.003 C 
HETATM    9  C20 UNL     1      14.655  14.473  -8.555  1.00  0.00     0.007 C 
HETATM   10  C19 UNL     1      15.792  15.392  -8.390  1.00  0.00     0.014 C 
BRANCH   8  11
HETATM   11  C5  UNL     1      13.464  13.474 -10.385  1.00  0.00     0.129 C 
BRANCH  11  12
HETATM   12  N2  UNL     1      14.112  13.291 -11.649  1.00  0.00    -0.343 N 
HETATM   13  C4  UNL     1      13.290  12.948 -12.745  1.00  0.00     0.317 C 
HETATM   14  N1  UNL     1      13.774  12.760 -14.041  1.00  0.00    -0.339 N 
HETATM   15  O1  UNL     1      12.047  12.811 -12.544  1.00  0.00    -0.247 OA
HETATM   16  C3  UNL     1      12.823  12.436 -15.135  1.00  0.00     0.154 C 
ATOM     17  H2  UNL     1      15.121  13.403 -11.752  1.00  0.00     0.164 HD
BRANCH  14  18
HETATM   18  C2  UNL     1      15.164  12.860 -14.415  1.00  0.00     0.122 C 
HETATM   19  C1  UNL     1      15.502  12.019 -15.619  1.00  0.00     0.026 C 
ENDBRANCH  14  18
ENDBRANCH  11  12
ENDBRANCH   8  11
ENDBRANCH   1   5
BRANCH   3  20
HETATM   20  C11 UNL     1      18.865  17.225  -8.876  1.00  0.00     0.167 A 
HETATM   21  N4  UNL     1      20.056  17.789  -9.091  1.00  0.00    -0.279 N 
HETATM   22  N5  UNL     1      21.078  17.272  -8.546  1.00  0.00    -0.295 N 
ATOM     23  H4  UNL     1      20.141  18.616  -9.680  1.00  0.00     0.189 HD
HETATM   24  C12 UNL     1      20.995  16.218  -7.789  1.00  0.00     0.078 A 
ATOM     25  H5  UNL     1      21.992  17.695  -8.706  1.00  0.00     0.187 HD
HETATM   26  S1  UNL     1      19.289  15.911  -7.850  1.00  0.00    -0.037 SA
BRANCH  24  27
HETATM   27  C13 UNL     1      22.063  15.444  -7.050  1.00  0.00     0.011 C 
HETATM   28  C14 UNL     1      21.297  14.234  -6.487  1.00  0.00     0.022 C 
HETATM   29  C15 UNL     1      22.568  16.312  -5.960  1.00  0.00     0.042 C 
HETATM   30  C16 UNL     1      24.043  16.193  -5.667  1.00  0.00     0.168 C 
HETATM   31  O3  UNL     1      24.809  15.950  -6.790  1.00  0.00    -0.391 OA
HETATM   32  C17 UNL     1      24.383  14.697  -7.270  1.00  0.00     0.168 C 
HETATM   33  C18 UNL     1      23.080  14.941  -8.009  1.00  0.00     0.042 C 
ENDBRANCH  24  27
ENDBRANCH   3  20
TORSDOF 6
ENDMDL
