MODEL 1
REMARK VINA RESULT: -6.398929105      0.000      0.000
REMARK  7 active torsions:
REMARK  status: ('A' for Active; 'I' for Inactive)
REMARK    1  A    between atoms: C2_2  and  N1_3 
REMARK    2  A    between atoms: N1_3  and  C3_4 
REMARK    3  A    between atoms: N1_3  and  C5_6 
REMARK    4  A    between atoms: C5_6  and  C6_8 
REMARK    5  A    between atoms: C14_17  and  C15_18 
REMARK       I    between atoms: C15_18  and  N2_20 
REMARK    6  A    between atoms: N2_20  and  C16_22 
REMARK    7  A    between atoms: C23_30  and  O3_31 
ROOT
HETATM    1  C16 UNL     1      25.002  16.403  -5.276  1.00  0.00     0.188 C 
HETATM    2  C17 UNL     1      24.874  17.441  -4.186  1.00  0.00     0.048 C 
HETATM    3  C18 UNL     1      26.159  16.794  -6.117  1.00  0.00     0.084 C 
HETATM    4  N3  UNL     1      27.070  17.084  -6.775  1.00  0.00    -0.195 NA
ENDROOT
BRANCH   1   5
HETATM    5  N2  UNL     1      23.836  16.354  -6.136  1.00  0.00    -0.344 N 
HETATM    6  C15 UNL     1      23.414  15.183  -6.804  1.00  0.00     0.223 C 
HETATM    7  O2  UNL     1      24.099  14.141  -6.633  1.00  0.00    -0.273 OA
ATOM      8  H2  UNL     1      23.292  17.208  -6.265  1.00  0.00     0.163 HD
BRANCH   6   9
HETATM    9  C14 UNL     1      22.234  15.189  -7.652  1.00  0.00     0.086 C 
HETATM   10  C13 UNL     1      21.983  16.469  -8.372  1.00  0.00     0.015 C 
HETATM   11  C12 UNL     1      20.505  16.479  -8.656  1.00  0.00     0.007 C 
HETATM   12  C11 UNL     1      19.940  15.223  -8.033  1.00  0.00     0.001 C 
HETATM   13  C10 UNL     1      18.512  15.331  -7.654  1.00  0.00     0.026 C 
HETATM   14  C19 UNL     1      20.922  14.912  -6.963  1.00  0.00    -0.028 C 
HETATM   15  C9  UNL     1      17.717  14.088  -8.020  1.00  0.00     0.015 C 
HETATM   16  C23 UNL     1      18.214  15.788  -6.257  1.00  0.00     0.078 C 
HETATM   17  C8  UNL     1      16.271  14.515  -8.236  1.00  0.00     0.080 C 
HETATM   18  C7  UNL     1      15.961  15.400  -7.075  1.00  0.00     0.140 C 
HETATM   19  C6  UNL     1      16.852  15.252  -5.898  1.00  0.00     0.151 C 
HETATM   20  O1  UNL     1      15.039  16.161  -7.142  1.00  0.00    -0.297 OA
HETATM   21  C22 UNL     1      19.261  15.405  -5.268  1.00  0.00     0.040 C 
HETATM   22  C21 UNL     1      20.623  15.792  -5.794  1.00  0.00     0.013 C 
HETATM   23  C20 UNL     1      20.948  13.443  -6.587  1.00  0.00     0.016 C 
BRANCH  19  24
HETATM   24  C5  UNL     1      16.229  15.866  -4.694  1.00  0.00     0.090 C 
HETATM   25  S1  UNL     1      16.556  17.423  -4.373  1.00  0.00    -0.065 SA
BRANCH  24  26
HETATM   26  N1  UNL     1      15.388  15.135  -3.869  1.00  0.00    -0.375 N 
BRANCH  26  27
HETATM   27  C2  UNL     1      14.497  15.829  -2.900  1.00  0.00     0.119 C 
HETATM   28  C1  UNL     1      14.419  15.039  -1.611  1.00  0.00     0.026 C 
ENDBRANCH  26  27
BRANCH  26  29
HETATM   29  C3  UNL     1      15.248  13.726  -3.816  1.00  0.00     0.119 C 
HETATM   30  C4  UNL     1      14.291  13.016  -4.684  1.00  0.00     0.026 C 
ENDBRANCH  26  29
ENDBRANCH  24  26
ENDBRANCH  19  24
BRANCH  16  31
HETATM   31  O3  UNL     1      18.121  17.185  -6.307  1.00  0.00    -0.388 OA
ATOM     32  H3  UNL     1      18.918  17.512  -6.706  1.00  0.00     0.210 HD
ENDBRANCH  16  31
ENDBRANCH   6   9
ENDBRANCH   1   5
TORSDOF 7
ENDMDL
MODEL 2
REMARK VINA RESULT: -6.245198523      2.921      4.093
REMARK  7 active torsions:
REMARK  status: ('A' for Active; 'I' for Inactive)
REMARK    1  A    between atoms: C2_2  and  N1_3 
REMARK    2  A    between atoms: N1_3  and  C3_4 
REMARK    3  A    between atoms: N1_3  and  C5_6 
REMARK    4  A    between atoms: C5_6  and  C6_8 
REMARK    5  A    between atoms: C14_17  and  C15_18 
REMARK       I    between atoms: C15_18  and  N2_20 
REMARK    6  A    between atoms: N2_20  and  C16_22 
REMARK    7  A    between atoms: C23_30  and  O3_31 
ROOT
HETATM    1  C16 UNL     1      23.746  15.455  -6.760  1.00  0.00     0.188 C 
HETATM    2  C17 UNL     1      24.615  14.227  -6.891  1.00  0.00     0.048 C 
HETATM    3  C18 UNL     1      24.279  16.247  -5.625  1.00  0.00     0.084 C 
HETATM    4  N3  UNL     1      24.695  16.880  -4.746  1.00  0.00    -0.195 NA
ENDROOT
BRANCH   1   5
HETATM    5  N2  UNL     1      22.367  15.131  -6.455  1.00  0.00    -0.344 N 
HETATM    6  C15 UNL     1      21.455  14.640  -7.416  1.00  0.00     0.223 C 
HETATM    7  O2  UNL     1      21.879  14.484  -8.589  1.00  0.00    -0.273 OA
ATOM      8  H2  UNL     1      22.037  15.265  -5.499  1.00  0.00     0.163 HD
BRANCH   6   9
HETATM    9  C14 UNL     1      20.082  14.327  -7.053  1.00  0.00     0.086 C 
HETATM   10  C13 UNL     1      19.285  13.663  -8.122  1.00  0.00     0.015 C 
HETATM   11  C12 UNL     1      17.850  13.984  -7.801  1.00  0.00     0.007 C 
HETATM   12  C11 UNL     1      17.872  14.878  -6.582  1.00  0.00     0.001 C 
HETATM   13  C10 UNL     1      16.701  15.778  -6.477  1.00  0.00     0.026 C 
HETATM   14  C19 UNL     1      19.221  15.497  -6.650  1.00  0.00    -0.028 C 
HETATM   15  C9  UNL     1      16.152  15.857  -5.061  1.00  0.00     0.015 C 
HETATM   16  C23 UNL     1      16.832  17.137  -7.097  1.00  0.00     0.078 C 
HETATM   17  C8  UNL     1      14.671  16.193  -5.162  1.00  0.00     0.080 C 
HETATM   18  C7  UNL     1      14.601  17.307  -6.153  1.00  0.00     0.140 C 
HETATM   19  C6  UNL     1      15.867  18.046  -6.379  1.00  0.00     0.151 C 
HETATM   20  O1  UNL     1      13.564  17.545  -6.701  1.00  0.00    -0.297 OA
HETATM   21  C22 UNL     1      18.226  17.663  -7.094  1.00  0.00     0.040 C 
HETATM   22  C21 UNL     1      19.167  16.614  -7.640  1.00  0.00     0.013 C 
HETATM   23  C20 UNL     1      19.736  15.951  -5.298  1.00  0.00     0.016 C 
BRANCH  19  24
HETATM   24  C5  UNL     1      15.598  19.344  -7.056  1.00  0.00     0.090 C 
HETATM   25  S1  UNL     1      15.002  19.310  -8.565  1.00  0.00    -0.065 SA
BRANCH  24  26
HETATM   26  N1  UNL     1      15.843  20.550  -6.417  1.00  0.00    -0.375 N 
BRANCH  26  27
HETATM   27  C2  UNL     1      15.147  20.879  -5.143  1.00  0.00     0.119 C 
HETATM   28  C1  UNL     1      16.133  20.855  -3.994  1.00  0.00     0.026 C 
ENDBRANCH  26  27
BRANCH  26  29
HETATM   29  C3  UNL     1      16.721  21.580  -6.833  1.00  0.00     0.119 C 
HETATM   30  C4  UNL     1      18.110  21.292  -7.235  1.00  0.00     0.026 C 
ENDBRANCH  26  29
ENDBRANCH  24  26
ENDBRANCH  19  24
BRANCH  16  31
HETATM   31  O3  UNL     1      16.392  17.015  -8.422  1.00  0.00    -0.388 OA
ATOM     32  H3  UNL     1      16.763  16.215  -8.775  1.00  0.00     0.210 HD
ENDBRANCH  16  31
ENDBRANCH   6   9
ENDBRANCH   1   5
TORSDOF 7
ENDMDL
MODEL 3
REMARK VINA RESULT: -6.200296797      2.994      3.864
REMARK  7 active torsions:
REMARK  status: ('A' for Active; 'I' for Inactive)
REMARK    1  A    between atoms: C2_2  and  N1_3 
REMARK    2  A    between atoms: N1_3  and  C3_4 
REMARK    3  A    between atoms: N1_3  and  C5_6 
REMARK    4  A    between atoms: C5_6  and  C6_8 
REMARK    5  A    between atoms: C14_17  and  C15_18 
REMARK       I    between atoms: C15_18  and  N2_20 
REMARK    6  A    between atoms: N2_20  and  C16_22 
REMARK    7  A    between atoms: C23_30  and  O3_31 
ROOT
HETATM    1  C16 UNL     1      26.332  16.213  -5.946  1.00  0.00     0.188 C 
HETATM    2  C17 UNL     1      26.079  17.046  -4.713  1.00  0.00     0.048 C 
HETATM    3  C18 UNL     1      26.859  17.126  -6.989  1.00  0.00     0.084 C 
HETATM    4  N3  UNL     1      27.283  17.830  -7.809  1.00  0.00    -0.195 NA
ENDROOT
BRANCH   1   5
HETATM    5  N2  UNL     1      25.121  15.610  -6.468  1.00  0.00    -0.344 N 
HETATM    6  C15 UNL     1      23.836  15.869  -5.941  1.00  0.00     0.223 C 
HETATM    7  O2  UNL     1      23.759  16.664  -4.969  1.00  0.00    -0.273 OA
ATOM      8  H2  UNL     1      25.201  14.966  -7.256  1.00  0.00     0.163 HD
BRANCH   6   9
HETATM    9  C14 UNL     1      22.654  15.239  -6.506  1.00  0.00     0.086 C 
HETATM   10  C13 UNL     1      22.793  14.799  -7.922  1.00  0.00     0.015 C 
HETATM   11  C12 UNL     1      21.389  14.767  -8.465  1.00  0.00     0.007 C 
HETATM   12  C11 UNL     1      20.488  15.250  -7.351  1.00  0.00     0.001 C 
HETATM   13  C10 UNL     1      19.230  15.870  -7.825  1.00  0.00     0.026 C 
HETATM   14  C19 UNL     1      21.401  16.076  -6.520  1.00  0.00    -0.028 C 
HETATM   15  C9  UNL     1      18.022  15.432  -7.011  1.00  0.00     0.015 C 
HETATM   16  C23 UNL     1      19.244  17.354  -8.041  1.00  0.00     0.078 C 
HETATM   17  C8  UNL     1      16.800  15.532  -7.913  1.00  0.00     0.080 C 
HETATM   18  C7  UNL     1      16.928  16.862  -8.578  1.00  0.00     0.140 C 
HETATM   19  C6  UNL     1      17.822  17.835  -7.904  1.00  0.00     0.151 C 
HETATM   20  O1  UNL     1      16.324  17.077  -9.590  1.00  0.00    -0.297 OA
HETATM   21  C22 UNL     1      20.184  18.079  -7.141  1.00  0.00     0.040 C 
HETATM   22  C21 UNL     1      21.539  17.411  -7.176  1.00  0.00     0.013 C 
HETATM   23  C20 UNL     1      20.954  16.187  -5.076  1.00  0.00     0.016 C 
BRANCH  19  24
HETATM   24  C5  UNL     1      17.569  19.211  -8.410  1.00  0.00     0.090 C 
HETATM   25  S1  UNL     1      18.708  19.910  -9.331  1.00  0.00    -0.065 SA
BRANCH  24  26
HETATM   26  N1  UNL     1      16.392  19.880  -8.111  1.00  0.00    -0.375 N 
BRANCH  26  27
HETATM   27  C2  UNL     1      15.856  19.872  -6.722  1.00  0.00     0.119 C 
HETATM   28  C1  UNL     1      16.720  20.738  -5.829  1.00  0.00     0.026 C 
ENDBRANCH  26  27
BRANCH  26  29
HETATM   29  C3  UNL     1      15.574  20.621  -8.999  1.00  0.00     0.119 C 
HETATM   30  C4  UNL     1      14.453  19.990  -9.719  1.00  0.00     0.026 C 
ENDBRANCH  26  29
ENDBRANCH  24  26
ENDBRANCH  19  24
BRANCH  16  31
HETATM   31  O3  UNL     1      19.635  17.559  -9.371  1.00  0.00    -0.388 OA
ATOM     32  H3  UNL     1      20.328  18.208  -9.370  1.00  0.00     0.210 HD
ENDBRANCH  16  31
ENDBRANCH   6   9
ENDBRANCH   1   5
TORSDOF 7
ENDMDL
MODEL 4
REMARK VINA RESULT: -6.181845977      1.884      2.254
REMARK  7 active torsions:
REMARK  status: ('A' for Active; 'I' for Inactive)
REMARK    1  A    between atoms: C2_2  and  N1_3 
REMARK    2  A    between atoms: N1_3  and  C3_4 
REMARK    3  A    between atoms: N1_3  and  C5_6 
REMARK    4  A    between atoms: C5_6  and  C6_8 
REMARK    5  A    between atoms: C14_17  and  C15_18 
REMARK       I    between atoms: C15_18  and  N2_20 
REMARK    6  A    between atoms: N2_20  and  C16_22 
REMARK    7  A    between atoms: C23_30  and  O3_31 
ROOT
HETATM    1  C16 UNL     1      25.232  16.242  -5.469  1.00  0.00     0.188 C 
HETATM    2  C17 UNL     1      24.967  17.338  -4.464  1.00  0.00     0.048 C 
HETATM    3  C18 UNL     1      26.410  16.658  -6.267  1.00  0.00     0.084 C 
HETATM    4  N3  UNL     1      27.338  16.969  -6.891  1.00  0.00    -0.195 NA
ENDROOT
BRANCH   1   5
HETATM    5  N2  UNL     1      24.128  16.052  -6.388  1.00  0.00    -0.344 N 
HETATM    6  C15 UNL     1      22.779  16.288  -6.041  1.00  0.00     0.223 C 
HETATM    7  O2  UNL     1      22.544  16.681  -4.869  1.00  0.00    -0.273 OA
ATOM      8  H2  UNL     1      24.335  15.731  -7.335  1.00  0.00     0.163 HD
BRANCH   6   9
HETATM    9  C14 UNL     1      21.711  16.085  -7.006  1.00  0.00     0.086 C 
HETATM   10  C13 UNL     1      20.915  17.301  -7.329  1.00  0.00     0.015 C 
HETATM   11  C12 UNL     1      19.583  16.788  -7.804  1.00  0.00     0.007 C 
HETATM   12  C11 UNL     1      19.636  15.282  -7.681  1.00  0.00     0.001 C 
HETATM   13  C10 UNL     1      18.310  14.648  -7.495  1.00  0.00     0.026 C 
HETATM   14  C19 UNL     1      20.662  15.070  -6.629  1.00  0.00    -0.028 C 
HETATM   15  C9  UNL     1      18.143  13.390  -8.332  1.00  0.00     0.015 C 
HETATM   16  C23 UNL     1      17.851  14.439  -6.083  1.00  0.00     0.078 C 
HETATM   17  C8  UNL     1      16.656  13.219  -8.611  1.00  0.00     0.080 C 
HETATM   18  C7  UNL     1      15.995  13.444  -7.292  1.00  0.00     0.140 C 
HETATM   19  C6  UNL     1      16.868  13.296  -6.102  1.00  0.00     0.151 C 
HETATM   20  O1  UNL     1      14.832  13.723  -7.255  1.00  0.00    -0.297 OA
HETATM   21  C22 UNL     1      18.966  14.221  -5.119  1.00  0.00     0.040 C 
HETATM   22  C21 UNL     1      20.014  15.294  -5.302  1.00  0.00     0.013 C 
HETATM   23  C20 UNL     1      21.337  13.715  -6.719  1.00  0.00     0.016 C 
BRANCH  19  24
HETATM   24  C5  UNL     1      16.047  13.148  -4.870  1.00  0.00     0.090 C 
HETATM   25  S1  UNL     1      15.164  14.419  -4.382  1.00  0.00    -0.065 SA
BRANCH  24  26
HETATM   26  N1  UNL     1      16.030  11.959  -4.158  1.00  0.00    -0.375 N 
BRANCH  26  27
HETATM   27  C2  UNL     1      17.118  11.646  -3.192  1.00  0.00     0.119 C 
HETATM   28  C1  UNL     1      17.815  10.364  -3.596  1.00  0.00     0.026 C 
ENDBRANCH  26  27
BRANCH  26  29
HETATM   29  C3  UNL     1      15.057  10.931  -4.225  1.00  0.00     0.119 C 
HETATM   30  C4  UNL     1      14.452  10.527  -5.507  1.00  0.00     0.026 C 
ENDBRANCH  26  29
ENDBRANCH  24  26
ENDBRANCH  19  24
BRANCH  16  31
HETATM   31  O3  UNL     1      17.149  15.596  -5.717  1.00  0.00    -0.388 OA
ATOM     32  H3  UNL     1      17.573  15.956  -4.947  1.00  0.00     0.210 HD
ENDBRANCH  16  31
ENDBRANCH   6   9
ENDBRANCH   1   5
TORSDOF 7
ENDMDL
MODEL 5
REMARK VINA RESULT: -6.100665664      2.721      3.683
REMARK  7 active torsions:
REMARK  status: ('A' for Active; 'I' for Inactive)
REMARK    1  A    between atoms: C2_2  and  N1_3 
REMARK    2  A    between atoms: N1_3  and  C3_4 
REMARK    3  A    between atoms: N1_3  and  C5_6 
REMARK    4  A    between atoms: C5_6  and  C6_8 
REMARK    5  A    between atoms: C14_17  and  C15_18 
REMARK       I    between atoms: C15_18  and  N2_20 
REMARK    6  A    between atoms: N2_20  and  C16_22 
REMARK    7  A    between atoms: C23_30  and  O3_31 
ROOT
HETATM    1  C16 UNL     1      24.946  16.584  -5.860  1.00  0.00     0.188 C 
HETATM    2  C17 UNL     1      26.060  15.576  -6.012  1.00  0.00     0.048 C 
HETATM    3  C18 UNL     1      25.156  17.274  -4.564  1.00  0.00     0.084 C 
HETATM    4  N3  UNL     1      25.318  17.828  -3.557  1.00  0.00    -0.195 NA
ENDROOT
BRANCH   1   5
HETATM    5  N2  UNL     1      23.637  15.964  -5.816  1.00  0.00    -0.344 N 
HETATM    6  C15 UNL     1      22.966  15.484  -6.963  1.00  0.00     0.223 C 
HETATM    7  O2  UNL     1      23.551  15.610  -8.069  1.00  0.00    -0.273 OA
ATOM      8  H2  UNL     1      23.175  15.870  -4.910  1.00  0.00     0.163 HD
BRANCH   6   9
HETATM    9  C14 UNL     1      21.654  14.866  -6.859  1.00  0.00     0.086 C 
HETATM   10  C13 UNL     1      21.210  14.128  -8.073  1.00  0.00     0.015 C 
HETATM   11  C12 UNL     1      19.706  14.118  -8.001  1.00  0.00     0.007 C 
HETATM   12  C11 UNL     1      19.331  14.909  -6.768  1.00  0.00     0.001 C 
HETATM   13  C10 UNL     1      17.991  15.534  -6.841  1.00  0.00     0.026 C 
HETATM   14  C19 UNL     1      20.504  15.798  -6.575  1.00  0.00    -0.028 C 
HETATM   15  C9  UNL     1      17.212  15.395  -5.543  1.00  0.00     0.015 C 
HETATM   16  C23 UNL     1      17.923  16.931  -7.382  1.00  0.00     0.078 C 
HETATM   17  C8  UNL     1      15.730  15.421  -5.892  1.00  0.00     0.080 C 
HETATM   18  C7  UNL     1      15.584  16.563  -6.842  1.00  0.00     0.140 C 
HETATM   19  C6  UNL     1      16.678  17.565  -6.816  1.00  0.00     0.151 C 
HETATM   20  O1  UNL     1      14.625  16.618  -7.556  1.00  0.00    -0.297 OA
HETATM   21  C22 UNL     1      19.149  17.734  -7.115  1.00  0.00     0.040 C 
HETATM   22  C21 UNL     1      20.372  16.946  -7.521  1.00  0.00     0.013 C 
HETATM   23  C20 UNL     1      20.677  16.253  -5.139  1.00  0.00     0.016 C 
BRANCH  19  24
HETATM   24  C5  UNL     1      16.248  18.822  -7.485  1.00  0.00     0.090 C 
HETATM   25  S1  UNL     1      15.832  18.751  -9.052  1.00  0.00    -0.065 SA
BRANCH  24  26
HETATM   26  N1  UNL     1      16.197  20.022  -6.793  1.00  0.00    -0.375 N 
BRANCH  26  27
HETATM   27  C2  UNL     1      15.396  20.134  -5.543  1.00  0.00     0.119 C 
HETATM   28  C1  UNL     1      16.304  20.446  -4.372  1.00  0.00     0.026 C 
ENDBRANCH  26  27
BRANCH  26  29
HETATM   29  C3  UNL     1      16.845  21.236  -7.128  1.00  0.00     0.119 C 
HETATM   30  C4  UNL     1      18.296  21.290  -7.381  1.00  0.00     0.026 C 
ENDBRANCH  26  29
ENDBRANCH  24  26
ENDBRANCH  19  24
BRANCH  16  31
HETATM   31  O3  UNL     1      17.746  16.813  -8.767  1.00  0.00    -0.388 OA
ATOM     32  H3  UNL     1      18.548  16.458  -9.130  1.00  0.00     0.210 HD
ENDBRANCH  16  31
ENDBRANCH   6   9
ENDBRANCH   1   5
TORSDOF 7
ENDMDL
