MODEL 1
REMARK VINA RESULT: -6.550762239      0.000      0.000
REMARK  8 active torsions:
REMARK  status: ('A' for Active; 'I' for Inactive)
REMARK    1  A    between atoms: C2_2  and  C4_4 
REMARK    2  A    between atoms: C4_4  and  N1_5 
REMARK    3  A    between atoms: C4_4  and  C10_14 
REMARK       I    between atoms: N1_5  and  C5_7 
REMARK    4  A    between atoms: C5_7  and  O2_9 
REMARK    5  A    between atoms: O2_9  and  C6_10 
REMARK       I    between atoms: C10_14  and  N2_16 
REMARK    6  A    between atoms: N3_19  and  C13_20 
REMARK    7  A    between atoms: C13_20  and  C14_21 
REMARK       I    between atoms: C14_21  and  N4_23 
REMARK    8  A    between atoms: N4_23  and  C15_25 
ROOT
HETATM    1  C10 UNL     1      16.052  11.194  -1.858  1.00  0.00     0.243 C 
HETATM    2  O3  UNL     1      14.972  11.822  -1.554  1.00  0.00    -0.271 OA
HETATM    3  N2  UNL     1      16.463  11.287  -3.189  1.00  0.00    -0.339 N 
HETATM    4  C11 UNL     1      17.640  10.637  -3.688  1.00  0.00     0.141 C 
HETATM    5  C12 UNL     1      18.564  11.650  -4.297  1.00  0.00     0.115 C 
HETATM    6  N3  UNL     1      17.824  12.658  -5.055  1.00  0.00    -0.284 NA
HETATM    7  C19 UNL     1      16.522  12.129  -5.434  1.00  0.00     0.125 C 
HETATM    8  C20 UNL     1      15.683  12.044  -4.142  1.00  0.00     0.040 C 
HETATM    9  C21 UNL     1      15.385  13.443  -3.716  1.00  0.00     0.039 C 
HETATM   10  C22 UNL     1      14.409  11.325  -4.529  1.00  0.00     0.039 C 
ENDROOT
BRANCH   1  11
HETATM   11  C4  UNL     1      16.687  10.469  -0.750  1.00  0.00     0.182 C 
BRANCH  11  12
HETATM   12  C2  UNL     1      16.443  11.015   0.620  1.00  0.00     0.009 C 
HETATM   13  C1  UNL     1      17.165  10.072   1.594  1.00  0.00     0.012 C 
HETATM   14  C3  UNL     1      16.932  12.383   0.901  1.00  0.00     0.012 C 
ENDBRANCH  11  12
BRANCH  11  15
HETATM   15  N1  UNL     1      16.057   9.133  -0.740  1.00  0.00    -0.323 N 
HETATM   16  C5  UNL     1      16.788   7.960  -0.981  1.00  0.00     0.362 C 
HETATM   17  O1  UNL     1      18.021   8.078  -1.209  1.00  0.00    -0.238 OA
ATOM     18  H1  UNL     1      15.057   9.061  -0.551  1.00  0.00     0.165 HD
BRANCH  16  19
HETATM   19  O2  UNL     1      16.258   6.693  -0.987  1.00  0.00    -0.294 OA
BRANCH  19  20
HETATM   20  C6  UNL     1      15.304   6.190  -1.870  1.00  0.00     0.061 C 
HETATM   21  C7  UNL     1      15.276   4.658  -1.772  1.00  0.00     0.046 C 
HETATM   22  C8  UNL     1      13.892   6.676  -1.559  1.00  0.00     0.046 C 
HETATM   23  C9  UNL     1      15.576   6.516  -3.319  1.00  0.00     0.046 C 
ENDBRANCH  19  20
ENDBRANCH  16  19
ENDBRANCH  11  15
ENDBRANCH   1  11
BRANCH   6  24
HETATM   24  C13 UNL     1      18.627  12.947  -6.206  1.00  0.00     0.134 C 
BRANCH  24  25
HETATM   25  C14 UNL     1      19.643  13.970  -6.078  1.00  0.00     0.252 C 
HETATM   26  O4  UNL     1      19.983  14.444  -4.979  1.00  0.00    -0.268 OA
HETATM   27  N4  UNL     1      20.290  14.466  -7.252  1.00  0.00    -0.349 N 
ATOM     28  H4  UNL     1      20.030  14.094  -8.165  1.00  0.00     0.163 HD
BRANCH  27  29
HETATM   29  C15 UNL     1      21.307  15.484  -7.164  1.00  0.00     0.022 C 
HETATM   30  C16 UNL     1      21.453  16.176  -8.516  1.00  0.00     0.037 C 
HETATM   31  C17 UNL     1      20.936  16.551  -6.151  1.00  0.00     0.037 C 
HETATM   32  C18 UNL     1      22.621  14.843  -6.792  1.00  0.00     0.037 C 
ENDBRANCH  27  29
ENDBRANCH  24  25
ENDBRANCH   6  24
TORSDOF 8
ENDMDL
MODEL 2
REMARK VINA RESULT: -6.515915999      1.376      1.663
REMARK  8 active torsions:
REMARK  status: ('A' for Active; 'I' for Inactive)
REMARK    1  A    between atoms: C2_2  and  C4_4 
REMARK    2  A    between atoms: C4_4  and  N1_5 
REMARK    3  A    between atoms: C4_4  and  C10_14 
REMARK       I    between atoms: N1_5  and  C5_7 
REMARK    4  A    between atoms: C5_7  and  O2_9 
REMARK    5  A    between atoms: O2_9  and  C6_10 
REMARK       I    between atoms: C10_14  and  N2_16 
REMARK    6  A    between atoms: N3_19  and  C13_20 
REMARK    7  A    between atoms: C13_20  and  C14_21 
REMARK       I    between atoms: C14_21  and  N4_23 
REMARK    8  A    between atoms: N4_23  and  C15_25 
ROOT
HETATM    1  C10 UNL     1      16.146  12.292  -2.818  1.00  0.00     0.243 C 
HETATM    2  O3  UNL     1      15.175  13.128  -2.713  1.00  0.00    -0.271 OA
HETATM    3  N2  UNL     1      16.721  12.174  -4.084  1.00  0.00    -0.339 N 
HETATM    4  C11 UNL     1      17.807  11.279  -4.366  1.00  0.00     0.141 C 
HETATM    5  C12 UNL     1      18.970  12.046  -4.922  1.00  0.00     0.115 C 
HETATM    6  N3  UNL     1      18.526  13.086  -5.851  1.00  0.00    -0.284 NA
HETATM    7  C19 UNL     1      17.202  12.757  -6.360  1.00  0.00     0.125 C 
HETATM    8  C20 UNL     1      16.216  12.954  -5.190  1.00  0.00     0.040 C 
HETATM    9  C21 UNL     1      16.137  14.420  -4.921  1.00  0.00     0.039 C 
HETATM   10  C22 UNL     1      14.884  12.434  -5.687  1.00  0.00     0.039 C 
ENDROOT
BRANCH   1  11
HETATM   11  C4  UNL     1      16.499  11.585  -1.579  1.00  0.00     0.182 C 
BRANCH  11  12
HETATM   12  C2  UNL     1      15.962  12.168  -0.312  1.00  0.00     0.009 C 
HETATM   13  C1  UNL     1      14.801  11.262   0.122  1.00  0.00     0.012 C 
HETATM   14  C3  UNL     1      16.891  12.259   0.837  1.00  0.00     0.012 C 
ENDBRANCH  11  12
BRANCH  11  15
HETATM   15  N1  UNL     1      15.854  10.259  -1.685  1.00  0.00    -0.323 N 
HETATM   16  C5  UNL     1      16.594   9.068  -1.718  1.00  0.00     0.362 C 
HETATM   17  O1  UNL     1      17.848   9.160  -1.654  1.00  0.00    -0.238 OA
ATOM     18  H1  UNL     1      14.836  10.209  -1.734  1.00  0.00     0.165 HD
BRANCH  16  19
HETATM   19  O2  UNL     1      16.052   7.810  -1.817  1.00  0.00    -0.294 OA
BRANCH  19  20
HETATM   20  C6  UNL     1      15.389   7.270  -2.918  1.00  0.00     0.061 C 
HETATM   21  C7  UNL     1      15.628   5.754  -2.964  1.00  0.00     0.046 C 
HETATM   22  C8  UNL     1      13.879   7.475  -2.863  1.00  0.00     0.046 C 
HETATM   23  C9  UNL     1      15.861   7.812  -4.247  1.00  0.00     0.046 C 
ENDBRANCH  19  20
ENDBRANCH  16  19
ENDBRANCH  11  15
ENDBRANCH   1  11
BRANCH   6  24
HETATM   24  C13 UNL     1      19.500  13.109  -6.903  1.00  0.00     0.134 C 
BRANCH  24  25
HETATM   25  C14 UNL     1      20.334  14.286  -7.021  1.00  0.00     0.252 C 
HETATM   26  O4  UNL     1      19.867  15.424  -7.207  1.00  0.00    -0.268 OA
HETATM   27  N4  UNL     1      21.754  14.152  -6.923  1.00  0.00    -0.349 N 
ATOM     28  H4  UNL     1      22.163  13.230  -6.770  1.00  0.00     0.163 HD
BRANCH  27  29
HETATM   29  C15 UNL     1      22.617  15.301  -7.036  1.00  0.00     0.022 C 
HETATM   30  C16 UNL     1      24.066  14.839  -7.164  1.00  0.00     0.037 C 
HETATM   31  C17 UNL     1      22.294  16.117  -8.274  1.00  0.00     0.037 C 
HETATM   32  C18 UNL     1      22.477  16.150  -5.796  1.00  0.00     0.037 C 
ENDBRANCH  27  29
ENDBRANCH  24  25
ENDBRANCH   6  24
TORSDOF 8
ENDMDL
MODEL 3
REMARK VINA RESULT: -6.435571772      3.290     10.547
REMARK  8 active torsions:
REMARK  status: ('A' for Active; 'I' for Inactive)
REMARK    1  A    between atoms: C2_2  and  C4_4 
REMARK    2  A    between atoms: C4_4  and  N1_5 
REMARK    3  A    between atoms: C4_4  and  C10_14 
REMARK       I    between atoms: N1_5  and  C5_7 
REMARK    4  A    between atoms: C5_7  and  O2_9 
REMARK    5  A    between atoms: O2_9  and  C6_10 
REMARK       I    between atoms: C10_14  and  N2_16 
REMARK    6  A    between atoms: N3_19  and  C13_20 
REMARK    7  A    between atoms: C13_20  and  C14_21 
REMARK       I    between atoms: C14_21  and  N4_23 
REMARK    8  A    between atoms: N4_23  and  C15_25 
ROOT
HETATM    1  C10 UNL     1      19.178  15.802  -7.705  1.00  0.00     0.243 C 
HETATM    2  O3  UNL     1      18.375  15.887  -8.706  1.00  0.00    -0.271 OA
HETATM    3  N2  UNL     1      18.902  14.794  -6.780  1.00  0.00    -0.339 N 
HETATM    4  C11 UNL     1      19.698  14.576  -5.606  1.00  0.00     0.141 C 
HETATM    5  C12 UNL     1      20.219  13.169  -5.596  1.00  0.00     0.115 C 
HETATM    6  N3  UNL     1      19.206  12.223  -6.066  1.00  0.00    -0.284 NA
HETATM    7  C19 UNL     1      17.881  12.805  -5.911  1.00  0.00     0.125 C 
HETATM    8  C20 UNL     1      17.763  13.925  -6.966  1.00  0.00     0.040 C 
HETATM    9  C21 UNL     1      17.705  13.268  -8.305  1.00  0.00     0.039 C 
HETATM   10  C22 UNL     1      16.458  14.632  -6.666  1.00  0.00     0.039 C 
ENDROOT
BRANCH   1  11
HETATM   11  C4  UNL     1      20.266  16.789  -7.691  1.00  0.00     0.182 C 
BRANCH  11  12
HETATM   12  C2  UNL     1      21.627  16.275  -8.032  1.00  0.00     0.009 C 
HETATM   13  C1  UNL     1      22.462  16.381  -6.748  1.00  0.00     0.012 C 
HETATM   14  C3  UNL     1      21.723  14.873  -8.496  1.00  0.00     0.012 C 
ENDBRANCH  11  12
BRANCH  11  15
HETATM   15  N1  UNL     1      19.944  17.746  -8.770  1.00  0.00    -0.323 N 
HETATM   16  C5  UNL     1      20.020  19.135  -8.586  1.00  0.00     0.362 C 
HETATM   17  O1  UNL     1      20.378  19.553  -7.453  1.00  0.00    -0.238 OA
ATOM     18  H1  UNL     1      19.657  17.384  -9.680  1.00  0.00     0.165 HD
BRANCH  16  19
HETATM   19  O2  UNL     1      19.732  20.071  -9.549  1.00  0.00    -0.294 OA
BRANCH  19  20
HETATM   20  C6  UNL     1      20.517  21.164  -9.913  1.00  0.00     0.061 C 
HETATM   21  C7  UNL     1      20.038  21.708 -11.266  1.00  0.00     0.046 C 
HETATM   22  C8  UNL     1      20.427  22.318  -8.919  1.00  0.00     0.046 C 
HETATM   23  C9  UNL     1      21.983  20.840 -10.082  1.00  0.00     0.046 C 
ENDBRANCH  19  20
ENDBRANCH  16  19
ENDBRANCH  11  15
ENDBRANCH   1  11
BRANCH   6  24
HETATM   24  C13 UNL     1      19.362  11.052  -5.253  1.00  0.00     0.134 C 
BRANCH  24  25
HETATM   25  C14 UNL     1      18.396  10.833  -4.198  1.00  0.00     0.252 C 
HETATM   26  O4  UNL     1      18.166  11.677  -3.313  1.00  0.00    -0.268 OA
HETATM   27  N4  UNL     1      17.669   9.602  -4.157  1.00  0.00    -0.349 N 
ATOM     28  H4  UNL     1      17.840   8.894  -4.871  1.00  0.00     0.163 HD
BRANCH  27  29
HETATM   29  C15 UNL     1      16.699   9.348  -3.121  1.00  0.00     0.022 C 
HETATM   30  C16 UNL     1      15.917   8.081  -3.456  1.00  0.00     0.037 C 
HETATM   31  C17 UNL     1      17.369   9.120  -1.779  1.00  0.00     0.037 C 
HETATM   32  C18 UNL     1      15.743  10.513  -3.040  1.00  0.00     0.037 C 
ENDBRANCH  27  29
ENDBRANCH  24  25
ENDBRANCH   6  24
TORSDOF 8
ENDMDL
MODEL 4
REMARK VINA RESULT: -6.352368339      6.113      9.180
REMARK  8 active torsions:
REMARK  status: ('A' for Active; 'I' for Inactive)
REMARK    1  A    between atoms: C2_2  and  C4_4 
REMARK    2  A    between atoms: C4_4  and  N1_5 
REMARK    3  A    between atoms: C4_4  and  C10_14 
REMARK       I    between atoms: N1_5  and  C5_7 
REMARK    4  A    between atoms: C5_7  and  O2_9 
REMARK    5  A    between atoms: O2_9  and  C6_10 
REMARK       I    between atoms: C10_14  and  N2_16 
REMARK    6  A    between atoms: N3_19  and  C13_20 
REMARK    7  A    between atoms: C13_20  and  C14_21 
REMARK       I    between atoms: C14_21  and  N4_23 
REMARK    8  A    between atoms: N4_23  and  C15_25 
ROOT
HETATM    1  C10 UNL     1      17.380  17.009  -6.470  1.00  0.00     0.243 C 
HETATM    2  O3  UNL     1      16.738  17.408  -5.430  1.00  0.00    -0.271 OA
HETATM    3  N2  UNL     1      17.442  17.908  -7.536  1.00  0.00    -0.339 N 
HETATM    4  C11 UNL     1      18.113  17.610  -8.769  1.00  0.00     0.141 C 
HETATM    5  C12 UNL     1      19.167  18.643  -9.040  1.00  0.00     0.115 C 
HETATM    6  N3  UNL     1      18.702  19.984  -8.684  1.00  0.00    -0.284 NA
HETATM    7  C19 UNL     1      17.247  20.012  -8.672  1.00  0.00     0.125 C 
HETATM    8  C20 UNL     1      16.798  19.198  -7.441  1.00  0.00     0.040 C 
HETATM    9  C21 UNL     1      17.176  19.984  -6.229  1.00  0.00     0.039 C 
HETATM   10  C22 UNL     1      15.292  19.088  -7.552  1.00  0.00     0.039 C 
ENDROOT
BRANCH   1  11
HETATM   11  C4  UNL     1      17.949  15.658  -6.375  1.00  0.00     0.182 C 
BRANCH  11  12
HETATM   12  C2  UNL     1      17.470  14.668  -7.387  1.00  0.00     0.009 C 
HETATM   13  C1  UNL     1      17.764  13.279  -6.804  1.00  0.00     0.012 C 
HETATM   14  C3  UNL     1      16.031  14.696  -7.732  1.00  0.00     0.012 C 
ENDBRANCH  11  12
BRANCH  11  15
HETATM   15  N1  UNL     1      19.391  15.816  -6.656  1.00  0.00    -0.323 N 
HETATM   16  C5  UNL     1      20.378  15.440  -5.734  1.00  0.00     0.362 C 
HETATM   17  O1  UNL     1      19.996  14.954  -4.637  1.00  0.00    -0.238 OA
ATOM     18  H1  UNL     1      19.677  16.211  -7.552  1.00  0.00     0.165 HD
BRANCH  16  19
HETATM   19  O2  UNL     1      21.731  15.565  -5.938  1.00  0.00    -0.294 OA
BRANCH  19  20
HETATM   20  C6  UNL     1      22.419  15.351  -7.132  1.00  0.00     0.061 C 
HETATM   21  C7  UNL     1      23.918  15.198  -6.837  1.00  0.00     0.046 C 
HETATM   22  C8  UNL     1      21.981  14.080  -7.851  1.00  0.00     0.046 C 
HETATM   23  C9  UNL     1      22.297  16.485  -8.123  1.00  0.00     0.046 C 
ENDBRANCH  19  20
ENDBRANCH  16  19
ENDBRANCH  11  15
ENDBRANCH   1  11
BRANCH   6  24
HETATM   24  C13 UNL     1      19.234  20.858  -9.688  1.00  0.00     0.134 C 
BRANCH  24  25
HETATM   25  C14 UNL     1      20.639  21.197  -9.608  1.00  0.00     0.252 C 
HETATM   26  O4  UNL     1      21.290  21.117  -8.551  1.00  0.00    -0.268 OA
HETATM   27  N4  UNL     1      21.320  21.645 -10.783  1.00  0.00    -0.349 N 
ATOM     28  H4  UNL     1      20.809  21.719 -11.663  1.00  0.00     0.163 HD
BRANCH  27  29
HETATM   29  C15 UNL     1      22.719  21.991 -10.742  1.00  0.00     0.022 C 
HETATM   30  C16 UNL     1      23.020  22.742  -9.448  1.00  0.00     0.037 C 
HETATM   31  C17 UNL     1      23.597  20.754 -10.759  1.00  0.00     0.037 C 
HETATM   32  C18 UNL     1      23.044  22.882 -11.917  1.00  0.00     0.037 C 
ENDBRANCH  27  29
ENDBRANCH  24  25
ENDBRANCH   6  24
TORSDOF 8
ENDMDL
MODEL 5
REMARK VINA RESULT: -6.341532696      3.735     10.514
REMARK  8 active torsions:
REMARK  status: ('A' for Active; 'I' for Inactive)
REMARK    1  A    between atoms: C2_2  and  C4_4 
REMARK    2  A    between atoms: C4_4  and  N1_5 
REMARK    3  A    between atoms: C4_4  and  C10_14 
REMARK       I    between atoms: N1_5  and  C5_7 
REMARK    4  A    between atoms: C5_7  and  O2_9 
REMARK    5  A    between atoms: O2_9  and  C6_10 
REMARK       I    between atoms: C10_14  and  N2_16 
REMARK    6  A    between atoms: N3_19  and  C13_20 
REMARK    7  A    between atoms: C13_20  and  C14_21 
REMARK       I    between atoms: C14_21  and  N4_23 
REMARK    8  A    between atoms: N4_23  and  C15_25 
ROOT
HETATM    1  C10 UNL     1      18.620  16.557  -7.972  1.00  0.00     0.243 C 
HETATM    2  O3  UNL     1      18.001  16.670  -9.093  1.00  0.00    -0.271 OA
HETATM    3  N2  UNL     1      17.850  16.141  -6.884  1.00  0.00    -0.339 N 
HETATM    4  C11 UNL     1      18.391  15.976  -5.565  1.00  0.00     0.141 C 
HETATM    5  C12 UNL     1      18.155  14.573  -5.088  1.00  0.00     0.115 C 
HETATM    6  N3  UNL     1      16.828  14.095  -5.477  1.00  0.00    -0.284 NA
HETATM    7  C19 UNL     1      15.953  15.230  -5.734  1.00  0.00     0.125 C 
HETATM    8  C20 UNL     1      16.440  15.875  -7.048  1.00  0.00     0.040 C 
HETATM    9  C21 UNL     1      16.119  14.925  -8.153  1.00  0.00     0.039 C 
HETATM   10  C22 UNL     1      15.637  17.151  -7.197  1.00  0.00     0.039 C 
ENDROOT
BRANCH   1  11
HETATM   11  C4  UNL     1      20.051  16.890  -8.011  1.00  0.00     0.182 C 
BRANCH  11  12
HETATM   12  C2  UNL     1      20.961  15.822  -8.525  1.00  0.00     0.009 C 
HETATM   13  C1  UNL     1      22.329  16.071  -7.872  1.00  0.00     0.012 C 
HETATM   14  C3  UNL     1      20.592  14.420  -8.232  1.00  0.00     0.012 C 
ENDBRANCH  11  12
BRANCH  11  15
HETATM   15  N1  UNL     1      20.173  17.991  -8.988  1.00  0.00    -0.323 N 
HETATM   16  C5  UNL     1      20.383  19.321  -8.594  1.00  0.00     0.362 C 
HETATM   17  O1  UNL     1      20.468  19.556  -7.361  1.00  0.00    -0.238 OA
ATOM     18  H1  UNL     1      20.103  17.776  -9.983  1.00  0.00     0.165 HD
BRANCH  16  19
HETATM   19  O2  UNL     1      20.503  20.384  -9.456  1.00  0.00    -0.294 OA
BRANCH  19  20
HETATM   20  C6  UNL     1      19.565  21.393  -9.674  1.00  0.00     0.061 C 
HETATM   21  C7  UNL     1      19.561  21.773 -11.161  1.00  0.00     0.046 C 
HETATM   22  C8  UNL     1      18.143  20.968  -9.325  1.00  0.00     0.046 C 
HETATM   23  C9  UNL     1      19.846  22.667  -8.913  1.00  0.00     0.046 C 
ENDBRANCH  19  20
ENDBRANCH  16  19
ENDBRANCH  11  15
ENDBRANCH   1  11
BRANCH   6  24
HETATM   24  C13 UNL     1      16.359  13.312  -4.372  1.00  0.00     0.134 C 
BRANCH  24  25
HETATM   25  C14 UNL     1      17.126  12.142  -4.003  1.00  0.00     0.252 C 
HETATM   26  O4  UNL     1      18.303  12.208  -3.606  1.00  0.00    -0.268 OA
HETATM   27  N4  UNL     1      16.520  10.850  -4.093  1.00  0.00    -0.349 N 
ATOM     28  H4  UNL     1      15.556  10.767  -4.416  1.00  0.00     0.163 HD
BRANCH  27  29
HETATM   29  C15 UNL     1      17.253   9.661  -3.735  1.00  0.00     0.022 C 
HETATM   30  C16 UNL     1      16.507   8.430  -4.242  1.00  0.00     0.037 C 
HETATM   31  C17 UNL     1      18.630   9.645  -4.372  1.00  0.00     0.037 C 
HETATM   32  C18 UNL     1      17.369   9.584  -2.232  1.00  0.00     0.037 C 
ENDBRANCH  27  29
ENDBRANCH  24  25
ENDBRANCH   6  24
TORSDOF 8
ENDMDL
