MODEL 1
REMARK VINA RESULT: -8.813032162      0.000      0.000
REMARK  5 active torsions:
REMARK  status: ('A' for Active; 'I' for Inactive)
REMARK    1  A    between atoms: N2_5  and  C3_6 
REMARK    2  A    between atoms: C8_11  and  S1_12 
REMARK    3  A    between atoms: S1_12  and  N3_15 
REMARK    4  A    between atoms: N3_15  and  C9_17 
REMARK       I    between atoms: N4_20  and  C12_21 
REMARK       I    between atoms: C12_21  and  N5_23 
REMARK    5  A    between atoms: N5_23  and  C13_25 
ROOT
HETATM    1  C9  UNL     1      19.705  12.685  -5.698  1.00  0.00     0.096 C 
HETATM    2  C10 UNL     1      18.445  13.428  -6.106  1.00  0.00     0.045 C 
HETATM    3  C11 UNL     1      17.204  12.629  -5.685  1.00  0.00     0.129 C 
HETATM    4  N4  UNL     1      17.396  11.999  -4.394  1.00  0.00    -0.334 N 
HETATM    5  C12 UNL     1      16.477  12.174  -3.334  1.00  0.00     0.318 C 
HETATM    6  O3  UNL     1      15.471  12.899  -3.529  1.00  0.00    -0.247 OA
HETATM    7  N5  UNL     1      16.683  11.557  -2.100  1.00  0.00    -0.338 N 
ATOM      8  H5  UNL     1      17.519  10.980  -2.005  1.00  0.00     0.164 HD
HETATM    9  C20 UNL     1      18.568  11.159  -4.182  1.00  0.00     0.129 C 
HETATM   10  C21 UNL     1      19.377  11.201  -5.461  1.00  0.00     0.045 C 
ENDROOT
BRANCH   1  11
HETATM   11  N3  UNL     1      20.796  12.883  -6.548  1.00  0.00    -0.310 N 
ATOM     12  H3  UNL     1      21.448  12.114  -6.701  1.00  0.00     0.172 HD
BRANCH  11  13
HETATM   13  S1  UNL     1      21.065  14.332  -7.321  1.00  0.00     0.263 S 
HETATM   14  O1  UNL     1      21.432  14.222  -8.776  1.00  0.00    -0.200 OA
HETATM   15  O2  UNL     1      19.870  15.272  -7.282  1.00  0.00    -0.200 OA
BRANCH  13  16
HETATM   16  C8  UNL     1      22.392  15.185  -6.567  1.00  0.00     0.126 A 
HETATM   17  C2  UNL     1      22.185  16.161  -5.592  1.00  0.00     0.047 A 
HETATM   18  C1  UNL     1      20.875  16.629  -5.022  1.00  0.00     0.071 C 
HETATM   19  N1  UNL     1      23.413  16.600  -5.267  1.00  0.00    -0.301 N 
HETATM   20  N2  UNL     1      24.354  15.981  -5.954  1.00  0.00    -0.291 N 
ATOM     21  H1  UNL     1      23.596  17.325  -4.573  1.00  0.00     0.187 HD
HETATM   22  C6  UNL     1      23.734  15.086  -6.779  1.00  0.00     0.050 A 
HETATM   23  C7  UNL     1      24.433  14.199  -7.732  1.00  0.00     0.072 C 
BRANCH  20  24
HETATM   24  C3  UNL     1      25.791  16.184  -5.879  1.00  0.00     0.100 C 
HETATM   25  C4  UNL     1      26.107  16.951  -4.604  1.00  0.00     0.034 C 
HETATM   26  C5  UNL     1      26.324  17.012  -7.021  1.00  0.00     0.034 C 
ENDBRANCH  20  24
ENDBRANCH  13  16
ENDBRANCH  11  13
ENDBRANCH   1  11
BRANCH   7  27
HETATM   27  C13 UNL     1      15.819  11.658  -0.941  1.00  0.00     0.086 C 
HETATM   28  C14 UNL     1      16.473  12.519   0.112  1.00  0.00     0.026 C 
HETATM   29  C15 UNL     1      16.349  11.832   1.457  1.00  0.00     0.007 C 
HETATM   30  C16 UNL     1      17.196  10.559   1.382  1.00  0.00    -0.010 A 
HETATM   31  C17 UNL     1      16.518   9.275   1.772  1.00  0.00     0.010 A 
HETATM   32  C18 UNL     1      16.676   9.668   0.309  1.00  0.00    -0.008 A 
HETATM   33  C19 UNL     1      15.508  10.273  -0.406  1.00  0.00     0.030 C 
ENDBRANCH   7  27
TORSDOF 5
ENDMDL
MODEL 2
REMARK VINA RESULT: -8.594828227      3.587      4.832
REMARK  5 active torsions:
REMARK  status: ('A' for Active; 'I' for Inactive)
REMARK    1  A    between atoms: N2_5  and  C3_6 
REMARK    2  A    between atoms: C8_11  and  S1_12 
REMARK    3  A    between atoms: S1_12  and  N3_15 
REMARK    4  A    between atoms: N3_15  and  C9_17 
REMARK       I    between atoms: N4_20  and  C12_21 
REMARK       I    between atoms: C12_21  and  N5_23 
REMARK    5  A    between atoms: N5_23  and  C13_25 
ROOT
HETATM    1  C9  UNL     1      16.467  13.501  -5.718  1.00  0.00     0.096 C 
HETATM    2  C10 UNL     1      16.198  13.609  -4.228  1.00  0.00     0.045 C 
HETATM    3  C11 UNL     1      14.910  12.856  -3.869  1.00  0.00     0.129 C 
HETATM    4  N4  UNL     1      14.788  11.629  -4.631  1.00  0.00    -0.334 N 
HETATM    5  C12 UNL     1      14.570  10.380  -4.006  1.00  0.00     0.318 C 
HETATM    6  O3  UNL     1      14.482  10.347  -2.754  1.00  0.00    -0.247 OA
HETATM    7  N5  UNL     1      14.455   9.213  -4.761  1.00  0.00    -0.338 N 
ATOM      8  H5  UNL     1      14.536   9.307  -5.773  1.00  0.00     0.164 HD
HETATM    9  C20 UNL     1      14.891  11.683  -6.084  1.00  0.00     0.129 C 
HETATM   10  C21 UNL     1      15.168  13.125  -6.452  1.00  0.00     0.045 C 
ENDROOT
BRANCH   1  11
HETATM   11  N3  UNL     1      17.117  14.606  -6.272  1.00  0.00    -0.310 N 
ATOM     12  H3  UNL     1      17.029  15.512  -5.813  1.00  0.00     0.172 HD
BRANCH  11  13
HETATM   13  S1  UNL     1      18.032  14.492  -7.658  1.00  0.00     0.263 S 
HETATM   14  O1  UNL     1      17.811  13.244  -8.468  1.00  0.00    -0.200 OA
HETATM   15  O2  UNL     1      17.808  15.641  -8.629  1.00  0.00    -0.200 OA
BRANCH  13  16
HETATM   16  C8  UNL     1      19.735  14.500  -7.264  1.00  0.00     0.126 A 
HETATM   17  C2  UNL     1      20.332  13.467  -6.540  1.00  0.00     0.047 A 
HETATM   18  C1  UNL     1      19.680  12.222  -6.005  1.00  0.00     0.071 C 
HETATM   19  N1  UNL     1      21.622  13.824  -6.418  1.00  0.00    -0.301 N 
HETATM   20  N2  UNL     1      21.870  14.980  -7.002  1.00  0.00    -0.291 N 
ATOM     21  H1  UNL     1      22.325  13.267  -5.931  1.00  0.00     0.187 HD
HETATM   22  C6  UNL     1      20.697  15.424  -7.541  1.00  0.00     0.050 A 
HETATM   23  C7  UNL     1      20.538  16.698  -8.274  1.00  0.00     0.072 C 
BRANCH  20  24
HETATM   24  C3  UNL     1      23.139  15.684  -7.079  1.00  0.00     0.100 C 
HETATM   25  C4  UNL     1      24.215  14.700  -7.514  1.00  0.00     0.034 C 
HETATM   26  C5  UNL     1      23.579  16.240  -5.748  1.00  0.00     0.034 C 
ENDBRANCH  20  24
ENDBRANCH  13  16
ENDBRANCH  11  13
ENDBRANCH   1  11
BRANCH   7  27
HETATM   27  C13 UNL     1      14.233   7.880  -4.240  1.00  0.00     0.086 C 
HETATM   28  C14 UNL     1      15.556   7.215  -3.949  1.00  0.00     0.026 C 
HETATM   29  C15 UNL     1      15.533   5.805  -4.504  1.00  0.00     0.007 C 
HETATM   30  C16 UNL     1      15.462   5.933  -6.028  1.00  0.00    -0.010 A 
HETATM   31  C17 UNL     1      14.369   5.165  -6.718  1.00  0.00     0.010 A 
HETATM   32  C18 UNL     1      14.219   6.651  -6.419  1.00  0.00    -0.008 A 
HETATM   33  C19 UNL     1      13.415   7.069  -5.227  1.00  0.00     0.030 C 
ENDBRANCH   7  27
TORSDOF 5
ENDMDL
MODEL 3
REMARK VINA RESULT: -8.304572289      2.820      4.855
REMARK  5 active torsions:
REMARK  status: ('A' for Active; 'I' for Inactive)
REMARK    1  A    between atoms: N2_5  and  C3_6 
REMARK    2  A    between atoms: C8_11  and  S1_12 
REMARK    3  A    between atoms: S1_12  and  N3_15 
REMARK    4  A    between atoms: N3_15  and  C9_17 
REMARK       I    between atoms: N4_20  and  C12_21 
REMARK       I    between atoms: C12_21  and  N5_23 
REMARK    5  A    between atoms: N5_23  and  C13_25 
ROOT
HETATM    1  C9  UNL     1      19.550  12.670  -6.099  1.00  0.00     0.096 C 
HETATM    2  C10 UNL     1      19.381  11.475  -5.178  1.00  0.00     0.045 C 
HETATM    3  C11 UNL     1      18.050  11.578  -4.421  1.00  0.00     0.129 C 
HETATM    4  N4  UNL     1      17.000  12.106  -5.270  1.00  0.00    -0.334 N 
HETATM    5  C12 UNL     1      15.767  11.437  -5.438  1.00  0.00     0.318 C 
HETATM    6  O3  UNL     1      15.588  10.354  -4.829  1.00  0.00    -0.247 OA
HETATM    7  N5  UNL     1      14.772  11.966  -6.260  1.00  0.00    -0.338 N 
ATOM      8  H5  UNL     1      14.979  12.849  -6.727  1.00  0.00     0.164 HD
HETATM    9  C20 UNL     1      17.222  13.366  -5.971  1.00  0.00     0.129 C 
HETATM   10  C21 UNL     1      18.629  13.813  -5.637  1.00  0.00     0.045 C 
ENDROOT
BRANCH   1  11
HETATM   11  N3  UNL     1      20.875  13.069  -6.293  1.00  0.00    -0.310 N 
ATOM     12  H3  UNL     1      21.622  12.534  -5.851  1.00  0.00     0.172 HD
BRANCH  11  13
HETATM   13  S1  UNL     1      21.273  14.390  -7.224  1.00  0.00     0.263 S 
HETATM   14  O1  UNL     1      21.712  14.073  -8.628  1.00  0.00    -0.200 OA
HETATM   15  O2  UNL     1      20.137  15.389  -7.378  1.00  0.00    -0.200 OA
BRANCH  13  16
HETATM   16  C8  UNL     1      22.606  15.262  -6.503  1.00  0.00     0.126 A 
HETATM   17  C2  UNL     1      22.405  16.273  -5.563  1.00  0.00     0.047 A 
HETATM   18  C1  UNL     1      21.099  16.769  -5.009  1.00  0.00     0.071 C 
HETATM   19  N1  UNL     1      23.637  16.716  -5.256  1.00  0.00    -0.301 N 
HETATM   20  N2  UNL     1      24.573  16.068  -5.921  1.00  0.00    -0.291 N 
ATOM     21  H1  UNL     1      23.825  17.465  -4.588  1.00  0.00     0.187 HD
HETATM   22  C6  UNL     1      23.947  15.148  -6.713  1.00  0.00     0.050 A 
HETATM   23  C7  UNL     1      24.640  14.223  -7.634  1.00  0.00     0.072 C 
BRANCH  20  24
HETATM   24  C3  UNL     1      26.012  16.265  -5.854  1.00  0.00     0.100 C 
HETATM   25  C4  UNL     1      26.341  17.008  -4.569  1.00  0.00     0.034 C 
HETATM   26  C5  UNL     1      26.537  17.112  -6.986  1.00  0.00     0.034 C 
ENDBRANCH  20  24
ENDBRANCH  13  16
ENDBRANCH  11  13
ENDBRANCH   1  11
BRANCH   7  27
HETATM   27  C13 UNL     1      13.473  11.377  -6.512  1.00  0.00     0.086 C 
HETATM   28  C14 UNL     1      13.599   9.876  -6.607  1.00  0.00     0.026 C 
HETATM   29  C15 UNL     1      12.825   9.391  -7.817  1.00  0.00     0.007 C 
HETATM   30  C16 UNL     1      13.544   9.945  -9.050  1.00  0.00    -0.010 A 
HETATM   31  C17 UNL     1      12.700  10.694 -10.043  1.00  0.00     0.010 A 
HETATM   32  C18 UNL     1      13.544  11.432  -9.012  1.00  0.00    -0.008 A 
HETATM   33  C19 UNL     1      12.878  11.961  -7.780  1.00  0.00     0.030 C 
ENDBRANCH   7  27
TORSDOF 5
ENDMDL
MODEL 4
REMARK VINA RESULT: -8.289607587      3.283      5.872
REMARK  5 active torsions:
REMARK  status: ('A' for Active; 'I' for Inactive)
REMARK    1  A    between atoms: N2_5  and  C3_6 
REMARK    2  A    between atoms: C8_11  and  S1_12 
REMARK    3  A    between atoms: S1_12  and  N3_15 
REMARK    4  A    between atoms: N3_15  and  C9_17 
REMARK       I    between atoms: N4_20  and  C12_21 
REMARK       I    between atoms: C12_21  and  N5_23 
REMARK    5  A    between atoms: N5_23  and  C13_25 
ROOT
HETATM    1  C9  UNL     1      19.139  13.234  -6.382  1.00  0.00     0.096 C 
HETATM    2  C10 UNL     1      18.646  12.257  -5.330  1.00  0.00     0.045 C 
HETATM    3  C11 UNL     1      17.157  12.497  -5.047  1.00  0.00     0.129 C 
HETATM    4  N4  UNL     1      16.435  12.818  -6.262  1.00  0.00    -0.334 N 
HETATM    5  C12 UNL     1      15.276  12.110  -6.651  1.00  0.00     0.318 C 
HETATM    6  O3  UNL     1      14.871  11.176  -5.916  1.00  0.00    -0.247 OA
HETATM    7  N5  UNL     1      14.597  12.438  -7.825  1.00  0.00    -0.338 N 
ATOM      8  H5  UNL     1      14.976  13.206  -8.379  1.00  0.00     0.164 HD
HETATM    9  C20 UNL     1      16.916  13.905  -7.106  1.00  0.00     0.129 C 
HETATM   10  C21 UNL     1      18.180  14.435  -6.464  1.00  0.00     0.045 C 
ENDROOT
BRANCH   1  11
HETATM   11  N3  UNL     1      20.480  13.604  -6.247  1.00  0.00    -0.310 N 
ATOM     12  H3  UNL     1      21.026  13.212  -5.480  1.00  0.00     0.172 HD
BRANCH  11  13
HETATM   13  S1  UNL     1      21.216  14.665  -7.297  1.00  0.00     0.263 S 
HETATM   14  O1  UNL     1      21.748  14.048  -8.561  1.00  0.00    -0.200 OA
HETATM   15  O2  UNL     1      20.304  15.792  -7.758  1.00  0.00    -0.200 OA
BRANCH  13  16
HETATM   16  C8  UNL     1      22.592  15.424  -6.530  1.00  0.00     0.126 A 
HETATM   17  C2  UNL     1      22.445  16.373  -5.519  1.00  0.00     0.047 A 
HETATM   18  C1  UNL     1      21.167  16.887  -4.917  1.00  0.00     0.071 C 
HETATM   19  N1  UNL     1      23.698  16.738  -5.195  1.00  0.00    -0.301 N 
HETATM   20  N2  UNL     1      24.598  16.097  -5.914  1.00  0.00    -0.291 N 
ATOM     21  H1  UNL     1      23.925  17.428  -4.478  1.00  0.00     0.187 HD
HETATM   22  C6  UNL     1      23.924  15.265  -6.762  1.00  0.00     0.050 A 
HETATM   23  C7  UNL     1      24.568  14.377  -7.754  1.00  0.00     0.072 C 
BRANCH  20  24
HETATM   24  C3  UNL     1      26.045  16.224  -5.850  1.00  0.00     0.100 C 
HETATM   25  C4  UNL     1      26.418  16.850  -4.514  1.00  0.00     0.034 C 
HETATM   26  C5  UNL     1      26.598  17.133  -6.918  1.00  0.00     0.034 C 
ENDBRANCH  20  24
ENDBRANCH  13  16
ENDBRANCH  11  13
ENDBRANCH   1  11
BRANCH   7  27
HETATM   27  C13 UNL     1      13.404  11.789  -8.330  1.00  0.00     0.086 C 
HETATM   28  C14 UNL     1      13.786  10.691  -9.293  1.00  0.00     0.026 C 
HETATM   29  C15 UNL     1      12.916  10.794 -10.529  1.00  0.00     0.007 C 
HETATM   30  C16 UNL     1      13.293  12.104 -11.226  1.00  0.00    -0.010 A 
HETATM   31  C17 UNL     1      12.165  13.040 -11.560  1.00  0.00     0.010 A 
HETATM   32  C18 UNL     1      13.027  13.255 -10.322  1.00  0.00    -0.008 A 
HETATM   33  C19 UNL     1      12.501  12.813  -8.992  1.00  0.00     0.030 C 
ENDBRANCH   7  27
TORSDOF 5
ENDMDL
MODEL 5
REMARK VINA RESULT: -8.242292460      1.713      2.627
REMARK  5 active torsions:
REMARK  status: ('A' for Active; 'I' for Inactive)
REMARK    1  A    between atoms: N2_5  and  C3_6 
REMARK    2  A    between atoms: C8_11  and  S1_12 
REMARK    3  A    between atoms: S1_12  and  N3_15 
REMARK    4  A    between atoms: N3_15  and  C9_17 
REMARK       I    between atoms: N4_20  and  C12_21 
REMARK       I    between atoms: C12_21  and  N5_23 
REMARK    5  A    between atoms: N5_23  and  C13_25 
ROOT
HETATM    1  C9  UNL     1      19.909  13.149  -5.630  1.00  0.00     0.096 C 
HETATM    2  C10 UNL     1      18.562  13.830  -5.792  1.00  0.00     0.045 C 
HETATM    3  C11 UNL     1      17.438  12.785  -5.764  1.00  0.00     0.129 C 
HETATM    4  N4  UNL     1      17.712  11.742  -4.795  1.00  0.00    -0.334 N 
HETATM    5  C12 UNL     1      16.779  11.389  -3.794  1.00  0.00     0.318 C 
HETATM    6  O3  UNL     1      15.685  12.005  -3.753  1.00  0.00    -0.247 OA
HETATM    7  N5  UNL     1      17.065  10.381  -2.873  1.00  0.00    -0.338 N 
ATOM      8  H5  UNL     1      17.970   9.920  -2.960  1.00  0.00     0.164 HD
HETATM    9  C20 UNL     1      18.986  11.035  -4.855  1.00  0.00     0.129 C 
HETATM   10  C21 UNL     1      19.781  11.656  -5.984  1.00  0.00     0.045 C 
ENDROOT
BRANCH   1  11
HETATM   11  N3  UNL     1      20.964  13.786  -6.289  1.00  0.00    -0.310 N 
ATOM     12  H3  UNL     1      21.560  13.239  -6.911  1.00  0.00     0.172 HD
BRANCH  11  13
HETATM   13  S1  UNL     1      21.280  15.408  -6.093  1.00  0.00     0.263 S 
HETATM   14  O1  UNL     1      20.647  16.310  -7.117  1.00  0.00    -0.200 OA
HETATM   15  O2  UNL     1      20.831  15.955  -4.748  1.00  0.00    -0.200 OA
BRANCH  13  16
HETATM   16  C8  UNL     1      22.999  15.709  -6.202  1.00  0.00     0.126 A 
HETATM   17  C2  UNL     1      23.811  15.037  -7.116  1.00  0.00     0.047 A 
HETATM   18  C1  UNL     1      23.400  14.006  -8.129  1.00  0.00     0.071 C 
HETATM   19  N1  UNL     1      25.051  15.509  -6.896  1.00  0.00    -0.301 N 
HETATM   20  N2  UNL     1      25.072  16.409  -5.933  1.00  0.00    -0.291 N 
ATOM     21  H1  UNL     1      25.877  15.207  -7.413  1.00  0.00     0.187 HD
HETATM   22  C6  UNL     1      23.790  16.551  -5.481  1.00  0.00     0.050 A 
HETATM   23  C7  UNL     1      23.382  17.457  -4.387  1.00  0.00     0.072 C 
BRANCH  20  24
HETATM   24  C3  UNL     1      26.220  17.137  -5.418  1.00  0.00     0.100 C 
HETATM   25  C4  UNL     1      27.283  17.197  -6.503  1.00  0.00     0.034 C 
HETATM   26  C5  UNL     1      26.856  16.457  -4.231  1.00  0.00     0.034 C 
ENDBRANCH  20  24
ENDBRANCH  13  16
ENDBRANCH  11  13
ENDBRANCH   1  11
BRANCH   7  27
HETATM   27  C13 UNL     1      16.196   9.931  -1.805  1.00  0.00     0.086 C 
HETATM   28  C14 UNL     1      17.000   9.181  -0.771  1.00  0.00     0.026 C 
HETATM   29  C15 UNL     1      16.271   7.903  -0.410  1.00  0.00     0.007 C 
HETATM   30  C16 UNL     1      16.282   7.020  -1.661  1.00  0.00    -0.010 A 
HETATM   31  C17 UNL     1      14.955   6.482  -2.119  1.00  0.00     0.010 A 
HETATM   32  C18 UNL     1      15.576   7.710  -2.774  1.00  0.00    -0.008 A 
HETATM   33  C19 UNL     1      15.086   9.066  -2.373  1.00  0.00     0.030 C 
ENDBRANCH   7  27
TORSDOF 5
ENDMDL
