MODEL 1
REMARK VINA RESULT: -9.372147085      0.000      0.000
REMARK  11 active torsions:
REMARK  status: ('A' for Active; 'I' for Inactive)
REMARK    1  A    between atoms: N1_1  and  C1_4 
REMARK    2  A    between atoms: C2_7  and  N3_8 
REMARK    3  A    between atoms: C3_11  and  C4_12 
REMARK       I    between atoms: C4_12  and  N4_14 
REMARK    4  A    between atoms: C5_16  and  C6_17 
REMARK    5  A    between atoms: C7_20  and  N6_21 
REMARK    6  A    between atoms: C8_23  and  C9_24 
REMARK    7  A    between atoms: C11_26  and  O4_27 
REMARK    8  A    between atoms: C13_30  and  N7_31 
REMARK    9  A    between atoms: C15_37  and  N9_38 
REMARK   10  A    between atoms: N9_38  and  S1_40 
REMARK   11  A    between atoms: S1_40  and  N10_41 
ROOT
HETATM    1  C6  UNL     1      23.787  -2.106   2.848  1.00  0.00     0.166 C 
HETATM    2  N5  UNL     1      22.780  -1.274   2.236  1.00  0.00    -0.349 N 
ATOM      3  H5  UNL     1      22.803  -0.254   2.210  1.00  0.00     0.163 HD
HETATM    4  C7  UNL     1      21.827  -2.019   1.716  1.00  0.00     0.177 C 
HETATM    5  N8  UNL     1      22.155  -3.405   1.970  1.00  0.00    -0.338 N 
ATOM      6  H8  UNL     1      21.842  -4.219   1.439  1.00  0.00     0.164 HD
HETATM    7  C15 UNL     1      23.034  -3.403   3.153  1.00  0.00     0.224 C 
ENDROOT
BRANCH   1   8
HETATM    8  C5  UNL     1      24.394  -1.571   4.058  1.00  0.00     0.093 C 
HETATM    9  N4  UNL     1      25.695  -1.554   4.185  1.00  0.00    -0.333 N 
HETATM   10  C4  UNL     1      26.249  -1.035   5.352  1.00  0.00     0.283 C 
ATOM     11  H4  UNL     1      26.293  -1.914   3.442  1.00  0.00     0.168 HD
HETATM   12  O3  UNL     1      25.630  -0.018   5.853  1.00  0.00    -0.265 OA
BRANCH  10  13
HETATM   13  C3  UNL     1      27.425  -1.536   6.017  1.00  0.00     0.197 A 
HETATM   14  C2  UNL     1      27.885  -2.771   6.324  1.00  0.00     0.216 A 
HETATM   15  N2  UNL     1      29.094  -2.615   6.982  1.00  0.00    -0.301 N 
HETATM   16  C1  UNL     1      29.298  -1.297   7.034  1.00  0.00     0.224 A 
ATOM     17  H2  UNL     1      29.699  -3.350   7.347  1.00  0.00     0.171 HD
HETATM   18  O9  UNL     1      28.337  -0.662   6.479  1.00  0.00    -0.270 OA
BRANCH  14  19
HETATM   19  N3  UNL     1      27.311  -4.033   6.063  1.00  0.00    -0.095 N 
HETATM   20  O1  UNL     1      27.382  -4.913   6.973  1.00  0.00    -0.530 OA
HETATM   21  O2  UNL     1      26.699  -4.385   4.944  1.00  0.00    -0.530 OA
ENDBRANCH  14  19
BRANCH  16  22
HETATM   22  N1  UNL     1      30.341  -0.729   7.582  1.00  0.00    -0.365 N 
ATOM     23  H12 UNL     1      30.388  -0.423   8.554  1.00  0.00     0.159 HD
ATOM     24  H11 UNL     1      31.215  -0.531   7.095  1.00  0.00     0.159 HD
ENDBRANCH  16  22
ENDBRANCH  10  13
ENDBRANCH   1   8
BRANCH   7  25
HETATM   25  N9  UNL     1      23.873  -4.555   3.194  1.00  0.00    -0.279 N 
ATOM     26  H9  UNL     1      24.889  -4.548   3.113  1.00  0.00     0.176 HD
BRANCH  25  27
HETATM   27  S1  UNL     1      22.896  -5.960   3.403  1.00  0.00     0.314 S 
HETATM   28  O7  UNL     1      22.238  -6.370   2.097  1.00  0.00    -0.183 OA
HETATM   29  O8  UNL     1      21.772  -5.694   4.386  1.00  0.00    -0.183 OA
BRANCH  27  30
HETATM   30  N10 UNL     1      23.781  -7.313   3.974  1.00  0.00    -0.312 N 
ATOM     31 2H10 UNL     1      24.327  -7.288   4.836  1.00  0.00     0.170 HD
ATOM     32 1H10 UNL     1      23.699  -8.128   3.367  1.00  0.00     0.170 HD
ENDBRANCH  27  30
ENDBRANCH  25  27
ENDBRANCH   7  25
BRANCH   4  33
HETATM   33  N6  UNL     1      20.681  -1.638   1.043  1.00  0.00    -0.338 N 
HETATM   34  C8  UNL     1      19.967  -0.658   0.882  1.00  0.00     0.102 C 
ATOM     35  H6  UNL     1      20.314  -2.426   0.510  1.00  0.00     0.168 HD
BRANCH  34  36
HETATM   36  C9  UNL     1      20.056   0.695   1.417  1.00  0.00    -0.016 A 
HETATM   37  C10 UNL     1      21.035   1.109   2.275  1.00  0.00     0.049 A 
HETATM   38  C11 UNL     1      21.066   2.420   2.760  1.00  0.00     0.068 A 
HETATM   39  C12 UNL     1      20.102   3.328   2.381  1.00  0.00     0.072 A 
HETATM   40  C13 UNL     1      19.110   2.942   1.523  1.00  0.00     0.106 A 
HETATM   41  C14 UNL     1      19.103   1.653   1.063  1.00  0.00     0.049 A 
BRANCH  38  42
HETATM   42  O4  UNL     1      22.060   2.824   3.624  1.00  0.00    -0.361 OA
ATOM     43  H4  UNL     1      22.254   3.747   3.739  1.00  0.00     0.217 HD
ENDBRANCH  38  42
BRANCH  40  44
HETATM   44  N7  UNL     1      18.080   3.860   1.101  1.00  0.00    -0.116 N 
HETATM   45  O5  UNL     1      16.904   3.666   1.458  1.00  0.00    -0.532 OA
HETATM   46  O6  UNL     1      18.343   4.936   0.325  1.00  0.00    -0.532 OA
ENDBRANCH  40  44
ENDBRANCH  34  36
ENDBRANCH   4  33
TORSDOF 11
ENDMDL
MODEL 2
REMARK VINA RESULT: -9.289532196      1.250      1.765
REMARK  11 active torsions:
REMARK  status: ('A' for Active; 'I' for Inactive)
REMARK    1  A    between atoms: N1_1  and  C1_4 
REMARK    2  A    between atoms: C2_7  and  N3_8 
REMARK    3  A    between atoms: C3_11  and  C4_12 
REMARK       I    between atoms: C4_12  and  N4_14 
REMARK    4  A    between atoms: C5_16  and  C6_17 
REMARK    5  A    between atoms: C7_20  and  N6_21 
REMARK    6  A    between atoms: C8_23  and  C9_24 
REMARK    7  A    between atoms: C11_26  and  O4_27 
REMARK    8  A    between atoms: C13_30  and  N7_31 
REMARK    9  A    between atoms: C15_37  and  N9_38 
REMARK   10  A    between atoms: N9_38  and  S1_40 
REMARK   11  A    between atoms: S1_40  and  N10_41 
ROOT
HETATM    1  C6  UNL     1      23.952  -2.241   2.882  1.00  0.00     0.166 C 
HETATM    2  N5  UNL     1      22.970  -1.350   2.314  1.00  0.00    -0.349 N 
ATOM      3  H5  UNL     1      23.053  -0.333   2.282  1.00  0.00     0.163 HD
HETATM    4  C7  UNL     1      21.949  -2.036   1.845  1.00  0.00     0.177 C 
HETATM    5  N8  UNL     1      22.203  -3.439   2.090  1.00  0.00    -0.338 N 
ATOM      6  H8  UNL     1      21.815  -4.233   1.579  1.00  0.00     0.164 HD
HETATM    7  C15 UNL     1      23.136  -3.488   3.229  1.00  0.00     0.224 C 
ENDROOT
BRANCH   1   8
HETATM    8  C5  UNL     1      24.648  -1.741   4.059  1.00  0.00     0.093 C 
HETATM    9  N4  UNL     1      25.857  -2.156   4.330  1.00  0.00    -0.333 N 
HETATM   10  C4  UNL     1      26.501  -1.661   5.460  1.00  0.00     0.283 C 
ATOM     11  H4  UNL     1      26.321  -2.831   3.723  1.00  0.00     0.168 HD
HETATM   12  O3  UNL     1      26.268  -0.419   5.729  1.00  0.00    -0.265 OA
BRANCH  10  13
HETATM   13  C3  UNL     1      27.376  -2.412   6.324  1.00  0.00     0.197 A 
HETATM   14  C2  UNL     1      27.550  -2.487   7.663  1.00  0.00     0.216 A 
HETATM   15  N2  UNL     1      28.563  -3.399   7.903  1.00  0.00    -0.301 N 
HETATM   16  C1  UNL     1      28.944  -3.827   6.698  1.00  0.00     0.224 A 
ATOM     17  H2  UNL     1      28.937  -3.685   8.808  1.00  0.00     0.171 HD
HETATM   18  O9  UNL     1      28.263  -3.261   5.775  1.00  0.00    -0.270 OA
BRANCH  14  19
HETATM   19  N3  UNL     1      26.872  -1.802   8.695  1.00  0.00    -0.095 N 
HETATM   20  O1  UNL     1      27.246  -0.621   8.963  1.00  0.00    -0.530 OA
HETATM   21  O2  UNL     1      25.874  -2.286   9.415  1.00  0.00    -0.530 OA
ENDBRANCH  14  19
BRANCH  16  22
HETATM   22  N1  UNL     1      29.889  -4.707   6.487  1.00  0.00    -0.365 N 
ATOM     23  H12 UNL     1      30.697  -4.553   5.883  1.00  0.00     0.159 HD
ATOM     24  H11 UNL     1      29.917  -5.637   6.903  1.00  0.00     0.159 HD
ENDBRANCH  16  22
ENDBRANCH  10  13
ENDBRANCH   1   8
BRANCH   7  25
HETATM   25  N9  UNL     1      23.904  -4.689   3.237  1.00  0.00    -0.279 N 
ATOM     26  H9  UNL     1      24.916  -4.744   3.127  1.00  0.00     0.176 HD
BRANCH  25  27
HETATM   27  S1  UNL     1      22.850  -6.034   3.462  1.00  0.00     0.314 S 
HETATM   28  O7  UNL     1      22.095  -6.360   2.184  1.00  0.00    -0.183 OA
HETATM   29  O8  UNL     1      21.801  -5.727   4.514  1.00  0.00    -0.183 OA
BRANCH  27  30
HETATM   30  N10 UNL     1      23.673  -7.458   3.944  1.00  0.00    -0.312 N 
ATOM     31 2H10 UNL     1      23.874  -7.673   4.921  1.00  0.00     0.170 HD
ATOM     32 1H10 UNL     1      23.932  -8.055   3.158  1.00  0.00     0.170 HD
ENDBRANCH  27  30
ENDBRANCH  25  27
ENDBRANCH   7  25
BRANCH   4  33
HETATM   33  N6  UNL     1      20.797  -1.586   1.225  1.00  0.00    -0.338 N 
HETATM   34  C8  UNL     1      20.125  -0.571   1.112  1.00  0.00     0.102 C 
ATOM     35  H6  UNL     1      20.373  -2.345   0.691  1.00  0.00     0.168 HD
BRANCH  34  36
HETATM   36  C9  UNL     1      20.300   0.765   1.670  1.00  0.00    -0.016 A 
HETATM   37  C10 UNL     1      21.414   1.162   2.353  1.00  0.00     0.049 A 
HETATM   38  C11 UNL     1      21.522   2.457   2.871  1.00  0.00     0.068 A 
HETATM   39  C12 UNL     1      20.500   3.364   2.703  1.00  0.00     0.072 A 
HETATM   40  C13 UNL     1      19.372   2.994   2.024  1.00  0.00     0.106 A 
HETATM   41  C14 UNL     1      19.291   1.721   1.527  1.00  0.00     0.049 A 
BRANCH  38  42
HETATM   42  O4  UNL     1      22.652   2.844   3.557  1.00  0.00    -0.361 OA
ATOM     43  H4  UNL     1      22.684   2.790   4.505  1.00  0.00     0.217 HD
ENDBRANCH  38  42
BRANCH  40  44
HETATM   44  N7  UNL     1      18.277   3.912   1.826  1.00  0.00    -0.116 N 
HETATM   45  O5  UNL     1      18.429   5.115   2.110  1.00  0.00    -0.532 OA
HETATM   46  O6  UNL     1      17.079   3.517   1.341  1.00  0.00    -0.532 OA
ENDBRANCH  40  44
ENDBRANCH  34  36
ENDBRANCH   4  33
TORSDOF 11
ENDMDL
MODEL 3
REMARK VINA RESULT: -9.271513960      1.371      1.853
REMARK  11 active torsions:
REMARK  status: ('A' for Active; 'I' for Inactive)
REMARK    1  A    between atoms: N1_1  and  C1_4 
REMARK    2  A    between atoms: C2_7  and  N3_8 
REMARK    3  A    between atoms: C3_11  and  C4_12 
REMARK       I    between atoms: C4_12  and  N4_14 
REMARK    4  A    between atoms: C5_16  and  C6_17 
REMARK    5  A    between atoms: C7_20  and  N6_21 
REMARK    6  A    between atoms: C8_23  and  C9_24 
REMARK    7  A    between atoms: C11_26  and  O4_27 
REMARK    8  A    between atoms: C13_30  and  N7_31 
REMARK    9  A    between atoms: C15_37  and  N9_38 
REMARK   10  A    between atoms: N9_38  and  S1_40 
REMARK   11  A    between atoms: S1_40  and  N10_41 
ROOT
HETATM    1  C6  UNL     1      23.928  -2.283   2.893  1.00  0.00     0.166 C 
HETATM    2  N5  UNL     1      22.953  -1.390   2.314  1.00  0.00    -0.349 N 
ATOM      3  H5  UNL     1      23.026  -0.373   2.306  1.00  0.00     0.163 HD
HETATM    4  C7  UNL     1      21.956  -2.078   1.797  1.00  0.00     0.177 C 
HETATM    5  N8  UNL     1      22.219  -3.483   2.020  1.00  0.00    -0.338 N 
ATOM      6  H8  UNL     1      21.857  -4.269   1.480  1.00  0.00     0.164 HD
HETATM    7  C15 UNL     1      23.116  -3.546   3.187  1.00  0.00     0.224 C 
ENDROOT
BRANCH   1   8
HETATM    8  C5  UNL     1      24.580  -1.801   4.102  1.00  0.00     0.093 C 
HETATM    9  N4  UNL     1      25.814  -2.144   4.361  1.00  0.00    -0.333 N 
HETATM   10  C4  UNL     1      26.414  -1.669   5.524  1.00  0.00     0.283 C 
ATOM     11  H4  UNL     1      26.328  -2.751   3.723  1.00  0.00     0.168 HD
HETATM   12  O3  UNL     1      26.093  -0.463   5.857  1.00  0.00    -0.265 OA
BRANCH  10  13
HETATM   13  C3  UNL     1      27.336  -2.403   6.353  1.00  0.00     0.197 A 
HETATM   14  C2  UNL     1      27.584  -2.449   7.682  1.00  0.00     0.216 A 
HETATM   15  N2  UNL     1      28.608  -3.359   7.885  1.00  0.00    -0.301 N 
HETATM   16  C1  UNL     1      28.921  -3.812   6.670  1.00  0.00     0.224 A 
ATOM     17  H2  UNL     1      29.032  -3.625   8.773  1.00  0.00     0.171 HD
HETATM   18  O9  UNL     1      28.191  -3.265   5.774  1.00  0.00    -0.270 OA
BRANCH  14  19
HETATM   19  N3  UNL     1      26.966  -1.742   8.735  1.00  0.00    -0.095 N 
HETATM   20  O1  UNL     1      25.980  -2.290   9.314  1.00  0.00    -0.530 OA
HETATM   21  O2  UNL     1      27.325  -0.547   9.177  1.00  0.00    -0.530 OA
ENDBRANCH  14  19
BRANCH  16  22
HETATM   22  N1  UNL     1      29.853  -4.699   6.425  1.00  0.00    -0.365 N 
ATOM     23  H12 UNL     1      30.035  -5.519   7.003  1.00  0.00     0.159 HD
ATOM     24  H11 UNL     1      30.492  -4.662   5.632  1.00  0.00     0.159 HD
ENDBRANCH  16  22
ENDBRANCH  10  13
ENDBRANCH   1   8
BRANCH   7  25
HETATM   25  N9  UNL     1      23.898  -4.738   3.193  1.00  0.00    -0.279 N 
ATOM     26  H9  UNL     1      24.911  -4.781   3.086  1.00  0.00     0.176 HD
BRANCH  25  27
HETATM   27  S1  UNL     1      22.858  -6.097   3.411  1.00  0.00     0.314 S 
HETATM   28  O7  UNL     1      23.655  -7.359   3.690  1.00  0.00    -0.183 OA
HETATM   29  O8  UNL     1      22.053  -6.365   2.154  1.00  0.00    -0.183 OA
BRANCH  27  30
HETATM   30  N10 UNL     1      21.754  -5.895   4.706  1.00  0.00    -0.312 N 
ATOM     31 2H10 UNL     1      21.077  -6.612   4.968  1.00  0.00     0.170 HD
ATOM     32 1H10 UNL     1      21.849  -4.994   5.175  1.00  0.00     0.170 HD
ENDBRANCH  27  30
ENDBRANCH  25  27
ENDBRANCH   7  25
BRANCH   4  33
HETATM   33  N6  UNL     1      20.820  -1.627   1.151  1.00  0.00    -0.338 N 
HETATM   34  C8  UNL     1      20.145  -0.615   1.030  1.00  0.00     0.102 C 
ATOM     35  H6  UNL     1      20.415  -2.382   0.597  1.00  0.00     0.168 HD
BRANCH  34  36
HETATM   36  C9  UNL     1      20.296   0.716   1.608  1.00  0.00    -0.016 A 
HETATM   37  C10 UNL     1      21.400   1.120   2.304  1.00  0.00     0.049 A 
HETATM   38  C11 UNL     1      21.485   2.409   2.841  1.00  0.00     0.068 A 
HETATM   39  C12 UNL     1      20.451   3.303   2.678  1.00  0.00     0.072 A 
HETATM   40  C13 UNL     1      19.334   2.926   1.985  1.00  0.00     0.106 A 
HETATM   41  C14 UNL     1      19.275   1.660   1.471  1.00  0.00     0.049 A 
BRANCH  38  42
HETATM   42  O4  UNL     1      22.605   2.802   3.540  1.00  0.00    -0.361 OA
ATOM     43  H4  UNL     1      23.168   3.489   3.201  1.00  0.00     0.217 HD
ENDBRANCH  38  42
BRANCH  40  44
HETATM   44  N7  UNL     1      18.227   3.831   1.792  1.00  0.00    -0.116 N 
HETATM   45  O5  UNL     1      17.152   3.395   1.342  1.00  0.00    -0.532 OA
HETATM   46  O6  UNL     1      18.310   5.149   2.083  1.00  0.00    -0.532 OA
ENDBRANCH  40  44
ENDBRANCH  34  36
ENDBRANCH   4  33
TORSDOF 11
ENDMDL
MODEL 4
REMARK VINA RESULT: -9.228524843      1.107      2.138
REMARK  11 active torsions:
REMARK  status: ('A' for Active; 'I' for Inactive)
REMARK    1  A    between atoms: N1_1  and  C1_4 
REMARK    2  A    between atoms: C2_7  and  N3_8 
REMARK    3  A    between atoms: C3_11  and  C4_12 
REMARK       I    between atoms: C4_12  and  N4_14 
REMARK    4  A    between atoms: C5_16  and  C6_17 
REMARK    5  A    between atoms: C7_20  and  N6_21 
REMARK    6  A    between atoms: C8_23  and  C9_24 
REMARK    7  A    between atoms: C11_26  and  O4_27 
REMARK    8  A    between atoms: C13_30  and  N7_31 
REMARK    9  A    between atoms: C15_37  and  N9_38 
REMARK   10  A    between atoms: N9_38  and  S1_40 
REMARK   11  A    between atoms: S1_40  and  N10_41 
ROOT
HETATM    1  C6  UNL     1      23.768  -1.974   2.835  1.00  0.00     0.166 C 
HETATM    2  N5  UNL     1      22.723  -1.138   2.297  1.00  0.00    -0.349 N 
ATOM      3  H5  UNL     1      22.703  -0.119   2.356  1.00  0.00     0.163 HD
HETATM    4  C7  UNL     1      21.799  -1.877   1.720  1.00  0.00     0.177 C 
HETATM    5  N8  UNL     1      22.187  -3.264   1.857  1.00  0.00    -0.338 N 
ATOM      6  H8  UNL     1      21.905  -4.043   1.261  1.00  0.00     0.164 HD
HETATM    7  C15 UNL     1      23.072  -3.322   3.033  1.00  0.00     0.224 C 
ENDROOT
BRANCH   1   8
HETATM    8  C5  UNL     1      24.359  -1.515   4.084  1.00  0.00     0.093 C 
HETATM    9  N4  UNL     1      25.659  -1.458   4.211  1.00  0.00    -0.333 N 
HETATM   10  C4  UNL     1      26.198  -1.015   5.415  1.00  0.00     0.283 C 
ATOM     11  H4  UNL     1      26.267  -1.734   3.440  1.00  0.00     0.168 HD
HETATM   12  O3  UNL     1      25.542  -0.066   5.998  1.00  0.00    -0.265 OA
BRANCH  10  13
HETATM   13  C3  UNL     1      27.395  -1.522   6.036  1.00  0.00     0.197 A 
HETATM   14  C2  UNL     1      27.883  -2.760   6.281  1.00  0.00     0.216 A 
HETATM   15  N2  UNL     1      29.101  -2.610   6.921  1.00  0.00    -0.301 N 
HETATM   16  C1  UNL     1      29.284  -1.293   7.026  1.00  0.00     0.224 A 
ATOM     17  H2  UNL     1      29.726  -3.349   7.244  1.00  0.00     0.171 HD
HETATM   18  O9  UNL     1      28.301  -0.652   6.516  1.00  0.00    -0.270 OA
BRANCH  14  19
HETATM   19  N3  UNL     1      27.325  -4.021   5.978  1.00  0.00    -0.095 N 
HETATM   20  O1  UNL     1      27.435  -4.939   6.845  1.00  0.00    -0.530 OA
HETATM   21  O2  UNL     1      26.691  -4.334   4.860  1.00  0.00    -0.530 OA
ENDBRANCH  14  19
BRANCH  16  22
HETATM   22  N1  UNL     1      30.328  -0.729   7.577  1.00  0.00    -0.365 N 
ATOM     23  H12 UNL     1      30.751  -1.031   8.455  1.00  0.00     0.159 HD
ATOM     24  H11 UNL     1      30.827   0.071   7.188  1.00  0.00     0.159 HD
ENDBRANCH  16  22
ENDBRANCH  10  13
ENDBRANCH   1   8
BRANCH   7  25
HETATM   25  N9  UNL     1      23.959  -4.437   2.977  1.00  0.00    -0.279 N 
ATOM     26  H9  UNL     1      24.959  -4.387   2.784  1.00  0.00     0.176 HD
BRANCH  25  27
HETATM   27  S1  UNL     1      23.073  -5.883   3.287  1.00  0.00     0.314 S 
HETATM   28  O7  UNL     1      21.576  -5.635   3.219  1.00  0.00    -0.183 OA
HETATM   29  O8  UNL     1      23.359  -6.401   4.684  1.00  0.00    -0.183 OA
BRANCH  27  30
HETATM   30  N10 UNL     1      23.432  -7.141   2.180  1.00  0.00    -0.312 N 
ATOM     31 2H10 UNL     1      23.710  -6.961   1.215  1.00  0.00     0.170 HD
ATOM     32 1H10 UNL     1      23.338  -8.071   2.588  1.00  0.00     0.170 HD
ENDBRANCH  27  30
ENDBRANCH  25  27
ENDBRANCH   7  25
BRANCH   4  33
HETATM   33  N6  UNL     1      20.634  -1.490   1.083  1.00  0.00    -0.338 N 
HETATM   34  C8  UNL     1      19.910  -0.512   0.959  1.00  0.00     0.102 C 
ATOM     35  H6  UNL     1      20.258  -2.271   0.546  1.00  0.00     0.168 HD
BRANCH  34  36
HETATM   36  C9  UNL     1      20.007   0.832   1.516  1.00  0.00    -0.016 A 
HETATM   37  C10 UNL     1      18.975   1.728   1.519  1.00  0.00     0.049 A 
HETATM   38  C11 UNL     1      19.129   3.007   2.064  1.00  0.00     0.068 A 
HETATM   39  C12 UNL     1      20.332   3.393   2.611  1.00  0.00     0.072 A 
HETATM   40  C13 UNL     1      21.383   2.517   2.622  1.00  0.00     0.106 A 
HETATM   41  C14 UNL     1      21.205   1.272   2.082  1.00  0.00     0.049 A 
BRANCH  38  42
HETATM   42  O4  UNL     1      18.080   3.899   2.061  1.00  0.00    -0.361 OA
ATOM     43  H4  UNL     1      17.249   3.669   2.460  1.00  0.00     0.217 HD
ENDBRANCH  38  42
BRANCH  40  44
HETATM   44  N7  UNL     1      22.660   2.881   3.184  1.00  0.00    -0.116 N 
HETATM   45  O5  UNL     1      23.575   2.037   3.219  1.00  0.00    -0.532 OA
HETATM   46  O6  UNL     1      22.909   4.114   3.679  1.00  0.00    -0.532 OA
ENDBRANCH  40  44
ENDBRANCH  34  36
ENDBRANCH   4  33
TORSDOF 11
ENDMDL
MODEL 5
REMARK VINA RESULT: -9.206329465      2.057      9.089
REMARK  11 active torsions:
REMARK  status: ('A' for Active; 'I' for Inactive)
REMARK    1  A    between atoms: N1_1  and  C1_4 
REMARK    2  A    between atoms: C2_7  and  N3_8 
REMARK    3  A    between atoms: C3_11  and  C4_12 
REMARK       I    between atoms: C4_12  and  N4_14 
REMARK    4  A    between atoms: C5_16  and  C6_17 
REMARK    5  A    between atoms: C7_20  and  N6_21 
REMARK    6  A    between atoms: C8_23  and  C9_24 
REMARK    7  A    between atoms: C11_26  and  O4_27 
REMARK    8  A    between atoms: C13_30  and  N7_31 
REMARK    9  A    between atoms: C15_37  and  N9_38 
REMARK   10  A    between atoms: N9_38  and  S1_40 
REMARK   11  A    between atoms: S1_40  and  N10_41 
ROOT
HETATM    1  C6  UNL     1      22.386  -2.495   3.451  1.00  0.00     0.166 C 
HETATM    2  N5  UNL     1      23.563  -1.664   3.533  1.00  0.00    -0.349 N 
ATOM      3  H5  UNL     1      23.557  -0.644   3.558  1.00  0.00     0.163 HD
HETATM    4  C7  UNL     1      24.647  -2.411   3.571  1.00  0.00     0.177 C 
HETATM    5  N8  UNL     1      24.236  -3.797   3.506  1.00  0.00    -0.338 N 
ATOM      6  H8  UNL     1      24.755  -4.608   3.845  1.00  0.00     0.164 HD
HETATM    7  C15 UNL     1      22.917  -3.798   2.850  1.00  0.00     0.224 C 
ENDROOT
BRANCH   1   8
HETATM    8  C5  UNL     1      21.298  -1.964   2.643  1.00  0.00     0.093 C 
HETATM    9  N4  UNL     1      21.294  -0.704   2.296  1.00  0.00    -0.333 N 
HETATM   10  C4  UNL     1      20.243  -0.223   1.522  1.00  0.00     0.283 C 
ATOM     11  H4  UNL     1      22.049  -0.084   2.589  1.00  0.00     0.168 HD
HETATM   12  O3  UNL     1      19.791  -1.044   0.632  1.00  0.00    -0.265 OA
BRANCH  10  13
HETATM   13  C3  UNL     1      19.642   1.081   1.640  1.00  0.00     0.197 A 
HETATM   14  C2  UNL     1      20.059   2.277   2.118  1.00  0.00     0.216 A 
HETATM   15  N2  UNL     1      19.017   3.175   1.962  1.00  0.00    -0.301 N 
HETATM   16  C1  UNL     1      18.031   2.476   1.398  1.00  0.00     0.224 A 
ATOM     17  H2  UNL     1      19.006   4.161   2.222  1.00  0.00     0.171 HD
HETATM   18  O9  UNL     1      18.382   1.261   1.207  1.00  0.00    -0.270 OA
BRANCH  14  19
HETATM   19  N3  UNL     1      21.301   2.632   2.685  1.00  0.00    -0.095 N 
HETATM   20  O1  UNL     1      21.300   3.494   3.615  1.00  0.00    -0.530 OA
HETATM   21  O2  UNL     1      22.478   2.142   2.331  1.00  0.00    -0.530 OA
ENDBRANCH  14  19
BRANCH  16  22
HETATM   22  N1  UNL     1      16.859   2.966   1.083  1.00  0.00    -0.365 N 
ATOM     23  H12 UNL     1      16.009   2.827   1.629  1.00  0.00     0.159 HD
ATOM     24  H11 UNL     1      16.673   3.538   0.259  1.00  0.00     0.159 HD
ENDBRANCH  16  22
ENDBRANCH  10  13
ENDBRANCH   1   8
BRANCH   7  25
HETATM   25  N9  UNL     1      22.148  -4.945   3.204  1.00  0.00    -0.279 N 
ATOM     26  H9  UNL     1      21.198  -4.928   3.574  1.00  0.00     0.176 HD
BRANCH  25  27
HETATM   27  S1  UNL     1      23.078  -6.365   2.904  1.00  0.00     0.314 S 
HETATM   28  O7  UNL     1      23.769  -6.845   4.169  1.00  0.00    -0.183 OA
HETATM   29  O8  UNL     1      24.175  -6.088   1.894  1.00  0.00    -0.183 OA
BRANCH  27  30
HETATM   30  N10 UNL     1      22.138  -7.670   2.311  1.00  0.00    -0.312 N 
ATOM     31 2H10 UNL     1      22.510  -8.365   1.663  1.00  0.00     0.170 HD
ATOM     32 1H10 UNL     1      21.185  -7.672   2.674  1.00  0.00     0.170 HD
ENDBRANCH  27  30
ENDBRANCH  25  27
ENDBRANCH   7  25
BRANCH   4  33
HETATM   33  N6  UNL     1      25.974  -2.032   3.649  1.00  0.00    -0.338 N 
HETATM   34  C8  UNL     1      26.954  -2.179   4.365  1.00  0.00     0.102 C 
ATOM     35  H6  UNL     1      26.211  -1.439   2.854  1.00  0.00     0.168 HD
BRANCH  34  36
HETATM   36  C9  UNL     1      27.135  -2.925   5.605  1.00  0.00    -0.016 A 
HETATM   37  C10 UNL     1      27.169  -4.289   5.673  1.00  0.00     0.049 A 
HETATM   38  C11 UNL     1      27.340  -4.949   6.894  1.00  0.00     0.068 A 
HETATM   39  C12 UNL     1      27.478  -4.233   8.061  1.00  0.00     0.072 A 
HETATM   40  C13 UNL     1      27.449  -2.866   8.025  1.00  0.00     0.106 A 
HETATM   41  C14 UNL     1      27.280  -2.245   6.817  1.00  0.00     0.049 A 
BRANCH  38  42
HETATM   42  O4  UNL     1      27.372  -6.325   6.947  1.00  0.00    -0.361 OA
ATOM     43  H4  UNL     1      26.788  -6.800   7.526  1.00  0.00     0.217 HD
ENDBRANCH  38  42
BRANCH  40  44
HETATM   44  N7  UNL     1      27.589  -2.078   9.224  1.00  0.00    -0.116 N 
HETATM   45  O5  UNL     1      28.002  -2.619  10.267  1.00  0.00    -0.532 OA
HETATM   46  O6  UNL     1      27.288  -0.761   9.265  1.00  0.00    -0.532 OA
ENDBRANCH  40  44
ENDBRANCH  34  36
ENDBRANCH   4  33
TORSDOF 11
ENDMDL
