MODEL 1
REMARK VINA RESULT: -8.787440319      0.000      0.000
REMARK  12 active torsions:
REMARK  status: ('A' for Active; 'I' for Inactive)
REMARK    1  A    between atoms: C2_2  and  O1_3 
REMARK    2  A    between atoms: O1_3  and  C3_4 
REMARK    3  A    between atoms: C3_4  and  C4_6 
REMARK    4  A    between atoms: N2_11  and  C7_12 
REMARK    5  A    between atoms: C8_15  and  N4_16 
REMARK    6  A    between atoms: N4_16  and  C9_18 
REMARK    7  A    between atoms: C9_18  and  C10_19 
REMARK    8  A    between atoms: C10_19  and  N5_20 
REMARK    9  A    between atoms: N5_20  and  C11_22 
REMARK   10  A    between atoms: C12_25  and  N7_26 
REMARK   11  A    between atoms: C13_30  and  N9_31 
REMARK   12  A    between atoms: C15_43  and  C16_44 
ROOT
HETATM    1  C7  UNL     1      23.403  -3.554   2.882  1.00  0.00     0.706 A 
HETATM    2  N3  UNL     1      24.331  -2.843   3.540  1.00  0.00    -0.022 N 
ATOM      3  H3  UNL     1      25.084  -3.333   4.021  1.00  0.00     0.203 HD
HETATM    4  C8  UNL     1      24.292  -1.497   3.580  1.00  0.00     0.694 A 
HETATM    5  N13 UNL     1      23.308  -0.848   2.950  1.00  0.00    -0.175 N 
ATOM      6  H13 UNL     1      23.280   0.171   2.980  1.00  0.00     0.186 HD
HETATM    7  C15 UNL     1      22.345  -1.521   2.271  1.00  0.00     0.148 A 
HETATM    8  N15 UNL     1      22.420  -2.839   2.257  1.00  0.00    -0.174 N 
ATOM      9  H15 UNL     1      21.701  -3.355   1.749  1.00  0.00     0.186 HD
ENDROOT
BRANCH   4  10
HETATM   10  N4  UNL     1      25.218  -0.839   4.233  1.00  0.00    -0.224 N 
ATOM     11  H4  UNL     1      25.167   0.178   4.295  1.00  0.00     0.177 HD
BRANCH  10  12
HETATM   12  C9  UNL     1      26.303  -1.536   4.862  1.00  0.00     0.158 C 
BRANCH  12  13
HETATM   13  C10 UNL     1      26.608  -1.021   6.240  1.00  0.00     0.158 C 
BRANCH  13  14
HETATM   14  N5  UNL     1      27.476  -1.865   7.017  1.00  0.00    -0.224 N 
ATOM     15  H5  UNL     1      27.257  -1.958   8.008  1.00  0.00     0.177 HD
BRANCH  14  16
HETATM   16  C11 UNL     1      28.593  -2.571   6.548  1.00  0.00     0.707 A 
HETATM   17  N6  UNL     1      28.448  -3.670   5.799  1.00  0.00    -0.021 N 
HETATM   18  C12 UNL     1      29.475  -4.379   5.329  1.00  0.00     0.727 A 
ATOM     19  H6  UNL     1      27.503  -3.981   5.577  1.00  0.00     0.203 HD
HETATM   20  N8  UNL     1      30.746  -3.985   5.610  1.00  0.00     0.202 N 
HETATM   21  C13 UNL     1      31.951  -4.476   5.288  1.00  0.00     0.727 A 
HETATM   22  C14 UNL     1      30.937  -2.866   6.372  1.00  0.00     0.748 A 
HETATM   23  N10 UNL     1      32.889  -3.651   5.859  1.00  0.00    -0.117 N 
HETATM   24  N11 UNL     1      32.266  -2.697   6.501  1.00  0.00    -0.116 N 
ATOM     25  H10 UNL     1      33.901  -3.764   5.792  1.00  0.00     0.206 HD
ATOM     26  H11 UNL     1      32.716  -1.942   7.020  1.00  0.00     0.206 HD
HETATM   27  N12 UNL     1      29.867  -2.191   6.820  1.00  0.00    -0.019 N 
ATOM     28  H12 UNL     1      30.018  -1.358   7.388  1.00  0.00     0.203 HD
BRANCH  18  29
HETATM   29  N7  UNL     1      29.262  -5.447   4.600  1.00  0.00    -0.233 N 
ATOM     30  H72 UNL     1      29.069  -5.357   3.603  1.00  0.00     0.174 HD
ATOM     31  H71 UNL     1      29.288  -6.374   5.025  1.00  0.00     0.174 HD
ENDBRANCH  18  29
BRANCH  21  32
HETATM   32  N9  UNL     1      32.229  -5.497   4.597  1.00  0.00    -0.232 N 
ATOM     33  H92 UNL     1      31.535  -6.078   4.127  1.00  0.00     0.174 HD
ATOM     34  H91 UNL     1      33.145  -5.900   4.396  1.00  0.00     0.174 HD
ENDBRANCH  21  32
ENDBRANCH  14  16
ENDBRANCH  13  14
ENDBRANCH  12  13
ENDBRANCH  10  12
ENDBRANCH   4  10
BRANCH   1  35
HETATM   35  N2  UNL     1      23.383  -4.972   2.800  1.00  0.00    -0.135 N 
HETATM   36  C4  UNL     1      24.368  -5.830   3.135  1.00  0.00     0.204 A 
HETATM   37  N1  UNL     1      23.963  -7.090   2.912  1.00  0.00    -0.345 N 
HETATM   38  C5  UNL     1      22.729  -7.061   2.436  1.00  0.00     0.108 A 
ATOM     39  H1  UNL     1      24.516  -7.930   3.083  1.00  0.00     0.167 HD
HETATM   40  C6  UNL     1      22.357  -5.737   2.362  1.00  0.00     0.134 A 
BRANCH  36  41
HETATM   41  C3  UNL     1      25.664  -5.383   3.661  1.00  0.00     0.328 C 
HETATM   42  O2  UNL     1      26.571  -4.967   2.900  1.00  0.00    -0.256 OA
BRANCH  41  43
HETATM   43  O1  UNL     1      25.947  -5.398   5.018  1.00  0.00    -0.316 OA
BRANCH  43  44
HETATM   44  C2  UNL     1      25.982  -6.593   5.775  1.00  0.00     0.175 C 
HETATM   45  C1  UNL     1      26.910  -6.537   6.941  1.00  0.00     0.034 C 
ENDBRANCH  43  44
ENDBRANCH  41  43
ENDBRANCH  36  41
ENDBRANCH   1  35
BRANCH   7  46
HETATM   46  C16 UNL     1      21.279  -0.820   1.590  1.00  0.00     0.024 A 
HETATM   47  C17 UNL     1      21.226   0.574   1.699  1.00  0.00     0.018 A 
HETATM   48  C18 UNL     1      20.228   1.282   1.068  1.00  0.00     0.018 A 
HETATM   49  C19 UNL     1      19.271   0.630   0.322  1.00  0.00     0.087 A 
HETATM   50  N14 UNL     1      19.326  -0.702   0.220  1.00  0.00    -0.374 N 
HETATM   51  C20 UNL     1      20.315  -1.413   0.844  1.00  0.00     0.102 A 
ATOM     52  H14 UNL     1      18.622  -1.195  -0.330  1.00  0.00     0.164 HD
ENDBRANCH   7  46
TORSDOF 12
ENDMDL
MODEL 2
REMARK VINA RESULT: -8.692364646      2.335      9.016
REMARK  12 active torsions:
REMARK  status: ('A' for Active; 'I' for Inactive)
REMARK    1  A    between atoms: C2_2  and  O1_3 
REMARK    2  A    between atoms: O1_3  and  C3_4 
REMARK    3  A    between atoms: C3_4  and  C4_6 
REMARK    4  A    between atoms: N2_11  and  C7_12 
REMARK    5  A    between atoms: C8_15  and  N4_16 
REMARK    6  A    between atoms: N4_16  and  C9_18 
REMARK    7  A    between atoms: C9_18  and  C10_19 
REMARK    8  A    between atoms: C10_19  and  N5_20 
REMARK    9  A    between atoms: N5_20  and  C11_22 
REMARK   10  A    between atoms: C12_25  and  N7_26 
REMARK   11  A    between atoms: C13_30  and  N9_31 
REMARK   12  A    between atoms: C15_43  and  C16_44 
ROOT
HETATM    1  C7  UNL     1      27.366  -4.156   5.287  1.00  0.00     0.706 A 
HETATM    2  N3  UNL     1      26.737  -3.324   4.444  1.00  0.00    -0.022 N 
ATOM      3  H3  UNL     1      26.559  -3.627   3.487  1.00  0.00     0.203 HD
HETATM    4  C8  UNL     1      26.333  -2.098   4.831  1.00  0.00     0.694 A 
HETATM    5  N13 UNL     1      26.562  -1.696   6.084  1.00  0.00    -0.175 N 
ATOM      6  H13 UNL     1      26.256  -0.768   6.377  1.00  0.00     0.186 HD
HETATM    7  C15 UNL     1      27.194  -2.499   6.976  1.00  0.00     0.148 A 
HETATM    8  N15 UNL     1      27.574  -3.693   6.557  1.00  0.00    -0.174 N 
ATOM      9  H15 UNL     1      28.050  -4.305   7.219  1.00  0.00     0.186 HD
ENDROOT
BRANCH   4  10
HETATM   10  N4  UNL     1      25.721  -1.315   3.977  1.00  0.00    -0.224 N 
ATOM     11  H4  UNL     1      26.268  -0.760   3.319  1.00  0.00     0.177 HD
BRANCH  10  12
HETATM   12  C9  UNL     1      24.288  -1.234   3.958  1.00  0.00     0.158 C 
BRANCH  12  13
HETATM   13  C10 UNL     1      23.647  -2.376   3.222  1.00  0.00     0.158 C 
BRANCH  13  14
HETATM   14  N5  UNL     1      22.930  -1.997   2.035  1.00  0.00    -0.224 N 
ATOM     15  H5  UNL     1      23.156  -2.506   1.181  1.00  0.00     0.177 HD
BRANCH  14  16
HETATM   16  C11 UNL     1      21.951  -0.998   1.933  1.00  0.00     0.707 A 
HETATM   17  N6  UNL     1      22.228   0.272   2.248  1.00  0.00    -0.021 N 
HETATM   18  C12 UNL     1      21.336   1.260   2.170  1.00  0.00     0.727 A 
ATOM     19  H6  UNL     1      23.172   0.496   2.565  1.00  0.00     0.203 HD
HETATM   20  N8  UNL     1      20.072   0.989   1.749  1.00  0.00     0.202 N 
HETATM   21  C13 UNL     1      18.982   1.748   1.570  1.00  0.00     0.727 A 
HETATM   22  C14 UNL     1      19.748  -0.297   1.417  1.00  0.00     0.748 A 
HETATM   23  N10 UNL     1      17.981   0.920   1.125  1.00  0.00    -0.117 N 
HETATM   24  N11 UNL     1      18.456  -0.297   1.040  1.00  0.00    -0.116 N 
ATOM     25  H10 UNL     1      17.027   1.205   0.898  1.00  0.00     0.206 HD
ATOM     26  H11 UNL     1      17.930  -1.116   0.735  1.00  0.00     0.206 HD
HETATM   27  N12 UNL     1      20.685  -1.253   1.516  1.00  0.00    -0.019 N 
ATOM     28  H12 UNL     1      20.435  -2.210   1.267  1.00  0.00     0.203 HD
BRANCH  18  29
HETATM   29  N7  UNL     1      21.674   2.484   2.494  1.00  0.00    -0.233 N 
ATOM     30  H72 UNL     1      21.763   3.199   1.772  1.00  0.00     0.174 HD
ATOM     31  H71 UNL     1      21.851   2.728   3.468  1.00  0.00     0.174 HD
ENDBRANCH  18  29
BRANCH  21  32
HETATM   32  N9  UNL     1      18.844   2.991   1.759  1.00  0.00    -0.232 N 
ATOM     33  H92 UNL     1      18.110   3.405   2.333  1.00  0.00     0.174 HD
ATOM     34  H91 UNL     1      19.408   3.757   1.392  1.00  0.00     0.174 HD
ENDBRANCH  21  32
ENDBRANCH  14  16
ENDBRANCH  13  14
ENDBRANCH  12  13
ENDBRANCH  10  12
ENDBRANCH   4  10
BRANCH   1  35
HETATM   35  N2  UNL     1      27.817  -5.460   4.947  1.00  0.00    -0.135 N 
HETATM   36  C4  UNL     1      27.141  -6.416   4.280  1.00  0.00     0.204 A 
HETATM   37  N1  UNL     1      27.911  -7.509   4.156  1.00  0.00    -0.345 N 
HETATM   38  C5  UNL     1      29.077  -7.274   4.734  1.00  0.00     0.108 A 
ATOM     39  H1  UNL     1      27.640  -8.376   3.691  1.00  0.00     0.167 HD
HETATM   40  C6  UNL     1      29.027  -5.991   5.234  1.00  0.00     0.134 A 
BRANCH  36  41
HETATM   41  C3  UNL     1      25.770  -6.223   3.789  1.00  0.00     0.328 C 
HETATM   42  O2  UNL     1      25.511  -5.402   2.877  1.00  0.00    -0.256 OA
BRANCH  41  43
HETATM   43  O1  UNL     1      24.701  -6.938   4.308  1.00  0.00    -0.316 OA
BRANCH  43  44
HETATM   44  C2  UNL     1      23.412  -6.909   3.725  1.00  0.00     0.175 C 
HETATM   45  C1  UNL     1      22.386  -6.237   4.574  1.00  0.00     0.034 C 
ENDBRANCH  43  44
ENDBRANCH  41  43
ENDBRANCH  36  41
ENDBRANCH   1  35
BRANCH   7  46
HETATM   46  C16 UNL     1      27.444  -2.064   8.333  1.00  0.00     0.024 A 
HETATM   47  C17 UNL     1      26.864  -2.788   9.380  1.00  0.00     0.018 A 
HETATM   48  C18 UNL     1      27.075  -2.408  10.686  1.00  0.00     0.018 A 
HETATM   49  C19 UNL     1      27.857  -1.314  10.980  1.00  0.00     0.087 A 
HETATM   50  N14 UNL     1      28.410  -0.625   9.976  1.00  0.00    -0.374 N 
HETATM   51  C20 UNL     1      28.206  -0.996   8.674  1.00  0.00     0.102 A 
ATOM     52  H14 UNL     1      28.990   0.188  10.183  1.00  0.00     0.164 HD
ENDBRANCH   7  46
TORSDOF 12
ENDMDL
MODEL 3
REMARK VINA RESULT: -8.591360719      2.258      9.197
REMARK  12 active torsions:
REMARK  status: ('A' for Active; 'I' for Inactive)
REMARK    1  A    between atoms: C2_2  and  O1_3 
REMARK    2  A    between atoms: O1_3  and  C3_4 
REMARK    3  A    between atoms: C3_4  and  C4_6 
REMARK    4  A    between atoms: N2_11  and  C7_12 
REMARK    5  A    between atoms: C8_15  and  N4_16 
REMARK    6  A    between atoms: N4_16  and  C9_18 
REMARK    7  A    between atoms: C9_18  and  C10_19 
REMARK    8  A    between atoms: C10_19  and  N5_20 
REMARK    9  A    between atoms: N5_20  and  C11_22 
REMARK   10  A    between atoms: C12_25  and  N7_26 
REMARK   11  A    between atoms: C13_30  and  N9_31 
REMARK   12  A    between atoms: C15_43  and  C16_44 
ROOT
HETATM    1  C7  UNL     1      28.059  -3.667   5.940  1.00  0.00     0.706 A 
HETATM    2  N3  UNL     1      27.228  -2.986   5.137  1.00  0.00    -0.022 N 
ATOM      3  H3  UNL     1      27.118  -3.284   4.168  1.00  0.00     0.203 HD
HETATM    4  C8  UNL     1      26.535  -1.918   5.579  1.00  0.00     0.694 A 
HETATM    5  N13 UNL     1      26.674  -1.524   6.848  1.00  0.00    -0.175 N 
ATOM      6  H13 UNL     1      26.149  -0.715   7.181  1.00  0.00     0.186 HD
HETATM    7  C15 UNL     1      27.502  -2.178   7.701  1.00  0.00     0.148 A 
HETATM    8  N15 UNL     1      28.162  -3.219   7.228  1.00  0.00    -0.174 N 
ATOM      9  H15 UNL     1      28.787  -3.719   7.861  1.00  0.00     0.186 HD
ENDROOT
BRANCH   4  10
HETATM   10  N4  UNL     1      25.734  -1.281   4.762  1.00  0.00    -0.224 N 
ATOM     11  H4  UNL     1      25.468  -0.317   4.964  1.00  0.00     0.177 HD
BRANCH  10  12
HETATM   12  C9  UNL     1      25.226  -1.926   3.584  1.00  0.00     0.158 C 
BRANCH  12  13
HETATM   13  C10 UNL     1      23.787  -2.334   3.715  1.00  0.00     0.158 C 
BRANCH  13  14
HETATM   14  N5  UNL     1      23.028  -2.257   2.496  1.00  0.00    -0.224 N 
ATOM     15  H5  UNL     1      23.137  -3.029   1.839  1.00  0.00     0.177 HD
BRANCH  14  16
HETATM   16  C11 UNL     1      22.154  -1.228   2.120  1.00  0.00     0.707 A 
HETATM   17  N6  UNL     1      22.440   0.051   2.390  1.00  0.00    -0.021 N 
HETATM   18  C12 UNL     1      21.645   1.068   2.055  1.00  0.00     0.727 A 
ATOM     19  H6  UNL     1      23.311   0.259   2.877  1.00  0.00     0.203 HD
HETATM   20  N8  UNL     1      20.478   0.819   1.403  1.00  0.00     0.202 N 
HETATM   21  C13 UNL     1      19.496   1.608   0.946  1.00  0.00     0.727 A 
HETATM   22  C14 UNL     1      20.149  -0.475   1.108  1.00  0.00     0.748 A 
HETATM   23  N10 UNL     1      18.557   0.791   0.365  1.00  0.00    -0.117 N 
HETATM   24  N11 UNL     1      18.963  -0.448   0.472  1.00  0.00    -0.116 N 
ATOM     25  H10 UNL     1      17.689   1.099  -0.074  1.00  0.00     0.206 HD
ATOM     26  H11 UNL     1      18.460  -1.266   0.127  1.00  0.00     0.206 HD
HETATM   27  N12 UNL     1      20.986  -1.459   1.469  1.00  0.00    -0.019 N 
ATOM     28  H12 UNL     1      20.734  -2.422   1.246  1.00  0.00     0.203 HD
BRANCH  18  29
HETATM   29  N7  UNL     1      21.985   2.299   2.350  1.00  0.00    -0.233 N 
ATOM     30  H72 UNL     1      22.810   2.479   2.922  1.00  0.00     0.174 HD
ATOM     31  H71 UNL     1      21.427   3.082   2.011  1.00  0.00     0.174 HD
ENDBRANCH  18  29
BRANCH  21  32
HETATM   32  N9  UNL     1      19.400   2.868   1.009  1.00  0.00    -0.232 N 
ATOM     33  H92 UNL     1      19.825   3.439   1.739  1.00  0.00     0.174 HD
ATOM     34  H91 UNL     1      18.908   3.502   0.379  1.00  0.00     0.174 HD
ENDBRANCH  21  32
ENDBRANCH  14  16
ENDBRANCH  13  14
ENDBRANCH  12  13
ENDBRANCH  10  12
ENDBRANCH   4  10
BRANCH   1  35
HETATM   35  N2  UNL     1      28.819  -4.800   5.541  1.00  0.00    -0.135 N 
HETATM   36  C4  UNL     1      28.384  -6.065   5.375  1.00  0.00     0.204 A 
HETATM   37  N1  UNL     1      29.405  -6.846   4.991  1.00  0.00    -0.345 N 
HETATM   38  C5  UNL     1      30.498  -6.104   4.907  1.00  0.00     0.108 A 
ATOM     39  H1  UNL     1      29.349  -7.846   4.796  1.00  0.00     0.167 HD
HETATM   40  C6  UNL     1      30.139  -4.819   5.251  1.00  0.00     0.134 A 
BRANCH  36  41
HETATM   41  C3  UNL     1      26.986  -6.459   5.597  1.00  0.00     0.328 C 
HETATM   42  O2  UNL     1      26.507  -6.550   6.753  1.00  0.00    -0.256 OA
BRANCH  41  43
HETATM   43  O1  UNL     1      26.132  -6.749   4.544  1.00  0.00    -0.316 OA
BRANCH  43  44
HETATM   44  C2  UNL     1      25.013  -5.943   4.227  1.00  0.00     0.175 C 
HETATM   45  C1  UNL     1      23.706  -6.573   4.567  1.00  0.00     0.034 C 
ENDBRANCH  43  44
ENDBRANCH  41  43
ENDBRANCH  36  41
ENDBRANCH   1  35
BRANCH   7  46
HETATM   46  C16 UNL     1      27.653  -1.750   9.074  1.00  0.00     0.024 A 
HETATM   47  C17 UNL     1      27.244  -2.621  10.090  1.00  0.00     0.018 A 
HETATM   48  C18 UNL     1      27.370  -2.254  11.410  1.00  0.00     0.018 A 
HETATM   49  C19 UNL     1      27.900  -1.028  11.750  1.00  0.00     0.087 A 
HETATM   50  N14 UNL     1      28.290  -0.200  10.776  1.00  0.00    -0.374 N 
HETATM   51  C20 UNL     1      28.169  -0.557   9.460  1.00  0.00     0.102 A 
ATOM     52  H14 UNL     1      28.683   0.711  11.017  1.00  0.00     0.164 HD
ENDBRANCH   7  46
TORSDOF 12
ENDMDL
MODEL 4
REMARK VINA RESULT: -8.588727441      2.427      9.267
REMARK  12 active torsions:
REMARK  status: ('A' for Active; 'I' for Inactive)
REMARK    1  A    between atoms: C2_2  and  O1_3 
REMARK    2  A    between atoms: O1_3  and  C3_4 
REMARK    3  A    between atoms: C3_4  and  C4_6 
REMARK    4  A    between atoms: N2_11  and  C7_12 
REMARK    5  A    between atoms: C8_15  and  N4_16 
REMARK    6  A    between atoms: N4_16  and  C9_18 
REMARK    7  A    between atoms: C9_18  and  C10_19 
REMARK    8  A    between atoms: C10_19  and  N5_20 
REMARK    9  A    between atoms: N5_20  and  C11_22 
REMARK   10  A    between atoms: C12_25  and  N7_26 
REMARK   11  A    between atoms: C13_30  and  N9_31 
REMARK   12  A    between atoms: C15_43  and  C16_44 
ROOT
HETATM    1  C7  UNL     1      26.900  -4.033   4.587  1.00  0.00     0.706 A 
HETATM    2  N3  UNL     1      25.924  -3.357   3.962  1.00  0.00    -0.022 N 
ATOM      3  H3  UNL     1      25.429  -3.801   3.189  1.00  0.00     0.203 HD
HETATM    4  C8  UNL     1      25.583  -2.107   4.330  1.00  0.00     0.694 A 
HETATM    5  N13 UNL     1      26.227  -1.521   5.343  1.00  0.00    -0.175 N 
ATOM      6  H13 UNL     1      25.968  -0.575   5.622  1.00  0.00     0.186 HD
HETATM    7  C15 UNL     1      27.221  -2.161   6.008  1.00  0.00     0.148 A 
HETATM    8  N15 UNL     1      27.526  -3.385   5.615  1.00  0.00    -0.174 N 
ATOM      9  H15 UNL     1      28.271  -3.876   6.108  1.00  0.00     0.186 HD
ENDROOT
BRANCH   4  10
HETATM   10  N4  UNL     1      24.623  -1.481   3.694  1.00  0.00    -0.224 N 
ATOM     11  H4  UNL     1      24.691  -0.475   3.541  1.00  0.00     0.177 HD
BRANCH  10  12
HETATM   12  C9  UNL     1      23.479  -2.199   3.209  1.00  0.00     0.158 C 
BRANCH  12  13
HETATM   13  C10 UNL     1      22.723  -1.449   2.150  1.00  0.00     0.158 C 
BRANCH  13  14
HETATM   14  N5  UNL     1      22.520  -0.054   2.434  1.00  0.00    -0.224 N 
ATOM     15  H5  UNL     1      23.268   0.426   2.935  1.00  0.00     0.177 HD
BRANCH  14  16
HETATM   16  C11 UNL     1      21.398   0.714   2.091  1.00  0.00     0.707 A 
HETATM   17  N6  UNL     1      20.246   0.131   1.742  1.00  0.00    -0.021 N 
HETATM   18  C12 UNL     1      19.150   0.813   1.406  1.00  0.00     0.727 A 
ATOM     19  H6  UNL     1      20.203  -0.888   1.732  1.00  0.00     0.203 HD
HETATM   20  N8  UNL     1      19.178   2.172   1.413  1.00  0.00     0.202 N 
HETATM   21  C13 UNL     1      18.263   3.111   1.132  1.00  0.00     0.727 A 
HETATM   22  C14 UNL     1      20.337   2.807   1.764  1.00  0.00     0.748 A 
HETATM   23  N10 UNL     1      18.866   4.331   1.313  1.00  0.00    -0.117 N 
HETATM   24  N11 UNL     1      20.104   4.130   1.690  1.00  0.00    -0.116 N 
ATOM     25  H10 UNL     1      18.425   5.241   1.177  1.00  0.00     0.206 HD
ATOM     26  H11 UNL     1      20.784   4.862   1.895  1.00  0.00     0.206 HD
HETATM   27  N12 UNL     1      21.411   2.071   2.092  1.00  0.00    -0.019 N 
ATOM     28  H12 UNL     1      22.272   2.552   2.352  1.00  0.00     0.203 HD
BRANCH  18  29
HETATM   29  N7  UNL     1      18.052   0.179   1.074  1.00  0.00    -0.233 N 
ATOM     30  H72 UNL     1      18.094  -0.794   0.770  1.00  0.00     0.174 HD
ATOM     31  H71 UNL     1      17.150   0.654   1.116  1.00  0.00     0.174 HD
ENDBRANCH  18  29
BRANCH  21  32
HETATM   32  N9  UNL     1      17.062   2.959   0.768  1.00  0.00    -0.232 N 
ATOM     33  H92 UNL     1      16.271   3.456   1.179  1.00  0.00     0.174 HD
ATOM     34  H91 UNL     1      16.689   2.350   0.040  1.00  0.00     0.174 HD
ENDBRANCH  21  32
ENDBRANCH  14  16
ENDBRANCH  13  14
ENDBRANCH  12  13
ENDBRANCH  10  12
ENDBRANCH   4  10
BRANCH   1  35
HETATM   35  N2  UNL     1      27.311  -5.351   4.251  1.00  0.00    -0.135 N 
HETATM   36  C4  UNL     1      26.544  -6.359   3.789  1.00  0.00     0.204 A 
HETATM   37  N1  UNL     1      27.303  -7.448   3.591  1.00  0.00    -0.345 N 
HETATM   38  C5  UNL     1      28.552  -7.161   3.920  1.00  0.00     0.108 A 
ATOM     39  H1  UNL     1      26.971  -8.349   3.244  1.00  0.00     0.167 HD
HETATM   40  C6  UNL     1      28.566  -5.847   4.336  1.00  0.00     0.134 A 
BRANCH  36  41
HETATM   41  C3  UNL     1      25.101  -6.216   3.557  1.00  0.00     0.328 C 
HETATM   42  O2  UNL     1      24.601  -6.383   2.419  1.00  0.00    -0.256 OA
BRANCH  41  43
HETATM   43  O1  UNL     1      24.225  -5.892   4.582  1.00  0.00    -0.316 OA
BRANCH  43  44
HETATM   44  C2  UNL     1      22.921  -6.434   4.670  1.00  0.00     0.175 C 
HETATM   45  C1  UNL     1      21.845  -5.469   4.303  1.00  0.00     0.034 C 
ENDBRANCH  43  44
ENDBRANCH  41  43
ENDBRANCH  36  41
ENDBRANCH   1  35
BRANCH   7  46
HETATM   46  C16 UNL     1      27.921  -1.526   7.103  1.00  0.00     0.024 A 
HETATM   47  C17 UNL     1      27.294  -1.480   8.354  1.00  0.00     0.018 A 
HETATM   48  C18 UNL     1      27.923  -0.885   9.423  1.00  0.00     0.018 A 
HETATM   49  C19 UNL     1      29.175  -0.329   9.280  1.00  0.00     0.087 A 
HETATM   50  N14 UNL     1      29.771  -0.376   8.084  1.00  0.00    -0.374 N 
HETATM   51  C20 UNL     1      29.152  -0.966   7.014  1.00  0.00     0.102 A 
ATOM     52  H14 UNL     1      30.698   0.033   7.966  1.00  0.00     0.164 HD
ENDBRANCH   7  46
TORSDOF 12
ENDMDL
MODEL 5
REMARK VINA RESULT: -8.498915880      2.327      8.817
REMARK  12 active torsions:
REMARK  status: ('A' for Active; 'I' for Inactive)
REMARK    1  A    between atoms: C2_2  and  O1_3 
REMARK    2  A    between atoms: O1_3  and  C3_4 
REMARK    3  A    between atoms: C3_4  and  C4_6 
REMARK    4  A    between atoms: N2_11  and  C7_12 
REMARK    5  A    between atoms: C8_15  and  N4_16 
REMARK    6  A    between atoms: N4_16  and  C9_18 
REMARK    7  A    between atoms: C9_18  and  C10_19 
REMARK    8  A    between atoms: C10_19  and  N5_20 
REMARK    9  A    between atoms: N5_20  and  C11_22 
REMARK   10  A    between atoms: C12_25  and  N7_26 
REMARK   11  A    between atoms: C13_30  and  N9_31 
REMARK   12  A    between atoms: C15_43  and  C16_44 
ROOT
HETATM    1  C7  UNL     1      27.381  -4.172   5.297  1.00  0.00     0.706 A 
HETATM    2  N3  UNL     1      26.758  -3.340   4.450  1.00  0.00    -0.022 N 
ATOM      3  H3  UNL     1      26.586  -3.642   3.491  1.00  0.00     0.203 HD
HETATM    4  C8  UNL     1      26.352  -2.114   4.835  1.00  0.00     0.694 A 
HETATM    5  N13 UNL     1      26.572  -1.713   6.090  1.00  0.00    -0.175 N 
ATOM      6  H13 UNL     1      26.264  -0.785   6.381  1.00  0.00     0.186 HD
HETATM    7  C15 UNL     1      27.199  -2.517   6.985  1.00  0.00     0.148 A 
HETATM    8  N15 UNL     1      27.581  -3.710   6.568  1.00  0.00    -0.174 N 
ATOM      9  H15 UNL     1      28.052  -4.323   7.233  1.00  0.00     0.186 HD
ENDROOT
BRANCH   4  10
HETATM   10  N4  UNL     1      25.745  -1.331   3.977  1.00  0.00    -0.224 N 
ATOM     11  H4  UNL     1      26.296  -0.779   3.319  1.00  0.00     0.177 HD
BRANCH  10  12
HETATM   12  C9  UNL     1      24.313  -1.243   3.954  1.00  0.00     0.158 C 
BRANCH  12  13
HETATM   13  C10 UNL     1      23.665  -2.430   3.299  1.00  0.00     0.158 C 
BRANCH  13  14
HETATM   14  N5  UNL     1      22.871  -2.116   2.142  1.00  0.00    -0.224 N 
ATOM     15  H5  UNL     1      22.949  -2.751   1.347  1.00  0.00     0.177 HD
BRANCH  14  16
HETATM   16  C11 UNL     1      22.002  -1.026   1.994  1.00  0.00     0.707 A 
HETATM   17  N6  UNL     1      20.728  -1.207   1.626  1.00  0.00    -0.021 N 
HETATM   18  C12 UNL     1      19.860  -0.207   1.470  1.00  0.00     0.727 A 
ATOM     19  H6  UNL     1      20.405  -2.159   1.455  1.00  0.00     0.203 HD
HETATM   20  N8  UNL     1      20.264   1.072   1.693  1.00  0.00     0.202 N 
HETATM   21  C13 UNL     1      19.641   2.257   1.623  1.00  0.00     0.727 A 
HETATM   22  C14 UNL     1      21.558   1.299   2.072  1.00  0.00     0.748 A 
HETATM   23  N10 UNL     1      20.561   3.219   1.962  1.00  0.00    -0.117 N 
HETATM   24  N11 UNL     1      21.699   2.629   2.226  1.00  0.00    -0.116 N 
ATOM     25  H10 UNL     1      20.387   4.223   2.000  1.00  0.00     0.206 HD
ATOM     26  H11 UNL     1      22.559   3.102   2.505  1.00  0.00     0.206 HD
HETATM   27  N12 UNL     1      22.390   0.255   2.213  1.00  0.00    -0.019 N 
ATOM     28  H12 UNL     1      23.354   0.433   2.495  1.00  0.00     0.203 HD
BRANCH  18  29
HETATM   29  N7  UNL     1      18.625  -0.454   1.107  1.00  0.00    -0.233 N 
ATOM     30  H72 UNL     1      17.849   0.010   1.579  1.00  0.00     0.174 HD
ATOM     31  H71 UNL     1      18.432  -1.110   0.351  1.00  0.00     0.174 HD
ENDBRANCH  18  29
BRANCH  21  32
HETATM   32  N9  UNL     1      18.440   2.501   1.311  1.00  0.00    -0.232 N 
ATOM     33  H92 UNL     1      18.160   3.155   0.580  1.00  0.00     0.174 HD
ATOM     34  H91 UNL     1      17.586   2.112   1.711  1.00  0.00     0.174 HD
ENDBRANCH  21  32
ENDBRANCH  14  16
ENDBRANCH  13  14
ENDBRANCH  12  13
ENDBRANCH  10  12
ENDBRANCH   4  10
BRANCH   1  35
HETATM   35  N2  UNL     1      27.835  -5.476   4.958  1.00  0.00    -0.135 N 
HETATM   36  C4  UNL     1      27.165  -6.431   4.283  1.00  0.00     0.204 A 
HETATM   37  N1  UNL     1      27.935  -7.524   4.164  1.00  0.00    -0.345 N 
HETATM   38  C5  UNL     1      29.095  -7.291   4.756  1.00  0.00     0.108 A 
ATOM     39  H1  UNL     1      27.668  -8.390   3.696  1.00  0.00     0.167 HD
HETATM   40  C6  UNL     1      29.041  -6.009   5.256  1.00  0.00     0.134 A 
BRANCH  36  41
HETATM   41  C3  UNL     1      25.799  -6.235   3.779  1.00  0.00     0.328 C 
HETATM   42  O2  UNL     1      25.545  -5.392   2.885  1.00  0.00    -0.256 OA
BRANCH  41  43
HETATM   43  O1  UNL     1      24.729  -6.972   4.263  1.00  0.00    -0.316 OA
BRANCH  43  44
HETATM   44  C2  UNL     1      23.427  -6.874   3.717  1.00  0.00     0.175 C 
HETATM   45  C1  UNL     1      22.437  -6.244   4.637  1.00  0.00     0.034 C 
ENDBRANCH  43  44
ENDBRANCH  41  43
ENDBRANCH  36  41
ENDBRANCH   1  35
BRANCH   7  46
HETATM   46  C16 UNL     1      27.439  -2.082   8.344  1.00  0.00     0.024 A 
HETATM   47  C17 UNL     1      26.871  -2.821   9.388  1.00  0.00     0.018 A 
HETATM   48  C18 UNL     1      27.074  -2.442  10.695  1.00  0.00     0.018 A 
HETATM   49  C19 UNL     1      27.836  -1.335  10.994  1.00  0.00     0.087 A 
HETATM   50  N14 UNL     1      28.377  -0.632   9.994  1.00  0.00    -0.374 N 
HETATM   51  C20 UNL     1      28.181  -1.002   8.690  1.00  0.00     0.102 A 
ATOM     52  H14 UNL     1      28.943   0.191  10.205  1.00  0.00     0.164 HD
ENDBRANCH   7  46
TORSDOF 12
ENDMDL
