MODEL 1
REMARK VINA RESULT: -7.109921079      0.000      0.000
REMARK  2 active torsions:
REMARK  status: ('A' for Active; 'I' for Inactive)
REMARK    1  A    between atoms: O1_1  and  C1_3 
REMARK    2  A    between atoms: C1_3  and  C2_4 
ROOT
HETATM    1  C2  UNL     1      25.503  -9.652  11.147  1.00  0.00     0.150 C 
HETATM    2  C3  UNL     1      24.623  -8.596  11.782  1.00  0.00     0.110 C 
HETATM    3  C4  UNL     1      23.350  -8.673  10.984  1.00  0.00     0.253 C 
HETATM    4  C5  UNL     1      23.745  -9.658   9.883  1.00  0.00     0.242 C 
HETATM    5  O2  UNL     1      25.148  -9.551   9.808  1.00  0.00    -0.378 OA
HETATM    6  O3  UNL     1      22.268  -9.105  11.712  1.00  0.00    -0.190 OA
HETATM    7  O4  UNL     1      21.201  -8.357  11.576  1.00  0.00    -0.162 OA
HETATM    8  C6  UNL     1      20.942  -8.213  10.239  1.00  0.00     0.414 C 
HETATM    9  C7  UNL     1      19.794  -7.269   9.953  1.00  0.00     0.340 C 
HETATM   10  N1  UNL     1      19.222  -7.772   8.700  1.00  0.00    -0.044 N 
ATOM     11  H11 UNL     1      19.140  -7.060   7.975  1.00  0.00     0.279 HD
ATOM     12  H12 UNL     1      18.229  -7.996   8.766  1.00  0.00     0.279 HD
HETATM   13  C8  UNL     1      20.046  -8.901   8.313  1.00  0.00     0.469 C 
HETATM   14  N2  UNL     1      20.410  -9.445   9.633  1.00  0.00     0.013 N 
ATOM     15  H21 UNL     1      19.669  -9.920  10.147  1.00  0.00     0.286 HD
ATOM     16  H22 UNL     1      21.029 -10.255   9.634  1.00  0.00     0.286 HD
HETATM   17  O5  UNL     1      22.041  -7.743   9.519  1.00  0.00    -0.162 OA
HETATM   18  O6  UNL     1      23.029  -7.456  10.369  1.00  0.00    -0.190 OA
ENDROOT
BRANCH   1  19
HETATM   19  C1  UNL     1      26.969  -9.291  11.250  1.00  0.00     0.196 C 
BRANCH  19  20
HETATM   20  O1  UNL     1      27.529  -9.728  12.428  1.00  0.00    -0.398 OA
ATOM     21  H1  UNL     1      28.245 -10.335  12.280  1.00  0.00     0.209 HD
ENDBRANCH  19  20
ENDBRANCH   1  19
TORSDOF 2
ENDMDL
MODEL 2
REMARK VINA RESULT: -6.229396778      1.495      2.150
REMARK  2 active torsions:
REMARK  status: ('A' for Active; 'I' for Inactive)
REMARK    1  A    between atoms: O1_1  and  C1_3 
REMARK    2  A    between atoms: C1_3  and  C2_4 
ROOT
HETATM    1  C2  UNL     1      25.858  -8.534  12.135  1.00  0.00     0.150 C 
HETATM    2  C3  UNL     1      25.079  -9.662  11.493  1.00  0.00     0.110 C 
HETATM    3  C4  UNL     1      23.799  -9.002  11.057  1.00  0.00     0.253 C 
HETATM    4  C5  UNL     1      23.957  -7.609  11.668  1.00  0.00     0.242 C 
HETATM    5  O2  UNL     1      24.848  -7.800  12.743  1.00  0.00    -0.378 OA
HETATM    6  O3  UNL     1      23.636  -8.962   9.693  1.00  0.00    -0.190 OA
HETATM    7  O4  UNL     1      22.462  -9.374   9.285  1.00  0.00    -0.162 OA
HETATM    8  C6  UNL     1      21.499  -8.686   9.974  1.00  0.00     0.414 C 
HETATM    9  C7  UNL     1      20.094  -9.160   9.669  1.00  0.00     0.340 C 
HETATM   10  N1  UNL     1      19.265  -7.966   9.859  1.00  0.00    -0.044 N 
ATOM     11  H11 UNL     1      18.482  -8.111  10.496  1.00  0.00     0.279 HD
ATOM     12  H12 UNL     1      18.712  -7.719   9.039  1.00  0.00     0.279 HD
HETATM   13  C8  UNL     1      20.173  -6.917  10.284  1.00  0.00     0.469 C 
HETATM   14  N2  UNL     1      21.389  -7.284   9.540  1.00  0.00     0.013 N 
ATOM     15  H21 UNL     1      21.371  -7.120   8.533  1.00  0.00     0.286 HD
ATOM     16  H22 UNL     1      22.208  -6.696   9.692  1.00  0.00     0.286 HD
HETATM   17  O5  UNL     1      21.660  -8.763  11.358  1.00  0.00    -0.162 OA
HETATM   18  O6  UNL     1      22.668  -9.593  11.634  1.00  0.00    -0.190 OA
ENDROOT
BRANCH   1  19
HETATM   19  C1  UNL     1      26.767  -9.040  13.235  1.00  0.00     0.196 C 
BRANCH  19  20
HETATM   20  O1  UNL     1      27.975  -8.381  13.252  1.00  0.00    -0.398 OA
ATOM     21  H1  UNL     1      28.704  -8.975  13.385  1.00  0.00     0.209 HD
ENDBRANCH  19  20
ENDBRANCH   1  19
TORSDOF 2
ENDMDL
MODEL 3
REMARK VINA RESULT: -6.092556010      1.392      1.914
REMARK  2 active torsions:
REMARK  status: ('A' for Active; 'I' for Inactive)
REMARK    1  A    between atoms: O1_1  and  C1_3 
REMARK    2  A    between atoms: C1_3  and  C2_4 
ROOT
HETATM    1  C2  UNL     1      24.515  -8.652  11.900  1.00  0.00     0.150 C 
HETATM    2  C3  UNL     1      24.203  -8.025  10.558  1.00  0.00     0.110 C 
HETATM    3  C4  UNL     1      22.763  -8.393  10.324  1.00  0.00     0.253 C 
HETATM    4  C5  UNL     1      22.498  -9.333  11.501  1.00  0.00     0.242 C 
HETATM    5  O2  UNL     1      23.772  -9.825  11.847  1.00  0.00    -0.378 OA
HETATM    6  O3  UNL     1      21.914  -7.313  10.312  1.00  0.00    -0.190 OA
HETATM    7  O4  UNL     1      21.095  -7.290   9.288  1.00  0.00    -0.162 OA
HETATM    8  C6  UNL     1      20.452  -8.498   9.224  1.00  0.00     0.414 C 
HETATM    9  C7  UNL     1      19.561  -8.633   8.007  1.00  0.00     0.340 C 
HETATM   10  N1  UNL     1      18.494  -9.538   8.445  1.00  0.00    -0.044 N 
ATOM     11  H11 UNL     1      18.362 -10.340   7.830  1.00  0.00     0.279 HD
ATOM     12  H12 UNL     1      17.558  -9.146   8.339  1.00  0.00     0.279 HD
HETATM   13  C8  UNL     1      18.819  -9.902   9.811  1.00  0.00     0.469 C 
HETATM   14  N2  UNL     1      19.448  -8.659  10.288  1.00  0.00     0.013 N 
ATOM     15  H21 UNL     1      18.824  -7.867  10.447  1.00  0.00     0.286 HD
ATOM     16  H22 UNL     1      19.799  -8.667  11.246  1.00  0.00     0.286 HD
HETATM   17  O5  UNL     1      21.329  -9.583   9.205  1.00  0.00    -0.162 OA
HETATM   18  O6  UNL     1      22.583  -9.128   9.145  1.00  0.00    -0.190 OA
ENDROOT
BRANCH   1  19
HETATM   19  C1  UNL     1      25.971  -9.050  12.006  1.00  0.00     0.196 C 
BRANCH  19  20
HETATM   20  O1  UNL     1      26.368  -9.847  10.958  1.00  0.00    -0.398 OA
ATOM     21  H1  UNL     1      27.289  -9.738  10.754  1.00  0.00     0.209 HD
ENDBRANCH  19  20
ENDBRANCH   1  19
TORSDOF 2
ENDMDL
MODEL 4
REMARK VINA RESULT: -5.548628181      3.301      4.393
REMARK  2 active torsions:
REMARK  status: ('A' for Active; 'I' for Inactive)
REMARK    1  A    between atoms: O1_1  and  C1_3 
REMARK    2  A    between atoms: C1_3  and  C2_4 
ROOT
HETATM    1  C2  UNL     1      22.906  -5.457   7.568  1.00  0.00     0.150 C 
HETATM    2  C3  UNL     1      23.077  -6.330   8.793  1.00  0.00     0.110 C 
HETATM    3  C4  UNL     1      21.869  -7.225   8.758  1.00  0.00     0.253 C 
HETATM    4  C5  UNL     1      21.079  -6.619   7.597  1.00  0.00     0.242 C 
HETATM    5  O2  UNL     1      21.528  -5.285   7.531  1.00  0.00    -0.378 OA
HETATM    6  O3  UNL     1      22.170  -8.550   8.554  1.00  0.00    -0.190 OA
HETATM    7  O4  UNL     1      21.584  -9.366   9.396  1.00  0.00    -0.162 OA
HETATM    8  C6  UNL     1      20.241  -9.099   9.390  1.00  0.00     0.414 C 
HETATM    9  C7  UNL     1      19.470  -9.905  10.414  1.00  0.00     0.340 C 
HETATM   10  N1  UNL     1      18.139 -10.058   9.820  1.00  0.00    -0.044 N 
ATOM     11  H11 UNL     1      17.381  -9.761  10.434  1.00  0.00     0.279 HD
ATOM     12  H12 UNL     1      17.845 -11.030   9.722  1.00  0.00     0.279 HD
HETATM   13  C8  UNL     1      18.181  -9.337   8.562  1.00  0.00     0.469 C 
HETATM   14  N2  UNL     1      19.580  -9.563   8.159  1.00  0.00     0.013 N 
ATOM     15  H21 UNL     1      19.815 -10.504   7.844  1.00  0.00     0.286 HD
ATOM     16  H22 UNL     1      19.878  -9.121   7.290  1.00  0.00     0.286 HD
HETATM   17  O5  UNL     1      19.950  -7.756   9.631  1.00  0.00    -0.162 OA
HETATM   18  O6  UNL     1      21.084  -7.109   9.912  1.00  0.00    -0.190 OA
ENDROOT
BRANCH   1  19
HETATM   19  C1  UNL     1      23.522  -4.089   7.767  1.00  0.00     0.196 C 
BRANCH  19  20
HETATM   20  O1  UNL     1      23.704  -3.424   6.576  1.00  0.00    -0.398 OA
ATOM     21  H1  UNL     1      24.545  -2.983   6.538  1.00  0.00     0.209 HD
ENDBRANCH  19  20
ENDBRANCH   1  19
TORSDOF 2
ENDMDL
MODEL 5
REMARK VINA RESULT: -5.530413745      1.357      1.995
REMARK  2 active torsions:
REMARK  status: ('A' for Active; 'I' for Inactive)
REMARK    1  A    between atoms: O1_1  and  C1_3 
REMARK    2  A    between atoms: C1_3  and  C2_4 
ROOT
HETATM    1  C2  UNL     1      25.408  -8.730  11.475  1.00  0.00     0.150 C 
HETATM    2  C3  UNL     1      25.098  -8.781   9.995  1.00  0.00     0.110 C 
HETATM    3  C4  UNL     1      23.612  -8.550   9.939  1.00  0.00     0.253 C 
HETATM    4  C5  UNL     1      23.250  -8.569  11.425  1.00  0.00     0.242 C 
HETATM    5  O2  UNL     1      24.278  -9.323  12.024  1.00  0.00    -0.378 OA
HETATM    6  O3  UNL     1      23.259  -7.373   9.326  1.00  0.00    -0.190 OA
HETATM    7  O4  UNL     1      22.325  -7.504   8.417  1.00  0.00    -0.162 OA
HETATM    8  C6  UNL     1      21.268  -8.170   8.979  1.00  0.00     0.414 C 
HETATM    9  C7  UNL     1      20.167  -8.484   7.987  1.00  0.00     0.340 C 
HETATM   10  N1  UNL     1      18.947  -8.492   8.799  1.00  0.00    -0.044 N 
ATOM     11  H11 UNL     1      18.396  -9.344   8.698  1.00  0.00     0.279 HD
ATOM     12  H12 UNL     1      18.233  -7.843   8.468  1.00  0.00     0.279 HD
HETATM   13  C8  UNL     1      19.375  -8.237  10.161  1.00  0.00     0.469 C 
HETATM   14  N2  UNL     1      20.516  -7.335   9.930  1.00  0.00     0.013 N 
ATOM     15  H21 UNL     1      20.291  -6.388   9.623  1.00  0.00     0.286 HD
ATOM     16  H22 UNL     1      21.022  -7.022  10.758  1.00  0.00     0.286 HD
HETATM   17  O5  UNL     1      21.637  -9.379   9.569  1.00  0.00    -0.162 OA
HETATM   18  O6  UNL     1      22.930  -9.607   9.323  1.00  0.00    -0.190 OA
ENDROOT
BRANCH   1  19
HETATM   19  C1  UNL     1      26.589  -9.609  11.828  1.00  0.00     0.196 C 
BRANCH  19  20
HETATM   20  O1  UNL     1      26.798  -9.676  13.186  1.00  0.00    -0.398 OA
ATOM     21  H1  UNL     1      26.001  -9.887  13.660  1.00  0.00     0.209 HD
ENDBRANCH  19  20
ENDBRANCH   1  19
TORSDOF 2
ENDMDL
