MODEL 1
REMARK VINA RESULT: -6.970533598      0.000      0.000
REMARK  2 active torsions:
REMARK  status: ('A' for Active; 'I' for Inactive)
REMARK    1  A    between atoms: C7_15  and  N5_16 
REMARK    2  A    between atoms: N5_16  and  N6_18 
ROOT
HETATM    1  N1  UNL     1      30.131  -9.006  13.182  1.00  0.00    -0.188 NA
HETATM    2  C1  UNL     1      29.017  -8.963  12.903  1.00  0.00     0.137 C 
HETATM    3  C2  UNL     1      27.630  -8.891  12.538  1.00  0.00     0.191 A 
HETATM    4  N2  UNL     1      26.739  -8.235  13.305  1.00  0.00    -0.299 N 
ATOM      5  H2  UNL     1      27.075  -7.788  14.157  1.00  0.00     0.171 HD
HETATM    6  C3  UNL     1      25.432  -8.135  13.013  1.00  0.00     0.276 A 
HETATM    7  O1  UNL     1      24.613  -7.514  13.748  1.00  0.00    -0.266 OA
HETATM    8  C4  UNL     1      25.006  -8.754  11.845  1.00  0.00     0.141 A 
HETATM    9  C5  UNL     1      25.885  -9.431  11.041  1.00  0.00     0.062 A 
HETATM   10  N3  UNL     1      27.169  -9.485  11.400  1.00  0.00    -0.333 N 
ATOM     11  H3  UNL     1      27.827  -9.988  10.805  1.00  0.00     0.168 HD
HETATM   12  C6  UNL     1      25.415 -10.088   9.798  1.00  0.00     0.197 A 
HETATM   13  N4  UNL     1      24.024  -9.938   9.559  1.00  0.00    -0.219 N 
ATOM     14  H4  UNL     1      23.652 -10.374   8.714  1.00  0.00     0.178 HD
HETATM   15  C7  UNL     1      23.191  -9.310  10.300  1.00  0.00     0.698 A 
HETATM   16  N7  UNL     1      23.645  -8.685  11.487  1.00  0.00    -0.183 N 
ATOM     17  H7  UNL     1      22.986  -8.184  12.083  1.00  0.00     0.184 HD
ENDROOT
BRANCH  15  18
HETATM   18  N5  UNL     1      21.795  -9.227   9.950  1.00  0.00    -0.072 N 
ATOM     19  H5  UNL     1      21.453  -9.679   9.103  1.00  0.00     0.212 HD
BRANCH  18  20
HETATM   20  N6  UNL     1      20.919  -8.532  10.766  1.00  0.00    -0.024 N 
HETATM   21  O2  UNL     1      20.592  -8.901  11.903  1.00  0.00    -0.516 OA
HETATM   22  O3  UNL     1      20.358  -7.352  10.315  1.00  0.00    -0.516 OA
ENDBRANCH  18  20
ENDBRANCH  15  18
TORSDOF 2
ENDMDL
MODEL 2
REMARK VINA RESULT: -6.846552303      2.077      2.844
REMARK  2 active torsions:
REMARK  status: ('A' for Active; 'I' for Inactive)
REMARK    1  A    between atoms: C7_15  and  N5_16 
REMARK    2  A    between atoms: N5_16  and  N6_18 
ROOT
HETATM    1  N1  UNL     1      28.253  -8.945  13.700  1.00  0.00    -0.188 NA
HETATM    2  C1  UNL     1      27.376  -9.051  12.966  1.00  0.00     0.137 C 
HETATM    3  C2  UNL     1      26.272  -9.204  12.060  1.00  0.00     0.191 A 
HETATM    4  N2  UNL     1      26.431  -9.785  10.856  1.00  0.00    -0.299 N 
ATOM      5  H2  UNL     1      27.362 -10.114  10.601  1.00  0.00     0.171 HD
HETATM    6  C3  UNL     1      25.436  -9.954   9.970  1.00  0.00     0.276 A 
HETATM    7  O1  UNL     1      25.610 -10.502   8.845  1.00  0.00    -0.266 OA
HETATM    8  C4  UNL     1      24.182  -9.495  10.348  1.00  0.00     0.141 A 
HETATM    9  C5  UNL     1      23.983  -8.899  11.566  1.00  0.00     0.062 A 
HETATM   10  N3  UNL     1      25.023  -8.767  12.391  1.00  0.00    -0.333 N 
ATOM     11  H3  UNL     1      24.880  -8.324  13.298  1.00  0.00     0.168 HD
HETATM   12  C6  UNL     1      22.638  -8.413  11.954  1.00  0.00     0.197 A 
HETATM   13  N4  UNL     1      21.641  -8.628  10.968  1.00  0.00    -0.219 N 
ATOM     14  H4  UNL     1      20.697  -8.309  11.189  1.00  0.00     0.178 HD
HETATM   15  C7  UNL     1      21.811  -9.182   9.827  1.00  0.00     0.698 A 
HETATM   16  N7  UNL     1      23.098  -9.644   9.460  1.00  0.00    -0.183 N 
ATOM     17  H7  UNL     1      23.241 -10.085   8.551  1.00  0.00     0.184 HD
ENDROOT
BRANCH  15  18
HETATM   18  N5  UNL     1      20.715  -9.345   8.904  1.00  0.00    -0.072 N 
ATOM     19  H5  UNL     1      20.898  -9.608   7.936  1.00  0.00     0.212 HD
BRANCH  18  20
HETATM   20  N6  UNL     1      19.415  -9.144   9.333  1.00  0.00    -0.024 N 
HETATM   21  O2  UNL     1      18.930  -8.028   9.572  1.00  0.00    -0.516 OA
HETATM   22  O3  UNL     1      18.582 -10.231   9.516  1.00  0.00    -0.516 OA
ENDBRANCH  18  20
ENDBRANCH  15  18
TORSDOF 2
ENDMDL
MODEL 3
REMARK VINA RESULT: -6.821618520      1.057      1.256
REMARK  2 active torsions:
REMARK  status: ('A' for Active; 'I' for Inactive)
REMARK    1  A    between atoms: C7_15  and  N5_16 
REMARK    2  A    between atoms: N5_16  and  N6_18 
ROOT
HETATM    1  N1  UNL     1      30.194  -9.168  12.871  1.00  0.00    -0.188 NA
HETATM    2  C1  UNL     1      29.060  -9.079  12.709  1.00  0.00     0.137 C 
HETATM    3  C2  UNL     1      27.646  -8.947  12.491  1.00  0.00     0.191 A 
HETATM    4  N2  UNL     1      26.865  -8.278  13.359  1.00  0.00    -0.299 N 
ATOM      5  H2  UNL     1      27.304  -7.863  14.181  1.00  0.00     0.171 HD
HETATM    6  C3  UNL     1      25.539  -8.124  13.206  1.00  0.00     0.276 A 
HETATM    7  O1  UNL     1      24.825  -7.490  14.034  1.00  0.00    -0.266 OA
HETATM    8  C4  UNL     1      24.972  -8.700  12.077  1.00  0.00     0.141 A 
HETATM    9  C5  UNL     1      25.737  -9.388  11.173  1.00  0.00     0.062 A 
HETATM   10  N3  UNL     1      27.048  -9.498  11.396  1.00  0.00    -0.333 N 
ATOM     11  H3  UNL     1      27.622 -10.010  10.726  1.00  0.00     0.168 HD
HETATM   12  C6  UNL     1      25.117  -9.998   9.973  1.00  0.00     0.197 A 
HETATM   13  N4  UNL     1      23.716  -9.793   9.881  1.00  0.00    -0.219 N 
ATOM     14  H4  UNL     1      23.243 -10.195   9.072  1.00  0.00     0.178 HD
HETATM   15  C7  UNL     1      22.988  -9.152  10.717  1.00  0.00     0.698 A 
HETATM   16  N7  UNL     1      23.585  -8.572  11.863  1.00  0.00    -0.183 N 
ATOM     17  H7  UNL     1      23.011  -8.062  12.533  1.00  0.00     0.184 HD
ENDROOT
BRANCH  15  18
HETATM   18  N5  UNL     1      21.568  -9.010  10.516  1.00  0.00    -0.072 N 
ATOM     19  H5  UNL     1      20.953  -8.850  11.313  1.00  0.00     0.212 HD
BRANCH  18  20
HETATM   20  N6  UNL     1      21.040  -9.090   9.239  1.00  0.00    -0.024 N 
HETATM   21  O2  UNL     1      21.514  -8.503   8.256  1.00  0.00    -0.516 OA
HETATM   22  O3  UNL     1      19.916  -9.863   9.013  1.00  0.00    -0.516 OA
ENDBRANCH  18  20
ENDBRANCH  15  18
TORSDOF 2
ENDMDL
MODEL 4
REMARK VINA RESULT: -6.462599230      2.487      6.386
REMARK  2 active torsions:
REMARK  status: ('A' for Active; 'I' for Inactive)
REMARK    1  A    between atoms: C7_15  and  N5_16 
REMARK    2  A    between atoms: N5_16  and  N6_18 
ROOT
HETATM    1  N1  UNL     1      19.942  -8.076  10.238  1.00  0.00    -0.188 NA
HETATM    2  C1  UNL     1      21.036  -8.382  10.408  1.00  0.00     0.137 C 
HETATM    3  C2  UNL     1      22.412  -8.744  10.609  1.00  0.00     0.191 A 
HETATM    4  N2  UNL     1      23.042  -9.591   9.773  1.00  0.00    -0.299 N 
ATOM      5  H2  UNL     1      22.514  -9.973   8.988  1.00  0.00     0.171 HD
HETATM    6  C3  UNL     1      24.324  -9.963   9.913  1.00  0.00     0.276 A 
HETATM    7  O1  UNL     1      24.895 -10.760   9.115  1.00  0.00    -0.266 OA
HETATM    8  C4  UNL     1      25.015  -9.425  10.991  1.00  0.00     0.141 A 
HETATM    9  C5  UNL     1      24.406  -8.560  11.861  1.00  0.00     0.062 A 
HETATM   10  N3  UNL     1      23.127  -8.239  11.655  1.00  0.00    -0.333 N 
ATOM     11  H3  UNL     1      22.670  -7.596  12.301  1.00  0.00     0.168 HD
HETATM   12  C6  UNL     1      25.156  -7.995  13.008  1.00  0.00     0.197 A 
HETATM   13  N4  UNL     1      26.502  -8.435  13.088  1.00  0.00    -0.219 N 
ATOM     14  H4  UNL     1      27.060  -8.073  13.862  1.00  0.00     0.178 HD
HETATM   15  C7  UNL     1      27.085  -9.242  12.283  1.00  0.00     0.698 A 
HETATM   16  N7  UNL     1      26.364  -9.780  11.189  1.00  0.00    -0.183 N 
ATOM     17  H7  UNL     1      26.822 -10.425  10.545  1.00  0.00     0.184 HD
ENDROOT
BRANCH  15  18
HETATM   18  N5  UNL     1      28.465  -9.616  12.469  1.00  0.00    -0.072 N 
ATOM     19  H5  UNL     1      28.808 -10.502  12.096  1.00  0.00     0.212 HD
BRANCH  18  20
HETATM   20  N6  UNL     1      29.324  -8.774  13.152  1.00  0.00    -0.024 N 
HETATM   21  O2  UNL     1      28.949  -7.911  13.960  1.00  0.00    -0.516 OA
HETATM   22  O3  UNL     1      30.686  -8.874  12.945  1.00  0.00    -0.516 OA
ENDBRANCH  18  20
ENDBRANCH  15  18
TORSDOF 2
ENDMDL
MODEL 5
REMARK VINA RESULT: -6.399792644      2.293      3.417
REMARK  2 active torsions:
REMARK  status: ('A' for Active; 'I' for Inactive)
REMARK    1  A    between atoms: C7_15  and  N5_16 
REMARK    2  A    between atoms: N5_16  and  N6_18 
ROOT
HETATM    1  N1  UNL     1      27.227  -8.623  13.718  1.00  0.00    -0.188 NA
HETATM    2  C1  UNL     1      26.403  -8.769  12.932  1.00  0.00     0.137 C 
HETATM    3  C2  UNL     1      25.361  -8.970  11.962  1.00  0.00     0.191 A 
HETATM    4  N2  UNL     1      25.545  -9.767  10.894  1.00  0.00    -0.299 N 
ATOM      5  H2  UNL     1      26.449 -10.229  10.788  1.00  0.00     0.171 HD
HETATM    6  C3  UNL     1      24.608  -9.990   9.958  1.00  0.00     0.276 A 
HETATM    7  O1  UNL     1      24.804 -10.744   8.963  1.00  0.00    -0.266 OA
HETATM    8  C4  UNL     1      23.390  -9.348  10.131  1.00  0.00     0.141 A 
HETATM    9  C5  UNL     1      23.168  -8.529  11.207  1.00  0.00     0.062 A 
HETATM   10  N3  UNL     1      24.150  -8.357  12.094  1.00  0.00    -0.333 N 
ATOM     11  H3  UNL     1      23.989  -7.748  12.896  1.00  0.00     0.168 HD
HETATM   12  C6  UNL     1      21.862  -7.848  11.377  1.00  0.00     0.197 A 
HETATM   13  N4  UNL     1      20.926  -8.134  10.350  1.00  0.00    -0.219 N 
ATOM     14  H4  UNL     1      20.011  -7.688  10.423  1.00  0.00     0.178 HD
HETATM   15  C7  UNL     1      21.118  -8.896   9.339  1.00  0.00     0.698 A 
HETATM   16  N7  UNL     1      22.368  -9.543   9.181  1.00  0.00    -0.183 N 
ATOM     17  H7  UNL     1      22.529 -10.150   8.377  1.00  0.00     0.184 HD
ENDROOT
BRANCH  15  18
HETATM   18  N5  UNL     1      20.086  -9.109   8.357  1.00  0.00    -0.072 N 
ATOM     19  H5  UNL     1      20.270  -8.916   7.373  1.00  0.00     0.212 HD
BRANCH  18  20
HETATM   20  N6  UNL     1      18.844  -9.576   8.750  1.00  0.00    -0.024 N 
HETATM   21  O2  UNL     1      17.779  -9.251   8.205  1.00  0.00    -0.516 OA
HETATM   22  O3  UNL     1      18.751 -10.458   9.810  1.00  0.00    -0.516 OA
ENDBRANCH  18  20
ENDBRANCH  15  18
TORSDOF 2
ENDMDL
