MODEL 1
REMARK VINA RESULT: -5.953571729      0.000      0.000
REMARK  3 active torsions:
REMARK  status: ('A' for Active; 'I' for Inactive)
REMARK    1  A    between atoms: N1_1  and  N2_4 
REMARK    2  A    between atoms: N3_7  and  N4_8 
REMARK    3  A    between atoms: N4_8  and  O2_10 
ROOT
HETATM    1  N2  UNL     1      24.806  -7.952  12.996  1.00  0.00    -0.191 N 
HETATM    2  C1  UNL     1      26.057  -8.424  12.827  1.00  0.00     0.370 A 
HETATM    3  O1  UNL     1      27.065  -8.217  13.564  1.00  0.00    -0.242 OA
HETATM    4  N3  UNL     1      26.093  -9.182  11.714  1.00  0.00    -0.175 N 
HETATM    5  C2  UNL     1      24.846  -9.167  11.205  1.00  0.00     0.177 A 
HETATM    6  C3  UNL     1      24.256  -9.747  10.090  1.00  0.00     0.280 A 
HETATM    7  O3  UNL     1      25.015 -10.457   9.357  1.00  0.00    -0.265 OA
HETATM    8  N5  UNL     1      22.956  -9.571   9.798  1.00  0.00    -0.298 N 
ATOM      9  H5  UNL     1      22.561 -10.015   8.969  1.00  0.00     0.171 HD
HETATM   10  C4  UNL     1      22.170  -8.816  10.586  1.00  0.00     0.180 A 
HETATM   11  S1  UNL     1      20.571  -8.601  10.224  1.00  0.00    -0.040 SA
HETATM   12  N6  UNL     1      22.712  -8.240  11.675  1.00  0.00    -0.315 N 
ATOM     13  H6  UNL     1      22.122  -7.665  12.278  1.00  0.00     0.170 HD
HETATM   14  C5  UNL     1      24.008  -8.400  11.989  1.00  0.00     0.168 A 
ENDROOT
BRANCH   4  15
HETATM   15  N4  UNL     1      27.206  -9.853  11.189  1.00  0.00    -0.199 N 
ATOM     16  H4  UNL     1      27.061 -10.479  10.397  1.00  0.00     0.216 HD
BRANCH  15  17
HETATM   17  O2  UNL     1      28.357  -9.729  11.633  1.00  0.00    -0.274 OA
ATOM     18  H2  UNL     1      29.076 -10.308  11.405  1.00  0.00     0.246 HD
ENDBRANCH  15  17
ENDBRANCH   4  15
BRANCH   1  19
HETATM   19  N1  UNL     1      24.405  -7.135  14.042  1.00  0.00    -0.333 N 
ATOM     20  H12 UNL     1      24.310  -7.420  15.016  1.00  0.00     0.177 HD
ATOM     21  H11 UNL     1      24.159  -6.149  13.947  1.00  0.00     0.177 HD
ENDBRANCH   1  19
TORSDOF 3
ENDMDL
MODEL 2
REMARK VINA RESULT: -5.777278829      3.033      5.123
REMARK  3 active torsions:
REMARK  status: ('A' for Active; 'I' for Inactive)
REMARK    1  A    between atoms: N1_1  and  N2_4 
REMARK    2  A    between atoms: N3_7  and  N4_8 
REMARK    3  A    between atoms: N4_8  and  O2_10 
ROOT
HETATM    1  N2  UNL     1      25.169  -9.999  10.035  1.00  0.00    -0.191 N 
HETATM    2  C1  UNL     1      23.881  -9.608  10.094  1.00  0.00     0.370 A 
HETATM    3  O1  UNL     1      22.955  -9.876   9.272  1.00  0.00    -0.242 OA
HETATM    4  N3  UNL     1      23.700  -8.858  11.198  1.00  0.00    -0.175 N 
HETATM    5  C2  UNL     1      24.896  -8.795  11.813  1.00  0.00     0.177 A 
HETATM    6  C3  UNL     1      25.350  -8.183  12.973  1.00  0.00     0.280 A 
HETATM    7  O3  UNL     1      24.486  -7.525  13.637  1.00  0.00    -0.265 OA
HETATM    8  N5  UNL     1      26.628  -8.277  13.378  1.00  0.00    -0.298 N 
ATOM      9  H5  UNL     1      26.921  -7.812  14.237  1.00  0.00     0.171 HD
HETATM   10  C4  UNL     1      27.526  -8.977  12.661  1.00  0.00     0.180 A 
HETATM   11  S1  UNL     1      29.099  -9.090  13.161  1.00  0.00    -0.040 SA
HETATM   12  N6  UNL     1      27.119  -9.582  11.531  1.00  0.00    -0.315 N 
ATOM     13  H6  UNL     1      27.794 -10.115  10.982  1.00  0.00     0.170 HD
HETATM   14  C5  UNL     1      25.847  -9.505  11.105  1.00  0.00     0.168 A 
ENDROOT
BRANCH   4  15
HETATM   15  N4  UNL     1      22.505  -8.261  11.623  1.00  0.00    -0.199 N 
ATOM     16  H4  UNL     1      22.531  -7.281  11.905  1.00  0.00     0.216 HD
BRANCH  15  17
HETATM   17  O2  UNL     1      21.419  -8.856  11.677  1.00  0.00    -0.274 OA
ATOM     18  H2  UNL     1      21.337  -9.798  11.771  1.00  0.00     0.246 HD
ENDBRANCH  15  17
ENDBRANCH   4  15
BRANCH   1  19
HETATM   19  N1  UNL     1      25.710 -10.785   9.029  1.00  0.00    -0.333 N 
ATOM     20  H12 UNL     1      25.259 -11.591   8.598  1.00  0.00     0.177 HD
ATOM     21  H11 UNL     1      26.628 -10.640   8.608  1.00  0.00     0.177 HD
ENDBRANCH   1  19
TORSDOF 3
ENDMDL
MODEL 3
REMARK VINA RESULT: -5.423883275      3.463      4.701
REMARK  3 active torsions:
REMARK  status: ('A' for Active; 'I' for Inactive)
REMARK    1  A    between atoms: N1_1  and  N2_4 
REMARK    2  A    between atoms: N3_7  and  N4_8 
REMARK    3  A    between atoms: N4_8  and  O2_10 
ROOT
HETATM    1  N2  UNL     1      20.228  -7.433  10.322  1.00  0.00    -0.191 N 
HETATM    2  C1  UNL     1      20.684  -8.472  11.049  1.00  0.00     0.370 A 
HETATM    3  O1  UNL     1      20.037  -9.175  11.880  1.00  0.00    -0.242 OA
HETATM    4  N3  UNL     1      21.984  -8.673  10.760  1.00  0.00    -0.175 N 
HETATM    5  C2  UNL     1      22.316  -7.741   9.845  1.00  0.00     0.177 A 
HETATM    6  C3  UNL     1      23.489  -7.434   9.168  1.00  0.00     0.280 A 
HETATM    7  O3  UNL     1      24.498  -8.162   9.432  1.00  0.00    -0.265 OA
HETATM    8  N5  UNL     1      23.558  -6.427   8.281  1.00  0.00    -0.298 N 
ATOM      9  H5  UNL     1      24.438  -6.234   7.804  1.00  0.00     0.171 HD
HETATM   10  C4  UNL     1      22.479  -5.669   8.016  1.00  0.00     0.180 A 
HETATM   11  S1  UNL     1      22.567  -4.429   6.925  1.00  0.00    -0.040 SA
HETATM   12  N6  UNL     1      21.327  -5.940   8.656  1.00  0.00    -0.315 N 
ATOM     13  H6  UNL     1      20.503  -5.369   8.460  1.00  0.00     0.170 HD
HETATM   14  C5  UNL     1      21.231  -6.941   9.546  1.00  0.00     0.168 A 
ENDROOT
BRANCH   4  15
HETATM   15  N4  UNL     1      22.826  -9.654  11.301  1.00  0.00    -0.199 N 
ATOM     16  H4  UNL     1      22.625 -10.631  11.087  1.00  0.00     0.216 HD
BRANCH  15  17
HETATM   17  O2  UNL     1      23.800  -9.402  12.025  1.00  0.00    -0.274 OA
ATOM     18  H2  UNL     1      24.031  -9.909  12.795  1.00  0.00     0.246 HD
ENDBRANCH  15  17
ENDBRANCH   4  15
BRANCH   1  19
HETATM   19  N1  UNL     1      18.930  -6.948  10.368  1.00  0.00    -0.333 N 
ATOM     20  H12 UNL     1      18.337  -6.914  11.197  1.00  0.00     0.177 HD
ATOM     21  H11 UNL     1      18.422  -6.570   9.567  1.00  0.00     0.177 HD
ENDBRANCH   1  19
TORSDOF 3
ENDMDL
MODEL 4
REMARK VINA RESULT: -5.274625201      3.569      5.034
REMARK  3 active torsions:
REMARK  status: ('A' for Active; 'I' for Inactive)
REMARK    1  A    between atoms: N1_1  and  N2_4 
REMARK    2  A    between atoms: N3_7  and  N4_8 
REMARK    3  A    between atoms: N4_8  and  O2_10 
ROOT
HETATM    1  N2  UNL     1      23.525  -8.394  10.129  1.00  0.00    -0.191 N 
HETATM    2  C1  UNL     1      22.772  -9.084  11.008  1.00  0.00     0.370 A 
HETATM    3  O1  UNL     1      23.160  -9.959  11.837  1.00  0.00    -0.242 OA
HETATM    4  N3  UNL     1      21.487  -8.702  10.879  1.00  0.00    -0.175 N 
HETATM    5  C2  UNL     1      21.465  -7.767   9.910  1.00  0.00     0.177 A 
HETATM    6  C3  UNL     1      20.459  -7.007   9.329  1.00  0.00     0.280 A 
HETATM    7  O3  UNL     1      19.282  -7.196   9.775  1.00  0.00    -0.265 OA
HETATM    8  N5  UNL     1      20.709  -6.119   8.351  1.00  0.00    -0.298 N 
ATOM      9  H5  UNL     1      19.941  -5.580   7.951  1.00  0.00     0.171 HD
HETATM   10  C4  UNL     1      21.960  -5.934   7.894  1.00  0.00     0.180 A 
HETATM   11  S1  UNL     1      22.264  -4.841   6.690  1.00  0.00    -0.040 SA
HETATM   12  N6  UNL     1      22.958  -6.655   8.436  1.00  0.00    -0.315 N 
ATOM     13  H6  UNL     1      23.910  -6.520   8.094  1.00  0.00     0.170 HD
HETATM   14  C5  UNL     1      22.736  -7.548   9.414  1.00  0.00     0.168 A 
ENDROOT
BRANCH   4  15
HETATM   15  N4  UNL     1      20.389  -9.179  11.608  1.00  0.00    -0.199 N 
ATOM     16  H4  UNL     1      20.326  -8.937  12.597  1.00  0.00     0.216 HD
BRANCH  15  17
HETATM   17  O2  UNL     1      19.490  -9.880  11.120  1.00  0.00    -0.274 OA
ATOM     18  H2  UNL     1      19.626 -10.487  10.402  1.00  0.00     0.246 HD
ENDBRANCH  15  17
ENDBRANCH   4  15
BRANCH   1  19
HETATM   19  N1  UNL     1      24.897  -8.534   9.985  1.00  0.00    -0.333 N 
ATOM     20  H12 UNL     1      25.376  -9.365   9.641  1.00  0.00     0.177 HD
ATOM     21  H11 UNL     1      25.582  -7.812  10.212  1.00  0.00     0.177 HD
ENDBRANCH   1  19
TORSDOF 3
ENDMDL
MODEL 5
REMARK VINA RESULT: -4.754304041      0.830      1.033
REMARK  3 active torsions:
REMARK  status: ('A' for Active; 'I' for Inactive)
REMARK    1  A    between atoms: N1_1  and  N2_4 
REMARK    2  A    between atoms: N3_7  and  N4_8 
REMARK    3  A    between atoms: N4_8  and  O2_10 
ROOT
HETATM    1  N2  UNL     1      24.901  -8.280  12.737  1.00  0.00    -0.191 N 
HETATM    2  C1  UNL     1      26.037  -8.847  12.285  1.00  0.00     0.370 A 
HETATM    3  O1  UNL     1      27.182  -8.817  12.824  1.00  0.00    -0.242 OA
HETATM    4  N3  UNL     1      25.779  -9.480  11.125  1.00  0.00    -0.175 N 
HETATM    5  C2  UNL     1      24.469  -9.292  10.874  1.00  0.00     0.177 A 
HETATM    6  C3  UNL     1      23.619  -9.690   9.851  1.00  0.00     0.280 A 
HETATM    7  O3  UNL     1      24.142 -10.386   8.923  1.00  0.00    -0.265 OA
HETATM    8  N5  UNL     1      22.316  -9.361   9.837  1.00  0.00    -0.298 N 
ATOM      9  H5  UNL     1      21.725  -9.673   9.066  1.00  0.00     0.171 HD
HETATM   10  C4  UNL     1      21.782  -8.624  10.827  1.00  0.00     0.180 A 
HETATM   11  S1  UNL     1      20.178  -8.221  10.807  1.00  0.00    -0.040 SA
HETATM   12  N6  UNL     1      22.579  -8.222  11.834  1.00  0.00    -0.315 N 
ATOM     13  H6  UNL     1      22.181  -7.663  12.589  1.00  0.00     0.170 HD
HETATM   14  C5  UNL     1      23.884  -8.538  11.872  1.00  0.00     0.168 A 
ENDROOT
BRANCH   4  15
HETATM   15  N4  UNL     1      26.690 -10.194  10.334  1.00  0.00    -0.199 N 
ATOM     16  H4  UNL     1      27.600  -9.772  10.149  1.00  0.00     0.216 HD
BRANCH  15  17
HETATM   17  O2  UNL     1      26.453 -11.309   9.846  1.00  0.00    -0.274 OA
ATOM     18  H2  UNL     1      27.073 -12.029   9.848  1.00  0.00     0.246 HD
ENDBRANCH  15  17
ENDBRANCH   4  15
BRANCH   1  19
HETATM   19  N1  UNL     1      24.799  -7.545  13.909  1.00  0.00    -0.333 N 
ATOM     20  H12 UNL     1      25.554  -7.379  14.573  1.00  0.00     0.177 HD
ATOM     21  H11 UNL     1      23.947  -7.088  14.235  1.00  0.00     0.177 HD
ENDBRANCH   1  19
TORSDOF 3
ENDMDL
