MODEL 1
REMARK VINA RESULT: -5.511969924      0.000      0.000
REMARK  2 active torsions:
REMARK  status: ('A' for Active; 'I' for Inactive)
REMARK    1  A    between atoms: C8_11  and  O4_12 
REMARK    2  A    between atoms: C8_11  and  O5_14 
ROOT
HETATM    1  C1  UNL     1      24.949  -8.411  12.697  1.00  0.00     0.081 C 
HETATM    2  C2  UNL     1      24.390  -8.900  11.372  1.00  0.00     0.193 C 
HETATM    3  C3  UNL     1      25.554  -9.590  10.655  1.00  0.00     0.081 C 
HETATM    4  O1  UNL     1      23.391  -9.826  11.510  1.00  0.00    -0.199 OA
HETATM    5  O2  UNL     1      22.220  -9.356  11.777  1.00  0.00    -0.200 OA
HETATM    6  C4  UNL     1      21.809  -8.328  10.968  1.00  0.00     0.353 C 
HETATM    7  O3  UNL     1      20.542  -8.451  10.473  1.00  0.00    -0.335 OA
HETATM    8  C5  UNL     1      20.274  -7.493   9.528  1.00  0.00     0.141 C 
HETATM    9  C6  UNL     1      18.863  -7.734   8.995  1.00  0.00     0.054 C 
HETATM   10  C7  UNL     1      20.370  -6.078  10.050  1.00  0.00     0.054 C 
HETATM   11  C8  UNL     1      21.299  -7.597   8.391  1.00  0.00     0.312 C 
HETATM   12  O6  UNL     1      22.521  -7.182   8.970  1.00  0.00    -0.294 OA
HETATM   13  C9  UNL     1      22.866  -8.149   9.887  1.00  0.00     0.327 C 
HETATM   14  O7  UNL     1      24.042  -7.811  10.568  1.00  0.00    -0.318 OA
ENDROOT
BRANCH  11  15
HETATM   15  O4  UNL     1      20.937  -6.753   7.336  1.00  0.00    -0.341 OA
ATOM     16  H4  UNL     1      20.046  -6.934   7.063  1.00  0.00     0.215 HD
ENDBRANCH  11  15
BRANCH  11  17
HETATM   17  O5  UNL     1      21.445  -8.883   7.939  1.00  0.00    -0.341 OA
ATOM     18  H5  UNL     1      21.461  -8.931   6.990  1.00  0.00     0.215 HD
ENDBRANCH  11  17
TORSDOF 2
ENDMDL
MODEL 2
REMARK VINA RESULT: -4.378251000      1.425      2.305
REMARK  2 active torsions:
REMARK  status: ('A' for Active; 'I' for Inactive)
REMARK    1  A    between atoms: C8_11  and  O4_12 
REMARK    2  A    between atoms: C8_11  and  O5_14 
ROOT
HETATM    1  C1  UNL     1      24.695  -9.849  11.946  1.00  0.00     0.081 C 
HETATM    2  C2  UNL     1      24.050  -8.636  11.297  1.00  0.00     0.193 C 
HETATM    3  C3  UNL     1      24.834  -7.423  11.805  1.00  0.00     0.081 C 
HETATM    4  O1  UNL     1      24.140  -8.637   9.931  1.00  0.00    -0.199 OA
HETATM    5  O2  UNL     1      23.278  -9.369   9.310  1.00  0.00    -0.200 OA
HETATM    6  C4  UNL     1      21.976  -9.191   9.701  1.00  0.00     0.353 C 
HETATM    7  O3  UNL     1      21.080  -9.039   8.683  1.00  0.00    -0.335 OA
HETATM    8  C5  UNL     1      19.842  -8.678   9.150  1.00  0.00     0.141 C 
HETATM    9  C6  UNL     1      18.921  -8.481   7.948  1.00  0.00     0.054 C 
HETATM   10  C7  UNL     1      19.223  -9.690  10.086  1.00  0.00     0.054 C 
HETATM   11  C8  UNL     1      19.959  -7.374   9.952  1.00  0.00     0.312 C 
HETATM   12  O6  UNL     1      20.678  -7.733  11.115  1.00  0.00    -0.294 OA
HETATM   13  C9  UNL     1      21.954  -8.046  10.704  1.00  0.00     0.327 C 
HETATM   14  O7  UNL     1      22.747  -8.473  11.776  1.00  0.00    -0.318 OA
ENDROOT
BRANCH  11  15
HETATM   15  O4  UNL     1      18.687  -6.895  10.282  1.00  0.00    -0.341 OA
ATOM     16  H4  UNL     1      18.637  -5.961  10.119  1.00  0.00     0.215 HD
ENDBRANCH  11  15
BRANCH  11  17
HETATM   17  O5  UNL     1      20.667  -6.412   9.279  1.00  0.00    -0.341 OA
ATOM     18  H5  UNL     1      20.537  -5.547   9.647  1.00  0.00     0.215 HD
ENDBRANCH  11  17
TORSDOF 2
ENDMDL
MODEL 3
REMARK VINA RESULT: -4.295792345      1.715      4.518
REMARK  2 active torsions:
REMARK  status: ('A' for Active; 'I' for Inactive)
REMARK    1  A    between atoms: C8_11  and  O4_12 
REMARK    2  A    between atoms: C8_11  and  O5_14 
ROOT
HETATM    1  C1  UNL     1      18.427 -10.011   9.762  1.00  0.00     0.081 C 
HETATM    2  C2  UNL     1      19.487  -9.010   9.336  1.00  0.00     0.193 C 
HETATM    3  C3  UNL     1      19.045  -8.489   7.966  1.00  0.00     0.081 C 
HETATM    4  O1  UNL     1      19.582  -7.929  10.170  1.00  0.00    -0.199 OA
HETATM    5  O2  UNL     1      20.257  -8.112  11.255  1.00  0.00    -0.200 OA
HETATM    6  C4  UNL     1      21.488  -8.690  11.081  1.00  0.00     0.353 C 
HETATM    7  O3  UNL     1      22.516  -8.076  11.738  1.00  0.00    -0.335 OA
HETATM    8  C5  UNL     1      23.732  -8.589  11.366  1.00  0.00     0.141 C 
HETATM    9  C6  UNL     1      24.820  -7.815  12.107  1.00  0.00     0.054 C 
HETATM   10  C7  UNL     1      23.887 -10.063  11.660  1.00  0.00     0.054 C 
HETATM   11  C8  UNL     1      23.908  -8.437   9.849  1.00  0.00     0.312 C 
HETATM   12  O6  UNL     1      22.967  -9.331   9.288  1.00  0.00    -0.294 OA
HETATM   13  C9  UNL     1      21.722  -8.822   9.582  1.00  0.00     0.327 C 
HETATM   14  O7  UNL     1      20.702  -9.663   9.118  1.00  0.00    -0.318 OA
ENDROOT
BRANCH  11  15
HETATM   15  O4  UNL     1      25.209  -8.788   9.477  1.00  0.00    -0.341 OA
ATOM     16  H4  UNL     1      25.586  -9.380  10.117  1.00  0.00     0.215 HD
ENDBRANCH  11  15
BRANCH  11  17
HETATM   17  O5  UNL     1      23.618  -7.169   9.417  1.00  0.00    -0.341 OA
ATOM     18  H5  UNL     1      22.771  -7.120   8.990  1.00  0.00     0.215 HD
ENDBRANCH  11  17
TORSDOF 2
ENDMDL
MODEL 4
REMARK VINA RESULT: -4.250267264      1.354      2.635
REMARK  2 active torsions:
REMARK  status: ('A' for Active; 'I' for Inactive)
REMARK    1  A    between atoms: C8_11  and  O4_12 
REMARK    2  A    between atoms: C8_11  and  O5_14 
ROOT
HETATM    1  C1  UNL     1      25.630  -9.309   9.502  1.00  0.00     0.081 C 
HETATM    2  C2  UNL     1      24.470  -8.975  10.425  1.00  0.00     0.193 C 
HETATM    3  C3  UNL     1      24.915  -9.397  11.828  1.00  0.00     0.081 C 
HETATM    4  O1  UNL     1      24.182  -7.638  10.475  1.00  0.00    -0.199 OA
HETATM    5  O2  UNL     1      23.476  -7.176   9.498  1.00  0.00    -0.200 OA
HETATM    6  C4  UNL     1      22.347  -7.897   9.207  1.00  0.00     0.353 C 
HETATM    7  O3  UNL     1      21.210  -7.156   9.053  1.00  0.00    -0.335 OA
HETATM    8  C5  UNL     1      20.098  -7.953   8.955  1.00  0.00     0.141 C 
HETATM    9  C6  UNL     1      18.874  -7.047   8.837  1.00  0.00     0.054 C 
HETATM   10  C7  UNL     1      20.127  -8.900   7.778  1.00  0.00     0.054 C 
HETATM   11  C8  UNL     1      19.990  -8.835  10.206  1.00  0.00     0.312 C 
HETATM   12  O6  UNL     1      21.074  -9.737  10.104  1.00  0.00    -0.294 OA
HETATM   13  C9  UNL     1      22.220  -8.990  10.259  1.00  0.00     0.327 C 
HETATM   14  O7  UNL     1      23.369  -9.778  10.119  1.00  0.00    -0.318 OA
ENDROOT
BRANCH  11  15
HETATM   15  O4  UNL     1      18.771  -9.521  10.210  1.00  0.00    -0.341 OA
ATOM     16  H4  UNL     1      18.458  -9.629  11.100  1.00  0.00     0.215 HD
ENDBRANCH  11  15
BRANCH  11  17
HETATM   17  O5  UNL     1      20.130  -8.113  11.364  1.00  0.00    -0.341 OA
ATOM     18  H5  UNL     1      20.959  -8.283  11.795  1.00  0.00     0.215 HD
ENDBRANCH  11  17
TORSDOF 2
ENDMDL
MODEL 5
REMARK VINA RESULT: -3.734603496      2.381      3.874
REMARK  2 active torsions:
REMARK  status: ('A' for Active; 'I' for Inactive)
REMARK    1  A    between atoms: C8_11  and  O4_12 
REMARK    2  A    between atoms: C8_11  and  O5_14 
ROOT
HETATM    1  C1  UNL     1      28.685  -8.188  12.969  1.00  0.00     0.081 C 
HETATM    2  C2  UNL     1      27.434  -9.048  13.020  1.00  0.00     0.193 C 
HETATM    3  C3  UNL     1      27.855 -10.363  13.682  1.00  0.00     0.081 C 
HETATM    4  O1  UNL     1      26.433  -8.511  13.783  1.00  0.00    -0.199 OA
HETATM    5  O2  UNL     1      25.723  -7.594  13.218  1.00  0.00    -0.200 OA
HETATM    6  C4  UNL     1      25.252  -7.912  11.970  1.00  0.00     0.353 C 
HETATM    7  O3  UNL     1      23.927  -7.652  11.767  1.00  0.00    -0.335 OA
HETATM    8  C5  UNL     1      23.488  -8.169  10.574  1.00  0.00     0.141 C 
HETATM    9  C6  UNL     1      21.994  -7.878  10.452  1.00  0.00     0.054 C 
HETATM   10  C7  UNL     1      24.201  -7.607   9.367  1.00  0.00     0.054 C 
HETATM   11  C8  UNL     1      23.741  -9.682  10.550  1.00  0.00     0.312 C 
HETATM   12  O6  UNL     1      25.148  -9.810  10.487  1.00  0.00    -0.294 OA
HETATM   13  C9  UNL     1      25.635  -9.360  11.694  1.00  0.00     0.327 C 
HETATM   14  O7  UNL     1      27.034  -9.388  11.724  1.00  0.00    -0.318 OA
ENDROOT
BRANCH  11  15
HETATM   15  O4  UNL     1      23.140 -10.254   9.424  1.00  0.00    -0.341 OA
ATOM     16  H4  UNL     1      22.986 -11.180   9.569  1.00  0.00     0.215 HD
ENDBRANCH  11  15
BRANCH  11  17
HETATM   17  O5  UNL     1      23.296 -10.302  11.689  1.00  0.00    -0.341 OA
ATOM     18  H5  UNL     1      23.649 -11.178  11.783  1.00  0.00     0.215 HD
ENDBRANCH  11  17
TORSDOF 2
ENDMDL
