MODEL 1
REMARK VINA RESULT: -5.807782357      0.000      0.000
REMARK  2 active torsions:
REMARK  status: ('A' for Active; 'I' for Inactive)
REMARK    1  A    between atoms: O1_1  and  N1_3 
REMARK    2  A    between atoms: N1_3  and  C1_5 
ROOT
HETATM    1  C1  UNL     1      20.151  -8.817  10.157  1.00  0.00     0.166 A 
HETATM    2  C2  UNL     1      21.517  -8.595  10.178  1.00  0.00     0.145 A 
HETATM    3  N2  UNL     1      22.048  -7.742   9.273  1.00  0.00    -0.261 N 
HETATM    4  C3  UNL     1      21.260  -7.126   8.377  1.00  0.00     0.332 A 
HETATM    5  O2  UNL     1      21.737  -6.331   7.532  1.00  0.00    -0.246 OA
HETATM    6  N3  UNL     1      19.933  -7.347   8.365  1.00  0.00    -0.273 N 
ATOM      7  H3  UNL     1      19.357  -6.866   7.673  1.00  0.00     0.173 HD
HETATM    8  C4  UNL     1      19.342  -8.184   9.238  1.00  0.00     0.281 A 
HETATM    9  O3  UNL     1      18.113  -8.421   9.264  1.00  0.00    -0.265 OA
HETATM   10  C5  UNL     1      23.401  -7.264   8.987  1.00  0.00     0.307 C 
HETATM   11  O4  UNL     1      24.321  -8.252   9.306  1.00  0.00    -0.347 OA
HETATM   12  C6  UNL     1      24.722  -8.207  10.627  1.00  0.00     0.342 C 
HETATM   13  O5  UNL     1      24.418  -9.421  11.263  1.00  0.00    -0.348 OA
HETATM   14  C7  UNL     1      23.251  -9.283  12.041  1.00  0.00     0.294 C 
HETATM   15  N4  UNL     1      22.056  -9.383  11.227  1.00  0.00    -0.353 N 
ATOM     16  H4  UNL     1      21.480 -10.193  11.459  1.00  0.00     0.163 HD
ENDROOT
BRANCH   1  17
HETATM   17  N1  UNL     1      19.636  -9.728  11.134  1.00  0.00    -0.260 N 
ATOM     18  H1  UNL     1      19.811  -9.619  12.133  1.00  0.00     0.194 HD
BRANCH  17  19
HETATM   19  O1  UNL     1      18.949 -10.678  10.662  1.00  0.00    -0.289 OA
ATOM     20  H1  UNL     1      19.176 -11.538  10.995  1.00  0.00     0.244 HD
ENDBRANCH  17  19
ENDBRANCH   1  17
TORSDOF 2
ENDMDL
MODEL 2
REMARK VINA RESULT: -5.587023594      2.688      3.807
REMARK  2 active torsions:
REMARK  status: ('A' for Active; 'I' for Inactive)
REMARK    1  A    between atoms: O1_1  and  N1_3 
REMARK    2  A    between atoms: N1_3  and  C1_5 
ROOT
HETATM    1  C1  UNL     1      22.879  -8.791  10.872  1.00  0.00     0.166 A 
HETATM    2  C2  UNL     1      24.126  -8.803  11.472  1.00  0.00     0.145 A 
HETATM    3  N2  UNL     1      25.149  -9.409  10.828  1.00  0.00    -0.261 N 
HETATM    4  C3  UNL     1      24.950  -9.985   9.630  1.00  0.00     0.332 A 
HETATM    5  O2  UNL     1      25.889 -10.550   9.019  1.00  0.00    -0.246 OA
HETATM    6  N3  UNL     1      23.735  -9.967   9.055  1.00  0.00    -0.273 N 
ATOM      7  H3  UNL     1      23.612 -10.412   8.145  1.00  0.00     0.173 HD
HETATM    8  C4  UNL     1      22.676  -9.381   9.643  1.00  0.00     0.281 A 
HETATM    9  O3  UNL     1      21.528  -9.341   9.146  1.00  0.00    -0.265 OA
HETATM   10  C5  UNL     1      26.564  -9.623  11.127  1.00  0.00     0.307 C 
HETATM   11  O4  UNL     1      26.741  -9.725  12.499  1.00  0.00    -0.347 OA
HETATM   12  C6  UNL     1      26.929  -8.500  13.109  1.00  0.00     0.342 C 
HETATM   13  O5  UNL     1      25.929  -8.284  14.071  1.00  0.00    -0.348 OA
HETATM   14  C7  UNL     1      24.943  -7.417  13.561  1.00  0.00     0.294 C 
HETATM   15  N4  UNL     1      24.004  -8.122  12.711  1.00  0.00    -0.353 N 
ATOM     16  H4  UNL     1      23.054  -8.130  13.083  1.00  0.00     0.163 HD
ENDROOT
BRANCH   1  17
HETATM   17  N1  UNL     1      21.829  -8.138  11.593  1.00  0.00    -0.260 N 
ATOM     18  H1  UNL     1      21.880  -7.158  11.871  1.00  0.00     0.194 HD
BRANCH  17  19
HETATM   19  O1  UNL     1      20.833  -8.870  11.858  1.00  0.00    -0.289 OA
ATOM     20  H1  UNL     1      20.402  -8.673  12.682  1.00  0.00     0.244 HD
ENDBRANCH  17  19
ENDBRANCH   1  17
TORSDOF 2
ENDMDL
MODEL 3
REMARK VINA RESULT: -5.220825918      2.769      5.529
REMARK  2 active torsions:
REMARK  status: ('A' for Active; 'I' for Inactive)
REMARK    1  A    between atoms: O1_1  and  N1_3 
REMARK    2  A    between atoms: N1_3  and  C1_5 
ROOT
HETATM    1  C1  UNL     1      25.206  -8.613  12.566  1.00  0.00     0.166 A 
HETATM    2  C2  UNL     1      24.270  -8.804  11.566  1.00  0.00     0.145 A 
HETATM    3  N2  UNL     1      24.656  -9.418  10.426  1.00  0.00    -0.261 N 
HETATM    4  C3  UNL     1      25.926  -9.832  10.275  1.00  0.00     0.332 A 
HETATM    5  O2  UNL     1      26.300 -10.405   9.223  1.00  0.00    -0.246 OA
HETATM    6  N3  UNL     1      26.828  -9.643  11.253  1.00  0.00    -0.273 N 
ATOM      7  H3  UNL     1      27.786  -9.967  11.113  1.00  0.00     0.173 HD
HETATM    8  C4  UNL     1      26.508  -9.039  12.412  1.00  0.00     0.281 A 
HETATM    9  O3  UNL     1      27.314  -8.841  13.349  1.00  0.00    -0.265 OA
HETATM   10  C5  UNL     1      23.981  -9.789   9.182  1.00  0.00     0.307 C 
HETATM   11  O4  UNL     1      22.969  -8.879   8.911  1.00  0.00    -0.347 OA
HETATM   12  C6  UNL     1      21.771  -9.213   9.512  1.00  0.00     0.342 C 
HETATM   13  O5  UNL     1      21.361  -8.182  10.371  1.00  0.00    -0.348 OA
HETATM   14  C7  UNL     1      21.652  -8.518  11.708  1.00  0.00     0.294 C 
HETATM   15  N4  UNL     1      23.042  -8.262  12.029  1.00  0.00    -0.353 N 
ATOM     16  H4  UNL     1      23.164  -7.538  12.738  1.00  0.00     0.163 HD
ENDROOT
BRANCH   1  17
HETATM   17  N1  UNL     1      24.748  -7.959  13.754  1.00  0.00    -0.260 N 
ATOM     18  H1  UNL     1      24.075  -8.383  14.391  1.00  0.00     0.194 HD
BRANCH  17  19
HETATM   19  O1  UNL     1      25.244  -6.813  13.952  1.00  0.00    -0.289 OA
ATOM     20  H1  UNL     1      26.111  -6.685  13.585  1.00  0.00     0.244 HD
ENDBRANCH  17  19
ENDBRANCH   1  17
TORSDOF 2
ENDMDL
MODEL 4
REMARK VINA RESULT: -4.243155489      1.689      3.797
REMARK  2 active torsions:
REMARK  status: ('A' for Active; 'I' for Inactive)
REMARK    1  A    between atoms: O1_1  and  N1_3 
REMARK    2  A    between atoms: N1_3  and  C1_5 
ROOT
HETATM    1  C1  UNL     1      20.615  -7.936   8.843  1.00  0.00     0.166 A 
HETATM    2  C2  UNL     1      21.618  -7.033   8.540  1.00  0.00     0.145 A 
HETATM    3  N2  UNL     1      22.889  -7.334   8.893  1.00  0.00    -0.261 N 
HETATM    4  C3  UNL     1      23.162  -8.488   9.526  1.00  0.00     0.332 A 
HETATM    5  O2  UNL     1      24.336  -8.782   9.859  1.00  0.00    -0.246 OA
HETATM    6  N3  UNL     1      22.180  -9.359   9.815  1.00  0.00    -0.273 N 
ATOM      7  H3  UNL     1      22.416 -10.228  10.296  1.00  0.00     0.173 HD
HETATM    8  C4  UNL     1      20.896  -9.120   9.491  1.00  0.00     0.281 A 
HETATM    9  O3  UNL     1      19.950  -9.901   9.741  1.00  0.00    -0.265 OA
HETATM   10  C5  UNL     1      24.178  -6.659   8.751  1.00  0.00     0.307 C 
HETATM   11  O4  UNL     1      23.991  -5.284   8.778  1.00  0.00    -0.347 OA
HETATM   12  C6  UNL     1      23.720  -4.755   7.531  1.00  0.00     0.342 C 
HETATM   13  O5  UNL     1      22.474  -4.109   7.544  1.00  0.00    -0.348 OA
HETATM   14  C7  UNL     1      21.494  -4.932   6.953  1.00  0.00     0.294 C 
HETATM   15  N4  UNL     1      21.010  -5.933   7.883  1.00  0.00    -0.353 N 
ATOM     16  H4  UNL     1      20.023  -5.822   8.113  1.00  0.00     0.163 HD
ENDROOT
BRANCH   1  17
HETATM   17  N1  UNL     1      19.288  -7.574   8.449  1.00  0.00    -0.260 N 
ATOM     18  H1  UNL     1      18.972  -7.612   7.480  1.00  0.00     0.194 HD
BRANCH  17  19
HETATM   19  O1  UNL     1      18.537  -7.201   9.396  1.00  0.00    -0.289 OA
ATOM     20  H1  UNL     1      18.926  -6.567   9.986  1.00  0.00     0.244 HD
ENDBRANCH  17  19
ENDBRANCH   1  17
TORSDOF 2
ENDMDL
MODEL 5
REMARK VINA RESULT: -4.148809212     13.439     14.628
REMARK  2 active torsions:
REMARK  status: ('A' for Active; 'I' for Inactive)
REMARK    1  A    between atoms: O1_1  and  N1_3 
REMARK    2  A    between atoms: N1_3  and  C1_5 
ROOT
HETATM    1  C1  UNL     1      34.621  -4.766  13.461  1.00  0.00     0.166 A 
HETATM    2  C2  UNL     1      34.470  -3.754  12.530  1.00  0.00     0.145 A 
HETATM    3  N2  UNL     1      34.607  -2.472  12.939  1.00  0.00    -0.261 N 
HETATM    4  C3  UNL     1      34.884  -2.196  14.225  1.00  0.00     0.332 A 
HETATM    5  O2  UNL     1      35.016  -1.012  14.620  1.00  0.00    -0.246 OA
HETATM    6  N3  UNL     1      35.030  -3.187  15.122  1.00  0.00    -0.273 N 
ATOM      7  H3  UNL     1      35.240  -2.949  16.091  1.00  0.00     0.173 HD
HETATM    8  C4  UNL     1      34.906  -4.482  14.780  1.00  0.00     0.281 A 
HETATM    9  O3  UNL     1      35.031  -5.437  15.580  1.00  0.00    -0.265 OA
HETATM   10  C5  UNL     1      34.524  -1.171  12.276  1.00  0.00     0.307 C 
HETATM   11  O4  UNL     1      33.621  -1.240  11.225  1.00  0.00    -0.347 OA
HETATM   12  C6  UNL     1      34.202  -1.661  10.045  1.00  0.00     0.342 C 
HETATM   13  O5  UNL     1      33.574  -2.833   9.593  1.00  0.00    -0.348 OA
HETATM   14  C7  UNL     1      34.365  -3.958   9.904  1.00  0.00     0.294 C 
HETATM   15  N4  UNL     1      34.187  -4.367  11.282  1.00  0.00    -0.353 N 
ATOM     16  H4  UNL     1      33.769  -5.293  11.375  1.00  0.00     0.163 HD
ENDROOT
BRANCH   1  17
HETATM   17  N1  UNL     1      34.466  -6.105  12.980  1.00  0.00    -0.260 N 
ATOM     18  H1  UNL     1      34.966  -6.457  12.164  1.00  0.00     0.194 HD
BRANCH  17  19
HETATM   19  O1  UNL     1      33.662  -6.818  13.646  1.00  0.00    -0.289 OA
ATOM     20  H1  UNL     1      32.869  -7.063  13.182  1.00  0.00     0.244 HD
ENDBRANCH  17  19
ENDBRANCH   1  17
TORSDOF 2
ENDMDL
