MODEL 1
REMARK VINA RESULT: -7.293897401      0.000      0.000
REMARK  16 active torsions:
REMARK  status: ('A' for Active; 'I' for Inactive)
REMARK       I    between atoms: N1_2  and  C2_4 
REMARK    1  A    between atoms: C2_4  and  C3_6 
REMARK    2  A    between atoms: C3_6  and  C4_7 
REMARK    3  A    between atoms: C3_6  and  C13_22 
REMARK    4  A    between atoms: C4_7  and  N2_8 
REMARK    5  A    between atoms: C8_12  and  C9_13 
REMARK    6  A    between atoms: C9_13  and  C10_14 
REMARK    7  A    between atoms: C10_14  and  N3_15 
REMARK    8  A    between atoms: C10_14  and  C12_19 
REMARK    9  A    between atoms: N3_15  and  C11_17 
REMARK   10  A    between atoms: C13_22  and  C14_23 
REMARK   11  A    between atoms: C13_22  and  N4_30 
REMARK   12  A    between atoms: C14_23  and  C15_24 
REMARK   13  A    between atoms: N4_30  and  C21_32 
REMARK   14  A    between atoms: C21_32  and  O5_33 
REMARK   15  A    between atoms: C21_32  and  C22_35 
REMARK   16  A    between atoms: C22_35  and  C24_37 
ROOT
HETATM    1  C3  UNL     1       9.067  26.286   2.822  1.00  0.00     0.047 C 
ENDROOT
BRANCH   1   2
HETATM    2  C2  UNL     1       8.730  25.415   1.707  1.00  0.00     0.250 C 
HETATM    3  N1  UNL     1       9.692  24.730   0.900  1.00  0.00    -0.361 N 
HETATM    4  C1  UNL     1       9.289  23.873  -0.214  1.00  0.00     0.149 C 
ATOM      5  H1  UNL     1      10.685  24.842   1.106  1.00  0.00     0.162 HD
HETATM    6  O1  UNL     1       7.506  25.206   1.368  1.00  0.00    -0.268 OA
ENDBRANCH   1   2
BRANCH   1   7
HETATM    7  C4  UNL     1       9.545  27.650   2.518  1.00  0.00     0.100 C 
BRANCH   7   8
HETATM    8  N2  UNL     1       9.134  28.228   1.308  1.00  0.00    -0.384 N 
HETATM    9  C5  UNL     1       8.061  29.114   1.363  1.00  0.00     0.122 C 
HETATM   10  C6  UNL     1       8.256  30.039   0.152  1.00  0.00     0.022 C 
HETATM   11  C7  UNL     1       9.796  30.014  -0.004  1.00  0.00     0.027 C 
HETATM   12  C8  UNL     1      10.031  28.558   0.307  1.00  0.00     0.086 C 
BRANCH  12  13
HETATM   13  C9  UNL     1      11.449  28.203   0.624  1.00  0.00     0.061 C 
BRANCH  13  14
HETATM   14  C10 UNL     1      12.086  27.215  -0.316  1.00  0.00     0.186 C 
BRANCH  14  15
HETATM   15  N3  UNL     1      11.259  26.903  -1.445  1.00  0.00    -0.354 N 
ATOM     16  H3  UNL     1      10.282  27.194  -1.430  1.00  0.00     0.162 HD
BRANCH  15  17
HETATM   17  C11 UNL     1      11.742  26.209  -2.580  1.00  0.00     0.349 C 
HETATM   18  O2  UNL     1      11.183  25.130  -2.891  1.00  0.00    -0.284 OA
ENDBRANCH  15  17
ENDBRANCH  14  15
BRANCH  14  19
HETATM   19  C12 UNL     1      13.469  27.495  -0.684  1.00  0.00     0.196 C 
HETATM   20  O3  UNL     1      14.451  26.730  -0.509  1.00  0.00    -0.646 OA
HETATM   21  O4  UNL     1      13.768  28.725  -1.290  1.00  0.00    -0.646 OA
ENDBRANCH  14  19
ENDBRANCH  13  14
ENDBRANCH  12  13
ENDBRANCH   7   8
ENDBRANCH   1   7
BRANCH   1  22
HETATM   22  C13 UNL     1       8.217  26.112   4.058  1.00  0.00     0.119 C 
BRANCH  22  23
HETATM   23  C14 UNL     1       8.299  24.760   4.723  1.00  0.00     0.034 C 
BRANCH  23  24
HETATM   24  C15 UNL     1       7.066  23.980   4.888  1.00  0.00    -0.012 C 
HETATM   25  C16 UNL     1       5.796  24.803   4.945  1.00  0.00     0.005 C 
HETATM   26  C17 UNL     1       4.656  23.800   4.984  1.00  0.00     0.000 C 
HETATM   27  C18 UNL     1       4.724  22.995   6.289  1.00  0.00     0.000 C 
HETATM   28  C19 UNL     1       6.061  22.307   6.336  1.00  0.00     0.000 C 
HETATM   29  C20 UNL     1       7.149  23.358   6.314  1.00  0.00     0.005 C 
ENDBRANCH  23  24
ENDBRANCH  22  23
BRANCH  22  30
HETATM   30  N4  UNL     1       8.511  27.066   5.073  1.00  0.00    -0.388 N 
ATOM     31  H4  UNL     1       9.481  27.170   5.369  1.00  0.00     0.156 HD
BRANCH  30  32
HETATM   32  C21 UNL     1       7.558  27.857   5.679  1.00  0.00     0.224 C 
BRANCH  32  33
HETATM   33  O5  UNL     1       6.852  28.567   4.652  1.00  0.00    -0.376 OA
ATOM     34  H5  UNL     1       5.939  28.304   4.687  1.00  0.00     0.212 HD
ENDBRANCH  32  33
BRANCH  32  35
HETATM   35  C22 UNL     1       8.098  28.923   6.584  1.00  0.00     0.091 C 
HETATM   36  C23 UNL     1       7.329  28.959   7.903  1.00  0.00     0.022 C 
BRANCH  35  37
HETATM   37  C24 UNL     1       8.317  30.244   6.013  1.00  0.00     0.239 C 
HETATM   38  O6  UNL     1       8.966  30.362   4.974  1.00  0.00    -0.306 OA
ENDBRANCH  35  37
ENDBRANCH  32  35
ENDBRANCH  30  32
ENDBRANCH  22  30
ENDBRANCH   1  22
TORSDOF 16
ENDMDL
MODEL 2
REMARK VINA RESULT: -7.258705652      0.821      1.356
REMARK  16 active torsions:
REMARK  status: ('A' for Active; 'I' for Inactive)
REMARK       I    between atoms: N1_2  and  C2_4 
REMARK    1  A    between atoms: C2_4  and  C3_6 
REMARK    2  A    between atoms: C3_6  and  C4_7 
REMARK    3  A    between atoms: C3_6  and  C13_22 
REMARK    4  A    between atoms: C4_7  and  N2_8 
REMARK    5  A    between atoms: C8_12  and  C9_13 
REMARK    6  A    between atoms: C9_13  and  C10_14 
REMARK    7  A    between atoms: C10_14  and  N3_15 
REMARK    8  A    between atoms: C10_14  and  C12_19 
REMARK    9  A    between atoms: N3_15  and  C11_17 
REMARK   10  A    between atoms: C13_22  and  C14_23 
REMARK   11  A    between atoms: C13_22  and  N4_30 
REMARK   12  A    between atoms: C14_23  and  C15_24 
REMARK   13  A    between atoms: N4_30  and  C21_32 
REMARK   14  A    between atoms: C21_32  and  O5_33 
REMARK   15  A    between atoms: C21_32  and  C22_35 
REMARK   16  A    between atoms: C22_35  and  C24_37 
ROOT
HETATM    1  C3  UNL     1       9.151  26.194   2.867  1.00  0.00     0.047 C 
ENDROOT
BRANCH   1   2
HETATM    2  C2  UNL     1       8.759  25.368   1.735  1.00  0.00     0.250 C 
HETATM    3  N1  UNL     1       9.678  24.673   0.887  1.00  0.00    -0.361 N 
HETATM    4  C1  UNL     1       9.220  23.864  -0.241  1.00  0.00     0.149 C 
ATOM      5  H1  UNL     1      10.678  24.743   1.074  1.00  0.00     0.162 HD
HETATM    6  O1  UNL     1       7.521  25.214   1.417  1.00  0.00    -0.268 OA
ENDBRANCH   1   2
BRANCH   1   7
HETATM    7  C4  UNL     1       9.733  27.523   2.588  1.00  0.00     0.100 C 
BRANCH   7   8
HETATM    8  N2  UNL     1       9.270  28.210   1.456  1.00  0.00    -0.384 N 
HETATM    9  C5  UNL     1       8.290  29.177   1.660  1.00  0.00     0.122 C 
HETATM   10  C6  UNL     1       8.460  30.159   0.492  1.00  0.00     0.022 C 
HETATM   11  C7  UNL     1       9.972  30.016   0.193  1.00  0.00     0.027 C 
HETATM   12  C8  UNL     1      10.102  28.528   0.397  1.00  0.00     0.086 C 
BRANCH  12  13
HETATM   13  C9  UNL     1      11.506  28.036   0.560  1.00  0.00     0.061 C 
BRANCH  13  14
HETATM   14  C10 UNL     1      12.241  27.763  -0.725  1.00  0.00     0.186 C 
BRANCH  14  15
HETATM   15  N3  UNL     1      13.538  27.187  -0.516  1.00  0.00    -0.354 N 
ATOM     16  H3  UNL     1      13.701  26.645   0.332  1.00  0.00     0.162 HD
BRANCH  15  17
HETATM   17  C11 UNL     1      14.601  27.339  -1.438  1.00  0.00     0.349 C 
HETATM   18  O2  UNL     1      14.813  26.407  -2.250  1.00  0.00    -0.284 OA
ENDBRANCH  15  17
ENDBRANCH  14  15
BRANCH  14  19
HETATM   19  C12 UNL     1      11.473  27.077  -1.757  1.00  0.00     0.196 C 
HETATM   20  O3  UNL     1      11.142  25.864  -1.750  1.00  0.00    -0.646 OA
HETATM   21  O4  UNL     1      11.050  27.807  -2.878  1.00  0.00    -0.646 OA
ENDBRANCH  14  19
ENDBRANCH  13  14
ENDBRANCH  12  13
ENDBRANCH   7   8
ENDBRANCH   1   7
BRANCH   1  22
HETATM   22  C13 UNL     1       8.281  26.065   4.094  1.00  0.00     0.119 C 
BRANCH  22  23
HETATM   23  C14 UNL     1       8.325  24.726   4.789  1.00  0.00     0.034 C 
BRANCH  23  24
HETATM   24  C15 UNL     1       7.080  23.960   4.923  1.00  0.00    -0.012 C 
HETATM   25  C16 UNL     1       5.819  24.798   4.958  1.00  0.00     0.005 C 
HETATM   26  C17 UNL     1       4.666  23.809   4.966  1.00  0.00     0.000 C 
HETATM   27  C18 UNL     1       4.697  22.995   6.268  1.00  0.00     0.000 C 
HETATM   28  C19 UNL     1       6.024  22.291   6.339  1.00  0.00     0.000 C 
HETATM   29  C20 UNL     1       7.125  23.328   6.346  1.00  0.00     0.005 C 
ENDBRANCH  23  24
ENDBRANCH  22  23
BRANCH  22  30
HETATM   30  N4  UNL     1       8.580  27.034   5.092  1.00  0.00    -0.388 N 
ATOM     31  H4  UNL     1       9.556  27.168   5.355  1.00  0.00     0.156 HD
BRANCH  30  32
HETATM   32  C21 UNL     1       7.625  27.802   5.724  1.00  0.00     0.224 C 
BRANCH  32  33
HETATM   33  O5  UNL     1       6.848  28.463   4.716  1.00  0.00    -0.376 OA
ATOM     34  H5  UNL     1       5.942  28.473   5.002  1.00  0.00     0.212 HD
ENDBRANCH  32  33
BRANCH  32  35
HETATM   35  C22 UNL     1       8.164  28.906   6.583  1.00  0.00     0.091 C 
HETATM   36  C23 UNL     1       7.445  28.948   7.931  1.00  0.00     0.022 C 
BRANCH  35  37
HETATM   37  C24 UNL     1       8.316  30.220   5.975  1.00  0.00     0.239 C 
HETATM   38  O6  UNL     1       8.983  30.345   4.949  1.00  0.00    -0.306 OA
ENDBRANCH  35  37
ENDBRANCH  32  35
ENDBRANCH  30  32
ENDBRANCH  22  30
ENDBRANCH   1  22
TORSDOF 16
ENDMDL
MODEL 3
REMARK VINA RESULT: -7.104616177      2.176      3.520
REMARK  16 active torsions:
REMARK  status: ('A' for Active; 'I' for Inactive)
REMARK       I    between atoms: N1_2  and  C2_4 
REMARK    1  A    between atoms: C2_4  and  C3_6 
REMARK    2  A    between atoms: C3_6  and  C4_7 
REMARK    3  A    between atoms: C3_6  and  C13_22 
REMARK    4  A    between atoms: C4_7  and  N2_8 
REMARK    5  A    between atoms: C8_12  and  C9_13 
REMARK    6  A    between atoms: C9_13  and  C10_14 
REMARK    7  A    between atoms: C10_14  and  N3_15 
REMARK    8  A    between atoms: C10_14  and  C12_19 
REMARK    9  A    between atoms: N3_15  and  C11_17 
REMARK   10  A    between atoms: C13_22  and  C14_23 
REMARK   11  A    between atoms: C13_22  and  N4_30 
REMARK   12  A    between atoms: C14_23  and  C15_24 
REMARK   13  A    between atoms: N4_30  and  C21_32 
REMARK   14  A    between atoms: C21_32  and  O5_33 
REMARK   15  A    between atoms: C21_32  and  C22_35 
REMARK   16  A    between atoms: C22_35  and  C24_37 
ROOT
HETATM    1  C3  UNL     1       8.273  28.476   3.418  1.00  0.00     0.047 C 
ENDROOT
BRANCH   1   2
HETATM    2  C2  UNL     1       7.487  29.677   3.181  1.00  0.00     0.250 C 
HETATM    3  N1  UNL     1       6.676  29.896   2.023  1.00  0.00    -0.361 N 
HETATM    4  C1  UNL     1       5.916  31.131   1.840  1.00  0.00     0.149 C 
ATOM      5  H1  UNL     1       6.627  29.172   1.307  1.00  0.00     0.162 HD
HETATM    6  O1  UNL     1       7.480  30.649   4.026  1.00  0.00    -0.268 OA
ENDBRANCH   1   2
BRANCH   1   7
HETATM    7  C4  UNL     1       9.685  28.474   2.988  1.00  0.00     0.100 C 
BRANCH   7   8
HETATM    8  N2  UNL     1       9.987  29.043   1.742  1.00  0.00    -0.384 N 
HETATM    9  C5  UNL     1      10.550  30.316   1.748  1.00  0.00     0.122 C 
HETATM   10  C6  UNL     1      11.347  30.397   0.437  1.00  0.00     0.022 C 
HETATM   11  C7  UNL     1      11.721  28.911   0.218  1.00  0.00     0.027 C 
HETATM   12  C8  UNL     1      10.428  28.283   0.673  1.00  0.00     0.086 C 
BRANCH  12  13
HETATM   13  C9  UNL     1      10.509  26.818   0.964  1.00  0.00     0.061 C 
BRANCH  13  14
HETATM   14  C10 UNL     1       9.556  25.957   0.180  1.00  0.00     0.186 C 
BRANCH  14  15
HETATM   15  N3  UNL     1      10.181  24.792  -0.376  1.00  0.00    -0.354 N 
ATOM     16  H3  UNL     1      10.987  24.394   0.105  1.00  0.00     0.162 HD
BRANCH  15  17
HETATM   17  C11 UNL     1       9.726  24.170  -1.563  1.00  0.00     0.349 C 
HETATM   18  O2  UNL     1      10.229  23.066  -1.879  1.00  0.00    -0.284 OA
ENDBRANCH  15  17
ENDBRANCH  14  15
BRANCH  14  19
HETATM   19  C12 UNL     1       8.286  25.663   0.834  1.00  0.00     0.196 C 
HETATM   20  O3  UNL     1       8.005  24.613   1.465  1.00  0.00    -0.646 OA
HETATM   21  O4  UNL     1       7.260  26.619   0.773  1.00  0.00    -0.646 OA
ENDBRANCH  14  19
ENDBRANCH  13  14
ENDBRANCH  12  13
ENDBRANCH   7   8
ENDBRANCH   1   7
BRANCH   1  22
HETATM   22  C13 UNL     1       7.934  27.721   4.681  1.00  0.00     0.119 C 
BRANCH  22  23
HETATM   23  C14 UNL     1       8.364  26.275   4.714  1.00  0.00     0.034 C 
BRANCH  23  24
HETATM   24  C15 UNL     1       7.494  25.296   5.376  1.00  0.00    -0.012 C 
HETATM   25  C16 UNL     1       8.148  23.961   5.670  1.00  0.00     0.005 C 
HETATM   26  C17 UNL     1       7.125  23.166   6.462  1.00  0.00     0.000 C 
HETATM   27  C18 UNL     1       5.902  22.878   5.579  1.00  0.00     0.000 C 
HETATM   28  C19 UNL     1       5.340  24.199   5.127  1.00  0.00     0.000 C 
HETATM   29  C20 UNL     1       6.398  24.931   4.331  1.00  0.00     0.005 C 
ENDBRANCH  23  24
ENDBRANCH  22  23
BRANCH  22  30
HETATM   30  N4  UNL     1       8.482  28.319   5.850  1.00  0.00    -0.388 N 
ATOM     31  H4  UNL     1       9.473  28.558   5.848  1.00  0.00     0.156 HD
BRANCH  30  32
HETATM   32  C21 UNL     1       7.750  28.594   6.985  1.00  0.00     0.224 C 
BRANCH  32  33
HETATM   33  O5  UNL     1       6.594  29.348   6.596  1.00  0.00    -0.376 OA
ATOM     34  H5  UNL     1       6.574  29.388   5.647  1.00  0.00     0.212 HD
ENDBRANCH  32  33
BRANCH  32  35
HETATM   35  C22 UNL     1       8.446  29.449   7.999  1.00  0.00     0.091 C 
HETATM   36  C23 UNL     1       8.059  29.037   9.419  1.00  0.00     0.022 C 
BRANCH  35  37
HETATM   37  C24 UNL     1       8.422  30.891   7.796  1.00  0.00     0.239 C 
HETATM   38  O6  UNL     1       8.926  31.374   6.783  1.00  0.00    -0.306 OA
ENDBRANCH  35  37
ENDBRANCH  32  35
ENDBRANCH  30  32
ENDBRANCH  22  30
ENDBRANCH   1  22
TORSDOF 16
ENDMDL
MODEL 4
REMARK VINA RESULT: -7.093639799      2.521      8.522
REMARK  16 active torsions:
REMARK  status: ('A' for Active; 'I' for Inactive)
REMARK       I    between atoms: N1_2  and  C2_4 
REMARK    1  A    between atoms: C2_4  and  C3_6 
REMARK    2  A    between atoms: C3_6  and  C4_7 
REMARK    3  A    between atoms: C3_6  and  C13_22 
REMARK    4  A    between atoms: C4_7  and  N2_8 
REMARK    5  A    between atoms: C8_12  and  C9_13 
REMARK    6  A    between atoms: C9_13  and  C10_14 
REMARK    7  A    between atoms: C10_14  and  N3_15 
REMARK    8  A    between atoms: C10_14  and  C12_19 
REMARK    9  A    between atoms: N3_15  and  C11_17 
REMARK   10  A    between atoms: C13_22  and  C14_23 
REMARK   11  A    between atoms: C13_22  and  N4_30 
REMARK   12  A    between atoms: C14_23  and  C15_24 
REMARK   13  A    between atoms: N4_30  and  C21_32 
REMARK   14  A    between atoms: C21_32  and  O5_33 
REMARK   15  A    between atoms: C21_32  and  C22_35 
REMARK   16  A    between atoms: C22_35  and  C24_37 
ROOT
HETATM    1  C3  UNL     1       8.845  27.801   1.192  1.00  0.00     0.047 C 
ENDROOT
BRANCH   1   2
HETATM    2  C2  UNL     1       7.973  28.830   0.647  1.00  0.00     0.250 C 
HETATM    3  N1  UNL     1       6.938  29.484   1.386  1.00  0.00    -0.361 N 
HETATM    4  C1  UNL     1       6.089  30.507   0.777  1.00  0.00     0.149 C 
ATOM      5  H1  UNL     1       6.787  29.231   2.363  1.00  0.00     0.162 HD
HETATM    6  O1  UNL     1       8.084  29.222  -0.574  1.00  0.00    -0.268 OA
ENDBRANCH   1   2
BRANCH   1   7
HETATM    7  C4  UNL     1       8.275  26.856   2.173  1.00  0.00     0.100 C 
BRANCH   7   8
HETATM    8  N2  UNL     1       8.694  26.971   3.506  1.00  0.00    -0.384 N 
HETATM    9  C5  UNL     1       8.944  28.255   3.982  1.00  0.00     0.122 C 
HETATM   10  C6  UNL     1       8.722  28.161   5.499  1.00  0.00     0.022 C 
HETATM   11  C7  UNL     1       7.674  27.025   5.582  1.00  0.00     0.027 C 
HETATM   12  C8  UNL     1       8.225  26.130   4.501  1.00  0.00     0.086 C 
BRANCH  12  13
HETATM   13  C9  UNL     1       7.279  25.080   4.010  1.00  0.00     0.061 C 
BRANCH  13  14
HETATM   14  C10 UNL     1       6.462  24.406   5.080  1.00  0.00     0.186 C 
BRANCH  14  15
HETATM   15  N3  UNL     1       5.076  24.282   4.732  1.00  0.00    -0.354 N 
ATOM     16  H3  UNL     1       4.747  24.726   3.875  1.00  0.00     0.162 HD
BRANCH  15  17
HETATM   17  C11 UNL     1       4.147  23.570   5.527  1.00  0.00     0.349 C 
HETATM   18  O2  UNL     1       2.994  23.391   5.067  1.00  0.00    -0.284 OA
ENDBRANCH  15  17
ENDBRANCH  14  15
BRANCH  14  19
HETATM   19  C12 UNL     1       7.025  23.174   5.620  1.00  0.00     0.196 C 
HETATM   20  O3  UNL     1       7.250  22.119   4.976  1.00  0.00    -0.646 OA
HETATM   21  O4  UNL     1       7.356  23.127   6.983  1.00  0.00    -0.646 OA
ENDBRANCH  14  19
ENDBRANCH  13  14
ENDBRANCH  12  13
ENDBRANCH   7   8
ENDBRANCH   1   7
BRANCH   1  22
HETATM   22  C13 UNL     1       9.884  27.263   0.238  1.00  0.00     0.119 C 
BRANCH  22  23
HETATM   23  C14 UNL     1      11.295  27.209   0.770  1.00  0.00     0.034 C 
BRANCH  23  24
HETATM   24  C15 UNL     1      12.344  27.953   0.063  1.00  0.00    -0.012 C 
HETATM   25  C16 UNL     1      11.845  28.854  -1.048  1.00  0.00     0.005 C 
HETATM   26  C17 UNL     1      13.065  29.612  -1.544  1.00  0.00     0.000 C 
HETATM   27  C18 UNL     1      14.058  28.629  -2.179  1.00  0.00     0.000 C 
HETATM   28  C19 UNL     1      14.432  27.613  -1.134  1.00  0.00     0.000 C 
HETATM   29  C20 UNL     1      13.181  26.882  -0.698  1.00  0.00     0.005 C 
ENDBRANCH  23  24
ENDBRANCH  22  23
BRANCH  22  30
HETATM   30  N4  UNL     1       9.589  25.948  -0.221  1.00  0.00    -0.388 N 
ATOM     31  H4  UNL     1       9.641  25.182   0.449  1.00  0.00     0.156 HD
BRANCH  30  32
HETATM   32  C21 UNL     1       9.238  25.653  -1.521  1.00  0.00     0.224 C 
BRANCH  32  33
HETATM   33  O5  UNL     1       8.208  24.655  -1.487  1.00  0.00    -0.376 OA
ATOM     34  H5  UNL     1       7.406  25.048  -1.808  1.00  0.00     0.212 HD
ENDBRANCH  32  33
BRANCH  32  35
HETATM   35  C22 UNL     1      10.330  25.054  -2.355  1.00  0.00     0.091 C 
HETATM   36  C23 UNL     1      10.879  26.075  -3.350  1.00  0.00     0.022 C 
BRANCH  35  37
HETATM   37  C24 UNL     1      10.083  23.749  -2.952  1.00  0.00     0.239 C 
HETATM   38  O6  UNL     1      10.312  22.728  -2.306  1.00  0.00    -0.306 OA
ENDBRANCH  35  37
ENDBRANCH  32  35
ENDBRANCH  30  32
ENDBRANCH  22  30
ENDBRANCH   1  22
TORSDOF 16
ENDMDL
MODEL 5
REMARK VINA RESULT: -6.982683268      0.786      1.284
REMARK  16 active torsions:
REMARK  status: ('A' for Active; 'I' for Inactive)
REMARK       I    between atoms: N1_2  and  C2_4 
REMARK    1  A    between atoms: C2_4  and  C3_6 
REMARK    2  A    between atoms: C3_6  and  C4_7 
REMARK    3  A    between atoms: C3_6  and  C13_22 
REMARK    4  A    between atoms: C4_7  and  N2_8 
REMARK    5  A    between atoms: C8_12  and  C9_13 
REMARK    6  A    between atoms: C9_13  and  C10_14 
REMARK    7  A    between atoms: C10_14  and  N3_15 
REMARK    8  A    between atoms: C10_14  and  C12_19 
REMARK    9  A    between atoms: N3_15  and  C11_17 
REMARK   10  A    between atoms: C13_22  and  C14_23 
REMARK   11  A    between atoms: C13_22  and  N4_30 
REMARK   12  A    between atoms: C14_23  and  C15_24 
REMARK   13  A    between atoms: N4_30  and  C21_32 
REMARK   14  A    between atoms: C21_32  and  O5_33 
REMARK   15  A    between atoms: C21_32  and  C22_35 
REMARK   16  A    between atoms: C22_35  and  C24_37 
ROOT
HETATM    1  C3  UNL     1       9.508  26.403   2.483  1.00  0.00     0.047 C 
ENDROOT
BRANCH   1   2
HETATM    2  C2  UNL     1       9.064  25.541   1.398  1.00  0.00     0.250 C 
HETATM    3  N1  UNL     1       9.939  24.773   0.568  1.00  0.00    -0.361 N 
HETATM    4  C1  UNL     1       9.428  23.931  -0.513  1.00  0.00     0.149 C 
ATOM      5  H1  UNL     1      10.944  24.813   0.733  1.00  0.00     0.162 HD
HETATM    6  O1  UNL     1       7.814  25.420   1.110  1.00  0.00    -0.268 OA
ENDBRANCH   1   2
BRANCH   1   7
HETATM    7  C4  UNL     1      10.210  27.654   2.133  1.00  0.00     0.100 C 
BRANCH   7   8
HETATM    8  N2  UNL     1       9.820  28.310   0.956  1.00  0.00    -0.384 N 
HETATM    9  C5  UNL     1       9.005  29.429   1.096  1.00  0.00     0.122 C 
HETATM   10  C6  UNL     1       9.283  30.275  -0.156  1.00  0.00     0.022 C 
HETATM   11  C7  UNL     1      10.745  29.878  -0.471  1.00  0.00     0.027 C 
HETATM   12  C8  UNL     1      10.656  28.409  -0.143  1.00  0.00     0.086 C 
BRANCH  12  13
HETATM   13  C9  UNL     1      11.973  27.723   0.034  1.00  0.00     0.061 C 
BRANCH  13  14
HETATM   14  C10 UNL     1      12.437  26.914  -1.148  1.00  0.00     0.186 C 
BRANCH  14  15
HETATM   15  N3  UNL     1      11.385  26.633  -2.081  1.00  0.00    -0.354 N 
ATOM     16  H3  UNL     1      10.442  26.958  -1.867  1.00  0.00     0.162 HD
BRANCH  15  17
HETATM   17  C11 UNL     1      11.598  25.923  -3.287  1.00  0.00     0.349 C 
HETATM   18  O2  UNL     1      11.645  24.671  -3.232  1.00  0.00    -0.284 OA
ENDBRANCH  15  17
ENDBRANCH  14  15
BRANCH  14  19
HETATM   19  C12 UNL     1      13.658  27.382  -1.793  1.00  0.00     0.196 C 
HETATM   20  O3  UNL     1      13.839  28.519  -2.298  1.00  0.00    -0.646 OA
HETATM   21  O4  UNL     1      14.753  26.508  -1.876  1.00  0.00    -0.646 OA
ENDBRANCH  14  19
ENDBRANCH  13  14
ENDBRANCH  12  13
ENDBRANCH   7   8
ENDBRANCH   1   7
BRANCH   1  22
HETATM   22  C13 UNL     1       8.609  26.431   3.696  1.00  0.00     0.119 C 
BRANCH  22  23
HETATM   23  C14 UNL     1       8.793  25.296   4.673  1.00  0.00     0.034 C 
BRANCH  23  24
HETATM   24  C15 UNL     1       7.609  24.737   5.335  1.00  0.00    -0.012 C 
HETATM   25  C16 UNL     1       7.780  23.327   5.860  1.00  0.00     0.005 C 
HETATM   26  C17 UNL     1       6.498  23.008   6.610  1.00  0.00     0.000 C 
HETATM   27  C18 UNL     1       5.321  22.976   5.624  1.00  0.00     0.000 C 
HETATM   28  C19 UNL     1       5.244  24.322   4.957  1.00  0.00     0.000 C 
HETATM   29  C20 UNL     1       6.539  24.571   4.215  1.00  0.00     0.005 C 
ENDBRANCH  23  24
ENDBRANCH  22  23
BRANCH  22  30
HETATM   30  N4  UNL     1       8.740  27.627   4.456  1.00  0.00    -0.388 N 
ATOM     31  H4  UNL     1       9.666  28.046   4.539  1.00  0.00     0.156 HD
BRANCH  30  32
HETATM   32  C21 UNL     1       7.686  28.252   5.087  1.00  0.00     0.224 C 
BRANCH  32  33
HETATM   33  O5  UNL     1       6.997  29.051   4.116  1.00  0.00    -0.376 OA
ATOM     34  H5  UNL     1       6.336  29.560   4.569  1.00  0.00     0.212 HD
ENDBRANCH  32  33
BRANCH  32  35
HETATM   35  C22 UNL     1       8.073  29.211   6.172  1.00  0.00     0.091 C 
HETATM   36  C23 UNL     1       7.086  29.143   7.337  1.00  0.00     0.022 C 
BRANCH  35  37
HETATM   37  C24 UNL     1       8.403  30.574   5.781  1.00  0.00     0.239 C 
HETATM   38  O6  UNL     1       9.197  30.771   4.862  1.00  0.00    -0.306 OA
ENDBRANCH  35  37
ENDBRANCH  32  35
ENDBRANCH  30  32
ENDBRANCH  22  30
ENDBRANCH   1  22
TORSDOF 16
ENDMDL
