MODEL 1
REMARK VINA RESULT: -7.280715257      0.000      0.000
REMARK  16 active torsions:
REMARK  status: ('A' for Active; 'I' for Inactive)
REMARK    1  A    between atoms: C2_2  and  N1_3 
REMARK    2  A    between atoms: N1_3  and  C3_4 
REMARK    3  A    between atoms: N1_3  and  C5_6 
REMARK    4  A    between atoms: C5_6  and  C6_7 
REMARK    5  A    between atoms: C6_7  and  N2_8 
REMARK    6  A    between atoms: N2_8  and  C7_11 
REMARK    7  A    between atoms: C7_11  and  C10_14 
REMARK    8  A    between atoms: C10_14  and  C11_15 
REMARK    9  A    between atoms: C11_15  and  C12_16 
REMARK   10  A    between atoms: C13_17  and  C14_18 
REMARK   11  A    between atoms: C15_19  and  O1_20 
REMARK   12  A    between atoms: C16_22  and  O2_23 
REMARK   13  A    between atoms: C18_27  and  O4_28 
REMARK   14  A    between atoms: C21_31  and  C22_32 
REMARK       I    between atoms: C22_32  and  N3_34 
REMARK   15  A    between atoms: N3_34  and  C23_36 
REMARK   16  A    between atoms: C23_36  and  C24_37 
ROOT
HETATM    1  C14 UNL     1       9.539  28.561   2.476  1.00  0.00     0.053 C 
HETATM    2  C15 UNL     1       8.763  29.631   1.766  1.00  0.00     0.158 C 
HETATM    3  C16 UNL     1       9.069  29.835   0.333  1.00  0.00     0.177 C 
HETATM    4  C17 UNL     1      10.452  29.502  -0.099  1.00  0.00     0.165 C 
HETATM    5  O3  UNL     1      10.530  28.703  -1.249  1.00  0.00    -0.352 OA
HETATM    6  C18 UNL     1      11.499  27.865  -0.694  1.00  0.00     0.267 C 
HETATM    7  C20 UNL     1      11.112  28.394   0.642  1.00  0.00     0.086 C 
HETATM    8  C21 UNL     1      10.257  27.612   1.547  1.00  0.00     0.099 C 
ENDROOT
BRANCH   1   9
HETATM    9  C13 UNL     1       8.675  27.889   3.476  1.00  0.00    -0.023 C 
HETATM   10  C12 UNL     1       9.133  27.434   4.634  1.00  0.00    -0.030 C 
BRANCH  10  11
HETATM   11  C11 UNL     1       8.286  26.758   5.650  1.00  0.00     0.029 C 
BRANCH  11  12
HETATM   12  C10 UNL     1       6.961  26.332   5.062  1.00  0.00     0.042 C 
BRANCH  12  13
HETATM   13  C7  UNL     1       6.839  24.871   4.797  1.00  0.00     0.119 C 
HETATM   14  C8  UNL     1       7.634  24.437   3.583  1.00  0.00     0.046 C 
HETATM   15  C9  UNL     1       7.210  24.000   5.976  1.00  0.00     0.046 C 
BRANCH  13  16
HETATM   16  N2  UNL     1       5.407  24.634   4.541  1.00  0.00    -0.065 N 
ATOM     17  H22 UNL     1       5.225  24.437   3.557  1.00  0.00     0.278 HD
ATOM     18  H21 UNL     1       4.861  25.491   4.629  1.00  0.00     0.278 HD
BRANCH  16  19
HETATM   19  C6  UNL     1       4.897  23.579   5.406  1.00  0.00     0.263 C 
BRANCH  19  20
HETATM   20  C5  UNL     1       3.391  23.626   5.377  1.00  0.00     0.299 C 
BRANCH  20  21
HETATM   21  N1  UNL     1       2.822  22.489   6.006  1.00  0.00     0.089 N 
BRANCH  21  22
HETATM   22  C2  UNL     1       3.630  21.921   7.034  1.00  0.00     0.268 C 
HETATM   23  C1  UNL     1       2.838  21.736   8.313  1.00  0.00     0.037 C 
ENDBRANCH  21  22
BRANCH  21  24
HETATM   24  C3  UNL     1       1.459  22.715   6.464  1.00  0.00     0.268 C 
HETATM   25  C4  UNL     1       0.733  23.775   5.709  1.00  0.00     0.037 C 
ENDBRANCH  21  24
ENDBRANCH  20  21
ENDBRANCH  19  20
ENDBRANCH  16  19
ENDBRANCH  13  16
ENDBRANCH  12  13
ENDBRANCH  11  12
ENDBRANCH  10  11
ENDBRANCH   1   9
BRANCH   2  26
HETATM   26  O1  UNL     1       7.398  29.262   1.856  1.00  0.00    -0.392 OA
ATOM     27  H1  UNL     1       6.904  29.959   1.442  1.00  0.00     0.210 HD
ENDBRANCH   2  26
BRANCH   8  28
HETATM   28  C22 UNL     1       9.448  26.539   0.986  1.00  0.00     0.223 C 
HETATM   29  O5  UNL     1       8.216  26.650   0.645  1.00  0.00    -0.273 OA
HETATM   30  N3  UNL     1       9.966  25.230   0.761  1.00  0.00    -0.351 N 
ATOM     31  H3  UNL     1      10.942  25.073   1.011  1.00  0.00     0.163 HD
BRANCH  30  32
HETATM   32  C23 UNL     1       9.259  24.123   0.221  1.00  0.00     0.235 C 
BRANCH  32  33
HETATM   33  C24 UNL     1       9.372  24.070  -1.253  1.00  0.00     0.191 C 
HETATM   34  O6  UNL     1      10.279  23.482  -1.888  1.00  0.00    -0.647 OA
HETATM   35  O7  UNL     1       8.403  24.722  -2.042  1.00  0.00    -0.647 OA
ENDBRANCH  32  33
ENDBRANCH  30  32
ENDBRANCH   8  28
BRANCH   3  36
HETATM   36  O2  UNL     1       8.855  31.194   0.031  1.00  0.00    -0.390 OA
ATOM     37  H2  UNL     1       9.160  31.349  -0.854  1.00  0.00     0.210 HD
ENDBRANCH   3  36
BRANCH   6  38
HETATM   38  O4  UNL     1      12.761  28.295  -1.151  1.00  0.00    -0.366 OA
HETATM   39  C19 UNL     1      13.569  27.179  -1.436  1.00  0.00     0.204 C 
ENDBRANCH   6  38
TORSDOF 16
ENDMDL
MODEL 2
REMARK VINA RESULT: -7.199054534      2.005      2.836
REMARK  16 active torsions:
REMARK  status: ('A' for Active; 'I' for Inactive)
REMARK    1  A    between atoms: C2_2  and  N1_3 
REMARK    2  A    between atoms: N1_3  and  C3_4 
REMARK    3  A    between atoms: N1_3  and  C5_6 
REMARK    4  A    between atoms: C5_6  and  C6_7 
REMARK    5  A    between atoms: C6_7  and  N2_8 
REMARK    6  A    between atoms: N2_8  and  C7_11 
REMARK    7  A    between atoms: C7_11  and  C10_14 
REMARK    8  A    between atoms: C10_14  and  C11_15 
REMARK    9  A    between atoms: C11_15  and  C12_16 
REMARK   10  A    between atoms: C13_17  and  C14_18 
REMARK   11  A    between atoms: C15_19  and  O1_20 
REMARK   12  A    between atoms: C16_22  and  O2_23 
REMARK   13  A    between atoms: C18_27  and  O4_28 
REMARK   14  A    between atoms: C21_31  and  C22_32 
REMARK       I    between atoms: C22_32  and  N3_34 
REMARK   15  A    between atoms: N3_34  and  C23_36 
REMARK   16  A    between atoms: C23_36  and  C24_37 
ROOT
HETATM    1  C14 UNL     1       9.256  28.295   4.445  1.00  0.00     0.053 C 
HETATM    2  C15 UNL     1       8.198  29.232   4.949  1.00  0.00     0.158 C 
HETATM    3  C16 UNL     1       8.109  30.553   4.289  1.00  0.00     0.177 C 
HETATM    4  C17 UNL     1       9.372  31.090   3.716  1.00  0.00     0.165 C 
HETATM    5  O3  UNL     1       9.262  31.567   2.403  1.00  0.00    -0.352 OA
HETATM    6  C18 UNL     1      10.437  30.935   1.992  1.00  0.00     0.267 C 
HETATM    7  C20 UNL     1      10.331  30.075   3.203  1.00  0.00     0.086 C 
HETATM    8  C21 UNL     1       9.835  28.694   3.108  1.00  0.00     0.099 C 
ENDROOT
BRANCH   1   9
HETATM    9  C13 UNL     1       8.762  26.899   4.495  1.00  0.00    -0.023 C 
HETATM   10  C12 UNL     1       9.540  25.850   4.269  1.00  0.00    -0.030 C 
BRANCH  10  11
HETATM   11  C11 UNL     1       9.066  24.443   4.315  1.00  0.00     0.029 C 
BRANCH  11  12
HETATM   12  C10 UNL     1       7.562  24.368   4.192  1.00  0.00     0.042 C 
BRANCH  12  13
HETATM   13  C7  UNL     1       6.890  23.569   5.255  1.00  0.00     0.119 C 
HETATM   14  C8  UNL     1       7.052  22.078   5.044  1.00  0.00     0.046 C 
HETATM   15  C9  UNL     1       7.324  23.926   6.659  1.00  0.00     0.046 C 
BRANCH  13  16
HETATM   16  N2  UNL     1       5.460  23.914   5.163  1.00  0.00    -0.065 N 
ATOM     17  H22 UNL     1       5.146  23.970   4.194  1.00  0.00     0.278 HD
ATOM     18  H21 UNL     1       5.285  24.880   5.438  1.00  0.00     0.278 HD
BRANCH  16  19
HETATM   19  C6  UNL     1       4.655  22.979   5.937  1.00  0.00     0.263 C 
BRANCH  19  20
HETATM   20  C5  UNL     1       3.201  23.317   5.729  1.00  0.00     0.299 C 
BRANCH  20  21
HETATM   21  N1  UNL     1       2.352  22.298   6.231  1.00  0.00     0.089 N 
BRANCH  21  22
HETATM   22  C2  UNL     1       2.872  21.603   7.362  1.00  0.00     0.268 C 
HETATM   23  C1  UNL     1       1.769  21.240   8.336  1.00  0.00     0.037 C 
ENDBRANCH  21  22
BRANCH  21  24
HETATM   24  C3  UNL     1       0.991  22.757   6.468  1.00  0.00     0.268 C 
HETATM   25  C4  UNL     1       0.581  23.906   5.613  1.00  0.00     0.037 C 
ENDBRANCH  21  24
ENDBRANCH  20  21
ENDBRANCH  19  20
ENDBRANCH  16  19
ENDBRANCH  13  16
ENDBRANCH  12  13
ENDBRANCH  11  12
ENDBRANCH  10  11
ENDBRANCH   1   9
BRANCH   2  26
HETATM   26  O1  UNL     1       6.957  28.577   4.750  1.00  0.00    -0.392 OA
ATOM     27  H1  UNL     1       6.377  29.218   4.356  1.00  0.00     0.210 HD
ENDBRANCH   2  26
BRANCH   8  28
HETATM   28  C22 UNL     1       9.055  28.313   1.939  1.00  0.00     0.223 C 
HETATM   29  O5  UNL     1       7.845  28.673   1.715  1.00  0.00    -0.273 OA
HETATM   30  N3  UNL     1       9.582  27.480   0.909  1.00  0.00    -0.351 N 
ATOM     31  H3  UNL     1      10.542  27.157   1.026  1.00  0.00     0.163 HD
BRANCH  30  32
HETATM   32  C23 UNL     1       8.903  27.055  -0.264  1.00  0.00     0.235 C 
BRANCH  32  33
HETATM   33  C24 UNL     1       8.470  25.644  -0.162  1.00  0.00     0.191 C 
HETATM   34  O6  UNL     1       8.105  25.074   0.894  1.00  0.00    -0.647 OA
HETATM   35  O7  UNL     1       8.453  24.844  -1.322  1.00  0.00    -0.647 OA
ENDBRANCH  32  33
ENDBRANCH  30  32
ENDBRANCH   8  28
BRANCH   3  36
HETATM   36  O2  UNL     1       7.655  31.485   5.242  1.00  0.00    -0.390 OA
ATOM     37  H2  UNL     1       8.021  32.333   5.020  1.00  0.00     0.210 HD
ENDBRANCH   3  36
BRANCH   6  38
HETATM   38  O4  UNL     1      11.481  31.882   2.037  1.00  0.00    -0.366 OA
HETATM   39  C19 UNL     1      12.098  31.968   0.776  1.00  0.00     0.204 C 
ENDBRANCH   6  38
TORSDOF 16
ENDMDL
MODEL 3
REMARK VINA RESULT: -7.183644590      1.899      2.708
REMARK  16 active torsions:
REMARK  status: ('A' for Active; 'I' for Inactive)
REMARK    1  A    between atoms: C2_2  and  N1_3 
REMARK    2  A    between atoms: N1_3  and  C3_4 
REMARK    3  A    between atoms: N1_3  and  C5_6 
REMARK    4  A    between atoms: C5_6  and  C6_7 
REMARK    5  A    between atoms: C6_7  and  N2_8 
REMARK    6  A    between atoms: N2_8  and  C7_11 
REMARK    7  A    between atoms: C7_11  and  C10_14 
REMARK    8  A    between atoms: C10_14  and  C11_15 
REMARK    9  A    between atoms: C11_15  and  C12_16 
REMARK   10  A    between atoms: C13_17  and  C14_18 
REMARK   11  A    between atoms: C15_19  and  O1_20 
REMARK   12  A    between atoms: C16_22  and  O2_23 
REMARK   13  A    between atoms: C18_27  and  O4_28 
REMARK   14  A    between atoms: C21_31  and  C22_32 
REMARK       I    between atoms: C22_32  and  N3_34 
REMARK   15  A    between atoms: N3_34  and  C23_36 
REMARK   16  A    between atoms: C23_36  and  C24_37 
ROOT
HETATM    1  C14 UNL     1       9.253  28.679   4.265  1.00  0.00     0.053 C 
HETATM    2  C15 UNL     1       8.200  29.719   4.507  1.00  0.00     0.158 C 
HETATM    3  C16 UNL     1       8.191  30.882   3.592  1.00  0.00     0.177 C 
HETATM    4  C17 UNL     1       9.500  31.266   3.002  1.00  0.00     0.165 C 
HETATM    5  O3  UNL     1       9.479  31.472   1.615  1.00  0.00    -0.352 OA
HETATM    6  C18 UNL     1      10.654  30.746   1.412  1.00  0.00     0.267 C 
HETATM    7  C20 UNL     1      10.452  30.149   2.761  1.00  0.00     0.086 C 
HETATM    8  C21 UNL     1       9.918  28.788   2.914  1.00  0.00     0.099 C 
ENDROOT
BRANCH   1   9
HETATM    9  C13 UNL     1       8.712  27.331   4.564  1.00  0.00    -0.023 C 
HETATM   10  C12 UNL     1       9.410  26.218   4.387  1.00  0.00    -0.030 C 
BRANCH  10  11
HETATM   11  C11 UNL     1       8.887  24.859   4.680  1.00  0.00     0.029 C 
BRANCH  11  12
HETATM   12  C10 UNL     1       7.486  24.921   5.240  1.00  0.00     0.042 C 
BRANCH  12  13
HETATM   13  C7  UNL     1       6.849  23.593   5.469  1.00  0.00     0.119 C 
HETATM   14  C8  UNL     1       7.484  22.499   4.636  1.00  0.00     0.046 C 
HETATM   15  C9  UNL     1       6.822  23.167   6.920  1.00  0.00     0.046 C 
BRANCH  13  16
HETATM   16  N2  UNL     1       5.443  23.755   5.057  1.00  0.00    -0.065 N 
ATOM     17  H22 UNL     1       5.303  23.500   4.079  1.00  0.00     0.278 HD
ATOM     18  H21 UNL     1       5.176  24.737   4.999  1.00  0.00     0.278 HD
BRANCH  16  19
HETATM   19  C6  UNL     1       4.559  23.007   5.941  1.00  0.00     0.263 C 
BRANCH  19  20
HETATM   20  C5  UNL     1       3.136  23.391   5.627  1.00  0.00     0.299 C 
BRANCH  20  21
HETATM   21  N1  UNL     1       2.289  23.212   6.750  1.00  0.00     0.089 N 
BRANCH  21  22
HETATM   22  C2  UNL     1       0.917  23.000   6.424  1.00  0.00     0.268 C 
HETATM   23  C1  UNL     1       0.057  24.155   6.896  1.00  0.00     0.037 C 
ENDBRANCH  21  22
BRANCH  21  24
HETATM   24  C3  UNL     1       2.777  22.202   7.677  1.00  0.00     0.268 C 
HETATM   25  C4  UNL     1       1.814  21.092   7.927  1.00  0.00     0.037 C 
ENDBRANCH  21  24
ENDBRANCH  20  21
ENDBRANCH  19  20
ENDBRANCH  16  19
ENDBRANCH  13  16
ENDBRANCH  12  13
ENDBRANCH  11  12
ENDBRANCH  10  11
ENDBRANCH   1   9
BRANCH   2  26
HETATM   26  O1  UNL     1       6.951  29.064   4.367  1.00  0.00    -0.392 OA
ATOM     27  H1  UNL     1       6.566  29.033   5.235  1.00  0.00     0.210 HD
ENDBRANCH   2  26
BRANCH   8  28
HETATM   28  C22 UNL     1       9.193  28.195   1.799  1.00  0.00     0.223 C 
HETATM   29  O5  UNL     1       8.002  28.515   1.446  1.00  0.00    -0.273 OA
HETATM   30  N3  UNL     1       9.757  27.176   0.977  1.00  0.00    -0.351 N 
ATOM     31  H3  UNL     1      10.704  26.875   1.205  1.00  0.00     0.163 HD
BRANCH  30  32
HETATM   32  C23 UNL     1       9.132  26.539  -0.127  1.00  0.00     0.235 C 
BRANCH  32  33
HETATM   33  C24 UNL     1       8.570  25.224   0.249  1.00  0.00     0.191 C 
HETATM   34  O6  UNL     1       8.860  24.131  -0.295  1.00  0.00    -0.647 OA
HETATM   35  O7  UNL     1       7.632  25.150   1.298  1.00  0.00    -0.647 OA
ENDBRANCH  32  33
ENDBRANCH  30  32
ENDBRANCH   8  28
BRANCH   3  36
HETATM   36  O2  UNL     1       7.715  31.996   4.309  1.00  0.00    -0.390 OA
ATOM     37  H2  UNL     1       8.199  32.760   4.020  1.00  0.00     0.210 HD
ENDBRANCH   3  36
BRANCH   6  38
HETATM   38  O4  UNL     1      11.724  31.661   1.330  1.00  0.00    -0.366 OA
HETATM   39  C19 UNL     1      12.362  31.534   0.083  1.00  0.00     0.204 C 
ENDBRANCH   6  38
TORSDOF 16
ENDMDL
MODEL 4
REMARK VINA RESULT: -7.165220303      0.458      1.135
REMARK  16 active torsions:
REMARK  status: ('A' for Active; 'I' for Inactive)
REMARK    1  A    between atoms: C2_2  and  N1_3 
REMARK    2  A    between atoms: N1_3  and  C3_4 
REMARK    3  A    between atoms: N1_3  and  C5_6 
REMARK    4  A    between atoms: C5_6  and  C6_7 
REMARK    5  A    between atoms: C6_7  and  N2_8 
REMARK    6  A    between atoms: N2_8  and  C7_11 
REMARK    7  A    between atoms: C7_11  and  C10_14 
REMARK    8  A    between atoms: C10_14  and  C11_15 
REMARK    9  A    between atoms: C11_15  and  C12_16 
REMARK   10  A    between atoms: C13_17  and  C14_18 
REMARK   11  A    between atoms: C15_19  and  O1_20 
REMARK   12  A    between atoms: C16_22  and  O2_23 
REMARK   13  A    between atoms: C18_27  and  O4_28 
REMARK   14  A    between atoms: C21_31  and  C22_32 
REMARK       I    between atoms: C22_32  and  N3_34 
REMARK   15  A    between atoms: N3_34  and  C23_36 
REMARK   16  A    between atoms: C23_36  and  C24_37 
ROOT
HETATM    1  C14 UNL     1       9.418  28.419   2.698  1.00  0.00     0.053 C 
HETATM    2  C15 UNL     1       8.686  29.519   1.986  1.00  0.00     0.158 C 
HETATM    3  C16 UNL     1       9.069  29.771   0.580  1.00  0.00     0.177 C 
HETATM    4  C17 UNL     1      10.471  29.445   0.210  1.00  0.00     0.165 C 
HETATM    5  O3  UNL     1      10.606  28.686  -0.962  1.00  0.00    -0.352 OA
HETATM    6  C18 UNL     1      11.541  27.822  -0.387  1.00  0.00     0.267 C 
HETATM    7  C20 UNL     1      11.085  28.306   0.945  1.00  0.00     0.086 C 
HETATM    8  C21 UNL     1      10.180  27.498   1.775  1.00  0.00     0.099 C 
ENDROOT
BRANCH   1   9
HETATM    9  C13 UNL     1       8.499  27.718   3.626  1.00  0.00    -0.023 C 
HETATM   10  C12 UNL     1       8.856  27.341   4.846  1.00  0.00    -0.030 C 
BRANCH  10  11
HETATM   11  C11 UNL     1       7.952  26.638   5.792  1.00  0.00     0.029 C 
BRANCH  11  12
HETATM   12  C10 UNL     1       6.742  26.080   5.080  1.00  0.00     0.042 C 
BRANCH  12  13
HETATM   13  C7  UNL     1       6.749  24.601   4.907  1.00  0.00     0.119 C 
HETATM   14  C8  UNL     1       7.585  24.163   3.722  1.00  0.00     0.046 C 
HETATM   15  C9  UNL     1       7.189  23.840   6.138  1.00  0.00     0.046 C 
BRANCH  13  16
HETATM   16  N2  UNL     1       5.344  24.225   4.668  1.00  0.00    -0.065 N 
ATOM     17  H22 UNL     1       5.219  23.787   3.754  1.00  0.00     0.278 HD
ATOM     18  H21 UNL     1       4.752  25.043   4.528  1.00  0.00     0.278 HD
BRANCH  16  19
HETATM   19  C6  UNL     1       4.848  23.377   5.744  1.00  0.00     0.263 C 
BRANCH  19  20
HETATM   20  C5  UNL     1       3.347  23.300   5.635  1.00  0.00     0.299 C 
BRANCH  20  21
HETATM   21  N1  UNL     1       2.750  22.977   6.880  1.00  0.00     0.089 N 
BRANCH  21  22
HETATM   22  C2  UNL     1       1.390  23.384   7.003  1.00  0.00     0.268 C 
HETATM   23  C1  UNL     1       0.826  23.825   5.667  1.00  0.00     0.037 C 
ENDBRANCH  21  22
BRANCH  21  24
HETATM   24  C3  UNL     1       2.921  21.579   7.247  1.00  0.00     0.268 C 
HETATM   25  C4  UNL     1       1.715  20.963   7.870  1.00  0.00     0.037 C 
ENDBRANCH  21  24
ENDBRANCH  20  21
ENDBRANCH  19  20
ENDBRANCH  16  19
ENDBRANCH  13  16
ENDBRANCH  12  13
ENDBRANCH  11  12
ENDBRANCH  10  11
ENDBRANCH   1   9
BRANCH   2  26
HETATM   26  O1  UNL     1       7.317  29.156   1.991  1.00  0.00    -0.392 OA
ATOM     27  H1  UNL     1       6.981  29.387   2.849  1.00  0.00     0.210 HD
ENDBRANCH   2  26
BRANCH   8  28
HETATM   28  C22 UNL     1       9.396  26.452   1.134  1.00  0.00     0.223 C 
HETATM   29  O5  UNL     1       8.165  26.561   0.793  1.00  0.00    -0.273 OA
HETATM   30  N3  UNL     1       9.943  25.173   0.821  1.00  0.00    -0.351 N 
ATOM     31  H3  UNL     1      10.921  25.018   1.067  1.00  0.00     0.163 HD
BRANCH  30  32
HETATM   32  C23 UNL     1       9.262  24.092   0.199  1.00  0.00     0.235 C 
BRANCH  32  33
HETATM   33  C24 UNL     1       9.351  24.169  -1.275  1.00  0.00     0.191 C 
HETATM   34  O6  UNL     1      10.271  23.676  -1.971  1.00  0.00    -0.647 OA
HETATM   35  O7  UNL     1       8.340  24.840  -1.992  1.00  0.00    -0.647 OA
ENDBRANCH  32  33
ENDBRANCH  30  32
ENDBRANCH   8  28
BRANCH   3  36
HETATM   36  O2  UNL     1       8.878  31.141   0.316  1.00  0.00    -0.390 OA
ATOM     37  H2  UNL     1       9.282  31.338  -0.521  1.00  0.00     0.210 HD
ENDBRANCH   3  36
BRANCH   6  38
HETATM   38  O4  UNL     1      12.828  28.260  -0.760  1.00  0.00    -0.366 OA
HETATM   39  C19 UNL     1      13.687  27.153  -0.886  1.00  0.00     0.204 C 
ENDBRANCH   6  38
TORSDOF 16
ENDMDL
MODEL 5
REMARK VINA RESULT: -7.131778993      1.451      1.862
REMARK  16 active torsions:
REMARK  status: ('A' for Active; 'I' for Inactive)
REMARK    1  A    between atoms: C2_2  and  N1_3 
REMARK    2  A    between atoms: N1_3  and  C3_4 
REMARK    3  A    between atoms: N1_3  and  C5_6 
REMARK    4  A    between atoms: C5_6  and  C6_7 
REMARK    5  A    between atoms: C6_7  and  N2_8 
REMARK    6  A    between atoms: N2_8  and  C7_11 
REMARK    7  A    between atoms: C7_11  and  C10_14 
REMARK    8  A    between atoms: C10_14  and  C11_15 
REMARK    9  A    between atoms: C11_15  and  C12_16 
REMARK   10  A    between atoms: C13_17  and  C14_18 
REMARK   11  A    between atoms: C15_19  and  O1_20 
REMARK   12  A    between atoms: C16_22  and  O2_23 
REMARK   13  A    between atoms: C18_27  and  O4_28 
REMARK   14  A    between atoms: C21_31  and  C22_32 
REMARK       I    between atoms: C22_32  and  N3_34 
REMARK   15  A    between atoms: N3_34  and  C23_36 
REMARK   16  A    between atoms: C23_36  and  C24_37 
ROOT
HETATM    1  C14 UNL     1       9.356  28.135   2.054  1.00  0.00     0.053 C 
HETATM    2  C15 UNL     1       8.154  28.793   1.444  1.00  0.00     0.158 C 
HETATM    3  C16 UNL     1       8.402  29.717   0.316  1.00  0.00     0.177 C 
HETATM    4  C17 UNL     1       9.718  30.409   0.308  1.00  0.00     0.165 C 
HETATM    5  O3  UNL     1      10.397  30.362  -0.918  1.00  0.00    -0.352 OA
HETATM    6  C18 UNL     1      11.617  30.042  -0.319  1.00  0.00     0.267 C 
HETATM    7  C20 UNL     1      10.852  29.646   0.896  1.00  0.00     0.086 C 
HETATM    8  C21 UNL     1      10.600  28.231   1.204  1.00  0.00     0.099 C 
ENDROOT
BRANCH   1   9
HETATM    9  C13 UNL     1       9.018  26.754   2.475  1.00  0.00    -0.023 C 
HETATM   10  C12 UNL     1       9.577  26.163   3.521  1.00  0.00    -0.030 C 
BRANCH  10  11
HETATM   11  C11 UNL     1       9.253  24.781   3.960  1.00  0.00     0.029 C 
BRANCH  11  12
HETATM   12  C10 UNL     1       7.780  24.486   3.798  1.00  0.00     0.042 C 
BRANCH  12  13
HETATM   13  C7  UNL     1       6.967  24.689   5.030  1.00  0.00     0.119 C 
HETATM   14  C8  UNL     1       7.288  23.672   6.106  1.00  0.00     0.046 C 
HETATM   15  C9  UNL     1       7.067  26.082   5.610  1.00  0.00     0.046 C 
BRANCH  13  16
HETATM   16  N2  UNL     1       5.565  24.515   4.609  1.00  0.00    -0.065 N 
ATOM     17  H22 UNL     1       5.489  24.335   3.607  1.00  0.00     0.278 HD
ATOM     18  H21 UNL     1       5.047  25.392   4.646  1.00  0.00     0.278 HD
BRANCH  16  19
HETATM   19  C6  UNL     1       4.918  23.472   5.394  1.00  0.00     0.263 C 
BRANCH  19  20
HETATM   20  C5  UNL     1       3.430  23.707   5.362  1.00  0.00     0.299 C 
BRANCH  20  21
HETATM   21  N1  UNL     1       2.730  22.718   6.099  1.00  0.00     0.089 N 
BRANCH  21  22
HETATM   22  C2  UNL     1       3.537  21.994   7.024  1.00  0.00     0.268 C 
HETATM   23  C1  UNL     1       2.811  21.788   8.339  1.00  0.00     0.037 C 
ENDBRANCH  21  22
BRANCH  21  24
HETATM   24  C3  UNL     1       1.522  23.227   6.731  1.00  0.00     0.268 C 
HETATM   25  C4  UNL     1       0.513  23.758   5.772  1.00  0.00     0.037 C 
ENDBRANCH  21  24
ENDBRANCH  20  21
ENDBRANCH  19  20
ENDBRANCH  16  19
ENDBRANCH  13  16
ENDBRANCH  12  13
ENDBRANCH  11  12
ENDBRANCH  10  11
ENDBRANCH   1   9
BRANCH   2  26
HETATM   26  O1  UNL     1       7.330  27.748   0.958  1.00  0.00    -0.392 OA
ATOM     27  H1  UNL     1       7.071  27.997   0.079  1.00  0.00     0.210 HD
ENDBRANCH   2  26
BRANCH   8  28
HETATM   28  C22 UNL     1      10.712  27.255   0.130  1.00  0.00     0.223 C 
HETATM   29  O5  UNL     1      11.612  26.344   0.056  1.00  0.00    -0.273 OA
HETATM   30  N3  UNL     1       9.805  27.223  -0.970  1.00  0.00    -0.351 N 
ATOM     31  H3  UNL     1       9.063  27.923  -0.974  1.00  0.00     0.163 HD
BRANCH  30  32
HETATM   32  C23 UNL     1       9.832  26.314  -2.061  1.00  0.00     0.235 C 
BRANCH  32  33
HETATM   33  C24 UNL     1       8.852  25.221  -1.883  1.00  0.00     0.191 C 
HETATM   34  O6  UNL     1       8.381  24.843  -0.784  1.00  0.00    -0.647 OA
HETATM   35  O7  UNL     1       8.387  24.522  -3.015  1.00  0.00    -0.647 OA
ENDBRANCH  32  33
ENDBRANCH  30  32
ENDBRANCH   8  28
BRANCH   3  36
HETATM   36  O2  UNL     1       7.408  30.715   0.343  1.00  0.00    -0.390 OA
ATOM     37  H2  UNL     1       6.767  30.508  -0.326  1.00  0.00     0.210 HD
ENDBRANCH   3  36
BRANCH   6  38
HETATM   38  O4  UNL     1      12.360  31.232  -0.181  1.00  0.00    -0.366 OA
HETATM   39  C19 UNL     1      13.519  31.163  -0.975  1.00  0.00     0.204 C 
ENDBRANCH   6  38
TORSDOF 16
ENDMDL
