MODEL 1
REMARK VINA RESULT: -8.003040159      0.000      0.000
REMARK  15 active torsions:
REMARK  status: ('A' for Active; 'I' for Inactive)
REMARK    1  A    between atoms: C2_2  and  C4_4 
REMARK    2  A    between atoms: C4_4  and  N1_5 
REMARK    3  A    between atoms: N1_5  and  C5_7 
REMARK    4  A    between atoms: C5_7  and  C6_8 
REMARK    5  A    between atoms: C5_7  and  C13_15 
REMARK    6  A    between atoms: C6_8  and  C7_9 
REMARK    7  A    between atoms: C13_15  and  O1_16 
REMARK    8  A    between atoms: C13_15  and  C14_18 
REMARK    9  A    between atoms: C14_18  and  C15_19 
REMARK   10  A    between atoms: C15_19  and  C16_20 
REMARK   11  A    between atoms: C15_19  and  C18_28 
REMARK   12  A    between atoms: C16_20  and  C17_21 
REMARK       I    between atoms: C17_21  and  N2_23 
REMARK   13  A    between atoms: N2_23  and  N3_25 
REMARK   14  A    between atoms: C18_28  and  C19_29 
REMARK   15  A    between atoms: C18_28  and  N4_31 
REMARK       I    between atoms: N4_31  and  C20_33 
REMARK       I    between atoms: C20_33  and  N5_35 
ROOT
HETATM    1  C15 UNL     1       7.868  25.781   4.340  1.00  0.00    -0.043 C 
ENDROOT
BRANCH   1   2
HETATM    2  C14 UNL     1       7.418  25.712   2.954  1.00  0.00     0.016 C 
BRANCH   2   3
HETATM    3  C13 UNL     1       8.343  25.467   1.833  1.00  0.00     0.190 C 
BRANCH   3   4
HETATM    4  C5  UNL     1       8.025  26.480   0.700  1.00  0.00     0.034 C 
BRANCH   4   5
HETATM    5  N1  UNL     1       7.259  27.570   1.088  1.00  0.00    -0.391 N 
ATOM      6  H1  UNL     1       6.679  27.452   1.919  1.00  0.00     0.159 HD
BRANCH   5   7
HETATM    7  C4  UNL     1       7.204  28.800   0.459  1.00  0.00     0.123 C 
BRANCH   7   8
HETATM    8  C2  UNL     1       7.672  29.872   1.477  1.00  0.00    -0.005 C 
HETATM    9  C1  UNL     1       6.537  30.567   2.141  1.00  0.00     0.011 C 
HETATM   10  C3  UNL     1       8.454  30.924   0.679  1.00  0.00     0.011 C 
ENDBRANCH   7   8
ENDBRANCH   5   7
ENDBRANCH   4   5
BRANCH   4  11
HETATM   11  C6  UNL     1       9.130  26.607  -0.258  1.00  0.00     0.005 C 
BRANCH  11  12
HETATM   12  C7  UNL     1      10.533  26.639   0.151  1.00  0.00     0.010 C 
HETATM   13  C8  UNL     1      10.852  28.021   0.773  1.00  0.00     0.008 C 
HETATM   14  C9  UNL     1      11.488  28.933  -0.240  1.00  0.00     0.001 C 
HETATM   15  C10 UNL     1      12.846  28.484  -0.676  1.00  0.00     0.000 C 
HETATM   16  C11 UNL     1      12.931  26.975  -0.466  1.00  0.00     0.001 C 
HETATM   17  C12 UNL     1      11.560  26.434  -0.925  1.00  0.00     0.008 C 
ENDBRANCH  11  12
ENDBRANCH   4  11
ENDBRANCH   3   4
BRANCH   3  18
HETATM   18  O1  UNL     1       8.347  24.239   1.248  1.00  0.00    -0.386 OA
ATOM     19  H1  UNL     1       8.691  23.640   1.900  1.00  0.00     0.210 HD
ENDBRANCH   3  18
ENDBRANCH   2   3
ENDBRANCH   1   2
BRANCH   1  20
HETATM   20  C16 UNL     1       7.772  27.102   5.041  1.00  0.00     0.141 C 
BRANCH  20  21
HETATM   21  C17 UNL     1       8.916  27.964   4.646  1.00  0.00     0.239 C 
HETATM   22  O2  UNL     1      10.002  27.555   4.181  1.00  0.00    -0.272 OA
HETATM   23  N2  UNL     1       8.790  29.365   4.799  1.00  0.00    -0.276 N 
ATOM     24  H2  UNL     1       7.926  29.758   5.173  1.00  0.00     0.189 HD
BRANCH  23  25
HETATM   25  N3  UNL     1       9.830  30.207   4.445  1.00  0.00    -0.343 N 
ATOM     26  H32 UNL     1      10.609  29.825   3.908  1.00  0.00     0.176 HD
ATOM     27  H31 UNL     1       9.817  31.190   4.717  1.00  0.00     0.176 HD
ENDBRANCH  23  25
ENDBRANCH  20  21
ENDBRANCH   1  20
BRANCH   1  28
HETATM   28  C18 UNL     1       7.681  24.584   5.216  1.00  0.00     0.177 C 
BRANCH  28  29
HETATM   29  C19 UNL     1       8.561  23.446   5.069  1.00  0.00     0.260 C 
HETATM   30  O3  UNL     1       9.719  23.630   4.750  1.00  0.00    -0.304 OA
ENDBRANCH  28  29
BRANCH  28  31
HETATM   31  N4  UNL     1       6.270  24.205   5.301  1.00  0.00    -0.328 N 
HETATM   32  C20 UNL     1       5.790  23.226   6.203  1.00  0.00     0.319 C 
HETATM   33  O4  UNL     1       6.537  22.599   7.001  1.00  0.00    -0.247 OA
HETATM   34  N5  UNL     1       4.407  22.904   6.244  1.00  0.00    -0.330 N 
HETATM   35  C21 UNL     1       3.392  23.511   5.406  1.00  0.00     0.153 C 
HETATM   36  C24 UNL     1       3.896  21.893   7.177  1.00  0.00     0.153 C 
HETATM   37  C22 UNL     1       2.048  23.433   6.142  1.00  0.00     0.187 C 
HETATM   38  O5  UNL     1       1.671  22.123   6.341  1.00  0.00    -0.388 OA
HETATM   39  C23 UNL     1       2.726  21.236   6.436  1.00  0.00     0.187 C 
ATOM     40  H4  UNL     1       5.603  24.667   4.684  1.00  0.00     0.165 HD
ENDBRANCH  28  31
ENDBRANCH   1  28
TORSDOF 15
ENDMDL
MODEL 2
REMARK VINA RESULT: -7.735074710      2.325      6.383
REMARK  15 active torsions:
REMARK  status: ('A' for Active; 'I' for Inactive)
REMARK    1  A    between atoms: C2_2  and  C4_4 
REMARK    2  A    between atoms: C4_4  and  N1_5 
REMARK    3  A    between atoms: N1_5  and  C5_7 
REMARK    4  A    between atoms: C5_7  and  C6_8 
REMARK    5  A    between atoms: C5_7  and  C13_15 
REMARK    6  A    between atoms: C6_8  and  C7_9 
REMARK    7  A    between atoms: C13_15  and  O1_16 
REMARK    8  A    between atoms: C13_15  and  C14_18 
REMARK    9  A    between atoms: C14_18  and  C15_19 
REMARK   10  A    between atoms: C15_19  and  C16_20 
REMARK   11  A    between atoms: C15_19  and  C18_28 
REMARK   12  A    between atoms: C16_20  and  C17_21 
REMARK       I    between atoms: C17_21  and  N2_23 
REMARK   13  A    between atoms: N2_23  and  N3_25 
REMARK   14  A    between atoms: C18_28  and  C19_29 
REMARK   15  A    between atoms: C18_28  and  N4_31 
REMARK       I    between atoms: N4_31  and  C20_33 
REMARK       I    between atoms: C20_33  and  N5_35 
ROOT
HETATM    1  C15 UNL     1       8.315  25.700   3.870  1.00  0.00    -0.043 C 
ENDROOT
BRANCH   1   2
HETATM    2  C14 UNL     1       8.997  25.218   2.673  1.00  0.00     0.016 C 
BRANCH   2   3
HETATM    3  C13 UNL     1       8.308  25.052   1.382  1.00  0.00     0.190 C 
BRANCH   3   4
HETATM    4  C5  UNL     1       9.293  25.430   0.242  1.00  0.00     0.034 C 
BRANCH   4   5
HETATM    5  N1  UNL     1      10.269  26.351   0.596  1.00  0.00    -0.391 N 
ATOM      6  H1  UNL     1       9.980  27.117   1.203  1.00  0.00     0.159 HD
BRANCH   5   7
HETATM    7  C4  UNL     1      11.596  26.331   0.205  1.00  0.00     0.123 C 
BRANCH   7   8
HETATM    8  C2  UNL     1      11.979  27.767  -0.237  1.00  0.00    -0.005 C 
HETATM    9  C1  UNL     1      11.130  28.271  -1.349  1.00  0.00     0.011 C 
HETATM   10  C3  UNL     1      13.423  27.698  -0.753  1.00  0.00     0.011 C 
ENDBRANCH   7   8
ENDBRANCH   5   7
ENDBRANCH   4   5
BRANCH   4  11
HETATM   11  C6  UNL     1       9.578  24.296  -0.645  1.00  0.00     0.005 C 
BRANCH  11  12
HETATM   12  C7  UNL     1       9.349  24.344  -2.089  1.00  0.00     0.010 C 
HETATM   13  C8  UNL     1      10.638  23.905  -2.825  1.00  0.00     0.008 C 
HETATM   14  C9  UNL     1      11.441  25.099  -3.264  1.00  0.00     0.001 C 
HETATM   15  C10 UNL     1      10.764  25.918  -4.316  1.00  0.00     0.000 C 
HETATM   16  C11 UNL     1       9.260  25.688  -4.194  1.00  0.00     0.001 C 
HETATM   17  C12 UNL     1       8.984  25.678  -2.675  1.00  0.00     0.008 C 
ENDBRANCH  11  12
ENDBRANCH   4  11
ENDBRANCH   3   4
BRANCH   3  18
HETATM   18  O1  UNL     1       7.176  25.770   1.150  1.00  0.00    -0.386 OA
ATOM     19  H1  UNL     1       7.144  26.436   1.828  1.00  0.00     0.210 HD
ENDBRANCH   3  18
ENDBRANCH   2   3
ENDBRANCH   1   2
BRANCH   1  20
HETATM   20  C16 UNL     1       8.143  24.744   5.009  1.00  0.00     0.141 C 
BRANCH  20  21
HETATM   21  C17 UNL     1       6.767  24.186   4.993  1.00  0.00     0.239 C 
HETATM   22  O2  UNL     1       6.452  23.029   5.348  1.00  0.00    -0.272 OA
HETATM   23  N2  UNL     1       5.708  25.011   4.544  1.00  0.00    -0.276 N 
ATOM     24  H2  UNL     1       5.904  25.965   4.242  1.00  0.00     0.189 HD
BRANCH  23  25
HETATM   25  N3  UNL     1       4.410  24.533   4.511  1.00  0.00    -0.343 N 
ATOM     26  H32 UNL     1       3.763  24.818   5.247  1.00  0.00     0.176 HD
ATOM     27  H31 UNL     1       4.106  23.908   3.764  1.00  0.00     0.176 HD
ENDBRANCH  23  25
ENDBRANCH  20  21
ENDBRANCH   1  20
BRANCH   1  28
HETATM   28  C18 UNL     1       8.484  27.132   4.264  1.00  0.00     0.177 C 
BRANCH  28  29
HETATM   29  C19 UNL     1       8.128  27.553   5.601  1.00  0.00     0.260 C 
HETATM   30  O3  UNL     1       6.959  27.746   5.869  1.00  0.00    -0.304 OA
ENDBRANCH  28  29
BRANCH  28  31
HETATM   31  N4  UNL     1       7.971  28.031   3.228  1.00  0.00    -0.328 N 
HETATM   32  C20 UNL     1       8.809  28.848   2.434  1.00  0.00     0.319 C 
HETATM   33  O4  UNL     1      10.064  28.872   2.556  1.00  0.00    -0.247 OA
HETATM   34  N5  UNL     1       8.253  29.696   1.440  1.00  0.00    -0.330 N 
HETATM   35  C21 UNL     1       6.838  29.812   1.151  1.00  0.00     0.153 C 
HETATM   36  C24 UNL     1       9.112  30.546   0.608  1.00  0.00     0.153 C 
HETATM   37  C22 UNL     1       6.679  30.250  -0.312  1.00  0.00     0.187 C 
HETATM   38  O5  UNL     1       7.231  31.495  -0.515  1.00  0.00    -0.388 OA
HETATM   39  C23 UNL     1       8.274  31.800   0.337  1.00  0.00     0.187 C 
ATOM     40  H4  UNL     1       6.964  28.070   3.072  1.00  0.00     0.165 HD
ENDBRANCH  28  31
ENDBRANCH   1  28
TORSDOF 15
ENDMDL
MODEL 3
REMARK VINA RESULT: -7.730135523      2.640      5.579
REMARK  15 active torsions:
REMARK  status: ('A' for Active; 'I' for Inactive)
REMARK    1  A    between atoms: C2_2  and  C4_4 
REMARK    2  A    between atoms: C4_4  and  N1_5 
REMARK    3  A    between atoms: N1_5  and  C5_7 
REMARK    4  A    between atoms: C5_7  and  C6_8 
REMARK    5  A    between atoms: C5_7  and  C13_15 
REMARK    6  A    between atoms: C6_8  and  C7_9 
REMARK    7  A    between atoms: C13_15  and  O1_16 
REMARK    8  A    between atoms: C13_15  and  C14_18 
REMARK    9  A    between atoms: C14_18  and  C15_19 
REMARK   10  A    between atoms: C15_19  and  C16_20 
REMARK   11  A    between atoms: C15_19  and  C18_28 
REMARK   12  A    between atoms: C16_20  and  C17_21 
REMARK       I    between atoms: C17_21  and  N2_23 
REMARK   13  A    between atoms: N2_23  and  N3_25 
REMARK   14  A    between atoms: C18_28  and  C19_29 
REMARK   15  A    between atoms: C18_28  and  N4_31 
REMARK       I    between atoms: N4_31  and  C20_33 
REMARK       I    between atoms: C20_33  and  N5_35 
ROOT
HETATM    1  C15 UNL     1       7.749  25.784   4.256  1.00  0.00    -0.043 C 
ENDROOT
BRANCH   1   2
HETATM    2  C14 UNL     1       7.368  27.039   4.897  1.00  0.00     0.016 C 
BRANCH   2   3
HETATM    3  C13 UNL     1       8.332  27.879   5.628  1.00  0.00     0.190 C 
BRANCH   3   4
HETATM    4  C5  UNL     1       7.861  29.357   5.547  1.00  0.00     0.034 C 
BRANCH   4   5
HETATM    5  N1  UNL     1       7.177  29.689   4.386  1.00  0.00    -0.391 N 
ATOM      6  H1  UNL     1       6.202  29.394   4.326  1.00  0.00     0.159 HD
BRANCH   5   7
HETATM    7  C4  UNL     1       7.688  30.380   3.302  1.00  0.00     0.123 C 
BRANCH   7   8
HETATM    8  C2  UNL     1       8.019  29.343   2.196  1.00  0.00    -0.005 C 
HETATM    9  C1  UNL     1       9.478  29.234   1.931  1.00  0.00     0.011 C 
HETATM   10  C3  UNL     1       7.352  29.847   0.909  1.00  0.00     0.011 C 
ENDBRANCH   7   8
ENDBRANCH   5   7
ENDBRANCH   4   5
BRANCH   4  11
HETATM   11  C6  UNL     1       7.474  29.891   6.858  1.00  0.00     0.005 C 
BRANCH  11  12
HETATM   12  C7  UNL     1       7.520  29.093   8.082  1.00  0.00     0.010 C 
HETATM   13  C8  UNL     1       6.241  29.359   8.913  1.00  0.00     0.008 C 
HETATM   14  C9  UNL     1       6.499  30.383   9.985  1.00  0.00     0.001 C 
HETATM   15  C10 UNL     1       7.446  29.913  11.042  1.00  0.00     0.000 C 
HETATM   16  C11 UNL     1       8.330  28.830  10.431  1.00  0.00     0.001 C 
HETATM   17  C12 UNL     1       8.668  29.346   9.016  1.00  0.00     0.008 C 
ENDBRANCH  11  12
ENDBRANCH   4  11
ENDBRANCH   3   4
BRANCH   3  18
HETATM   18  O1  UNL     1       9.632  27.877   5.229  1.00  0.00    -0.386 OA
ATOM     19  H1  UNL     1       9.681  27.272   4.498  1.00  0.00     0.210 HD
ENDBRANCH   3  18
ENDBRANCH   2   3
ENDBRANCH   1   2
BRANCH   1  20
HETATM   20  C16 UNL     1       8.886  25.814   3.283  1.00  0.00     0.141 C 
BRANCH  20  21
HETATM   21  C17 UNL     1       8.469  25.183   2.004  1.00  0.00     0.239 C 
HETATM   22  O2  UNL     1       7.355  25.328   1.457  1.00  0.00    -0.272 OA
HETATM   23  N2  UNL     1       9.391  24.346   1.332  1.00  0.00    -0.276 N 
ATOM     24  H2  UNL     1      10.317  24.190   1.730  1.00  0.00     0.189 HD
BRANCH  23  25
HETATM   25  N3  UNL     1       9.045  23.736   0.138  1.00  0.00    -0.343 N 
ATOM     26  H32 UNL     1       8.075  23.779  -0.172  1.00  0.00     0.176 HD
ATOM     27  H31 UNL     1       9.750  23.253  -0.420  1.00  0.00     0.176 HD
ENDBRANCH  23  25
ENDBRANCH  20  21
ENDBRANCH   1  20
BRANCH   1  28
HETATM   28  C18 UNL     1       7.609  24.513   5.030  1.00  0.00     0.177 C 
BRANCH  28  29
HETATM   29  C19 UNL     1       8.464  23.389   4.719  1.00  0.00     0.260 C 
HETATM   30  O3  UNL     1       9.587  23.353   5.181  1.00  0.00    -0.304 OA
ENDBRANCH  28  29
BRANCH  28  31
HETATM   31  N4  UNL     1       6.203  24.134   5.178  1.00  0.00    -0.328 N 
HETATM   32  C20 UNL     1       5.755  23.199   6.141  1.00  0.00     0.319 C 
HETATM   33  O4  UNL     1       6.530  22.614   6.944  1.00  0.00    -0.247 OA
HETATM   34  N5  UNL     1       4.376  22.875   6.241  1.00  0.00    -0.330 N 
HETATM   35  C21 UNL     1       3.333  23.438   5.407  1.00  0.00     0.153 C 
HETATM   36  C24 UNL     1       3.899  21.909   7.237  1.00  0.00     0.153 C 
HETATM   37  C22 UNL     1       2.013  23.392   6.188  1.00  0.00     0.187 C 
HETATM   38  O5  UNL     1       1.648  22.092   6.462  1.00  0.00    -0.388 OA
HETATM   39  C23 UNL     1       2.709  21.214   6.566  1.00  0.00     0.187 C 
ATOM     40  H4  UNL     1       5.514  24.563   4.560  1.00  0.00     0.165 HD
ENDBRANCH  28  31
ENDBRANCH   1  28
TORSDOF 15
ENDMDL
MODEL 4
REMARK VINA RESULT: -7.726840993      3.164      6.070
REMARK  15 active torsions:
REMARK  status: ('A' for Active; 'I' for Inactive)
REMARK    1  A    between atoms: C2_2  and  C4_4 
REMARK    2  A    between atoms: C4_4  and  N1_5 
REMARK    3  A    between atoms: N1_5  and  C5_7 
REMARK    4  A    between atoms: C5_7  and  C6_8 
REMARK    5  A    between atoms: C5_7  and  C13_15 
REMARK    6  A    between atoms: C6_8  and  C7_9 
REMARK    7  A    between atoms: C13_15  and  O1_16 
REMARK    8  A    between atoms: C13_15  and  C14_18 
REMARK    9  A    between atoms: C14_18  and  C15_19 
REMARK   10  A    between atoms: C15_19  and  C16_20 
REMARK   11  A    between atoms: C15_19  and  C18_28 
REMARK   12  A    between atoms: C16_20  and  C17_21 
REMARK       I    between atoms: C17_21  and  N2_23 
REMARK   13  A    between atoms: N2_23  and  N3_25 
REMARK   14  A    between atoms: C18_28  and  C19_29 
REMARK   15  A    between atoms: C18_28  and  N4_31 
REMARK       I    between atoms: N4_31  and  C20_33 
REMARK       I    between atoms: C20_33  and  N5_35 
ROOT
HETATM    1  C15 UNL     1       7.841  25.973   4.333  1.00  0.00    -0.043 C 
ENDROOT
BRANCH   1   2
HETATM    2  C14 UNL     1       7.556  27.200   5.069  1.00  0.00     0.016 C 
BRANCH   2   3
HETATM    3  C13 UNL     1       7.956  28.530   4.577  1.00  0.00     0.190 C 
BRANCH   3   4
HETATM    4  C5  UNL     1       8.167  29.467   5.798  1.00  0.00     0.034 C 
BRANCH   4   5
HETATM    5  N1  UNL     1       8.109  30.823   5.509  1.00  0.00    -0.391 N 
ATOM      6  H1  UNL     1       7.193  31.204   5.271  1.00  0.00     0.159 HD
BRANCH   5   7
HETATM    7  C4  UNL     1       9.171  31.709   5.513  1.00  0.00     0.123 C 
BRANCH   7   8
HETATM    8  C2  UNL     1       8.766  32.926   6.386  1.00  0.00    -0.005 C 
HETATM    9  C1  UNL     1       9.230  32.802   7.794  1.00  0.00     0.011 C 
HETATM   10  C3  UNL     1       7.232  32.961   6.406  1.00  0.00     0.011 C 
ENDBRANCH   7   8
ENDBRANCH   5   7
ENDBRANCH   4   5
BRANCH   4  11
HETATM   11  C6  UNL     1       7.603  28.908   7.032  1.00  0.00     0.005 C 
BRANCH  11  12
HETATM   12  C7  UNL     1       7.331  29.721   8.216  1.00  0.00     0.010 C 
HETATM   13  C8  UNL     1       8.322  29.333   9.341  1.00  0.00     0.008 C 
HETATM   14  C9  UNL     1       7.696  28.354  10.296  1.00  0.00     0.001 C 
HETATM   15  C10 UNL     1       6.566  28.932  11.085  1.00  0.00     0.000 C 
HETATM   16  C11 UNL     1       5.982  30.094  10.287  1.00  0.00     0.001 C 
HETATM   17  C12 UNL     1       5.963  29.599   8.825  1.00  0.00     0.008 C 
ENDBRANCH  11  12
ENDBRANCH   4  11
ENDBRANCH   3   4
BRANCH   3  18
HETATM   18  O1  UNL     1       7.117  29.193   3.736  1.00  0.00    -0.386 OA
ATOM     19  H1  UNL     1       6.508  28.542   3.407  1.00  0.00     0.210 HD
ENDBRANCH   3  18
ENDBRANCH   2   3
ENDBRANCH   1   2
BRANCH   1  20
HETATM   20  C16 UNL     1       8.907  26.020   3.283  1.00  0.00     0.141 C 
BRANCH  20  21
HETATM   21  C17 UNL     1       8.453  25.289   2.072  1.00  0.00     0.239 C 
HETATM   22  O2  UNL     1       7.305  25.348   1.581  1.00  0.00    -0.272 OA
HETATM   23  N2  UNL     1       9.375  24.450   1.403  1.00  0.00    -0.276 N 
ATOM     24  H2  UNL     1      10.328  24.362   1.757  1.00  0.00     0.189 HD
BRANCH  23  25
HETATM   25  N3  UNL     1       8.996  23.748   0.272  1.00  0.00    -0.343 N 
ATOM     26  H32 UNL     1       8.213  23.097   0.338  1.00  0.00     0.176 HD
ATOM     27  H31 UNL     1       9.490  23.881  -0.611  1.00  0.00     0.176 HD
ENDBRANCH  23  25
ENDBRANCH  20  21
ENDBRANCH   1  20
BRANCH   1  28
HETATM   28  C18 UNL     1       7.705  24.664   5.041  1.00  0.00     0.177 C 
BRANCH  28  29
HETATM   29  C19 UNL     1       8.567  23.561   4.677  1.00  0.00     0.260 C 
HETATM   30  O3  UNL     1       9.644  23.443   5.227  1.00  0.00    -0.304 OA
ENDBRANCH  28  29
BRANCH  28  31
HETATM   31  N4  UNL     1       6.300  24.271   5.166  1.00  0.00    -0.328 N 
HETATM   32  C20 UNL     1       5.853  23.296   6.088  1.00  0.00     0.319 C 
HETATM   33  O4  UNL     1       6.626  22.683   6.872  1.00  0.00    -0.247 OA
HETATM   34  N5  UNL     1       4.475  22.961   6.167  1.00  0.00    -0.330 N 
HETATM   35  C21 UNL     1       3.434  23.550   5.349  1.00  0.00     0.153 C 
HETATM   36  C24 UNL     1       3.998  21.953   7.121  1.00  0.00     0.153 C 
HETATM   37  C22 UNL     1       2.109  23.465   6.120  1.00  0.00     0.187 C 
HETATM   38  O5  UNL     1       1.750  22.154   6.340  1.00  0.00    -0.388 OA
HETATM   39  C23 UNL     1       2.816  21.279   6.416  1.00  0.00     0.187 C 
ATOM     40  H4  UNL     1       5.613  24.721   4.561  1.00  0.00     0.165 HD
ENDBRANCH  28  31
ENDBRANCH   1  28
TORSDOF 15
ENDMDL
MODEL 5
REMARK VINA RESULT: -7.696569167      2.883      8.767
REMARK  15 active torsions:
REMARK  status: ('A' for Active; 'I' for Inactive)
REMARK    1  A    between atoms: C2_2  and  C4_4 
REMARK    2  A    between atoms: C4_4  and  N1_5 
REMARK    3  A    between atoms: N1_5  and  C5_7 
REMARK    4  A    between atoms: C5_7  and  C6_8 
REMARK    5  A    between atoms: C5_7  and  C13_15 
REMARK    6  A    between atoms: C6_8  and  C7_9 
REMARK    7  A    between atoms: C13_15  and  O1_16 
REMARK    8  A    between atoms: C13_15  and  C14_18 
REMARK    9  A    between atoms: C14_18  and  C15_19 
REMARK   10  A    between atoms: C15_19  and  C16_20 
REMARK   11  A    between atoms: C15_19  and  C18_28 
REMARK   12  A    between atoms: C16_20  and  C17_21 
REMARK       I    between atoms: C17_21  and  N2_23 
REMARK   13  A    between atoms: N2_23  and  N3_25 
REMARK   14  A    between atoms: C18_28  and  C19_29 
REMARK   15  A    between atoms: C18_28  and  N4_31 
REMARK       I    between atoms: N4_31  and  C20_33 
REMARK       I    between atoms: C20_33  and  N5_35 
ROOT
HETATM    1  C15 UNL     1       9.704  27.763   1.643  1.00  0.00    -0.043 C 
ENDROOT
BRANCH   1   2
HETATM    2  C14 UNL     1      10.044  27.477   3.033  1.00  0.00     0.016 C 
BRANCH   2   3
HETATM    3  C13 UNL     1       9.480  26.329   3.765  1.00  0.00     0.190 C 
BRANCH   3   4
HETATM    4  C5  UNL     1       8.733  26.861   5.019  1.00  0.00     0.034 C 
BRANCH   4   5
HETATM    5  N1  UNL     1       8.889  28.218   5.260  1.00  0.00    -0.391 N 
ATOM      6  H1  UNL     1       9.811  28.616   5.076  1.00  0.00     0.159 HD
BRANCH   5   7
HETATM    7  C4  UNL     1       7.918  29.086   5.725  1.00  0.00     0.123 C 
BRANCH   7   8
HETATM    8  C2  UNL     1       7.886  30.311   4.774  1.00  0.00    -0.005 C 
HETATM    9  C1  UNL     1       7.264  30.002   3.459  1.00  0.00     0.011 C 
HETATM   10  C3  UNL     1       9.347  30.703   4.514  1.00  0.00     0.011 C 
ENDBRANCH   7   8
ENDBRANCH   5   7
ENDBRANCH   4   5
BRANCH   4  11
HETATM   11  C6  UNL     1       7.455  26.173   5.238  1.00  0.00     0.005 C 
BRANCH  11  12
HETATM   12  C7  UNL     1       7.262  24.752   4.952  1.00  0.00     0.010 C 
HETATM   13  C8  UNL     1       5.861  24.543   4.328  1.00  0.00     0.008 C 
HETATM   14  C9  UNL     1       4.865  24.112   5.371  1.00  0.00     0.001 C 
HETATM   15  C10 UNL     1       5.143  22.756   5.934  1.00  0.00     0.000 C 
HETATM   16  C11 UNL     1       6.634  22.476   5.768  1.00  0.00     0.001 C 
HETATM   17  C12 UNL     1       7.329  23.809   6.118  1.00  0.00     0.008 C 
ENDBRANCH  11  12
ENDBRANCH   4  11
ENDBRANCH   3   4
BRANCH   3  18
HETATM   18  O1  UNL     1      10.327  25.364   4.215  1.00  0.00    -0.386 OA
ATOM     19  H1  UNL     1      11.110  25.817   4.506  1.00  0.00     0.210 HD
ENDBRANCH   3  18
ENDBRANCH   2   3
ENDBRANCH   1   2
BRANCH   1  20
HETATM   20  C16 UNL     1       8.348  27.356   1.157  1.00  0.00     0.141 C 
BRANCH  20  21
HETATM   21  C17 UNL     1       8.304  25.884   0.964  1.00  0.00     0.239 C 
HETATM   22  O2  UNL     1       7.309  25.157   1.178  1.00  0.00    -0.272 OA
HETATM   23  N2  UNL     1       9.469  25.227   0.503  1.00  0.00    -0.276 N 
ATOM     24  H2  UNL     1      10.312  25.769   0.311  1.00  0.00     0.189 HD
BRANCH  23  25
HETATM   25  N3  UNL     1       9.475  23.857   0.310  1.00  0.00    -0.343 N 
ATOM     26  H32 UNL     1       9.894  23.263   1.026  1.00  0.00     0.176 HD
ATOM     27  H31 UNL     1       9.067  23.450  -0.532  1.00  0.00     0.176 HD
ENDBRANCH  23  25
ENDBRANCH  20  21
ENDBRANCH   1  20
BRANCH   1  28
HETATM   28  C18 UNL     1      10.262  28.996   1.007  1.00  0.00     0.177 C 
BRANCH  28  29
HETATM   29  C19 UNL     1       9.371  29.934   0.362  1.00  0.00     0.260 C 
HETATM   30  O3  UNL     1       9.406  31.104   0.688  1.00  0.00    -0.304 OA
ENDBRANCH  28  29
BRANCH  28  31
HETATM   31  N4  UNL     1      11.444  28.687   0.200  1.00  0.00    -0.328 N 
HETATM   32  C20 UNL     1      11.380  27.959  -1.011  1.00  0.00     0.319 C 
HETATM   33  O4  UNL     1      10.302  27.513  -1.490  1.00  0.00    -0.247 OA
HETATM   34  N5  UNL     1      12.561  27.694  -1.754  1.00  0.00    -0.330 N 
HETATM   35  C21 UNL     1      13.892  28.118  -1.368  1.00  0.00     0.153 C 
HETATM   36  C24 UNL     1      12.507  26.943  -3.013  1.00  0.00     0.153 C 
HETATM   37  C22 UNL     1      14.743  28.252  -2.638  1.00  0.00     0.187 C 
HETATM   38  O5  UNL     1      14.879  27.036  -3.270  1.00  0.00    -0.388 OA
HETATM   39  C23 UNL     1      13.827  26.166  -3.059  1.00  0.00     0.187 C 
ATOM     40  H4  UNL     1      12.355  29.011   0.525  1.00  0.00     0.165 HD
ENDBRANCH  28  31
ENDBRANCH   1  28
TORSDOF 15
ENDMDL
