MODEL 1
REMARK VINA RESULT: -8.318231275      0.000      0.000
REMARK  19 active torsions:
REMARK  status: ('A' for Active; 'I' for Inactive)
REMARK    1  A    between atoms: C2_2  and  C3_3 
REMARK    2  A    between atoms: C3_3  and  C4_4 
REMARK    3  A    between atoms: C4_4  and  O1_5 
REMARK    4  A    between atoms: O1_5  and  C5_6 
REMARK    5  A    between atoms: C5_6  and  C6_7 
REMARK    6  A    between atoms: C6_7  and  C7_8 
REMARK    7  A    between atoms: C7_8  and  N1_9 
REMARK    8  A    between atoms: N1_9  and  C8_11 
REMARK    9  A    between atoms: C8_11  and  O2_12 
REMARK   10  A    between atoms: C9_14  and  C10_15 
REMARK   11  A    between atoms: C10_15  and  C11_16 
REMARK   12  A    between atoms: C11_16  and  C12_17 
REMARK   13  A    between atoms: C12_17  and  C13_18 
REMARK   14  A    between atoms: C15_20  and  S1_21 
REMARK   15  A    between atoms: S1_21  and  N2_24 
REMARK   16  A    between atoms: N2_24  and  C16_26 
REMARK   17  A    between atoms: C20_30  and  O5_31 
REMARK   18  A    between atoms: C21_33  and  O6_34 
REMARK   19  A    between atoms: C22_36  and  O7_37 
ROOT
HETATM    1  C13 UNL     1       7.563  25.546   4.782  1.00  0.00    -0.029 C 
HETATM    2  C14 UNL     1       7.834  26.777   5.265  1.00  0.00     0.007 C 
HETATM    3  C15 UNL     1       8.643  27.774   4.584  1.00  0.00     0.183 C 
HETATM    4  C20 UNL     1       8.820  27.484   3.141  1.00  0.00     0.173 C 
HETATM    5  C21 UNL     1       9.270  26.046   3.033  1.00  0.00     0.181 C 
HETATM    6  C22 UNL     1       8.106  25.136   3.482  1.00  0.00     0.182 C 
ENDROOT
BRANCH   1   7
HETATM    7  C12 UNL     1       6.749  24.701   5.592  1.00  0.00     0.009 C 
BRANCH   7   8
HETATM    8  C11 UNL     1       6.131  23.598   5.403  1.00  0.00     0.001 C 
BRANCH   8   9
HETATM    9  C10 UNL     1       4.877  23.059   5.790  1.00  0.00     0.004 C 
BRANCH   9  10
HETATM   10  C9  UNL     1       3.650  23.354   5.493  1.00  0.00     0.055 C 
HETATM   11  C8  UNL     1       2.405  23.321   6.162  1.00  0.00     0.135 C 
BRANCH  11  12
HETATM   12  N1  UNL     1       2.058  22.940   7.438  1.00  0.00    -0.371 N 
ATOM     13  H1  UNL     1       1.758  23.696   8.053  1.00  0.00     0.161 HD
BRANCH  12  14
HETATM   14  C7  UNL     1       2.058  21.651   8.017  1.00  0.00     0.123 C 
BRANCH  14  15
HETATM   15  C6  UNL     1       0.821  21.029   8.501  1.00  0.00     0.046 C 
BRANCH  15  16
HETATM   16  C5  UNL     1      -0.302  20.862   7.592  1.00  0.00     0.169 C 
BRANCH  16  17
HETATM   17  O1  UNL     1      -0.777  22.080   7.036  1.00  0.00    -0.391 OA
BRANCH  17  18
HETATM   18  C4  UNL     1      -2.121  22.257   7.124  1.00  0.00     0.167 C 
BRANCH  18  19
HETATM   19  C3  UNL     1      -2.765  20.870   7.341  1.00  0.00     0.026 C 
BRANCH  19  20
HETATM   20  C2  UNL     1      -3.878  21.032   8.366  1.00  0.00    -0.002 C 
HETATM   21  C1  UNL     1      -4.357  19.682   8.838  1.00  0.00     0.005 C 
ENDBRANCH  19  20
ENDBRANCH  18  19
ENDBRANCH  17  18
ENDBRANCH  16  17
ENDBRANCH  15  16
ENDBRANCH  14  15
ENDBRANCH  12  14
ENDBRANCH  11  12
BRANCH  11  22
HETATM   22  O2  UNL     1       1.414  23.743   5.380  1.00  0.00    -0.346 OA
ATOM     23  H2  UNL     1       1.153  23.160   4.677  1.00  0.00     0.219 HD
ENDBRANCH  11  22
ENDBRANCH   9  10
ENDBRANCH   8   9
ENDBRANCH   7   8
ENDBRANCH   1   7
BRANCH   6  24
HETATM   24  O7  UNL     1       7.097  25.195   2.533  1.00  0.00    -0.388 OA
ATOM     25  H7  UNL     1       7.405  25.693   1.785  1.00  0.00     0.210 HD
ENDBRANCH   6  24
BRANCH   3  26
HETATM   26  S1  UNL     1       7.965  29.408   4.857  1.00  0.00     0.236 S 
HETATM   27  O3  UNL     1       7.271  29.818   3.573  1.00  0.00    -0.205 OA
HETATM   28  O4  UNL     1       9.147  30.324   5.003  1.00  0.00    -0.205 OA
BRANCH  26  29
HETATM   29  N2  UNL     1       6.855  29.518   6.112  1.00  0.00    -0.314 N 
ATOM     30  H2  UNL     1       5.887  29.229   5.971  1.00  0.00     0.172 HD
BRANCH  29  31
HETATM   31  C16 UNL     1       7.279  30.015   7.366  1.00  0.00     0.092 C 
HETATM   32  C17 UNL     1       8.179  29.063   8.170  1.00  0.00     0.026 C 
HETATM   33  C18 UNL     1       7.422  29.508   9.403  1.00  0.00     0.004 C 
HETATM   34  C19 UNL     1       6.264  29.861   8.499  1.00  0.00     0.026 C 
ENDBRANCH  29  31
ENDBRANCH  26  29
ENDBRANCH   3  26
BRANCH   5  35
HETATM   35  O6  UNL     1      10.315  25.803   3.912  1.00  0.00    -0.390 OA
ATOM     36  H6  UNL     1      10.078  25.114   4.522  1.00  0.00     0.210 HD
ENDBRANCH   5  35
BRANCH   4  37
HETATM   37  O5  UNL     1       9.772  28.296   2.527  1.00  0.00    -0.391 OA
ATOM     38  H5  UNL     1       9.397  28.915   1.913  1.00  0.00     0.210 HD
ENDBRANCH   4  37
TORSDOF 19
ENDMDL
MODEL 2
REMARK VINA RESULT: -8.242494492      1.246      1.585
REMARK  19 active torsions:
REMARK  status: ('A' for Active; 'I' for Inactive)
REMARK    1  A    between atoms: C2_2  and  C3_3 
REMARK    2  A    between atoms: C3_3  and  C4_4 
REMARK    3  A    between atoms: C4_4  and  O1_5 
REMARK    4  A    between atoms: O1_5  and  C5_6 
REMARK    5  A    between atoms: C5_6  and  C6_7 
REMARK    6  A    between atoms: C6_7  and  C7_8 
REMARK    7  A    between atoms: C7_8  and  N1_9 
REMARK    8  A    between atoms: N1_9  and  C8_11 
REMARK    9  A    between atoms: C8_11  and  O2_12 
REMARK   10  A    between atoms: C9_14  and  C10_15 
REMARK   11  A    between atoms: C10_15  and  C11_16 
REMARK   12  A    between atoms: C11_16  and  C12_17 
REMARK   13  A    between atoms: C12_17  and  C13_18 
REMARK   14  A    between atoms: C15_20  and  S1_21 
REMARK   15  A    between atoms: S1_21  and  N2_24 
REMARK   16  A    between atoms: N2_24  and  C16_26 
REMARK   17  A    between atoms: C20_30  and  O5_31 
REMARK   18  A    between atoms: C21_33  and  O6_34 
REMARK   19  A    between atoms: C22_36  and  O7_37 
ROOT
HETATM    1  C13 UNL     1       8.604  25.257   4.003  1.00  0.00    -0.029 C 
HETATM    2  C14 UNL     1       8.965  26.415   4.596  1.00  0.00     0.007 C 
HETATM    3  C15 UNL     1       9.104  27.688   3.908  1.00  0.00     0.183 C 
HETATM    4  C20 UNL     1       8.436  27.703   2.583  1.00  0.00     0.173 C 
HETATM    5  C21 UNL     1       8.898  26.470   1.844  1.00  0.00     0.181 C 
HETATM    6  C22 UNL     1       8.328  25.228   2.563  1.00  0.00     0.182 C 
ENDROOT
BRANCH   1   7
HETATM    7  C12 UNL     1       8.518  24.106   4.840  1.00  0.00     0.009 C 
BRANCH   7   8
HETATM    8  C11 UNL     1       7.759  23.751   5.806  1.00  0.00     0.001 C 
BRANCH   8   9
HETATM    9  C10 UNL     1       6.416  23.311   5.931  1.00  0.00     0.004 C 
BRANCH   9  10
HETATM   10  C9  UNL     1       5.289  23.740   5.455  1.00  0.00     0.055 C 
HETATM   11  C8  UNL     1       3.940  23.321   5.499  1.00  0.00     0.135 C 
BRANCH  11  12
HETATM   12  N1  UNL     1       3.331  22.246   6.105  1.00  0.00    -0.371 N 
ATOM     13  H1  UNL     1       2.655  21.744   5.528  1.00  0.00     0.161 HD
BRANCH  12  14
HETATM   14  C7  UNL     1       3.509  21.737   7.411  1.00  0.00     0.123 C 
BRANCH  14  15
HETATM   15  C6  UNL     1       2.406  21.701   8.376  1.00  0.00     0.046 C 
BRANCH  15  16
HETATM   16  C5  UNL     1       1.071  21.339   7.927  1.00  0.00     0.169 C 
BRANCH  16  17
HETATM   17  O1  UNL     1       0.604  22.111   6.830  1.00  0.00    -0.391 OA
BRANCH  17  18
HETATM   18  C4  UNL     1       0.023  23.291   7.172  1.00  0.00     0.167 C 
BRANCH  18  19
HETATM   19  C3  UNL     1      -1.168  22.975   8.103  1.00  0.00     0.026 C 
BRANCH  19  20
HETATM   20  C2  UNL     1      -2.363  22.629   7.227  1.00  0.00    -0.002 C 
HETATM   21  C1  UNL     1      -2.685  21.160   7.335  1.00  0.00     0.005 C 
ENDBRANCH  19  20
ENDBRANCH  18  19
ENDBRANCH  17  18
ENDBRANCH  16  17
ENDBRANCH  15  16
ENDBRANCH  14  15
ENDBRANCH  12  14
ENDBRANCH  11  12
BRANCH  11  22
HETATM   22  O2  UNL     1       3.145  24.144   4.819  1.00  0.00    -0.346 OA
ATOM     23  H2  UNL     1       2.414  23.744   4.364  1.00  0.00     0.219 HD
ENDBRANCH  11  22
ENDBRANCH   9  10
ENDBRANCH   8   9
ENDBRANCH   7   8
ENDBRANCH   1   7
BRANCH   6  24
HETATM   24  O7  UNL     1       6.957  25.185   2.367  1.00  0.00    -0.388 OA
ATOM     25  H7  UNL     1       6.777  24.798   1.519  1.00  0.00     0.210 HD
ENDBRANCH   6  24
BRANCH   3  26
HETATM   26  S1  UNL     1       8.532  29.021   4.957  1.00  0.00     0.236 S 
HETATM   27  O3  UNL     1       7.105  29.326   4.545  1.00  0.00    -0.205 OA
HETATM   28  O4  UNL     1       9.344  30.225   4.570  1.00  0.00    -0.205 OA
BRANCH  26  29
HETATM   29  N2  UNL     1       8.544  28.688   6.602  1.00  0.00    -0.314 N 
ATOM     30  H2  UNL     1       8.914  27.802   6.947  1.00  0.00     0.172 HD
BRANCH  29  31
HETATM   31  C16 UNL     1       8.036  29.651   7.505  1.00  0.00     0.092 C 
HETATM   32  C17 UNL     1       8.558  29.527   8.946  1.00  0.00     0.026 C 
HETATM   33  C18 UNL     1       7.154  29.860   9.403  1.00  0.00     0.004 C 
HETATM   34  C19 UNL     1       6.655  29.335   8.077  1.00  0.00     0.026 C 
ENDBRANCH  29  31
ENDBRANCH  26  29
ENDBRANCH   3  26
BRANCH   5  35
HETATM   35  O6  UNL     1      10.279  26.358   1.912  1.00  0.00    -0.390 OA
ATOM     36  H6  UNL     1      10.523  25.616   2.452  1.00  0.00     0.210 HD
ENDBRANCH   5  35
BRANCH   4  37
HETATM   37  O5  UNL     1       8.751  28.825   1.819  1.00  0.00    -0.391 OA
ATOM     38  H5  UNL     1       8.915  28.623   0.906  1.00  0.00     0.210 HD
ENDBRANCH   4  37
TORSDOF 19
ENDMDL
MODEL 3
REMARK VINA RESULT: -8.125889205      1.173      1.477
REMARK  19 active torsions:
REMARK  status: ('A' for Active; 'I' for Inactive)
REMARK    1  A    between atoms: C2_2  and  C3_3 
REMARK    2  A    between atoms: C3_3  and  C4_4 
REMARK    3  A    between atoms: C4_4  and  O1_5 
REMARK    4  A    between atoms: O1_5  and  C5_6 
REMARK    5  A    between atoms: C5_6  and  C6_7 
REMARK    6  A    between atoms: C6_7  and  C7_8 
REMARK    7  A    between atoms: C7_8  and  N1_9 
REMARK    8  A    between atoms: N1_9  and  C8_11 
REMARK    9  A    between atoms: C8_11  and  O2_12 
REMARK   10  A    between atoms: C9_14  and  C10_15 
REMARK   11  A    between atoms: C10_15  and  C11_16 
REMARK   12  A    between atoms: C11_16  and  C12_17 
REMARK   13  A    between atoms: C12_17  and  C13_18 
REMARK   14  A    between atoms: C15_20  and  S1_21 
REMARK   15  A    between atoms: S1_21  and  N2_24 
REMARK   16  A    between atoms: N2_24  and  C16_26 
REMARK   17  A    between atoms: C20_30  and  O5_31 
REMARK   18  A    between atoms: C21_33  and  O6_34 
REMARK   19  A    between atoms: C22_36  and  O7_37 
ROOT
HETATM    1  C13 UNL     1       7.518  25.302   4.866  1.00  0.00    -0.029 C 
HETATM    2  C14 UNL     1       7.947  26.438   5.455  1.00  0.00     0.007 C 
HETATM    3  C15 UNL     1       8.855  27.395   4.844  1.00  0.00     0.183 C 
HETATM    4  C20 UNL     1       8.962  27.229   3.374  1.00  0.00     0.173 C 
HETATM    5  C21 UNL     1       9.231  25.765   3.115  1.00  0.00     0.181 C 
HETATM    6  C22 UNL     1       7.976  24.960   3.516  1.00  0.00     0.182 C 
ENDROOT
BRANCH   1   7
HETATM    7  C12 UNL     1       6.626  24.484   5.621  1.00  0.00     0.009 C 
BRANCH   7   8
HETATM    8  C11 UNL     1       5.770  23.581   5.329  1.00  0.00     0.001 C 
BRANCH   8   9
HETATM    9  C10 UNL     1       4.399  23.352   5.616  1.00  0.00     0.004 C 
BRANCH   9  10
HETATM   10  C9  UNL     1       3.780  22.553   6.427  1.00  0.00     0.055 C 
HETATM   11  C8  UNL     1       2.436  22.182   6.662  1.00  0.00     0.135 C 
BRANCH  11  12
HETATM   12  N1  UNL     1       1.258  22.570   6.066  1.00  0.00    -0.371 N 
ATOM     13  H1  UNL     1       0.856  21.898   5.412  1.00  0.00     0.161 HD
BRANCH  12  14
HETATM   14  C7  UNL     1       0.526  23.767   6.230  1.00  0.00     0.123 C 
BRANCH  14  15
HETATM   15  C6  UNL     1      -0.770  23.784   6.915  1.00  0.00     0.046 C 
BRANCH  15  16
HETATM   16  C5  UNL     1      -0.933  23.053   8.162  1.00  0.00     0.169 C 
BRANCH  16  17
HETATM   17  O1  UNL     1      -0.744  21.652   8.035  1.00  0.00    -0.391 OA
BRANCH  17  18
HETATM   18  C4  UNL     1      -1.754  20.997   7.403  1.00  0.00     0.167 C 
BRANCH  18  19
HETATM   19  C3  UNL     1      -3.021  21.135   8.276  1.00  0.00     0.026 C 
BRANCH  19  20
HETATM   20  C2  UNL     1      -3.943  19.971   7.941  1.00  0.00    -0.002 C 
HETATM   21  C1  UNL     1      -4.644  19.483   9.183  1.00  0.00     0.005 C 
ENDBRANCH  19  20
ENDBRANCH  18  19
ENDBRANCH  17  18
ENDBRANCH  16  17
ENDBRANCH  15  16
ENDBRANCH  14  15
ENDBRANCH  12  14
ENDBRANCH  11  12
BRANCH  11  22
HETATM   22  O2  UNL     1       2.335  21.292   7.647  1.00  0.00    -0.346 OA
ATOM     23  H2  UNL     1       2.745  21.527   8.471  1.00  0.00     0.219 HD
ENDBRANCH  11  22
ENDBRANCH   9  10
ENDBRANCH   8   9
ENDBRANCH   7   8
ENDBRANCH   1   7
BRANCH   6  24
HETATM   24  O7  UNL     1       6.961  25.231   2.613  1.00  0.00    -0.388 OA
ATOM     25  H7  UNL     1       7.207  25.983   2.086  1.00  0.00     0.210 HD
ENDBRANCH   6  24
BRANCH   3  26
HETATM   26  S1  UNL     1       8.387  29.063   5.293  1.00  0.00     0.236 S 
HETATM   27  O3  UNL     1       6.976  29.279   4.780  1.00  0.00    -0.205 OA
HETATM   28  O4  UNL     1       9.268  29.970   4.482  1.00  0.00    -0.205 OA
BRANCH  26  29
HETATM   29  N2  UNL     1       8.402  29.388   6.940  1.00  0.00    -0.314 N 
ATOM     30  H2  UNL     1       9.172  29.913   7.356  1.00  0.00     0.172 HD
BRANCH  29  31
HETATM   31  C16 UNL     1       7.335  28.923   7.745  1.00  0.00     0.092 C 
HETATM   32  C17 UNL     1       6.257  29.973   8.059  1.00  0.00     0.026 C 
HETATM   33  C18 UNL     1       6.206  29.393   9.456  1.00  0.00     0.004 C 
HETATM   34  C19 UNL     1       7.620  28.903   9.246  1.00  0.00     0.026 C 
ENDBRANCH  29  31
ENDBRANCH  26  29
ENDBRANCH   3  26
BRANCH   5  35
HETATM   35  O6  UNL     1      10.259  25.315   3.930  1.00  0.00    -0.390 OA
ATOM     36  H6  UNL     1      10.510  24.432   3.686  1.00  0.00     0.210 HD
ENDBRANCH   5  35
BRANCH   4  37
HETATM   37  O5  UNL     1       9.991  27.978   2.807  1.00  0.00    -0.391 OA
ATOM     38  H5  UNL     1      10.379  27.567   2.044  1.00  0.00     0.210 HD
ENDBRANCH   4  37
TORSDOF 19
ENDMDL
MODEL 4
REMARK VINA RESULT: -8.116457892      1.634      2.119
REMARK  19 active torsions:
REMARK  status: ('A' for Active; 'I' for Inactive)
REMARK    1  A    between atoms: C2_2  and  C3_3 
REMARK    2  A    between atoms: C3_3  and  C4_4 
REMARK    3  A    between atoms: C4_4  and  O1_5 
REMARK    4  A    between atoms: O1_5  and  C5_6 
REMARK    5  A    between atoms: C5_6  and  C6_7 
REMARK    6  A    between atoms: C6_7  and  C7_8 
REMARK    7  A    between atoms: C7_8  and  N1_9 
REMARK    8  A    between atoms: N1_9  and  C8_11 
REMARK    9  A    between atoms: C8_11  and  O2_12 
REMARK   10  A    between atoms: C9_14  and  C10_15 
REMARK   11  A    between atoms: C10_15  and  C11_16 
REMARK   12  A    between atoms: C11_16  and  C12_17 
REMARK   13  A    between atoms: C12_17  and  C13_18 
REMARK   14  A    between atoms: C15_20  and  S1_21 
REMARK   15  A    between atoms: S1_21  and  N2_24 
REMARK   16  A    between atoms: N2_24  and  C16_26 
REMARK   17  A    between atoms: C20_30  and  O5_31 
REMARK   18  A    between atoms: C21_33  and  O6_34 
REMARK   19  A    between atoms: C22_36  and  O7_37 
ROOT
HETATM    1  C13 UNL     1       8.405  25.627   2.985  1.00  0.00    -0.029 C 
HETATM    2  C14 UNL     1       9.092  26.722   3.375  1.00  0.00     0.007 C 
HETATM    3  C15 UNL     1       9.599  27.744   2.474  1.00  0.00     0.183 C 
HETATM    4  C20 UNL     1       8.964  27.698   1.135  1.00  0.00     0.173 C 
HETATM    5  C21 UNL     1       9.041  26.267   0.660  1.00  0.00     0.181 C 
HETATM    6  C22 UNL     1       8.131  25.405   1.561  1.00  0.00     0.182 C 
ENDROOT
BRANCH   1   7
HETATM    7  C12 UNL     1       7.985  24.732   4.012  1.00  0.00     0.009 C 
BRANCH   7   8
HETATM    8  C11 UNL     1       7.051  24.739   4.885  1.00  0.00     0.001 C 
BRANCH   8   9
HETATM    9  C10 UNL     1       5.933  23.917   5.181  1.00  0.00     0.004 C 
BRANCH   9  10
HETATM   10  C9  UNL     1       4.653  24.070   5.044  1.00  0.00     0.055 C 
HETATM   11  C8  UNL     1       3.497  23.337   5.397  1.00  0.00     0.135 C 
BRANCH  11  12
HETATM   12  N1  UNL     1       3.335  22.135   6.048  1.00  0.00    -0.371 N 
ATOM     13  H1  UNL     1       3.022  21.360   5.463  1.00  0.00     0.161 HD
BRANCH  12  14
HETATM   14  C7  UNL     1       3.538  21.821   7.410  1.00  0.00     0.123 C 
BRANCH  14  15
HETATM   15  C6  UNL     1       2.412  21.628   8.328  1.00  0.00     0.046 C 
BRANCH  15  16
HETATM   16  C5  UNL     1       1.095  21.316   7.794  1.00  0.00     0.169 C 
BRANCH  16  17
HETATM   17  O1  UNL     1       0.563  22.328   6.952  1.00  0.00    -0.391 OA
BRANCH  17  18
HETATM   18  C4  UNL     1       0.088  23.421   7.606  1.00  0.00     0.167 C 
BRANCH  18  19
HETATM   19  C3  UNL     1      -1.407  23.569   7.250  1.00  0.00     0.026 C 
BRANCH  19  20
HETATM   20  C2  UNL     1      -2.214  22.877   8.340  1.00  0.00    -0.002 C 
HETATM   21  C1  UNL     1      -2.648  21.508   7.882  1.00  0.00     0.005 C 
ENDBRANCH  19  20
ENDBRANCH  18  19
ENDBRANCH  17  18
ENDBRANCH  16  17
ENDBRANCH  15  16
ENDBRANCH  14  15
ENDBRANCH  12  14
ENDBRANCH  11  12
BRANCH  11  22
HETATM   22  O2  UNL     1       2.384  23.956   5.011  1.00  0.00    -0.346 OA
ATOM     23  H2  UNL     1       1.615  23.818   5.552  1.00  0.00     0.219 HD
ENDBRANCH  11  22
ENDBRANCH   9  10
ENDBRANCH   8   9
ENDBRANCH   7   8
ENDBRANCH   1   7
BRANCH   6  24
HETATM   24  O7  UNL     1       6.808  25.724   1.302  1.00  0.00    -0.388 OA
ATOM     25  H7  UNL     1       6.702  25.870   0.369  1.00  0.00     0.210 HD
ENDBRANCH   6  24
BRANCH   3  26
HETATM   26  S1  UNL     1       9.448  29.360   3.229  1.00  0.00     0.236 S 
HETATM   27  O3  UNL     1       8.209  30.008   2.641  1.00  0.00    -0.205 OA
HETATM   28  O4  UNL     1      10.615  30.160   2.725  1.00  0.00    -0.205 OA
BRANCH  26  29
HETATM   29  N2  UNL     1       9.294  29.354   4.901  1.00  0.00    -0.314 N 
ATOM     30  H2  UNL     1      10.104  29.172   5.493  1.00  0.00     0.172 HD
BRANCH  29  31
HETATM   31  C16 UNL     1       8.026  29.604   5.478  1.00  0.00     0.092 C 
HETATM   32  C17 UNL     1       8.066  30.238   6.878  1.00  0.00     0.026 C 
HETATM   33  C18 UNL     1       6.910  29.331   7.240  1.00  0.00     0.004 C 
HETATM   34  C19 UNL     1       7.371  28.396   6.146  1.00  0.00     0.026 C 
ENDBRANCH  29  31
ENDBRANCH  26  29
ENDBRANCH   3  26
BRANCH   5  35
HETATM   35  O6  UNL     1      10.328  25.776   0.823  1.00  0.00    -0.390 OA
ATOM     36  H6  UNL     1      10.306  24.836   0.961  1.00  0.00     0.210 HD
ENDBRANCH   5  35
BRANCH   4  37
HETATM   37  O5  UNL     1       9.594  28.514   0.197  1.00  0.00    -0.391 OA
ATOM     38  H5  UNL     1      10.165  28.037  -0.393  1.00  0.00     0.210 HD
ENDBRANCH   4  37
TORSDOF 19
ENDMDL
MODEL 5
REMARK VINA RESULT: -8.106413429      1.469      1.767
REMARK  19 active torsions:
REMARK  status: ('A' for Active; 'I' for Inactive)
REMARK    1  A    between atoms: C2_2  and  C3_3 
REMARK    2  A    between atoms: C3_3  and  C4_4 
REMARK    3  A    between atoms: C4_4  and  O1_5 
REMARK    4  A    between atoms: O1_5  and  C5_6 
REMARK    5  A    between atoms: C5_6  and  C6_7 
REMARK    6  A    between atoms: C6_7  and  C7_8 
REMARK    7  A    between atoms: C7_8  and  N1_9 
REMARK    8  A    between atoms: N1_9  and  C8_11 
REMARK    9  A    between atoms: C8_11  and  O2_12 
REMARK   10  A    between atoms: C9_14  and  C10_15 
REMARK   11  A    between atoms: C10_15  and  C11_16 
REMARK   12  A    between atoms: C11_16  and  C12_17 
REMARK   13  A    between atoms: C12_17  and  C13_18 
REMARK   14  A    between atoms: C15_20  and  S1_21 
REMARK   15  A    between atoms: S1_21  and  N2_24 
REMARK   16  A    between atoms: N2_24  and  C16_26 
REMARK   17  A    between atoms: C20_30  and  O5_31 
REMARK   18  A    between atoms: C21_33  and  O6_34 
REMARK   19  A    between atoms: C22_36  and  O7_37 
ROOT
HETATM    1  C13 UNL     1       8.233  25.130   4.384  1.00  0.00    -0.029 C 
HETATM    2  C14 UNL     1       8.340  26.227   5.163  1.00  0.00     0.007 C 
HETATM    3  C15 UNL     1       8.760  27.537   4.694  1.00  0.00     0.183 C 
HETATM    4  C20 UNL     1       8.682  27.673   3.220  1.00  0.00     0.173 C 
HETATM    5  C21 UNL     1       9.387  26.474   2.629  1.00  0.00     0.181 C 
HETATM    6  C22 UNL     1       8.559  25.212   2.957  1.00  0.00     0.182 C 
ENDROOT
BRANCH   1   7
HETATM    7  C12 UNL     1       7.802  23.928   5.021  1.00  0.00     0.009 C 
BRANCH   7   8
HETATM    8  C11 UNL     1       6.875  23.632   5.849  1.00  0.00     0.001 C 
BRANCH   8   9
HETATM    9  C10 UNL     1       5.575  23.069   5.758  1.00  0.00     0.004 C 
BRANCH   9  10
HETATM   10  C9  UNL     1       4.410  23.559   5.470  1.00  0.00     0.055 C 
HETATM   11  C8  UNL     1       3.071  23.112   5.548  1.00  0.00     0.135 C 
BRANCH  11  12
HETATM   12  N1  UNL     1       2.521  21.928   5.985  1.00  0.00    -0.371 N 
ATOM     13  H1  UNL     1       1.956  21.429   5.298  1.00  0.00     0.161 HD
BRANCH  12  14
HETATM   14  C7  UNL     1       2.628  21.306   7.249  1.00  0.00     0.123 C 
BRANCH  14  15
HETATM   15  C6  UNL     1       1.597  21.477   8.276  1.00  0.00     0.046 C 
BRANCH  15  16
HETATM   16  C5  UNL     1       0.231  21.065   7.998  1.00  0.00     0.169 C 
BRANCH  16  17
HETATM   17  O1  UNL     1      -0.466  21.939   7.123  1.00  0.00    -0.391 OA
BRANCH  17  18
HETATM   18  C4  UNL     1      -1.770  22.146   7.446  1.00  0.00     0.167 C 
BRANCH  18  19
HETATM   19  C3  UNL     1      -2.545  20.849   7.125  1.00  0.00     0.026 C 
BRANCH  19  20
HETATM   20  C2  UNL     1      -3.590  20.651   8.213  1.00  0.00    -0.002 C 
HETATM   21  C1  UNL     1      -4.243  21.965   8.560  1.00  0.00     0.005 C 
ENDBRANCH  19  20
ENDBRANCH  18  19
ENDBRANCH  17  18
ENDBRANCH  16  17
ENDBRANCH  15  16
ENDBRANCH  14  15
ENDBRANCH  12  14
ENDBRANCH  11  12
BRANCH  11  22
HETATM   22  O2  UNL     1       2.217  24.033   5.107  1.00  0.00    -0.346 OA
ATOM     23  H2  UNL     1       1.893  24.650   5.752  1.00  0.00     0.219 HD
ENDBRANCH  11  22
ENDBRANCH   9  10
ENDBRANCH   8   9
ENDBRANCH   7   8
ENDBRANCH   1   7
BRANCH   6  24
HETATM   24  O7  UNL     1       7.382  25.244   2.226  1.00  0.00    -0.388 OA
ATOM     25  H7  UNL     1       6.975  24.387   2.257  1.00  0.00     0.210 HD
ENDBRANCH   6  24
BRANCH   3  26
HETATM   26  S1  UNL     1       7.833  28.818   5.532  1.00  0.00     0.236 S 
HETATM   27  O3  UNL     1       6.861  28.122   6.465  1.00  0.00    -0.205 OA
HETATM   28  O4  UNL     1       6.994  29.477   4.473  1.00  0.00    -0.205 OA
BRANCH  26  29
HETATM   29  N2  UNL     1       8.756  29.889   6.438  1.00  0.00    -0.314 N 
ATOM     30  H2  UNL     1       9.572  29.559   6.953  1.00  0.00     0.172 HD
BRANCH  29  31
HETATM   31  C16 UNL     1       8.388  31.255   6.477  1.00  0.00     0.092 C 
HETATM   32  C17 UNL     1       9.258  32.184   5.616  1.00  0.00     0.026 C 
HETATM   33  C18 UNL     1       9.171  33.189   6.745  1.00  0.00     0.004 C 
HETATM   34  C19 UNL     1       8.915  32.031   7.682  1.00  0.00     0.026 C 
ENDBRANCH  29  31
ENDBRANCH  26  29
ENDBRANCH   3  26
BRANCH   5  35
HETATM   35  O6  UNL     1      10.622  26.297   3.235  1.00  0.00    -0.390 OA
ATOM     36  H6  UNL     1      10.536  25.741   4.001  1.00  0.00     0.210 HD
ENDBRANCH   5  35
BRANCH   4  37
HETATM   37  O5  UNL     1       9.293  28.830   2.739  1.00  0.00    -0.391 OA
ATOM     38  H5  UNL     1      10.105  29.039   3.184  1.00  0.00     0.210 HD
ENDBRANCH   4  37
TORSDOF 19
ENDMDL
