MODEL 1
REMARK VINA RESULT: -9.234839337      0.000      0.000
REMARK  11 active torsions:
REMARK  status: ('A' for Active; 'I' for Inactive)
REMARK    1  A    between atoms: C3_5  and  C4_6 
REMARK    2  A    between atoms: C4_6  and  C5_7 
REMARK    3  A    between atoms: C11_13  and  C12_14 
REMARK    4  A    between atoms: C12_14  and  C13_15 
REMARK    5  A    between atoms: N2_19  and  C17_20 
REMARK    6  A    between atoms: C17_20  and  C18_21 
REMARK    7  A    between atoms: C20_23  and  C21_24 
REMARK    8  A    between atoms: C21_24  and  N3_25 
REMARK       I    between atoms: C22_27  and  N5_29 
REMARK    9  A    between atoms: C27_37  and  C28_38 
REMARK   10  A    between atoms: C28_38  and  C29_39 
REMARK   11  A    between atoms: C29_39  and  O1_40 
ROOT
HETATM    1  C5  UNL     1      22.336  29.939  15.726  1.00  0.00    -0.033 A 
HETATM    2  C6  UNL     1      22.898  29.020  16.563  1.00  0.00     0.014 A 
HETATM    3  C7  UNL     1      22.676  29.031  17.939  1.00  0.00     0.031 A 
HETATM    4  C8  UNL     1      21.876  29.973  18.528  1.00  0.00     0.045 A 
HETATM    5  C9  UNL     1      21.298  30.917  17.673  1.00  0.00    -0.002 A 
HETATM    6  C10 UNL     1      21.533  30.889  16.302  1.00  0.00     0.025 A 
HETATM    7  C11 UNL     1      20.493  31.901  18.175  1.00  0.00    -0.044 A 
HETATM    8  C15 UNL     1      20.272  31.931  19.542  1.00  0.00     0.025 A 
HETATM    9  C16 UNL     1      20.857  30.985  20.350  1.00  0.00     0.092 A 
HETATM   10  N2  UNL     1      21.665  29.997  19.848  1.00  0.00    -0.350 N 
ENDROOT
BRANCH  10  11
HETATM   11  C17 UNL     1      22.227  29.035  20.737  1.00  0.00     0.185 C 
BRANCH  11  12
HETATM   12  C18 UNL     1      21.140  28.124  21.201  1.00  0.00     0.028 A 
HETATM   13  C19 UNL     1      20.380  28.258  22.361  1.00  0.00     0.036 A 
HETATM   14  C20 UNL     1      19.493  27.211  22.433  1.00  0.00    -0.023 A 
HETATM   15  C24 UNL     1      19.704  26.439  21.330  1.00  0.00     0.097 A 
HETATM   16  N6  UNL     1      20.699  27.011  20.607  1.00  0.00    -0.367 N 
ATOM     17  H6  UNL     1      21.062  26.641  19.728  1.00  0.00     0.165 HD
BRANCH  14  18
HETATM   18  C21 UNL     1      18.483  26.935  23.493  1.00  0.00     0.162 C 
BRANCH  18  19
HETATM   19  N3  UNL     1      18.777  27.646  24.699  1.00  0.00    -0.360 N 
HETATM   20  C22 UNL     1      18.135  27.575  25.807  1.00  0.00     0.183 C 
HETATM   21  N4  UNL     1      16.998  26.750  26.008  1.00  0.00    -0.064 NA
HETATM   22  N5  UNL     1      18.603  28.372  26.884  1.00  0.00    -0.369 N 
HETATM   23  C23 UNL     1      18.297  29.784  26.870  1.00  0.00     0.148 C 
ATOM     24  H5  UNL     1      19.140  27.958  27.648  1.00  0.00     0.161 HD
ATOM     25  H3  UNL     1      19.580  28.274  24.675  1.00  0.00     0.162 HD
ENDBRANCH  18  19
ENDBRANCH  14  18
ENDBRANCH  11  12
ENDBRANCH  10  11
BRANCH   7  26
HETATM   26  C12 UNL     1      19.850  32.908  17.271  1.00  0.00     0.039 C 
BRANCH  26  27
HETATM   27  C13 UNL     1      18.623  33.528  17.854  1.00  0.00     0.000 C 
HETATM   28  C14 UNL     1      18.970  34.977  18.170  1.00  0.00     0.005 C 
ENDBRANCH  26  27
ENDBRANCH   7  26
BRANCH   1  29
HETATM   29  C4  UNL     1      22.590  29.892  14.297  1.00  0.00     0.041 C 
BRANCH  29  30
HETATM   30  C3  UNL     1      22.093  28.902  13.571  1.00  0.00     0.040 A 
HETATM   31  N1  UNL     1      20.836  28.731  13.138  1.00  0.00    -0.356 N 
HETATM   32  C2  UNL     1      20.724  27.600  12.428  1.00  0.00     0.030 A 
ATOM     33  H1  UNL     1      20.068  29.376  13.324  1.00  0.00     0.166 HD
HETATM   34  C1  UNL     1      19.646  27.113  11.849  1.00  0.00     0.043 C 
HETATM   35  C27 UNL     1      21.969  27.011  12.401  1.00  0.00    -0.022 A 
HETATM   36  C25 UNL     1      22.814  27.823  13.111  1.00  0.00    -0.027 A 
HETATM   37  C26 UNL     1      24.262  27.602  13.357  1.00  0.00     0.051 C 
BRANCH  35  38
HETATM   38  C28 UNL     1      22.303  25.713  11.715  1.00  0.00     0.067 C 
BRANCH  38  39
HETATM   39  C29 UNL     1      22.485  24.610  12.732  1.00  0.00     0.168 C 
BRANCH  39  40
HETATM   40  O1  UNL     1      21.389  24.517  13.566  1.00  0.00    -0.401 OA
ATOM     41  H1  UNL     1      20.959  25.359  13.661  1.00  0.00     0.209 HD
ENDBRANCH  39  40
ENDBRANCH  38  39
ENDBRANCH  35  38
ENDBRANCH  29  30
ENDBRANCH   1  29
TORSDOF 11
ENDMDL
MODEL 2
REMARK VINA RESULT: -8.665664470      1.252      1.675
REMARK  11 active torsions:
REMARK  status: ('A' for Active; 'I' for Inactive)
REMARK    1  A    between atoms: C3_5  and  C4_6 
REMARK    2  A    between atoms: C4_6  and  C5_7 
REMARK    3  A    between atoms: C11_13  and  C12_14 
REMARK    4  A    between atoms: C12_14  and  C13_15 
REMARK    5  A    between atoms: N2_19  and  C17_20 
REMARK    6  A    between atoms: C17_20  and  C18_21 
REMARK    7  A    between atoms: C20_23  and  C21_24 
REMARK    8  A    between atoms: C21_24  and  N3_25 
REMARK       I    between atoms: C22_27  and  N5_29 
REMARK    9  A    between atoms: C27_37  and  C28_38 
REMARK   10  A    between atoms: C28_38  and  C29_39 
REMARK   11  A    between atoms: C29_39  and  O1_40 
ROOT
HETATM    1  C5  UNL     1      22.741  29.369  16.555  1.00  0.00    -0.033 A 
HETATM    2  C6  UNL     1      23.212  28.569  17.556  1.00  0.00     0.014 A 
HETATM    3  C7  UNL     1      22.846  28.749  18.888  1.00  0.00     0.031 A 
HETATM    4  C8  UNL     1      21.986  29.745  19.268  1.00  0.00     0.045 A 
HETATM    5  C9  UNL     1      21.500  30.566  18.245  1.00  0.00    -0.002 A 
HETATM    6  C10 UNL     1      21.879  30.371  16.921  1.00  0.00     0.025 A 
HETATM    7  C11 UNL     1      20.645  31.593  18.532  1.00  0.00    -0.044 A 
HETATM    8  C15 UNL     1      20.281  31.789  19.855  1.00  0.00     0.025 A 
HETATM    9  C16 UNL     1      20.779  30.961  20.832  1.00  0.00     0.092 A 
HETATM   10  N2  UNL     1      21.637  29.930  20.545  1.00  0.00    -0.350 N 
ENDROOT
BRANCH  10  11
HETATM   11  C17 UNL     1      22.105  29.095  21.601  1.00  0.00     0.185 C 
BRANCH  11  12
HETATM   12  C18 UNL     1      21.007  28.161  21.989  1.00  0.00     0.028 A 
HETATM   13  C19 UNL     1      20.213  28.239  23.132  1.00  0.00     0.036 A 
HETATM   14  C20 UNL     1      19.328  27.188  23.129  1.00  0.00    -0.023 A 
HETATM   15  C24 UNL     1      19.574  26.470  21.997  1.00  0.00     0.097 A 
HETATM   16  N6  UNL     1      20.587  27.077  21.332  1.00  0.00    -0.367 N 
ATOM     17  H6  UNL     1      20.977  26.749  20.447  1.00  0.00     0.165 HD
BRANCH  14  18
HETATM   18  C21 UNL     1      18.288  26.861  24.144  1.00  0.00     0.162 C 
BRANCH  18  19
HETATM   19  N3  UNL     1      18.490  27.588  25.358  1.00  0.00    -0.360 N 
HETATM   20  C22 UNL     1      17.581  28.069  26.125  1.00  0.00     0.183 C 
HETATM   21  N4  UNL     1      16.190  27.945  25.872  1.00  0.00    -0.064 NA
HETATM   22  N5  UNL     1      18.007  28.760  27.289  1.00  0.00    -0.369 N 
HETATM   23  C23 UNL     1      18.505  30.108  27.137  1.00  0.00     0.148 C 
ATOM     24  H5  UNL     1      17.963  28.317  28.207  1.00  0.00     0.161 HD
ATOM     25  H3  UNL     1      19.457  27.740  25.645  1.00  0.00     0.162 HD
ENDBRANCH  18  19
ENDBRANCH  14  18
ENDBRANCH  11  12
ENDBRANCH  10  11
BRANCH   7  26
HETATM   26  C12 UNL     1      20.099  32.469  17.447  1.00  0.00     0.039 C 
BRANCH  26  27
HETATM   27  C13 UNL     1      18.817  33.139  17.817  1.00  0.00     0.000 C 
HETATM   28  C14 UNL     1      19.156  34.585  18.152  1.00  0.00     0.005 C 
ENDBRANCH  26  27
ENDBRANCH   7  26
BRANCH   1  29
HETATM   29  C4  UNL     1      23.144  29.148  15.178  1.00  0.00     0.041 C 
BRANCH  29  30
HETATM   30  C3  UNL     1      22.858  27.999  14.583  1.00  0.00     0.040 A 
HETATM   31  N1  UNL     1      23.256  26.763  14.914  1.00  0.00    -0.356 N 
HETATM   32  C2  UNL     1      22.755  25.856  14.066  1.00  0.00     0.030 A 
ATOM     33  H1  UNL     1      23.860  26.544  15.706  1.00  0.00     0.166 HD
HETATM   34  C1  UNL     1      22.930  24.550  14.083  1.00  0.00     0.043 C 
HETATM   35  C27 UNL     1      21.995  26.537  13.142  1.00  0.00    -0.022 A 
HETATM   36  C25 UNL     1      22.062  27.866  13.467  1.00  0.00    -0.027 A 
HETATM   37  C26 UNL     1      21.402  28.991  12.757  1.00  0.00     0.051 C 
BRANCH  35  38
HETATM   38  C28 UNL     1      21.249  25.910  11.995  1.00  0.00     0.067 C 
BRANCH  38  39
HETATM   39  C29 UNL     1      19.773  25.829  12.307  1.00  0.00     0.168 C 
BRANCH  39  40
HETATM   40  O1  UNL     1      19.036  26.598  11.429  1.00  0.00    -0.401 OA
ATOM     41  H1  UNL     1      19.148  27.524  11.608  1.00  0.00     0.209 HD
ENDBRANCH  39  40
ENDBRANCH  38  39
ENDBRANCH  35  38
ENDBRANCH  29  30
ENDBRANCH   1  29
TORSDOF 11
ENDMDL
MODEL 3
REMARK VINA RESULT: -8.551722422      4.796      6.888
REMARK  11 active torsions:
REMARK  status: ('A' for Active; 'I' for Inactive)
REMARK    1  A    between atoms: C3_5  and  C4_6 
REMARK    2  A    between atoms: C4_6  and  C5_7 
REMARK    3  A    between atoms: C11_13  and  C12_14 
REMARK    4  A    between atoms: C12_14  and  C13_15 
REMARK    5  A    between atoms: N2_19  and  C17_20 
REMARK    6  A    between atoms: C17_20  and  C18_21 
REMARK    7  A    between atoms: C20_23  and  C21_24 
REMARK    8  A    between atoms: C21_24  and  N3_25 
REMARK       I    between atoms: C22_27  and  N5_29 
REMARK    9  A    between atoms: C27_37  and  C28_38 
REMARK   10  A    between atoms: C28_38  and  C29_39 
REMARK   11  A    between atoms: C29_39  and  O1_40 
ROOT
HETATM    1  C5  UNL     1      19.556  33.651  18.604  1.00  0.00    -0.033 A 
HETATM    2  C6  UNL     1      19.218  32.420  18.123  1.00  0.00     0.014 A 
HETATM    3  C7  UNL     1      19.860  31.256  18.540  1.00  0.00     0.031 A 
HETATM    4  C8  UNL     1      20.873  31.285  19.461  1.00  0.00     0.045 A 
HETATM    5  C9  UNL     1      21.223  32.546  19.956  1.00  0.00    -0.002 A 
HETATM    6  C10 UNL     1      20.569  33.697  19.526  1.00  0.00     0.025 A 
HETATM    7  C11 UNL     1      22.229  32.673  20.871  1.00  0.00    -0.044 A 
HETATM    8  C15 UNL     1      22.884  31.525  21.286  1.00  0.00     0.025 A 
HETATM    9  C16 UNL     1      22.511  30.303  20.778  1.00  0.00     0.092 A 
HETATM   10  N2  UNL     1      21.501  30.174  19.859  1.00  0.00    -0.350 N 
ENDROOT
BRANCH  10  11
HETATM   11  C17 UNL     1      21.150  28.877  19.383  1.00  0.00     0.185 C 
BRANCH  11  12
HETATM   12  C18 UNL     1      20.416  28.157  20.465  1.00  0.00     0.028 A 
HETATM   13  C19 UNL     1      20.679  28.217  21.833  1.00  0.00     0.036 A 
HETATM   14  C20 UNL     1      19.790  27.402  22.491  1.00  0.00    -0.023 A 
HETATM   15  C24 UNL     1      18.988  26.845  21.541  1.00  0.00     0.097 A 
HETATM   16  N6  UNL     1      19.386  27.316  20.333  1.00  0.00    -0.367 N 
ATOM     17  H6  UNL     1      18.958  27.062  19.443  1.00  0.00     0.165 HD
BRANCH  14  18
HETATM   18  C21 UNL     1      19.690  27.149  23.955  1.00  0.00     0.162 C 
BRANCH  18  19
HETATM   19  N3  UNL     1      18.503  27.722  24.510  1.00  0.00    -0.360 N 
HETATM   20  C22 UNL     1      18.371  28.231  25.679  1.00  0.00     0.183 C 
HETATM   21  N4  UNL     1      19.422  28.304  26.631  1.00  0.00    -0.064 NA
HETATM   22  N5  UNL     1      17.096  28.748  26.026  1.00  0.00    -0.369 N 
HETATM   23  C23 UNL     1      16.055  27.812  26.384  1.00  0.00     0.148 C 
ATOM     24  H5  UNL     1      16.919  29.754  26.022  1.00  0.00     0.161 HD
ATOM     25  H3  UNL     1      17.676  27.727  23.913  1.00  0.00     0.162 HD
ENDBRANCH  18  19
ENDBRANCH  14  18
ENDBRANCH  11  12
ENDBRANCH  10  11
BRANCH   7  26
HETATM   26  C12 UNL     1      22.603  34.013  21.427  1.00  0.00     0.039 C 
BRANCH  26  27
HETATM   27  C13 UNL     1      24.058  34.322  21.299  1.00  0.00     0.000 C 
HETATM   28  C14 UNL     1      24.471  35.038  22.578  1.00  0.00     0.005 C 
ENDBRANCH  26  27
ENDBRANCH   7  26
BRANCH   1  29
HETATM   29  C4  UNL     1      18.861  34.842  18.146  1.00  0.00     0.041 C 
BRANCH  29  30
HETATM   30  C3  UNL     1      19.401  35.600  17.204  1.00  0.00     0.040 A 
HETATM   31  N1  UNL     1      20.590  35.464  16.600  1.00  0.00    -0.356 N 
HETATM   32  C2  UNL     1      20.781  36.434  15.696  1.00  0.00     0.030 A 
ATOM     33  H1  UNL     1      21.260  34.722  16.803  1.00  0.00     0.166 HD
HETATM   34  C1  UNL     1      21.826  36.617  14.915  1.00  0.00     0.043 C 
HETATM   35  C27 UNL     1      19.661  37.235  15.715  1.00  0.00    -0.022 A 
HETATM   36  C25 UNL     1      18.808  36.713  16.652  1.00  0.00    -0.027 A 
HETATM   37  C26 UNL     1      17.470  37.237  17.027  1.00  0.00     0.051 C 
BRANCH  35  38
HETATM   38  C28 UNL     1      19.447  38.454  14.858  1.00  0.00     0.067 C 
BRANCH  38  39
HETATM   39  C29 UNL     1      19.934  39.694  15.571  1.00  0.00     0.168 C 
BRANCH  39  40
HETATM   40  O1  UNL     1      18.928  40.260  16.328  1.00  0.00    -0.401 OA
ATOM     41  H1  UNL     1      18.516  39.613  16.889  1.00  0.00     0.209 HD
ENDBRANCH  39  40
ENDBRANCH  38  39
ENDBRANCH  35  38
ENDBRANCH  29  30
ENDBRANCH   1  29
TORSDOF 11
ENDMDL
MODEL 4
REMARK VINA RESULT: -8.533031916      5.345     10.345
REMARK  11 active torsions:
REMARK  status: ('A' for Active; 'I' for Inactive)
REMARK    1  A    between atoms: C3_5  and  C4_6 
REMARK    2  A    between atoms: C4_6  and  C5_7 
REMARK    3  A    between atoms: C11_13  and  C12_14 
REMARK    4  A    between atoms: C12_14  and  C13_15 
REMARK    5  A    between atoms: N2_19  and  C17_20 
REMARK    6  A    between atoms: C17_20  and  C18_21 
REMARK    7  A    between atoms: C20_23  and  C21_24 
REMARK    8  A    between atoms: C21_24  and  N3_25 
REMARK       I    between atoms: C22_27  and  N5_29 
REMARK    9  A    between atoms: C27_37  and  C28_38 
REMARK   10  A    between atoms: C28_38  and  C29_39 
REMARK   11  A    between atoms: C29_39  and  O1_40 
ROOT
HETATM    1  C5  UNL     1      21.163  27.918  23.262  1.00  0.00    -0.033 A 
HETATM    2  C6  UNL     1      21.017  28.584  22.080  1.00  0.00     0.014 A 
HETATM    3  C7  UNL     1      22.024  29.383  21.546  1.00  0.00     0.031 A 
HETATM    4  C8  UNL     1      23.225  29.546  22.183  1.00  0.00     0.045 A 
HETATM    5  C9  UNL     1      23.379  28.866  23.396  1.00  0.00    -0.002 A 
HETATM    6  C10 UNL     1      22.360  28.072  23.913  1.00  0.00     0.025 A 
HETATM    7  C11 UNL     1      24.541  28.977  24.107  1.00  0.00    -0.044 A 
HETATM    8  C15 UNL     1      25.547  29.778  23.593  1.00  0.00     0.025 A 
HETATM    9  C16 UNL     1      25.359  30.431  22.398  1.00  0.00     0.092 A 
HETATM   10  N2  UNL     1      24.194  30.319  21.683  1.00  0.00    -0.350 N 
ENDROOT
BRANCH  10  11
HETATM   11  C17 UNL     1      24.068  31.007  20.440  1.00  0.00     0.185 C 
BRANCH  11  12
HETATM   12  C18 UNL     1      23.052  32.088  20.598  1.00  0.00     0.028 A 
HETATM   13  C19 UNL     1      22.121  32.502  19.646  1.00  0.00     0.036 A 
HETATM   14  C20 UNL     1      21.376  33.529  20.172  1.00  0.00    -0.023 A 
HETATM   15  C24 UNL     1      21.842  33.748  21.434  1.00  0.00     0.097 A 
HETATM   16  N6  UNL     1      22.848  32.868  21.663  1.00  0.00    -0.367 N 
ATOM     17  H6  UNL     1      23.379  32.810  22.533  1.00  0.00     0.165 HD
BRANCH  14  18
HETATM   18  C21 UNL     1      20.268  34.284  19.523  1.00  0.00     0.162 C 
BRANCH  18  19
HETATM   19  N3  UNL     1      20.698  34.919  18.316  1.00  0.00    -0.360 N 
HETATM   20  C22 UNL     1      20.425  34.554  17.118  1.00  0.00     0.183 C 
HETATM   21  N4  UNL     1      19.626  33.424  16.801  1.00  0.00    -0.064 NA
HETATM   22  N5  UNL     1      20.959  35.335  16.060  1.00  0.00    -0.369 N 
HETATM   23  C23 UNL     1      22.355  35.167  15.726  1.00  0.00     0.148 C 
ATOM     24  H5  UNL     1      20.373  35.996  15.549  1.00  0.00     0.161 HD
ATOM     25  H3  UNL     1      21.283  35.748  18.419  1.00  0.00     0.162 HD
ENDBRANCH  18  19
ENDBRANCH  14  18
ENDBRANCH  11  12
ENDBRANCH  10  11
BRANCH   7  26
HETATM   26  C12 UNL     1      24.730  28.239  25.397  1.00  0.00     0.039 C 
BRANCH  26  27
HETATM   27  C13 UNL     1      25.854  27.258  25.358  1.00  0.00     0.000 C 
HETATM   28  C14 UNL     1      25.436  26.148  24.402  1.00  0.00     0.005 C 
ENDBRANCH  26  27
ENDBRANCH   7  26
BRANCH   1  29
HETATM   29  C4  UNL     1      20.089  27.092  23.785  1.00  0.00     0.041 C 
BRANCH  29  30
HETATM   30  C3  UNL     1      19.278  27.574  24.714  1.00  0.00     0.040 A 
HETATM   31  N1  UNL     1      19.512  28.548  25.605  1.00  0.00    -0.356 N 
HETATM   32  C2  UNL     1      18.440  28.753  26.382  1.00  0.00     0.030 A 
ATOM     33  H1  UNL     1      20.388  29.065  25.680  1.00  0.00     0.166 HD
HETATM   34  C1  UNL     1      18.305  29.627  27.359  1.00  0.00     0.043 C 
HETATM   35  C27 UNL     1      17.466  27.868  25.975  1.00  0.00    -0.022 A 
HETATM   36  C25 UNL     1      17.991  27.140  24.940  1.00  0.00    -0.027 A 
HETATM   37  C26 UNL     1      17.312  26.062  24.176  1.00  0.00     0.051 C 
BRANCH  35  38
HETATM   38  C28 UNL     1      16.093  27.745  26.580  1.00  0.00     0.067 C 
BRANCH  38  39
HETATM   39  C29 UNL     1      15.169  28.797  26.012  1.00  0.00     0.168 C 
BRANCH  39  40
HETATM   40  O1  UNL     1      14.690  28.421  24.773  1.00  0.00    -0.401 OA
ATOM     41  H1  UNL     1      15.003  29.005  24.093  1.00  0.00     0.209 HD
ENDBRANCH  39  40
ENDBRANCH  38  39
ENDBRANCH  35  38
ENDBRANCH  29  30
ENDBRANCH   1  29
TORSDOF 11
ENDMDL
MODEL 5
REMARK VINA RESULT: -8.506524041      3.331      9.049
REMARK  11 active torsions:
REMARK  status: ('A' for Active; 'I' for Inactive)
REMARK    1  A    between atoms: C3_5  and  C4_6 
REMARK    2  A    between atoms: C4_6  and  C5_7 
REMARK    3  A    between atoms: C11_13  and  C12_14 
REMARK    4  A    between atoms: C12_14  and  C13_15 
REMARK    5  A    between atoms: N2_19  and  C17_20 
REMARK    6  A    between atoms: C17_20  and  C18_21 
REMARK    7  A    between atoms: C20_23  and  C21_24 
REMARK    8  A    between atoms: C21_24  and  N3_25 
REMARK       I    between atoms: C22_27  and  N5_29 
REMARK    9  A    between atoms: C27_37  and  C28_38 
REMARK   10  A    between atoms: C28_38  and  C29_39 
REMARK   11  A    between atoms: C29_39  and  O1_40 
ROOT
HETATM    1  C5  UNL     1      21.019  29.729  19.701  1.00  0.00    -0.033 A 
HETATM    2  C6  UNL     1      22.059  29.216  18.981  1.00  0.00     0.014 A 
HETATM    3  C7  UNL     1      22.416  29.715  17.731  1.00  0.00     0.031 A 
HETATM    4  C8  UNL     1      21.739  30.756  17.153  1.00  0.00     0.045 A 
HETATM    5  C9  UNL     1      20.673  31.285  17.888  1.00  0.00    -0.002 A 
HETATM    6  C10 UNL     1      20.331  30.771  19.135  1.00  0.00     0.025 A 
HETATM    7  C11 UNL     1      19.934  32.318  17.385  1.00  0.00    -0.044 A 
HETATM    8  C15 UNL     1      20.272  32.817  16.138  1.00  0.00     0.025 A 
HETATM    9  C16 UNL     1      21.327  32.271  15.446  1.00  0.00     0.092 A 
HETATM   10  N2  UNL     1      22.070  31.234  15.949  1.00  0.00    -0.350 N 
ENDROOT
BRANCH  10  11
HETATM   11  C17 UNL     1      23.164  30.724  15.190  1.00  0.00     0.185 C 
BRANCH  11  12
HETATM   12  C18 UNL     1      22.624  30.053  13.972  1.00  0.00     0.028 A 
HETATM   13  C19 UNL     1      21.871  28.880  13.931  1.00  0.00     0.036 A 
HETATM   14  C20 UNL     1      21.579  28.587  12.621  1.00  0.00    -0.023 A 
HETATM   15  C24 UNL     1      22.144  29.567  11.862  1.00  0.00     0.097 A 
HETATM   16  N6  UNL     1      22.765  30.435  12.699  1.00  0.00    -0.367 N 
ATOM     17  H6  UNL     1      23.273  31.267  12.398  1.00  0.00     0.165 HD
BRANCH  14  18
HETATM   18  C21 UNL     1      20.800  27.432  12.092  1.00  0.00     0.162 C 
BRANCH  18  19
HETATM   19  N3  UNL     1      21.495  26.197  12.278  1.00  0.00    -0.360 N 
HETATM   20  C22 UNL     1      21.265  25.315  13.180  1.00  0.00     0.183 C 
HETATM   21  N4  UNL     1      20.248  25.441  14.163  1.00  0.00    -0.064 NA
HETATM   22  N5  UNL     1      22.080  24.154  13.182  1.00  0.00    -0.369 N 
HETATM   23  C23 UNL     1      23.419  24.262  13.717  1.00  0.00     0.148 C 
ATOM     24  H5  UNL     1      21.732  23.268  12.815  1.00  0.00     0.161 HD
ATOM     25  H3  UNL     1      22.253  25.996  11.626  1.00  0.00     0.162 HD
ENDBRANCH  18  19
ENDBRANCH  14  18
ENDBRANCH  11  12
ENDBRANCH  10  11
BRANCH   7  26
HETATM   26  C12 UNL     1      18.802  32.910  18.168  1.00  0.00     0.039 C 
BRANCH  26  27
HETATM   27  C13 UNL     1      18.939  34.381  18.386  1.00  0.00     0.000 C 
HETATM   28  C14 UNL     1      20.162  34.582  19.271  1.00  0.00     0.005 C 
ENDBRANCH  26  27
ENDBRANCH   7  26
BRANCH   1  29
HETATM   29  C4  UNL     1      20.679  29.183  21.004  1.00  0.00     0.041 C 
BRANCH  29  30
HETATM   30  C3  UNL     1      21.617  29.052  21.930  1.00  0.00     0.040 A 
HETATM   31  N1  UNL     1      22.730  29.779  22.101  1.00  0.00    -0.356 N 
HETATM   32  C2  UNL     1      23.431  29.339  23.154  1.00  0.00     0.030 A 
ATOM     33  H1  UNL     1      23.007  30.561  21.507  1.00  0.00     0.166 HD
HETATM   34  C1  UNL     1      24.570  29.809  23.621  1.00  0.00     0.043 C 
HETATM   35  C27 UNL     1      22.737  28.277  23.691  1.00  0.00    -0.022 A 
HETATM   36  C25 UNL     1      21.612  28.105  22.928  1.00  0.00    -0.027 A 
HETATM   37  C26 UNL     1      20.555  27.080  23.121  1.00  0.00     0.051 C 
BRANCH  35  38
HETATM   38  C28 UNL     1      23.165  27.473  24.890  1.00  0.00     0.067 C 
BRANCH  38  39
HETATM   39  C29 UNL     1      24.345  26.595  24.543  1.00  0.00     0.168 C 
BRANCH  39  40
HETATM   40  O1  UNL     1      24.859  25.984  25.669  1.00  0.00    -0.401 OA
ATOM     41  H1  UNL     1      24.863  25.039  25.574  1.00  0.00     0.209 HD
ENDBRANCH  39  40
ENDBRANCH  38  39
ENDBRANCH  35  38
ENDBRANCH  29  30
ENDBRANCH   1  29
TORSDOF 11
ENDMDL
