MODEL 1
REMARK VINA RESULT: -8.651668828      0.000      0.000
REMARK  16 active torsions:
REMARK  status: ('A' for Active; 'I' for Inactive)
REMARK    1  A    between atoms: C2_2  and  C5_5 
REMARK       I    between atoms: C5_5  and  N1_7 
REMARK    2  A    between atoms: N1_7  and  C6_9 
REMARK    3  A    between atoms: N2_11  and  C8_12 
REMARK    4  A    between atoms: C8_12  and  C9_13 
REMARK       I    between atoms: C9_13  and  N3_15 
REMARK    5  A    between atoms: N3_15  and  C10_17 
REMARK    6  A    between atoms: C10_17  and  C11_18 
REMARK    7  A    between atoms: C11_18  and  C12_19 
REMARK    8  A    between atoms: C12_19  and  C13_20 
REMARK    9  A    between atoms: C13_20  and  C14_21 
REMARK   10  A    between atoms: C14_21  and  C15_22 
REMARK   11  A    between atoms: C15_22  and  C16_23 
REMARK   12  A    between atoms: C16_23  and  C17_24 
REMARK   13  A    between atoms: C17_24  and  C18_25 
REMARK   14  A    between atoms: C18_25  and  C19_26 
REMARK   15  A    between atoms: C19_26  and  N4_27 
REMARK       I    between atoms: N4_27  and  C20_29 
REMARK       I    between atoms: C20_29  and  N6_33 
REMARK   16  A    between atoms: N6_33  and  N7_35 
ROOT
HETATM    1  C10 UNL     1       6.980  23.834   4.860  1.00  0.00     0.123 C 
ENDROOT
BRANCH   1   2
HETATM    2  N3  UNL     1       8.099  24.707   4.714  1.00  0.00    -0.360 N 
HETATM    3  C9  UNL     1       8.043  26.052   5.106  1.00  0.00     0.235 C 
HETATM    4  O2  UNL     1       7.000  26.528   5.592  1.00  0.00    -0.272 OA
ATOM      5  H3  UNL     1       8.963  24.342   4.313  1.00  0.00     0.162 HD
BRANCH   3   6
HETATM    6  C8  UNL     1       9.219  26.975   4.964  1.00  0.00     0.230 C 
BRANCH   6   7
HETATM    7  N2  UNL     1       9.407  27.312   3.584  1.00  0.00    -0.353 N 
HETATM    8  C7  UNL     1      10.220  26.574   2.778  1.00  0.00     0.139 A 
HETATM    9  C6  UNL     1      10.429  26.864   1.448  1.00  0.00     0.123 A 
HETATM   10  N8  UNL     1       9.797  27.928   0.922  1.00  0.00    -0.350 N 
HETATM   11  C22 UNL     1       8.998  28.661   1.694  1.00  0.00     0.107 A 
ATOM     12  H8  UNL     1       9.929  28.172  -0.060  1.00  0.00     0.166 HD
HETATM   13  C21 UNL     1       8.795  28.364   3.021  1.00  0.00     0.108 A 
BRANCH   9  14
HETATM   14  N1  UNL     1      11.209  26.116   0.772  1.00  0.00    -0.311 N 
HETATM   15  C5  UNL     1      11.610  26.491  -0.532  1.00  0.00     0.231 C 
HETATM   16  O1  UNL     1      12.420  27.438  -0.750  1.00  0.00    -0.272 OA
ATOM     17  H1  UNL     1      11.547  25.242   1.173  1.00  0.00     0.170 HD
BRANCH  15  18
HETATM   18  C2  UNL     1      11.030  25.710  -1.663  1.00  0.00     0.030 C 
HETATM   19  C1  UNL     1      12.141  25.435  -2.654  1.00  0.00     0.025 C 
HETATM   20  C3  UNL     1       9.901  26.506  -2.256  1.00  0.00     0.025 C 
HETATM   21  C4  UNL     1      10.442  24.382  -1.193  1.00  0.00     0.025 C 
ENDBRANCH  15  18
ENDBRANCH   9  14
ENDBRANCH   6   7
ENDBRANCH   3   6
ENDBRANCH   1   2
BRANCH   1  22
HETATM   22  C11 UNL     1       7.120  23.049   6.145  1.00  0.00     0.023 C 
BRANCH  22  23
HETATM   23  C12 UNL     1       5.821  22.308   6.329  1.00  0.00     0.028 C 
BRANCH  23  24
HETATM   24  C13 UNL     1       4.609  23.055   5.981  1.00  0.00    -0.031 C 
BRANCH  24  25
HETATM   25  C14 UNL     1       3.285  22.690   6.445  1.00  0.00    -0.031 C 
BRANCH  25  26
HETATM   26  C15 UNL     1       3.039  21.635   7.455  1.00  0.00     0.027 C 
BRANCH  26  27
HETATM   27  C16 UNL     1       2.395  21.968   8.722  1.00  0.00     0.004 C 
BRANCH  27  28
HETATM   28  C17 UNL     1       1.007  21.562   9.003  1.00  0.00     0.002 C 
BRANCH  28  29
HETATM   29  C18 UNL     1       0.186  20.987   7.950  1.00  0.00     0.020 C 
BRANCH  29  30
HETATM   30  C19 UNL     1      -0.632  21.812   7.053  1.00  0.00     0.138 C 
BRANCH  30  31
HETATM   31  N4  UNL     1      -0.866  23.095   7.798  1.00  0.00    -0.225 N 
HETATM   32  C20 UNL     1      -1.155  24.293   7.122  1.00  0.00     0.691 C 
HETATM   33  N5  UNL     1      -2.108  24.395   6.260  1.00  0.00    -0.233 N 
HETATM   34  N6  UNL     1      -0.367  25.440   7.397  1.00  0.00    -0.072 N 
ATOM     35  H52 UNL     1      -2.675  23.570   6.062  1.00  0.00     0.174 HD
ATOM     36  H51 UNL     1      -2.318  25.265   5.770  1.00  0.00     0.174 HD
ATOM     37  H6  UNL     1       0.650  25.389   7.334  1.00  0.00     0.212 HD
ATOM     38  H4  UNL     1      -0.815  23.097   8.817  1.00  0.00     0.177 HD
BRANCH  34  39
HETATM   39  N7  UNL     1      -0.982  26.632   7.754  1.00  0.00    -0.024 N 
HETATM   40  O3  UNL     1      -0.438  27.706   7.477  1.00  0.00    -0.516 OA
HETATM   41  O4  UNL     1      -2.173  26.613   8.402  1.00  0.00    -0.516 OA
ENDBRANCH  34  39
ENDBRANCH  30  31
ENDBRANCH  29  30
ENDBRANCH  28  29
ENDBRANCH  27  28
ENDBRANCH  26  27
ENDBRANCH  25  26
ENDBRANCH  24  25
ENDBRANCH  23  24
ENDBRANCH  22  23
ENDBRANCH   1  22
TORSDOF 16
ENDMDL
MODEL 2
REMARK VINA RESULT: -8.614378976      1.860      3.252
REMARK  16 active torsions:
REMARK  status: ('A' for Active; 'I' for Inactive)
REMARK    1  A    between atoms: C2_2  and  C5_5 
REMARK       I    between atoms: C5_5  and  N1_7 
REMARK    2  A    between atoms: N1_7  and  C6_9 
REMARK    3  A    between atoms: N2_11  and  C8_12 
REMARK    4  A    between atoms: C8_12  and  C9_13 
REMARK       I    between atoms: C9_13  and  N3_15 
REMARK    5  A    between atoms: N3_15  and  C10_17 
REMARK    6  A    between atoms: C10_17  and  C11_18 
REMARK    7  A    between atoms: C11_18  and  C12_19 
REMARK    8  A    between atoms: C12_19  and  C13_20 
REMARK    9  A    between atoms: C13_20  and  C14_21 
REMARK   10  A    between atoms: C14_21  and  C15_22 
REMARK   11  A    between atoms: C15_22  and  C16_23 
REMARK   12  A    between atoms: C16_23  and  C17_24 
REMARK   13  A    between atoms: C17_24  and  C18_25 
REMARK   14  A    between atoms: C18_25  and  C19_26 
REMARK   15  A    between atoms: C19_26  and  N4_27 
REMARK       I    between atoms: N4_27  and  C20_29 
REMARK       I    between atoms: C20_29  and  N6_33 
REMARK   16  A    between atoms: N6_33  and  N7_35 
ROOT
HETATM    1  C10 UNL     1       4.208  22.711   6.548  1.00  0.00     0.123 C 
ENDROOT
BRANCH   1   2
HETATM    2  N3  UNL     1       5.245  22.805   5.573  1.00  0.00    -0.360 N 
HETATM    3  C9  UNL     1       6.600  22.764   5.930  1.00  0.00     0.235 C 
HETATM    4  O2  UNL     1       6.939  22.650   7.123  1.00  0.00    -0.272 OA
ATOM      5  H3  UNL     1       4.993  22.904   4.590  1.00  0.00     0.162 HD
BRANCH   3   6
HETATM    6  C8  UNL     1       7.698  22.852   4.910  1.00  0.00     0.230 C 
BRANCH   6   7
HETATM    7  N2  UNL     1       8.076  24.222   4.722  1.00  0.00    -0.353 N 
HETATM    8  C7  UNL     1       9.136  24.566   3.939  1.00  0.00     0.139 A 
HETATM    9  C6  UNL     1       9.532  25.868   3.734  1.00  0.00     0.123 A 
HETATM   10  N8  UNL     1       8.836  26.848   4.338  1.00  0.00    -0.350 N 
HETATM   11  C22 UNL     1       7.796  26.532   5.107  1.00  0.00     0.107 A 
ATOM     12  H8  UNL     1       9.102  27.824   4.208  1.00  0.00     0.166 HD
HETATM   13  C21 UNL     1       7.408  25.228   5.306  1.00  0.00     0.108 A 
BRANCH   9  14
HETATM   14  N1  UNL     1      10.539  26.093   2.984  1.00  0.00    -0.311 N 
HETATM   15  C5  UNL     1      10.506  27.141   2.036  1.00  0.00     0.231 C 
HETATM   16  O1  UNL     1      10.552  28.362   2.367  1.00  0.00    -0.272 OA
ATOM     17  H1  UNL     1      11.373  25.513   3.070  1.00  0.00     0.170 HD
BRANCH  15  18
HETATM   18  C2  UNL     1      10.416  26.746   0.600  1.00  0.00     0.030 C 
HETATM   19  C1  UNL     1      11.824  26.663   0.053  1.00  0.00     0.025 C 
HETATM   20  C3  UNL     1       9.568  27.759  -0.116  1.00  0.00     0.025 C 
HETATM   21  C4  UNL     1       9.735  25.390   0.428  1.00  0.00     0.025 C 
ENDBRANCH  15  18
ENDBRANCH   9  14
ENDBRANCH   6   7
ENDBRANCH   3   6
ENDBRANCH   1   2
BRANCH   1  22
HETATM   22  C11 UNL     1       2.944  23.335   5.998  1.00  0.00     0.023 C 
BRANCH  22  23
HETATM   23  C12 UNL     1       1.958  23.363   7.138  1.00  0.00     0.028 C 
BRANCH  23  24
HETATM   24  C13 UNL     1       2.363  22.637   8.345  1.00  0.00    -0.031 C 
BRANCH  24  25
HETATM   25  C14 UNL     1       1.563  21.595   8.956  1.00  0.00    -0.031 C 
BRANCH  25  26
HETATM   26  C15 UNL     1       0.579  20.780   8.206  1.00  0.00     0.027 C 
BRANCH  26  27
HETATM   27  C16 UNL     1      -0.846  21.089   8.288  1.00  0.00     0.004 C 
BRANCH  27  28
HETATM   28  C17 UNL     1      -1.617  21.460   7.089  1.00  0.00     0.002 C 
BRANCH  28  29
HETATM   29  C18 UNL     1      -1.918  22.856   6.816  1.00  0.00     0.020 C 
BRANCH  29  30
HETATM   30  C19 UNL     1      -1.618  23.926   7.775  1.00  0.00     0.138 C 
BRANCH  30  31
HETATM   31  N4  UNL     1      -1.996  25.201   7.078  1.00  0.00    -0.225 N 
HETATM   32  C20 UNL     1      -1.485  26.443   7.492  1.00  0.00     0.691 C 
HETATM   33  N5  UNL     1      -0.223  26.667   7.628  1.00  0.00    -0.233 N 
HETATM   34  N6  UNL     1      -2.393  27.497   7.772  1.00  0.00    -0.072 N 
ATOM     35  H52 UNL     1       0.430  25.909   7.427  1.00  0.00     0.174 HD
ATOM     36  H51 UNL     1       0.147  27.569   7.929  1.00  0.00     0.174 HD
ATOM     37  H6  UNL     1      -3.165  27.347   8.422  1.00  0.00     0.212 HD
ATOM     38  H4  UNL     1      -2.639  25.165   6.286  1.00  0.00     0.177 HD
BRANCH  34  39
HETATM   39  N7  UNL     1      -2.229  28.731   7.160  1.00  0.00    -0.024 N 
HETATM   40  O3  UNL     1      -3.046  29.105   6.312  1.00  0.00    -0.516 OA
HETATM   41  O4  UNL     1      -1.177  29.520   7.494  1.00  0.00    -0.516 OA
ENDBRANCH  34  39
ENDBRANCH  30  31
ENDBRANCH  29  30
ENDBRANCH  28  29
ENDBRANCH  27  28
ENDBRANCH  26  27
ENDBRANCH  25  26
ENDBRANCH  24  25
ENDBRANCH  23  24
ENDBRANCH  22  23
ENDBRANCH   1  22
TORSDOF 16
ENDMDL
MODEL 3
REMARK VINA RESULT: -8.590225716      1.826      3.184
REMARK  16 active torsions:
REMARK  status: ('A' for Active; 'I' for Inactive)
REMARK    1  A    between atoms: C2_2  and  C5_5 
REMARK       I    between atoms: C5_5  and  N1_7 
REMARK    2  A    between atoms: N1_7  and  C6_9 
REMARK    3  A    between atoms: N2_11  and  C8_12 
REMARK    4  A    between atoms: C8_12  and  C9_13 
REMARK       I    between atoms: C9_13  and  N3_15 
REMARK    5  A    between atoms: N3_15  and  C10_17 
REMARK    6  A    between atoms: C10_17  and  C11_18 
REMARK    7  A    between atoms: C11_18  and  C12_19 
REMARK    8  A    between atoms: C12_19  and  C13_20 
REMARK    9  A    between atoms: C13_20  and  C14_21 
REMARK   10  A    between atoms: C14_21  and  C15_22 
REMARK   11  A    between atoms: C15_22  and  C16_23 
REMARK   12  A    between atoms: C16_23  and  C17_24 
REMARK   13  A    between atoms: C17_24  and  C18_25 
REMARK   14  A    between atoms: C18_25  and  C19_26 
REMARK   15  A    between atoms: C19_26  and  N4_27 
REMARK       I    between atoms: N4_27  and  C20_29 
REMARK       I    between atoms: C20_29  and  N6_33 
REMARK   16  A    between atoms: N6_33  and  N7_35 
ROOT
HETATM    1  C10 UNL     1       3.851  22.971   5.973  1.00  0.00     0.123 C 
ENDROOT
BRANCH   1   2
HETATM    2  N3  UNL     1       5.263  22.886   5.797  1.00  0.00    -0.360 N 
HETATM    3  C9  UNL     1       5.991  23.904   5.166  1.00  0.00     0.235 C 
HETATM    4  O2  UNL     1       5.416  24.919   4.730  1.00  0.00    -0.272 OA
ATOM      5  H3  UNL     1       5.757  22.062   6.140  1.00  0.00     0.162 HD
BRANCH   3   6
HETATM    6  C8  UNL     1       7.480  23.828   4.984  1.00  0.00     0.230 C 
BRANCH   6   7
HETATM    7  N2  UNL     1       7.948  25.008   4.318  1.00  0.00    -0.353 N 
HETATM    8  C7  UNL     1       8.000  25.084   2.959  1.00  0.00     0.139 A 
HETATM    9  C6  UNL     1       8.443  26.197   2.281  1.00  0.00     0.123 A 
HETATM   10  N8  UNL     1       8.844  27.261   2.999  1.00  0.00    -0.350 N 
HETATM   11  C22 UNL     1       8.800  27.207   4.329  1.00  0.00     0.107 A 
ATOM     12  H8  UNL     1       9.178  28.103   2.530  1.00  0.00     0.166 HD
HETATM   13  C21 UNL     1       8.355  26.091   4.997  1.00  0.00     0.108 A 
BRANCH   9  14
HETATM   14  N1  UNL     1       8.457  26.175   1.007  1.00  0.00    -0.311 N 
HETATM   15  C5  UNL     1       9.487  25.499   0.313  1.00  0.00     0.231 C 
HETATM   16  O1  UNL     1       9.572  24.237   0.279  1.00  0.00    -0.272 OA
ATOM     17  H1  UNL     1       7.720  26.648   0.484  1.00  0.00     0.170 HD
BRANCH  15  18
HETATM   18  C2  UNL     1      10.490  26.348  -0.394  1.00  0.00     0.030 C 
HETATM   19  C1  UNL     1       9.767  27.557  -0.948  1.00  0.00     0.025 C 
HETATM   20  C3  UNL     1      11.144  25.517  -1.462  1.00  0.00     0.025 C 
HETATM   21  C4  UNL     1      11.597  26.819   0.547  1.00  0.00     0.025 C 
ENDBRANCH  15  18
ENDBRANCH   9  14
ENDBRANCH   6   7
ENDBRANCH   3   6
ENDBRANCH   1   2
BRANCH   1  22
HETATM   22  C11 UNL     1       3.398  21.890   6.931  1.00  0.00     0.023 C 
BRANCH  22  23
HETATM   23  C12 UNL     1       2.710  22.597   8.069  1.00  0.00     0.028 C 
BRANCH  23  24
HETATM   24  C13 UNL     1       1.713  21.807   8.798  1.00  0.00    -0.031 C 
BRANCH  24  25
HETATM   25  C14 UNL     1       0.879  20.800   8.171  1.00  0.00    -0.031 C 
BRANCH  25  26
HETATM   26  C15 UNL     1      -0.601  20.870   8.147  1.00  0.00     0.027 C 
BRANCH  26  27
HETATM   27  C16 UNL     1      -1.288  21.498   7.022  1.00  0.00     0.004 C 
BRANCH  27  28
HETATM   28  C17 UNL     1      -1.949  22.806   7.165  1.00  0.00     0.002 C 
BRANCH  28  29
HETATM   29  C18 UNL     1      -1.268  23.900   7.836  1.00  0.00     0.020 C 
BRANCH  29  30
HETATM   30  C19 UNL     1      -0.310  24.771   7.145  1.00  0.00     0.138 C 
BRANCH  30  31
HETATM   31  N4  UNL     1      -0.289  26.047   7.937  1.00  0.00    -0.225 N 
HETATM   32  C20 UNL     1      -0.811  27.243   7.416  1.00  0.00     0.691 C 
HETATM   33  N5  UNL     1      -2.006  27.333   6.939  1.00  0.00    -0.233 N 
HETATM   34  N6  UNL     1       0.007  28.402   7.412  1.00  0.00    -0.072 N 
ATOM     35  H52 UNL     1      -2.595  26.499   6.942  1.00  0.00     0.174 HD
ATOM     36  H51 UNL     1      -2.385  28.201   6.561  1.00  0.00     0.174 HD
ATOM     37  H6  UNL     1       0.939  28.368   6.999  1.00  0.00     0.212 HD
ATOM     38  H4  UNL     1       0.112  26.045   8.875  1.00  0.00     0.177 HD
BRANCH  34  39
HETATM   39  N7  UNL     1      -0.463  29.581   7.972  1.00  0.00    -0.024 N 
HETATM   40  O3  UNL     1      -0.038  30.665   7.557  1.00  0.00    -0.516 OA
HETATM   41  O4  UNL     1      -1.383  29.541   8.968  1.00  0.00    -0.516 OA
ENDBRANCH  34  39
ENDBRANCH  30  31
ENDBRANCH  29  30
ENDBRANCH  28  29
ENDBRANCH  27  28
ENDBRANCH  26  27
ENDBRANCH  25  26
ENDBRANCH  24  25
ENDBRANCH  23  24
ENDBRANCH  22  23
ENDBRANCH   1  22
TORSDOF 16
ENDMDL
MODEL 4
REMARK VINA RESULT: -8.489074959      1.882      3.210
REMARK  16 active torsions:
REMARK  status: ('A' for Active; 'I' for Inactive)
REMARK    1  A    between atoms: C2_2  and  C5_5 
REMARK       I    between atoms: C5_5  and  N1_7 
REMARK    2  A    between atoms: N1_7  and  C6_9 
REMARK    3  A    between atoms: N2_11  and  C8_12 
REMARK    4  A    between atoms: C8_12  and  C9_13 
REMARK       I    between atoms: C9_13  and  N3_15 
REMARK    5  A    between atoms: N3_15  and  C10_17 
REMARK    6  A    between atoms: C10_17  and  C11_18 
REMARK    7  A    between atoms: C11_18  and  C12_19 
REMARK    8  A    between atoms: C12_19  and  C13_20 
REMARK    9  A    between atoms: C13_20  and  C14_21 
REMARK   10  A    between atoms: C14_21  and  C15_22 
REMARK   11  A    between atoms: C15_22  and  C16_23 
REMARK   12  A    between atoms: C16_23  and  C17_24 
REMARK   13  A    between atoms: C17_24  and  C18_25 
REMARK   14  A    between atoms: C18_25  and  C19_26 
REMARK   15  A    between atoms: C19_26  and  N4_27 
REMARK       I    between atoms: N4_27  and  C20_29 
REMARK       I    between atoms: C20_29  and  N6_33 
REMARK   16  A    between atoms: N6_33  and  N7_35 
ROOT
HETATM    1  C10 UNL     1       3.811  22.980   6.223  1.00  0.00     0.123 C 
ENDROOT
BRANCH   1   2
HETATM    2  N3  UNL     1       5.202  22.848   5.939  1.00  0.00    -0.360 N 
HETATM    3  C9  UNL     1       5.906  23.825   5.221  1.00  0.00     0.235 C 
HETATM    4  O2  UNL     1       5.327  24.844   4.800  1.00  0.00    -0.272 OA
ATOM      5  H3  UNL     1       5.699  22.020   6.267  1.00  0.00     0.162 HD
BRANCH   3   6
HETATM    6  C8  UNL     1       7.373  23.698   4.925  1.00  0.00     0.230 C 
BRANCH   6   7
HETATM    7  N2  UNL     1       7.847  24.898   4.301  1.00  0.00    -0.353 N 
HETATM    8  C7  UNL     1       7.932  25.008   2.946  1.00  0.00     0.139 A 
HETATM    9  C6  UNL     1       8.382  26.142   2.307  1.00  0.00     0.123 A 
HETATM   10  N8  UNL     1       8.756  27.191   3.061  1.00  0.00    -0.350 N 
HETATM   11  C22 UNL     1       8.679  27.103   4.387  1.00  0.00     0.107 A 
ATOM     12  H8  UNL     1       9.094  28.047   2.621  1.00  0.00     0.166 HD
HETATM   13  C21 UNL     1       8.228  25.967   5.017  1.00  0.00     0.108 A 
BRANCH   9  14
HETATM   14  N1  UNL     1       8.429  26.151   1.033  1.00  0.00    -0.311 N 
HETATM   15  C5  UNL     1       9.485  25.507   0.349  1.00  0.00     0.231 C 
HETATM   16  O1  UNL     1       9.588  24.247   0.287  1.00  0.00    -0.272 OA
ATOM     17  H1  UNL     1       7.698  26.628   0.504  1.00  0.00     0.170 HD
BRANCH  15  18
HETATM   18  C2  UNL     1      10.494  26.386  -0.310  1.00  0.00     0.030 C 
HETATM   19  C1  UNL     1       9.772  27.613  -0.825  1.00  0.00     0.025 C 
HETATM   20  C3  UNL     1      11.163  25.600  -1.402  1.00  0.00     0.025 C 
HETATM   21  C4  UNL     1      11.587  26.823   0.662  1.00  0.00     0.025 C 
ENDBRANCH  15  18
ENDBRANCH   9  14
ENDBRANCH   6   7
ENDBRANCH   3   6
ENDBRANCH   1   2
BRANCH   1  22
HETATM   22  C11 UNL     1       3.389  21.892   7.185  1.00  0.00     0.023 C 
BRANCH  22  23
HETATM   23  C12 UNL     1       2.356  22.509   8.092  1.00  0.00     0.028 C 
BRANCH  23  24
HETATM   24  C13 UNL     1       1.585  21.568   8.910  1.00  0.00    -0.031 C 
BRANCH  24  25
HETATM   25  C14 UNL     1       0.221  21.181   8.609  1.00  0.00    -0.031 C 
BRANCH  25  26
HETATM   26  C15 UNL     1      -0.371  21.275   7.255  1.00  0.00     0.027 C 
BRANCH  26  27
HETATM   27  C16 UNL     1      -1.821  21.254   7.084  1.00  0.00     0.004 C 
BRANCH  27  28
HETATM   28  C17 UNL     1      -2.726  21.172   8.243  1.00  0.00     0.002 C 
BRANCH  28  29
HETATM   29  C18 UNL     1      -4.017  21.839   8.212  1.00  0.00     0.020 C 
BRANCH  29  30
HETATM   30  C19 UNL     1      -4.208  23.203   8.719  1.00  0.00     0.138 C 
BRANCH  30  31
HETATM   31  N4  UNL     1      -3.469  24.091   7.759  1.00  0.00    -0.225 N 
HETATM   32  C20 UNL     1      -2.416  24.917   8.187  1.00  0.00     0.691 C 
HETATM   33  N5  UNL     1      -1.406  24.472   8.852  1.00  0.00    -0.233 N 
HETATM   34  N6  UNL     1      -2.463  26.301   7.875  1.00  0.00    -0.072 N 
ATOM     35  H52 UNL     1      -1.372  23.477   9.077  1.00  0.00     0.174 HD
ATOM     36  H51 UNL     1      -0.642  25.073   9.162  1.00  0.00     0.174 HD
ATOM     37  H6  UNL     1      -3.288  26.851   8.113  1.00  0.00     0.212 HD
ATOM     38  H4  UNL     1      -3.737  24.093   6.775  1.00  0.00     0.177 HD
BRANCH  34  39
HETATM   39  N7  UNL     1      -1.384  26.903   7.243  1.00  0.00    -0.024 N 
HETATM   40  O3  UNL     1      -0.671  26.237   6.486  1.00  0.00    -0.516 OA
HETATM   41  O4  UNL     1      -1.118  28.215   7.459  1.00  0.00    -0.516 OA
ENDBRANCH  34  39
ENDBRANCH  30  31
ENDBRANCH  29  30
ENDBRANCH  28  29
ENDBRANCH  27  28
ENDBRANCH  26  27
ENDBRANCH  25  26
ENDBRANCH  24  25
ENDBRANCH  23  24
ENDBRANCH  22  23
ENDBRANCH   1  22
TORSDOF 16
ENDMDL
MODEL 5
REMARK VINA RESULT: -8.468698954      1.767      3.179
REMARK  16 active torsions:
REMARK  status: ('A' for Active; 'I' for Inactive)
REMARK    1  A    between atoms: C2_2  and  C5_5 
REMARK       I    between atoms: C5_5  and  N1_7 
REMARK    2  A    between atoms: N1_7  and  C6_9 
REMARK    3  A    between atoms: N2_11  and  C8_12 
REMARK    4  A    between atoms: C8_12  and  C9_13 
REMARK       I    between atoms: C9_13  and  N3_15 
REMARK    5  A    between atoms: N3_15  and  C10_17 
REMARK    6  A    between atoms: C10_17  and  C11_18 
REMARK    7  A    between atoms: C11_18  and  C12_19 
REMARK    8  A    between atoms: C12_19  and  C13_20 
REMARK    9  A    between atoms: C13_20  and  C14_21 
REMARK   10  A    between atoms: C14_21  and  C15_22 
REMARK   11  A    between atoms: C15_22  and  C16_23 
REMARK   12  A    between atoms: C16_23  and  C17_24 
REMARK   13  A    between atoms: C17_24  and  C18_25 
REMARK   14  A    between atoms: C18_25  and  C19_26 
REMARK   15  A    between atoms: C19_26  and  N4_27 
REMARK       I    between atoms: N4_27  and  C20_29 
REMARK       I    between atoms: C20_29  and  N6_33 
REMARK   16  A    between atoms: N6_33  and  N7_35 
ROOT
HETATM    1  C10 UNL     1       3.835  23.094   5.840  1.00  0.00     0.123 C 
ENDROOT
BRANCH   1   2
HETATM    2  N3  UNL     1       5.257  23.033   5.932  1.00  0.00    -0.360 N 
HETATM    3  C9  UNL     1       6.086  23.722   5.036  1.00  0.00     0.235 C 
HETATM    4  O2  UNL     1       5.597  24.408   4.119  1.00  0.00    -0.272 OA
ATOM      5  H3  UNL     1       5.682  22.473   6.671  1.00  0.00     0.162 HD
BRANCH   3   6
HETATM    6  C8  UNL     1       7.584  23.671   5.132  1.00  0.00     0.230 C 
BRANCH   6   7
HETATM    7  N2  UNL     1       8.133  24.958   4.822  1.00  0.00    -0.353 N 
HETATM    8  C7  UNL     1       9.171  25.097   3.951  1.00  0.00     0.139 A 
HETATM    9  C6  UNL     1       9.728  26.314   3.627  1.00  0.00     0.123 A 
HETATM   10  N8  UNL     1       9.219  27.419   4.200  1.00  0.00    -0.350 N 
HETATM   11  C22 UNL     1       8.204  27.304   5.053  1.00  0.00     0.107 A 
ATOM     12  H8  UNL     1       9.607  28.337   3.983  1.00  0.00     0.166 HD
HETATM   13  C21 UNL     1       7.654  26.085   5.371  1.00  0.00     0.108 A 
BRANCH   9  14
HETATM   14  N1  UNL     1      10.699  26.344   2.802  1.00  0.00    -0.311 N 
HETATM   15  C5  UNL     1      10.676  27.230   1.700  1.00  0.00     0.231 C 
HETATM   16  O1  UNL     1      10.819  28.481   1.828  1.00  0.00    -0.272 OA
ATOM     17  H1  UNL     1      11.499  25.726   2.938  1.00  0.00     0.170 HD
BRANCH  15  18
HETATM   18  C2  UNL     1      10.474  26.621   0.353  1.00  0.00     0.030 C 
HETATM   19  C1  UNL     1      11.836  26.280  -0.211  1.00  0.00     0.025 C 
HETATM   20  C3  UNL     1       9.717  27.601  -0.499  1.00  0.00     0.025 C 
HETATM   21  C4  UNL     1       9.633  25.349   0.427  1.00  0.00     0.025 C 
ENDBRANCH  15  18
ENDBRANCH   9  14
ENDBRANCH   6   7
ENDBRANCH   3   6
ENDBRANCH   1   2
BRANCH   1  22
HETATM   22  C11 UNL     1       3.228  22.025   6.722  1.00  0.00     0.023 C 
BRANCH  22  23
HETATM   23  C12 UNL     1       2.450  22.751   7.788  1.00  0.00     0.028 C 
BRANCH  23  24
HETATM   24  C13 UNL     1       2.020  21.936   8.928  1.00  0.00    -0.031 C 
BRANCH  24  25
HETATM   25  C14 UNL     1       0.779  21.189   8.953  1.00  0.00    -0.031 C 
BRANCH  25  26
HETATM   26  C15 UNL     1      -0.074  20.989   7.758  1.00  0.00     0.027 C 
BRANCH  26  27
HETATM   27  C16 UNL     1      -1.502  21.287   7.817  1.00  0.00     0.004 C 
BRANCH  27  28
HETATM   28  C17 UNL     1      -2.058  22.491   7.175  1.00  0.00     0.002 C 
BRANCH  28  29
HETATM   29  C18 UNL     1      -1.542  23.806   7.515  1.00  0.00     0.020 C 
BRANCH  29  30
HETATM   30  C19 UNL     1      -0.639  24.549   6.626  1.00  0.00     0.138 C 
BRANCH  30  31
HETATM   31  N4  UNL     1      -1.346  25.840   6.332  1.00  0.00    -0.225 N 
HETATM   32  C20 UNL     1      -1.284  26.929   7.218  1.00  0.00     0.691 C 
HETATM   33  N5  UNL     1      -0.171  27.415   7.649  1.00  0.00    -0.233 N 
HETATM   34  N6  UNL     1      -2.495  27.521   7.659  1.00  0.00    -0.072 N 
ATOM     35  H52 UNL     1       0.701  26.988   7.332  1.00  0.00     0.174 HD
ATOM     36  H51 UNL     1      -0.126  28.205   8.292  1.00  0.00     0.174 HD
ATOM     37  H6  UNL     1      -3.228  26.942   8.070  1.00  0.00     0.212 HD
ATOM     38  H4  UNL     1      -1.884  25.929   5.469  1.00  0.00     0.177 HD
BRANCH  34  39
HETATM   39  N7  UNL     1      -2.682  28.890   7.530  1.00  0.00    -0.024 N 
HETATM   40  O3  UNL     1      -2.345  29.642   8.451  1.00  0.00    -0.516 OA
HETATM   41  O4  UNL     1      -3.232  29.396   6.398  1.00  0.00    -0.516 OA
ENDBRANCH  34  39
ENDBRANCH  30  31
ENDBRANCH  29  30
ENDBRANCH  28  29
ENDBRANCH  27  28
ENDBRANCH  26  27
ENDBRANCH  25  26
ENDBRANCH  24  25
ENDBRANCH  23  24
ENDBRANCH  22  23
ENDBRANCH   1  22
TORSDOF 16
ENDMDL
