MODEL 1
REMARK VINA RESULT: -9.335594799      0.000      0.000
REMARK  15 active torsions:
REMARK  status: ('A' for Active; 'I' for Inactive)
REMARK    1  A    between atoms: C2_2  and  O1_3 
REMARK    2  A    between atoms: C2_2  and  C3_5 
REMARK    3  A    between atoms: C2_2  and  C13_24 
REMARK    4  A    between atoms: C3_5  and  C4_6 
REMARK    5  A    between atoms: C4_6  and  C5_7 
REMARK    6  A    between atoms: C5_7  and  C6_8 
REMARK    7  A    between atoms: C6_8  and  N1_9 
REMARK       I    between atoms: N1_9  and  C7_11 
REMARK    8  A    between atoms: C7_11  and  C8_13 
REMARK    9  A    between atoms: C8_13  and  N2_14 
REMARK   10  A    between atoms: C11_17  and  N3_18 
REMARK   11  A    between atoms: C13_24  and  C14_25 
REMARK       I    between atoms: C14_25  and  N5_27 
REMARK   12  A    between atoms: N5_27  and  C15_29 
REMARK   13  A    between atoms: C15_29  and  C16_30 
REMARK   14  A    between atoms: C16_30  and  C17_31 
REMARK   15  A    between atoms: C17_31  and  C18_32 
ROOT
HETATM    1  C1  UNL     1       9.593  26.268   2.248  1.00  0.00     0.051 C 
HETATM    2  C2  UNL     1       9.216  25.728   3.630  1.00  0.00     0.080 C 
ENDROOT
BRANCH   2   3
HETATM    3  O1  UNL     1      10.293  24.867   3.986  1.00  0.00    -0.386 OA
ATOM      4  H1  UNL     1      10.245  24.802   4.933  1.00  0.00     0.211 HD
ENDBRANCH   2   3
BRANCH   2   5
HETATM    5  C3  UNL     1       9.128  26.742   4.690  1.00  0.00     0.007 C 
BRANCH   5   6
HETATM    6  C4  UNL     1       8.791  28.135   4.406  1.00  0.00    -0.026 C 
BRANCH   6   7
HETATM    7  C5  UNL     1       8.037  28.975   5.342  1.00  0.00     0.046 C 
BRANCH   7   8
HETATM    8  C6  UNL     1       7.720  28.364   6.660  1.00  0.00     0.126 C 
BRANCH   8   9
HETATM    9  N1  UNL     1       8.668  28.819   7.658  1.00  0.00    -0.359 N 
HETATM   10  C7  UNL     1       8.319  29.569   8.802  1.00  0.00     0.235 C 
HETATM   11  O2  UNL     1       7.140  29.914   9.042  1.00  0.00    -0.272 OA
ATOM     12  H1  UNL     1       9.651  28.581   7.526  1.00  0.00     0.162 HD
BRANCH  10  13
HETATM   13  C8  UNL     1       9.400  29.965   9.759  1.00  0.00     0.231 C 
BRANCH  13  14
HETATM   14  N2  UNL     1       9.490  29.072  10.891  1.00  0.00    -0.344 N 
HETATM   15  C9  UNL     1       8.688  28.003  10.989  1.00  0.00     0.096 A 
HETATM   16  C10 UNL     1       8.765  27.129  12.064  1.00  0.00     0.065 A 
HETATM   17  C11 UNL     1       9.709  27.384  13.067  1.00  0.00     0.100 A 
HETATM   18  N4  UNL     1      10.495  28.461  12.942  1.00  0.00    -0.339 N 
HETATM   19  C12 UNL     1      10.394  29.295  11.875  1.00  0.00     0.184 A 
ATOM     20  H4  UNL     1      11.187  28.659  13.665  1.00  0.00     0.168 HD
BRANCH  17  21
HETATM   21  N3  UNL     1       9.838  26.620  14.097  1.00  0.00    -0.385 N 
ATOM     22  H32 UNL     1       9.139  25.900  14.280  1.00  0.00     0.157 HD
ATOM     23  H31 UNL     1      10.623  26.708  14.742  1.00  0.00     0.157 HD
ENDBRANCH  17  21
ENDBRANCH  13  14
ENDBRANCH  10  13
ENDBRANCH   8   9
ENDBRANCH   7   8
ENDBRANCH   6   7
ENDBRANCH   5   6
ENDBRANCH   2   5
BRANCH   2  24
HETATM   24  C13 UNL     1       8.049  24.843   3.390  1.00  0.00     0.144 C 
BRANCH  24  25
HETATM   25  C14 UNL     1       7.506  24.048   4.484  1.00  0.00     0.220 C 
HETATM   26  O3  UNL     1       8.220  23.323   5.193  1.00  0.00    -0.274 OA
HETATM   27  N5  UNL     1       6.115  24.063   4.796  1.00  0.00    -0.361 N 
ATOM     28  H5  UNL     1       5.486  24.640   4.238  1.00  0.00     0.162 HD
BRANCH  27  29
HETATM   29  C15 UNL     1       5.585  23.294   5.864  1.00  0.00     0.122 C 
BRANCH  29  30
HETATM   30  C16 UNL     1       4.136  22.963   5.720  1.00  0.00     0.022 C 
BRANCH  30  31
HETATM   31  C17 UNL     1       3.738  21.651   6.308  1.00  0.00     0.040 C 
BRANCH  31  32
HETATM   32  C18 UNL     1       2.378  21.757   6.972  1.00  0.00     0.127 C 
HETATM   33  C19 UNL     1       1.811  20.435   7.391  1.00  0.00     0.043 C 
HETATM   34  C20 UNL     1       0.490  20.680   8.082  1.00  0.00    -0.010 C 
HETATM   35  C21 UNL     1       0.618  21.560   9.289  1.00  0.00     0.009 C 
HETATM   36  C25 UNL     1      -0.455  21.307   7.101  1.00  0.00     0.037 C 
HETATM   37  C22 UNL     1       1.195  22.888   8.853  1.00  0.00    -0.010 C 
HETATM   38  C23 UNL     1       0.276  23.530   7.853  1.00  0.00     0.037 C 
HETATM   39  C26 UNL     1       2.534  22.621   8.200  1.00  0.00     0.043 C 
HETATM   40  C24 UNL     1       0.170  22.616   6.651  1.00  0.00     0.187 C 
HETATM   41  N6  UNL     1       1.469  22.429   6.059  1.00  0.00    -0.062 N 
ATOM     42  H62 UNL     1       1.859  23.311   5.728  1.00  0.00     0.278 HD
ATOM     43  H61 UNL     1       1.405  21.939   5.168  1.00  0.00     0.278 HD
ENDBRANCH  31  32
ENDBRANCH  30  31
ENDBRANCH  29  30
ENDBRANCH  27  29
ENDBRANCH  24  25
ENDBRANCH   2  24
TORSDOF 15
ENDMDL
MODEL 2
REMARK VINA RESULT: -9.232043348      4.658      8.434
REMARK  15 active torsions:
REMARK  status: ('A' for Active; 'I' for Inactive)
REMARK    1  A    between atoms: C2_2  and  O1_3 
REMARK    2  A    between atoms: C2_2  and  C3_5 
REMARK    3  A    between atoms: C2_2  and  C13_24 
REMARK    4  A    between atoms: C3_5  and  C4_6 
REMARK    5  A    between atoms: C4_6  and  C5_7 
REMARK    6  A    between atoms: C5_7  and  C6_8 
REMARK    7  A    between atoms: C6_8  and  N1_9 
REMARK       I    between atoms: N1_9  and  C7_11 
REMARK    8  A    between atoms: C7_11  and  C8_13 
REMARK    9  A    between atoms: C8_13  and  N2_14 
REMARK   10  A    between atoms: C11_17  and  N3_18 
REMARK   11  A    between atoms: C13_24  and  C14_25 
REMARK       I    between atoms: C14_25  and  N5_27 
REMARK   12  A    between atoms: N5_27  and  C15_29 
REMARK   13  A    between atoms: C15_29  and  C16_30 
REMARK   14  A    between atoms: C16_30  and  C17_31 
REMARK   15  A    between atoms: C17_31  and  C18_32 
ROOT
HETATM    1  C1  UNL     1       1.138  21.167   8.826  1.00  0.00     0.051 C 
HETATM    2  C2  UNL     1       1.925  22.122   7.925  1.00  0.00     0.080 C 
ENDROOT
BRANCH   2   3
HETATM    3  O1  UNL     1       1.829  23.387   8.570  1.00  0.00    -0.386 OA
ATOM      4  H1  UNL     1       2.710  23.741   8.536  1.00  0.00     0.211 HD
ENDBRANCH   2   3
BRANCH   2   5
HETATM    5  C3  UNL     1       3.360  21.825   7.809  1.00  0.00     0.007 C 
BRANCH   5   6
HETATM    6  C4  UNL     1       4.050  21.820   6.521  1.00  0.00    -0.026 C 
BRANCH   6   7
HETATM    7  C5  UNL     1       5.434  22.276   6.361  1.00  0.00     0.046 C 
BRANCH   7   8
HETATM    8  C6  UNL     1       5.625  23.524   5.576  1.00  0.00     0.126 C 
BRANCH   8   9
HETATM    9  N1  UNL     1       7.040  23.811   5.437  1.00  0.00    -0.359 N 
HETATM   10  C7  UNL     1       7.612  24.461   4.322  1.00  0.00     0.235 C 
HETATM   11  O2  UNL     1       6.930  24.839   3.343  1.00  0.00    -0.272 OA
ATOM     12  H1  UNL     1       7.661  23.525   6.193  1.00  0.00     0.162 HD
BRANCH  10  13
HETATM   13  C8  UNL     1       9.090  24.704   4.313  1.00  0.00     0.231 C 
BRANCH  13  14
HETATM   14  N2  UNL     1       9.422  26.072   3.992  1.00  0.00    -0.344 N 
HETATM   15  C9  UNL     1      10.002  26.384   2.825  1.00  0.00     0.096 A 
HETATM   16  C10 UNL     1      10.322  27.694   2.496  1.00  0.00     0.065 A 
HETATM   17  C11 UNL     1      10.025  28.706   3.417  1.00  0.00     0.100 A 
HETATM   18  N4  UNL     1       9.446  28.364   4.575  1.00  0.00    -0.339 N 
HETATM   19  C12 UNL     1       9.146  27.071   4.865  1.00  0.00     0.184 A 
ATOM     20  H4  UNL     1       9.225  29.091   5.255  1.00  0.00     0.168 HD
BRANCH  17  21
HETATM   21  N3  UNL     1      10.294  29.946   3.184  1.00  0.00    -0.385 N 
ATOM     22  H32 UNL     1       9.595  30.535   2.732  1.00  0.00     0.157 HD
ATOM     23  H31 UNL     1      11.188  30.364   3.439  1.00  0.00     0.157 HD
ENDBRANCH  17  21
ENDBRANCH  13  14
ENDBRANCH  10  13
ENDBRANCH   8   9
ENDBRANCH   7   8
ENDBRANCH   6   7
ENDBRANCH   5   6
ENDBRANCH   2   5
BRANCH   2  24
HETATM   24  C13 UNL     1       1.117  22.233   6.686  1.00  0.00     0.144 C 
BRANCH  24  25
HETATM   25  C14 UNL     1      -0.037  23.122   6.651  1.00  0.00     0.220 C 
HETATM   26  O3  UNL     1      -1.196  22.709   6.800  1.00  0.00    -0.274 OA
HETATM   27  N5  UNL     1       0.111  24.525   6.441  1.00  0.00    -0.361 N 
ATOM     28  H5  UNL     1       1.045  24.913   6.308  1.00  0.00     0.162 HD
BRANCH  27  29
HETATM   29  C15 UNL     1      -1.010  25.394   6.412  1.00  0.00     0.122 C 
BRANCH  29  30
HETATM   30  C16 UNL     1      -1.288  26.079   7.709  1.00  0.00     0.022 C 
BRANCH  30  31
HETATM   31  C17 UNL     1      -0.712  27.451   7.822  1.00  0.00     0.040 C 
BRANCH  31  32
HETATM   32  C18 UNL     1      -1.798  28.457   8.154  1.00  0.00     0.127 C 
HETATM   33  C19 UNL     1      -1.270  29.748   8.700  1.00  0.00     0.043 C 
HETATM   34  C20 UNL     1      -2.437  30.678   8.937  1.00  0.00    -0.010 C 
HETATM   35  C21 UNL     1      -3.221  30.960   7.690  1.00  0.00     0.009 C 
HETATM   36  C25 UNL     1      -3.337  30.064   9.968  1.00  0.00     0.037 C 
HETATM   37  C22 UNL     1      -3.743  29.648   7.148  1.00  0.00    -0.010 C 
HETATM   38  C23 UNL     1      -4.633  29.002   8.170  1.00  0.00     0.037 C 
HETATM   39  C26 UNL     1      -2.555  28.750   6.881  1.00  0.00     0.043 C 
HETATM   40  C24 UNL     1      -3.811  28.732   9.412  1.00  0.00     0.187 C 
HETATM   41  N6  UNL     1      -2.719  27.849   9.097  1.00  0.00    -0.062 N 
ATOM     42  H62 UNL     1      -3.054  26.946   8.762  1.00  0.00     0.278 HD
ATOM     43  H61 UNL     1      -2.238  27.536   9.940  1.00  0.00     0.278 HD
ENDBRANCH  31  32
ENDBRANCH  30  31
ENDBRANCH  29  30
ENDBRANCH  27  29
ENDBRANCH  24  25
ENDBRANCH   2  24
TORSDOF 15
ENDMDL
MODEL 3
REMARK VINA RESULT: -9.221482570      4.464      8.277
REMARK  15 active torsions:
REMARK  status: ('A' for Active; 'I' for Inactive)
REMARK    1  A    between atoms: C2_2  and  O1_3 
REMARK    2  A    between atoms: C2_2  and  C3_5 
REMARK    3  A    between atoms: C2_2  and  C13_24 
REMARK    4  A    between atoms: C3_5  and  C4_6 
REMARK    5  A    between atoms: C4_6  and  C5_7 
REMARK    6  A    between atoms: C5_7  and  C6_8 
REMARK    7  A    between atoms: C6_8  and  N1_9 
REMARK       I    between atoms: N1_9  and  C7_11 
REMARK    8  A    between atoms: C7_11  and  C8_13 
REMARK    9  A    between atoms: C8_13  and  N2_14 
REMARK   10  A    between atoms: C11_17  and  N3_18 
REMARK   11  A    between atoms: C13_24  and  C14_25 
REMARK       I    between atoms: C14_25  and  N5_27 
REMARK   12  A    between atoms: N5_27  and  C15_29 
REMARK   13  A    between atoms: C15_29  and  C16_30 
REMARK   14  A    between atoms: C16_30  and  C17_31 
REMARK   15  A    between atoms: C17_31  and  C18_32 
ROOT
HETATM    1  C1  UNL     1       1.209  21.195   8.858  1.00  0.00     0.051 C 
HETATM    2  C2  UNL     1       2.004  22.075   7.890  1.00  0.00     0.080 C 
ENDROOT
BRANCH   2   3
HETATM    3  O1  UNL     1       1.917  23.386   8.442  1.00  0.00    -0.386 OA
ATOM      4  H1  UNL     1       2.763  23.778   8.263  1.00  0.00     0.211 HD
ENDBRANCH   2   3
BRANCH   2   5
HETATM    5  C3  UNL     1       3.437  21.760   7.799  1.00  0.00     0.007 C 
BRANCH   5   6
HETATM    6  C4  UNL     1       4.160  21.799   6.529  1.00  0.00    -0.026 C 
BRANCH   6   7
HETATM    7  C5  UNL     1       5.526  22.318   6.411  1.00  0.00     0.046 C 
BRANCH   7   8
HETATM    8  C6  UNL     1       5.702  23.502   5.529  1.00  0.00     0.126 C 
BRANCH   8   9
HETATM    9  N1  UNL     1       7.111  23.823   5.405  1.00  0.00    -0.359 N 
HETATM   10  C7  UNL     1       7.683  24.464   4.286  1.00  0.00     0.235 C 
HETATM   11  O2  UNL     1       7.006  24.803   3.289  1.00  0.00    -0.272 OA
ATOM     12  H1  UNL     1       7.728  23.569   6.176  1.00  0.00     0.162 HD
BRANCH  10  13
HETATM   13  C8  UNL     1       9.154  24.745   4.293  1.00  0.00     0.231 C 
BRANCH  13  14
HETATM   14  N2  UNL     1       9.459  26.100   3.897  1.00  0.00    -0.344 N 
HETATM   15  C9  UNL     1       9.052  27.141   4.638  1.00  0.00     0.096 A 
HETATM   16  C10 UNL     1       9.341  28.450   4.278  1.00  0.00     0.065 A 
HETATM   17  C11 UNL     1      10.078  28.675   3.109  1.00  0.00     0.100 A 
HETATM   18  N4  UNL     1      10.470  27.615   2.389  1.00  0.00    -0.339 N 
HETATM   19  C12 UNL     1      10.169  26.346   2.771  1.00  0.00     0.184 A 
ATOM     20  H4  UNL     1      11.007  27.765   1.535  1.00  0.00     0.168 HD
BRANCH  17  21
HETATM   21  N3  UNL     1      10.384  29.862   2.708  1.00  0.00    -0.385 N 
ATOM     22  H32 UNL     1      10.873  29.982   1.821  1.00  0.00     0.157 HD
ATOM     23  H31 UNL     1      10.151  30.694   3.250  1.00  0.00     0.157 HD
ENDBRANCH  17  21
ENDBRANCH  13  14
ENDBRANCH  10  13
ENDBRANCH   8   9
ENDBRANCH   7   8
ENDBRANCH   6   7
ENDBRANCH   5   6
ENDBRANCH   2   5
BRANCH   2  24
HETATM   24  C13 UNL     1       1.197  22.102   6.645  1.00  0.00     0.144 C 
BRANCH  24  25
HETATM   25  C14 UNL     1       0.344  23.248   6.360  1.00  0.00     0.220 C 
HETATM   26  O3  UNL     1       0.700  24.167   5.607  1.00  0.00    -0.274 OA
HETATM   27  N5  UNL     1      -0.953  23.374   6.938  1.00  0.00    -0.361 N 
ATOM     28  H5  UNL     1      -1.289  22.646   7.569  1.00  0.00     0.162 HD
BRANCH  27  29
HETATM   29  C15 UNL     1      -1.788  24.486   6.658  1.00  0.00     0.122 C 
BRANCH  29  30
HETATM   30  C16 UNL     1      -1.786  25.536   7.719  1.00  0.00     0.022 C 
BRANCH  30  31
HETATM   31  C17 UNL     1      -0.986  26.751   7.389  1.00  0.00     0.040 C 
BRANCH  31  32
HETATM   32  C18 UNL     1      -1.766  28.009   7.727  1.00  0.00     0.127 C 
HETATM   33  C19 UNL     1      -2.509  27.921   9.024  1.00  0.00     0.043 C 
HETATM   34  C20 UNL     1      -3.195  29.244   9.271  1.00  0.00    -0.010 C 
HETATM   35  C21 UNL     1      -2.236  30.395   9.336  1.00  0.00     0.009 C 
HETATM   36  C25 UNL     1      -4.189  29.480   8.174  1.00  0.00     0.037 C 
HETATM   37  C22 UNL     1      -1.489  30.469   8.023  1.00  0.00    -0.010 C 
HETATM   38  C23 UNL     1      -2.466  30.686   6.902  1.00  0.00     0.037 C 
HETATM   39  C26 UNL     1      -0.780  29.148   7.817  1.00  0.00     0.043 C 
HETATM   40  C24 UNL     1      -3.416  29.508   6.866  1.00  0.00     0.187 C 
HETATM   41  N6  UNL     1      -2.683  28.291   6.637  1.00  0.00    -0.062 N 
ATOM     42  H62 UNL     1      -2.201  28.310   5.739  1.00  0.00     0.278 HD
ATOM     43  H61 UNL     1      -3.310  27.506   6.464  1.00  0.00     0.278 HD
ENDBRANCH  31  32
ENDBRANCH  30  31
ENDBRANCH  29  30
ENDBRANCH  27  29
ENDBRANCH  24  25
ENDBRANCH   2  24
TORSDOF 15
ENDMDL
MODEL 4
REMARK VINA RESULT: -9.175730383      4.290      6.473
REMARK  15 active torsions:
REMARK  status: ('A' for Active; 'I' for Inactive)
REMARK    1  A    between atoms: C2_2  and  O1_3 
REMARK    2  A    between atoms: C2_2  and  C3_5 
REMARK    3  A    between atoms: C2_2  and  C13_24 
REMARK    4  A    between atoms: C3_5  and  C4_6 
REMARK    5  A    between atoms: C4_6  and  C5_7 
REMARK    6  A    between atoms: C5_7  and  C6_8 
REMARK    7  A    between atoms: C6_8  and  N1_9 
REMARK       I    between atoms: N1_9  and  C7_11 
REMARK    8  A    between atoms: C7_11  and  C8_13 
REMARK    9  A    between atoms: C8_13  and  N2_14 
REMARK   10  A    between atoms: C11_17  and  N3_18 
REMARK   11  A    between atoms: C13_24  and  C14_25 
REMARK       I    between atoms: C14_25  and  N5_27 
REMARK   12  A    between atoms: N5_27  and  C15_29 
REMARK   13  A    between atoms: C15_29  and  C16_30 
REMARK   14  A    between atoms: C16_30  and  C17_31 
REMARK   15  A    between atoms: C17_31  and  C18_32 
ROOT
HETATM    1  C1  UNL     1       7.983  26.020   1.791  1.00  0.00     0.051 C 
HETATM    2  C2  UNL     1       8.471  25.345   3.074  1.00  0.00     0.080 C 
ENDROOT
BRANCH   2   3
HETATM    3  O1  UNL     1       9.078  24.134   2.635  1.00  0.00    -0.386 OA
ATOM      4  H1  UNL     1       8.454  23.455   2.865  1.00  0.00     0.211 HD
ENDBRANCH   2   3
BRANCH   2   5
HETATM    5  C3  UNL     1       9.508  26.084   3.809  1.00  0.00     0.007 C 
BRANCH   5   6
HETATM    6  C4  UNL     1       9.179  27.144   4.759  1.00  0.00    -0.026 C 
BRANCH   6   7
HETATM    7  C5  UNL     1       8.509  28.386   4.361  1.00  0.00     0.046 C 
BRANCH   7   8
HETATM    8  C6  UNL     1       9.396  29.540   4.059  1.00  0.00     0.126 C 
BRANCH   8   9
HETATM    9  N1  UNL     1      10.265  29.219   2.944  1.00  0.00    -0.359 N 
HETATM   10  C7  UNL     1       9.907  29.375   1.588  1.00  0.00     0.235 C 
HETATM   11  O2  UNL     1       8.785  29.803   1.236  1.00  0.00    -0.272 OA
ATOM     12  H1  UNL     1      11.196  28.857   3.153  1.00  0.00     0.162 HD
BRANCH  10  13
HETATM   13  C8  UNL     1      10.908  29.014   0.534  1.00  0.00     0.231 C 
BRANCH  13  14
HETATM   14  N2  UNL     1      10.731  27.667   0.043  1.00  0.00    -0.344 N 
HETATM   15  C9  UNL     1      10.009  27.426  -1.059  1.00  0.00     0.096 A 
HETATM   16  C10 UNL     1       9.835  26.139  -1.551  1.00  0.00     0.065 A 
HETATM   17  C11 UNL     1      10.434  25.075  -0.866  1.00  0.00     0.100 A 
HETATM   18  N4  UNL     1      11.149  25.347   0.234  1.00  0.00    -0.339 N 
HETATM   19  C12 UNL     1      11.300  26.619   0.687  1.00  0.00     0.184 A 
ATOM     20  H4  UNL     1      11.591  24.581   0.742  1.00  0.00     0.168 HD
BRANCH  17  21
HETATM   21  N3  UNL     1      10.315  23.853  -1.259  1.00  0.00    -0.385 N 
ATOM     22  H32 UNL     1       9.417  23.379  -1.163  1.00  0.00     0.157 HD
ATOM     23  H31 UNL     1      11.094  23.337  -1.668  1.00  0.00     0.157 HD
ENDBRANCH  17  21
ENDBRANCH  13  14
ENDBRANCH  10  13
ENDBRANCH   8   9
ENDBRANCH   7   8
ENDBRANCH   6   7
ENDBRANCH   5   6
ENDBRANCH   2   5
BRANCH   2  24
HETATM   24  C13 UNL     1       7.236  24.945   3.792  1.00  0.00     0.144 C 
BRANCH  24  25
HETATM   25  C14 UNL     1       7.279  23.854   4.756  1.00  0.00     0.220 C 
HETATM   26  O3  UNL     1       8.345  23.344   5.132  1.00  0.00    -0.274 OA
HETATM   27  N5  UNL     1       6.087  23.310   5.319  1.00  0.00    -0.361 N 
ATOM     28  H5  UNL     1       5.184  23.692   5.037  1.00  0.00     0.162 HD
BRANCH  27  29
HETATM   29  C15 UNL     1       6.126  22.251   6.262  1.00  0.00     0.122 C 
BRANCH  29  30
HETATM   30  C16 UNL     1       4.790  21.856   6.796  1.00  0.00     0.022 C 
BRANCH  30  31
HETATM   31  C17 UNL     1       3.630  22.392   6.023  1.00  0.00     0.040 C 
BRANCH  31  32
HETATM   32  C18 UNL     1       2.339  22.190   6.794  1.00  0.00     0.127 C 
HETATM   33  C19 UNL     1       2.088  20.764   7.178  1.00  0.00     0.043 C 
HETATM   34  C20 UNL     1       0.810  20.704   7.981  1.00  0.00    -0.010 C 
HETATM   35  C21 UNL     1       0.863  21.541   9.224  1.00  0.00     0.009 C 
HETATM   36  C25 UNL     1      -0.323  21.165   7.114  1.00  0.00     0.037 C 
HETATM   37  C22 UNL     1       1.122  22.976   8.823  1.00  0.00    -0.010 C 
HETATM   38  C23 UNL     1       0.009  23.457   7.936  1.00  0.00     0.037 C 
HETATM   39  C26 UNL     1       2.425  23.015   8.055  1.00  0.00     0.043 C 
HETATM   40  C24 UNL     1      -0.015  22.592   6.694  1.00  0.00     0.187 C 
HETATM   41  N6  UNL     1       1.238  22.699   5.995  1.00  0.00    -0.062 N 
ATOM     42  H62 UNL     1       1.413  23.655   5.687  1.00  0.00     0.278 HD
ATOM     43  H61 UNL     1       1.197  22.244   5.084  1.00  0.00     0.278 HD
ENDBRANCH  31  32
ENDBRANCH  30  31
ENDBRANCH  29  30
ENDBRANCH  27  29
ENDBRANCH  24  25
ENDBRANCH   2  24
TORSDOF 15
ENDMDL
MODEL 5
REMARK VINA RESULT: -9.100375742      4.735     10.329
REMARK  15 active torsions:
REMARK  status: ('A' for Active; 'I' for Inactive)
REMARK    1  A    between atoms: C2_2  and  O1_3 
REMARK    2  A    between atoms: C2_2  and  C3_5 
REMARK    3  A    between atoms: C2_2  and  C13_24 
REMARK    4  A    between atoms: C3_5  and  C4_6 
REMARK    5  A    between atoms: C4_6  and  C5_7 
REMARK    6  A    between atoms: C5_7  and  C6_8 
REMARK    7  A    between atoms: C6_8  and  N1_9 
REMARK       I    between atoms: N1_9  and  C7_11 
REMARK    8  A    between atoms: C7_11  and  C8_13 
REMARK    9  A    between atoms: C8_13  and  N2_14 
REMARK   10  A    between atoms: C11_17  and  N3_18 
REMARK   11  A    between atoms: C13_24  and  C14_25 
REMARK       I    between atoms: C14_25  and  N5_27 
REMARK   12  A    between atoms: N5_27  and  C15_29 
REMARK   13  A    between atoms: C15_29  and  C16_30 
REMARK   14  A    between atoms: C16_30  and  C17_31 
REMARK   15  A    between atoms: C17_31  and  C18_32 
ROOT
HETATM    1  C1  UNL     1       3.501  21.318   5.899  1.00  0.00     0.051 C 
HETATM    2  C2  UNL     1       3.204  22.778   6.248  1.00  0.00     0.080 C 
ENDROOT
BRANCH   2   3
HETATM    3  O1  UNL     1       1.981  23.067   5.577  1.00  0.00    -0.386 OA
ATOM      4  H1  UNL     1       2.242  23.539   4.795  1.00  0.00     0.211 HD
ENDBRANCH   2   3
BRANCH   2   5
HETATM    5  C3  UNL     1       2.963  23.038   7.675  1.00  0.00     0.007 C 
BRANCH   5   6
HETATM    6  C4  UNL     1       1.671  22.775   8.304  1.00  0.00    -0.026 C 
BRANCH   6   7
HETATM    7  C5  UNL     1       1.317  21.469   8.871  1.00  0.00     0.046 C 
BRANCH   7   8
HETATM    8  C6  UNL     1      -0.039  20.958   8.537  1.00  0.00     0.126 C 
BRANCH   8   9
HETATM    9  N1  UNL     1      -0.961  22.065   8.378  1.00  0.00    -0.359 N 
HETATM   10  C7  UNL     1      -1.932  22.149   7.357  1.00  0.00     0.235 C 
HETATM   11  O2  UNL     1      -2.069  21.259   6.487  1.00  0.00    -0.272 OA
ATOM     12  H1  UNL     1      -0.905  22.833   9.047  1.00  0.00     0.162 HD
BRANCH  10  13
HETATM   13  C8  UNL     1      -2.830  23.347   7.316  1.00  0.00     0.231 C 
BRANCH  13  14
HETATM   14  N2  UNL     1      -2.098  24.588   7.412  1.00  0.00    -0.344 N 
HETATM   15  C9  UNL     1      -2.361  25.468   8.388  1.00  0.00     0.096 A 
HETATM   16  C10 UNL     1      -1.664  26.663   8.501  1.00  0.00     0.065 A 
HETATM   17  C11 UNL     1      -0.662  26.943   7.564  1.00  0.00     0.100 A 
HETATM   18  N4  UNL     1      -0.422  26.045   6.600  1.00  0.00    -0.339 N 
HETATM   19  C12 UNL     1      -1.124  24.885   6.519  1.00  0.00     0.184 A 
ATOM     20  H4  UNL     1       0.305  26.238   5.911  1.00  0.00     0.168 HD
BRANCH  17  21
HETATM   21  N3  UNL     1       0.027  28.033   7.603  1.00  0.00    -0.385 N 
ATOM     22  H32 UNL     1      -0.226  28.809   6.991  1.00  0.00     0.157 HD
ATOM     23  H31 UNL     1       0.823  28.149   8.230  1.00  0.00     0.157 HD
ENDBRANCH  17  21
ENDBRANCH  13  14
ENDBRANCH  10  13
ENDBRANCH   8   9
ENDBRANCH   7   8
ENDBRANCH   6   7
ENDBRANCH   5   6
ENDBRANCH   2   5
BRANCH   2  24
HETATM   24  C13 UNL     1       4.250  23.561   5.546  1.00  0.00     0.144 C 
BRANCH  24  25
HETATM   25  C14 UNL     1       5.651  23.190   5.690  1.00  0.00     0.220 C 
HETATM   26  O3  UNL     1       6.046  22.430   6.587  1.00  0.00    -0.274 OA
HETATM   27  N5  UNL     1       6.649  23.690   4.802  1.00  0.00    -0.361 N 
ATOM     28  H5  UNL     1       6.375  24.323   4.051  1.00  0.00     0.162 HD
BRANCH  27  29
HETATM   29  C15 UNL     1       8.014  23.326   4.938  1.00  0.00     0.122 C 
BRANCH  29  30
HETATM   30  C16 UNL     1       8.975  24.390   4.522  1.00  0.00     0.022 C 
BRANCH  30  31
HETATM   31  C17 UNL     1       8.462  25.783   4.672  1.00  0.00     0.040 C 
BRANCH  31  32
HETATM   32  C18 UNL     1       8.827  26.618   3.458  1.00  0.00     0.127 C 
HETATM   33  C19 UNL     1       8.740  28.093   3.699  1.00  0.00     0.043 C 
HETATM   34  C20 UNL     1       9.177  28.808   2.441  1.00  0.00    -0.010 C 
HETATM   35  C21 UNL     1      10.578  28.462   2.032  1.00  0.00     0.009 C 
HETATM   36  C25 UNL     1       8.229  28.454   1.335  1.00  0.00     0.037 C 
HETATM   37  C22 UNL     1      10.653  26.970   1.797  1.00  0.00    -0.010 C 
HETATM   38  C23 UNL     1       9.696  26.586   0.705  1.00  0.00     0.037 C 
HETATM   39  C26 UNL     1      10.249  26.278   3.081  1.00  0.00     0.043 C 
HETATM   40  C24 UNL     1       8.296  26.948   1.152  1.00  0.00     0.187 C 
HETATM   41  N6  UNL     1       7.963  26.233   2.356  1.00  0.00    -0.062 N 
ATOM     42  H62 UNL     1       7.975  25.225   2.207  1.00  0.00     0.278 HD
ATOM     43  H61 UNL     1       6.979  26.346   2.596  1.00  0.00     0.278 HD
ENDBRANCH  31  32
ENDBRANCH  30  31
ENDBRANCH  29  30
ENDBRANCH  27  29
ENDBRANCH  24  25
ENDBRANCH   2  24
TORSDOF 15
ENDMDL
