MODEL 1
REMARK VINA RESULT: -7.109462882      0.000      0.000
REMARK  9 active torsions:
REMARK  status: ('A' for Active; 'I' for Inactive)
REMARK    1  A    between atoms: N1_2  and  C2_4 
REMARK    2  A    between atoms: N4_11  and  C5_12 
REMARK    3  A    between atoms: C5_12  and  C6_13 
REMARK    4  A    between atoms: N5_17  and  C10_18 
REMARK    5  A    between atoms: C10_18  and  C11_19 
REMARK    6  A    between atoms: C11_19  and  C12_20 
REMARK    7  A    between atoms: C12_20  and  C13_21 
REMARK    8  A    between atoms: C13_21  and  C14_22 
REMARK    9  A    between atoms: C14_22  and  S1_23 
ROOT
HETATM    1  C6  UNL     1      17.515  -5.736  11.980  1.00  0.00     0.046 A 
HETATM    2  C7  UNL     1      16.241  -5.955  12.548  1.00  0.00     0.030 A 
HETATM    3  C8  UNL     1      15.888  -7.208  12.971  1.00  0.00     0.021 A 
HETATM    4  C9  UNL     1      16.773  -8.251  12.843  1.00  0.00     0.110 A 
HETATM    5  N5  UNL     1      17.972  -8.004  12.299  1.00  0.00    -0.301 N 
HETATM    6  N6  UNL     1      18.326  -6.797  11.887  1.00  0.00    -0.297 N 
HETATM    7  C15 UNL     1      19.667  -6.630  11.361  1.00  0.00     0.178 C 
ENDROOT
BRANCH   1   8
HETATM    8  C5  UNL     1      17.826  -4.364  11.554  1.00  0.00     0.190 C 
BRANCH   8   9
HETATM    9  N4  UNL     1      17.391  -4.069  10.188  1.00  0.00    -0.320 N 
HETATM   10  C4  UNL     1      16.123  -3.803   9.848  1.00  0.00     0.186 A 
HETATM   11  N3  UNL     1      16.092  -3.594   8.533  1.00  0.00    -0.335 N 
HETATM   12  C3  UNL     1      17.334  -3.727   8.041  1.00  0.00     0.167 A 
ATOM     13  H3  UNL     1      15.260  -3.369   7.988  1.00  0.00     0.168 HD
HETATM   14  N2  UNL     1      18.108  -3.683   6.930  1.00  0.00    -0.173 N 
HETATM   15  C16 UNL     1      18.154  -4.030   9.113  1.00  0.00     0.169 A 
HETATM   16  C2  UNL     1      19.373  -3.947   7.271  1.00  0.00     0.681 A 
ATOM     17  H2  UNL     1      17.779  -3.482   5.986  1.00  0.00     0.186 HD
HETATM   18  N7  UNL     1      19.414  -4.159   8.587  1.00  0.00    -0.173 N 
ATOM     19  H7  UNL     1      20.254  -4.382   9.121  1.00  0.00     0.186 HD
BRANCH  16  20
HETATM   20  N1  UNL     1      20.431  -4.004   6.501  1.00  0.00    -0.230 N 
HETATM   21  C1  UNL     1      20.542  -5.054   5.522  1.00  0.00     0.165 C 
ATOM     22  H1  UNL     1      21.172  -3.309   6.595  1.00  0.00     0.177 HD
ENDBRANCH  16  20
ENDBRANCH   8   9
ENDBRANCH   1   8
BRANCH   5  23
HETATM   23  C10 UNL     1      18.893  -9.123  12.183  1.00  0.00     0.148 C 
BRANCH  23  24
HETATM   24  C11 UNL     1      18.165 -10.399  11.937  1.00  0.00     0.022 C 
BRANCH  24  25
HETATM   25  C12 UNL     1      18.429 -11.016  10.576  1.00  0.00     0.003 C 
BRANCH  25  26
HETATM   26  C13 UNL     1      18.771 -12.470  10.740  1.00  0.00     0.018 C 
BRANCH  26  27
HETATM   27  C14 UNL     1      18.637 -13.293   9.506  1.00  0.00     0.165 C 
BRANCH  27  28
HETATM   28  S1  UNL     1      17.209 -14.298   9.407  1.00  0.00     0.101 S 
HETATM   29  O1  UNL     1      16.893 -14.783   8.028  1.00  0.00    -0.595 OA
HETATM   30  O2  UNL     1      17.473 -15.564  10.224  1.00  0.00    -0.595 OA
HETATM   31  O3  UNL     1      15.858 -13.574  10.092  1.00  0.00    -0.595 OA
ENDBRANCH  27  28
ENDBRANCH  26  27
ENDBRANCH  25  26
ENDBRANCH  24  25
ENDBRANCH  23  24
ENDBRANCH   5  23
TORSDOF 9
ENDMDL
MODEL 2
REMARK VINA RESULT: -7.063171684      4.571      5.343
REMARK  9 active torsions:
REMARK  status: ('A' for Active; 'I' for Inactive)
REMARK    1  A    between atoms: N1_2  and  C2_4 
REMARK    2  A    between atoms: N4_11  and  C5_12 
REMARK    3  A    between atoms: C5_12  and  C6_13 
REMARK    4  A    between atoms: N5_17  and  C10_18 
REMARK    5  A    between atoms: C10_18  and  C11_19 
REMARK    6  A    between atoms: C11_19  and  C12_20 
REMARK    7  A    between atoms: C12_20  and  C13_21 
REMARK    8  A    between atoms: C13_21  and  C14_22 
REMARK    9  A    between atoms: C14_22  and  S1_23 
ROOT
HETATM    1  C6  UNL     1      17.833  -6.273  12.197  1.00  0.00     0.046 A 
HETATM    2  C7  UNL     1      18.282  -7.358  11.411  1.00  0.00     0.030 A 
HETATM    3  C8  UNL     1      17.845  -8.625  11.684  1.00  0.00     0.021 A 
HETATM    4  C9  UNL     1      16.970  -8.843  12.720  1.00  0.00     0.110 A 
HETATM    5  N5  UNL     1      16.567  -7.790  13.443  1.00  0.00    -0.301 N 
HETATM    6  N6  UNL     1      16.981  -6.558  13.189  1.00  0.00    -0.297 N 
HETATM    7  C15 UNL     1      16.440  -5.484  14.000  1.00  0.00     0.178 C 
ENDROOT
BRANCH   1   8
HETATM    8  C5  UNL     1      18.340  -4.940  11.842  1.00  0.00     0.190 C 
BRANCH   8   9
HETATM    9  N4  UNL     1      17.705  -4.377  10.650  1.00  0.00    -0.320 N 
HETATM   10  C4  UNL     1      16.417  -4.013  10.589  1.00  0.00     0.186 A 
HETATM   11  N3  UNL     1      16.182  -3.557   9.361  1.00  0.00    -0.335 N 
HETATM   12  C3  UNL     1      17.315  -3.632   8.645  1.00  0.00     0.167 A 
ATOM     13  H3  UNL     1      15.287  -3.208   9.019  1.00  0.00     0.168 HD
HETATM   14  N2  UNL     1      17.896  -3.402   7.443  1.00  0.00    -0.173 N 
HETATM   15  C16 UNL     1      18.280  -4.159   9.484  1.00  0.00     0.169 A 
HETATM   16  C2  UNL     1      19.181  -3.764   7.504  1.00  0.00     0.681 A 
ATOM     17  H2  UNL     1      17.428  -3.015   6.623  1.00  0.00     0.186 HD
HETATM   18  N7  UNL     1      19.426  -4.223   8.732  1.00  0.00    -0.173 N 
ATOM     19  H7  UNL     1      20.326  -4.569   9.062  1.00  0.00     0.186 HD
BRANCH  16  20
HETATM   20  N1  UNL     1      20.091  -3.706   6.565  1.00  0.00    -0.230 N 
HETATM   21  C1  UNL     1      20.310  -4.847   5.714  1.00  0.00     0.165 C 
ATOM     22  H1  UNL     1      20.643  -2.857   6.436  1.00  0.00     0.177 HD
ENDBRANCH  16  20
ENDBRANCH   8   9
ENDBRANCH   1   8
BRANCH   5  23
HETATM   23  C10 UNL     1      15.633  -8.046  14.528  1.00  0.00     0.148 C 
BRANCH  23  24
HETATM   24  C11 UNL     1      14.640  -9.090  14.151  1.00  0.00     0.022 C 
BRANCH  24  25
HETATM   25  C12 UNL     1      14.598 -10.280  15.092  1.00  0.00     0.003 C 
BRANCH  25  26
HETATM   26  C13 UNL     1      13.711  -9.964  16.264  1.00  0.00     0.018 C 
BRANCH  26  27
HETATM   27  C14 UNL     1      12.840 -11.085  16.715  1.00  0.00     0.165 C 
BRANCH  27  28
HETATM   28  S1  UNL     1      11.727 -10.713  18.013  1.00  0.00     0.101 S 
HETATM   29  O1  UNL     1      10.289 -10.951  17.676  1.00  0.00    -0.595 OA
HETATM   30  O2  UNL     1      12.028 -11.664  19.172  1.00  0.00    -0.595 OA
HETATM   31  O3  UNL     1      11.932  -9.160  18.618  1.00  0.00    -0.595 OA
ENDBRANCH  27  28
ENDBRANCH  26  27
ENDBRANCH  25  26
ENDBRANCH  24  25
ENDBRANCH  23  24
ENDBRANCH   5  23
TORSDOF 9
ENDMDL
MODEL 3
REMARK VINA RESULT: -7.045654003      1.656      2.087
REMARK  9 active torsions:
REMARK  status: ('A' for Active; 'I' for Inactive)
REMARK    1  A    between atoms: N1_2  and  C2_4 
REMARK    2  A    between atoms: N4_11  and  C5_12 
REMARK    3  A    between atoms: C5_12  and  C6_13 
REMARK    4  A    between atoms: N5_17  and  C10_18 
REMARK    5  A    between atoms: C10_18  and  C11_19 
REMARK    6  A    between atoms: C11_19  and  C12_20 
REMARK    7  A    between atoms: C12_20  and  C13_21 
REMARK    8  A    between atoms: C13_21  and  C14_22 
REMARK    9  A    between atoms: C14_22  and  S1_23 
ROOT
HETATM    1  C6  UNL     1      17.616  -5.745  12.749  1.00  0.00     0.046 A 
HETATM    2  C7  UNL     1      16.966  -5.145  13.850  1.00  0.00     0.030 A 
HETATM    3  C8  UNL     1      16.217  -5.911  14.701  1.00  0.00     0.021 A 
HETATM    4  C9  UNL     1      16.098  -7.262  14.486  1.00  0.00     0.110 A 
HETATM    5  N5  UNL     1      16.729  -7.796  13.431  1.00  0.00    -0.301 N 
HETATM    6  N6  UNL     1      17.458  -7.066  12.601  1.00  0.00    -0.297 N 
HETATM    7  C15 UNL     1      18.141  -7.753  11.522  1.00  0.00     0.178 C 
ENDROOT
BRANCH   1   8
HETATM    8  C5  UNL     1      18.408  -4.862  11.881  1.00  0.00     0.190 C 
BRANCH   8   9
HETATM    9  N4  UNL     1      17.683  -4.420  10.690  1.00  0.00    -0.320 N 
HETATM   10  C4  UNL     1      16.362  -4.197  10.656  1.00  0.00     0.186 A 
HETATM   11  N3  UNL     1      16.046  -3.820   9.420  1.00  0.00    -0.335 N 
HETATM   12  C3  UNL     1      17.160  -3.803   8.671  1.00  0.00     0.167 A 
ATOM     13  H3  UNL     1      15.109  -3.582   9.094  1.00  0.00     0.168 HD
HETATM   14  N2  UNL     1      17.679  -3.561   7.443  1.00  0.00    -0.173 N 
HETATM   15  C16 UNL     1      18.199  -4.189   9.498  1.00  0.00     0.169 A 
HETATM   16  C2  UNL     1      18.997  -3.782   7.477  1.00  0.00     0.681 A 
ATOM     17  H2  UNL     1      17.150  -3.260   6.625  1.00  0.00     0.186 HD
HETATM   18  N7  UNL     1      19.324  -4.162   8.713  1.00  0.00    -0.173 N 
ATOM     19  H7  UNL     1      20.265  -4.396   9.027  1.00  0.00     0.186 HD
BRANCH  16  20
HETATM   20  N1  UNL     1      19.870  -3.665   6.508  1.00  0.00    -0.230 N 
HETATM   21  C1  UNL     1      20.203  -4.816   5.709  1.00  0.00     0.165 C 
ATOM     22  H1  UNL     1      20.311  -2.765   6.319  1.00  0.00     0.177 HD
ENDBRANCH  16  20
ENDBRANCH   8   9
ENDBRANCH   1   8
BRANCH   5  23
HETATM   23  C10 UNL     1      16.594  -9.229  13.231  1.00  0.00     0.148 C 
BRANCH  23  24
HETATM   24  C11 UNL     1      15.663  -9.829  14.227  1.00  0.00     0.022 C 
BRANCH  24  25
HETATM   25  C12 UNL     1      15.720 -11.343  14.302  1.00  0.00     0.003 C 
BRANCH  25  26
HETATM   26  C13 UNL     1      16.836 -11.850  13.432  1.00  0.00     0.018 C 
BRANCH  26  27
HETATM   27  C14 UNL     1      16.444 -12.900  12.452  1.00  0.00     0.165 C 
BRANCH  27  28
HETATM   28  S1  UNL     1      17.091 -12.720  10.837  1.00  0.00     0.101 S 
HETATM   29  O1  UNL     1      17.650 -11.362  10.547  1.00  0.00    -0.595 OA
HETATM   30  O2  UNL     1      18.278 -13.675  10.701  1.00  0.00    -0.595 OA
HETATM   31  O3  UNL     1      15.995 -13.164   9.645  1.00  0.00    -0.595 OA
ENDBRANCH  27  28
ENDBRANCH  26  27
ENDBRANCH  25  26
ENDBRANCH  24  25
ENDBRANCH  23  24
ENDBRANCH   5  23
TORSDOF 9
ENDMDL
MODEL 4
REMARK VINA RESULT: -7.045128565      0.995      1.181
REMARK  9 active torsions:
REMARK  status: ('A' for Active; 'I' for Inactive)
REMARK    1  A    between atoms: N1_2  and  C2_4 
REMARK    2  A    between atoms: N4_11  and  C5_12 
REMARK    3  A    between atoms: C5_12  and  C6_13 
REMARK    4  A    between atoms: N5_17  and  C10_18 
REMARK    5  A    between atoms: C10_18  and  C11_19 
REMARK    6  A    between atoms: C11_19  and  C12_20 
REMARK    7  A    between atoms: C12_20  and  C13_21 
REMARK    8  A    between atoms: C13_21  and  C14_22 
REMARK    9  A    between atoms: C14_22  and  S1_23 
ROOT
HETATM    1  C6  UNL     1      17.815  -5.697  11.905  1.00  0.00     0.046 A 
HETATM    2  C7  UNL     1      16.572  -6.252  12.281  1.00  0.00     0.030 A 
HETATM    3  C8  UNL     1      16.493  -7.571  12.638  1.00  0.00     0.021 A 
HETATM    4  C9  UNL     1      17.622  -8.353  12.633  1.00  0.00     0.110 A 
HETATM    5  N5  UNL     1      18.783  -7.791  12.271  1.00  0.00    -0.301 N 
HETATM    6  N6  UNL     1      18.874  -6.517  11.923  1.00  0.00    -0.297 N 
HETATM    7  C15 UNL     1      20.188  -5.997  11.600  1.00  0.00     0.178 C 
ENDROOT
BRANCH   1   8
HETATM    8  C5  UNL     1      17.825  -4.273  11.540  1.00  0.00     0.190 C 
BRANCH   8   9
HETATM    9  N4  UNL     1      17.384  -4.025  10.166  1.00  0.00    -0.320 N 
HETATM   10  C4  UNL     1      16.110  -3.798   9.819  1.00  0.00     0.186 A 
HETATM   11  N3  UNL     1      16.075  -3.625   8.499  1.00  0.00    -0.335 N 
HETATM   12  C3  UNL     1      17.320  -3.743   8.011  1.00  0.00     0.167 A 
ATOM     13  H3  UNL     1      15.238  -3.434   7.949  1.00  0.00     0.168 HD
HETATM   14  N2  UNL     1      18.093  -3.712   6.899  1.00  0.00    -0.173 N 
HETATM   15  C16 UNL     1      18.146  -3.999   9.090  1.00  0.00     0.169 A 
HETATM   16  C2  UNL     1      19.363  -3.938   7.246  1.00  0.00     0.681 A 
ATOM     17  H2  UNL     1      17.759  -3.544   5.950  1.00  0.00     0.186 HD
HETATM   18  N7  UNL     1      19.409  -4.113   8.568  1.00  0.00    -0.173 N 
ATOM     19  H7  UNL     1      20.253  -4.302   9.107  1.00  0.00     0.186 HD
BRANCH  16  20
HETATM   20  N1  UNL     1      20.423  -3.991   6.478  1.00  0.00    -0.230 N 
HETATM   21  C1  UNL     1      20.559  -5.065   5.528  1.00  0.00     0.165 C 
ATOM     22  H1  UNL     1      21.147  -3.277   6.553  1.00  0.00     0.177 HD
ENDBRANCH  16  20
ENDBRANCH   8   9
ENDBRANCH   1   8
BRANCH   5  23
HETATM   23  C10 UNL     1      19.965  -8.638  12.282  1.00  0.00     0.148 C 
BRANCH  23  24
HETATM   24  C11 UNL     1      19.609 -10.057  12.567  1.00  0.00     0.022 C 
BRANCH  24  25
HETATM   25  C12 UNL     1      20.014 -11.033  11.478  1.00  0.00     0.003 C 
BRANCH  25  26
HETATM   26  C13 UNL     1      19.004 -10.996  10.366  1.00  0.00     0.018 C 
BRANCH  26  27
HETATM   27  C14 UNL     1      17.641 -11.471  10.736  1.00  0.00     0.165 C 
BRANCH  27  28
HETATM   28  S1  UNL     1      17.251 -13.111  10.271  1.00  0.00     0.101 S 
HETATM   29  O1  UNL     1      15.914 -13.263   9.617  1.00  0.00    -0.595 OA
HETATM   30  O2  UNL     1      18.265 -13.549   9.213  1.00  0.00    -0.595 OA
HETATM   31  O3  UNL     1      17.403 -14.199  11.541  1.00  0.00    -0.595 OA
ENDBRANCH  27  28
ENDBRANCH  26  27
ENDBRANCH  25  26
ENDBRANCH  24  25
ENDBRANCH  23  24
ENDBRANCH   5  23
TORSDOF 9
ENDMDL
MODEL 5
REMARK VINA RESULT: -7.034813491      1.890      2.665
REMARK  9 active torsions:
REMARK  status: ('A' for Active; 'I' for Inactive)
REMARK    1  A    between atoms: N1_2  and  C2_4 
REMARK    2  A    between atoms: N4_11  and  C5_12 
REMARK    3  A    between atoms: C5_12  and  C6_13 
REMARK    4  A    between atoms: N5_17  and  C10_18 
REMARK    5  A    between atoms: C10_18  and  C11_19 
REMARK    6  A    between atoms: C11_19  and  C12_20 
REMARK    7  A    between atoms: C12_20  and  C13_21 
REMARK    8  A    between atoms: C13_21  and  C14_22 
REMARK    9  A    between atoms: C14_22  and  S1_23 
ROOT
HETATM    1  C6  UNL     1      17.876  -6.398  12.125  1.00  0.00     0.046 A 
HETATM    2  C7  UNL     1      18.532  -7.349  11.312  1.00  0.00     0.030 A 
HETATM    3  C8  UNL     1      18.161  -8.665  11.366  1.00  0.00     0.021 A 
HETATM    4  C9  UNL     1      17.151  -9.061  12.208  1.00  0.00     0.110 A 
HETATM    5  N5  UNL     1      16.552  -8.131  12.963  1.00  0.00    -0.301 N 
HETATM    6  N6  UNL     1      16.900  -6.854  12.920  1.00  0.00    -0.297 N 
HETATM    7  C15 UNL     1      16.151  -5.922  13.741  1.00  0.00     0.178 C 
ENDROOT
BRANCH   1   8
HETATM    8  C5  UNL     1      18.323  -5.003  12.010  1.00  0.00     0.190 C 
BRANCH   8   9
HETATM    9  N4  UNL     1      17.747  -4.303  10.861  1.00  0.00    -0.320 N 
HETATM   10  C4  UNL     1      16.514  -3.777  10.846  1.00  0.00     0.186 A 
HETATM   11  N3  UNL     1      16.321  -3.231   9.647  1.00  0.00    -0.335 N 
HETATM   12  C3  UNL     1      17.425  -3.410   8.904  1.00  0.00     0.167 A 
ATOM     13  H3  UNL     1      15.473  -2.755   9.343  1.00  0.00     0.168 HD
HETATM   14  N2  UNL     1      18.013  -3.191   7.704  1.00  0.00    -0.173 N 
HETATM   15  C16 UNL     1      18.328  -4.097   9.695  1.00  0.00     0.169 A 
HETATM   16  C2  UNL     1      19.243  -3.715   7.720  1.00  0.00     0.681 A 
ATOM     17  H2  UNL     1      17.586  -2.705   6.915  1.00  0.00     0.186 HD
HETATM   18  N7  UNL     1      19.445  -4.265   8.918  1.00  0.00    -0.173 N 
ATOM     19  H7  UNL     1      20.299  -4.738   9.211  1.00  0.00     0.186 HD
BRANCH  16  20
HETATM   20  N1  UNL     1      20.139  -3.721   6.766  1.00  0.00    -0.230 N 
HETATM   21  C1  UNL     1      20.078  -4.729   5.739  1.00  0.00     0.165 C 
ATOM     22  H1  UNL     1      20.878  -3.017   6.750  1.00  0.00     0.177 HD
ENDBRANCH  16  20
ENDBRANCH   8   9
ENDBRANCH   1   8
BRANCH   5  23
HETATM   23  C10 UNL     1      15.480  -8.574  13.839  1.00  0.00     0.148 C 
BRANCH  23  24
HETATM   24  C11 UNL     1      15.954  -9.625  14.783  1.00  0.00     0.022 C 
BRANCH  24  25
HETATM   25  C12 UNL     1      15.262 -10.966  14.623  1.00  0.00     0.003 C 
BRANCH  25  26
HETATM   26  C13 UNL     1      16.287 -12.033  14.359  1.00  0.00     0.018 C 
BRANCH  26  27
HETATM   27  C14 UNL     1      16.077 -12.813  13.108  1.00  0.00     0.165 C 
BRANCH  27  28
HETATM   28  S1  UNL     1      17.424 -12.844  11.993  1.00  0.00     0.101 S 
HETATM   29  O1  UNL     1      18.683 -12.241  12.531  1.00  0.00    -0.595 OA
HETATM   30  O2  UNL     1      17.770 -14.308  11.720  1.00  0.00    -0.595 OA
HETATM   31  O3  UNL     1      17.048 -12.168  10.502  1.00  0.00    -0.595 OA
ENDBRANCH  27  28
ENDBRANCH  26  27
ENDBRANCH  25  26
ENDBRANCH  24  25
ENDBRANCH  23  24
ENDBRANCH   5  23
TORSDOF 9
ENDMDL
