MODEL 1
REMARK VINA RESULT: -7.669954030      0.000      0.000
REMARK  11 active torsions:
REMARK  status: ('A' for Active; 'I' for Inactive)
REMARK    1  A    between atoms: C2_2  and  N1_3 
REMARK    2  A    between atoms: C5_8  and  C6_9 
REMARK    3  A    between atoms: C6_9  and  C7_10 
REMARK    4  A    between atoms: C7_10  and  C8_11 
REMARK    5  A    between atoms: C8_11  and  N3_12 
REMARK    6  A    between atoms: C10_14  and  N4_15 
REMARK    7  A    between atoms: N4_15  and  O1_19 
REMARK    8  A    between atoms: C12_22  and  C13_23 
REMARK    9  A    between atoms: C13_23  and  N6_24 
REMARK   10  A    between atoms: C15_28  and  N8_29 
REMARK   11  A    between atoms: C16_34  and  N10_35 
ROOT
HETATM    1  N3  UNL     1      18.432  -7.954  12.758  1.00  0.00    -0.358 N 
HETATM    2  C9  UNL     1      19.766  -8.177  12.668  1.00  0.00     0.124 A 
HETATM    3  C10 UNL     1      20.576  -7.183  12.192  1.00  0.00     0.096 A 
HETATM    4  C11 UNL     1      20.091  -5.953  11.799  1.00  0.00     0.046 A 
HETATM    5  C12 UNL     1      18.746  -5.731  11.891  1.00  0.00    -0.015 A 
HETATM    6  C17 UNL     1      17.939  -6.755  12.377  1.00  0.00     0.015 A 
HETATM    7  C18 UNL     1      16.480  -6.532  12.468  1.00  0.00     0.069 C 
ENDROOT
BRANCH   5   8
HETATM    8  C13 UNL     1      18.118  -4.469  11.480  1.00  0.00     0.189 C 
BRANCH   8   9
HETATM    9  N6  UNL     1      18.150  -4.157  10.097  1.00  0.00    -0.174 N 
HETATM   10  C14 UNL     1      19.309  -4.065   9.437  1.00  0.00     0.218 A 
HETATM   11  N7  UNL     1      19.364  -3.747   8.120  1.00  0.00    -0.187 N 
HETATM   12  C15 UNL     1      18.236  -3.518   7.451  1.00  0.00     0.691 A 
ATOM     13  H7  UNL     1      20.265  -3.683   7.645  1.00  0.00     0.185 HD
HETATM   14  N9  UNL     1      17.078  -3.607   8.093  1.00  0.00    -0.023 N 
HETATM   15  C16 UNL     1      17.013  -3.924   9.410  1.00  0.00     0.693 A 
ATOM     16  H9  UNL     1      16.212  -3.432   7.581  1.00  0.00     0.203 HD
BRANCH  12  17
HETATM   17  N8  UNL     1      18.249  -3.210   6.188  1.00  0.00    -0.234 N 
ATOM     18  H82 UNL     1      19.140  -3.118   5.701  1.00  0.00     0.174 HD
ATOM     19  H81 UNL     1      17.384  -3.058   5.670  1.00  0.00     0.174 HD
ENDBRANCH  12  17
BRANCH  15  20
HETATM   20  N10 UNL     1      15.849  -4.007   9.944  1.00  0.00    -0.234 N 
ATOM     21 2H10 UNL     1      15.801  -4.129  10.956  1.00  0.00     0.174 HD
ATOM     22 1H10 UNL     1      14.987  -3.940   9.403  1.00  0.00     0.174 HD
ENDBRANCH  15  20
ENDBRANCH   8   9
ENDBRANCH   5   8
BRANCH   3  23
HETATM   23  N4  UNL     1      21.972  -7.482  12.123  1.00  0.00    -0.169 N 
HETATM   24  N5  UNL     1      22.783  -7.055  12.989  1.00  0.00    -0.319 N 
ATOM     25  H52 UNL     1      22.429  -6.486  13.758  1.00  0.00     0.179 HD
ATOM     26  H51 UNL     1      23.779  -7.268  12.939  1.00  0.00     0.179 HD
BRANCH  23  27
HETATM   27  O1  UNL     1      22.447  -8.245  11.093  1.00  0.00    -0.268 OA
ATOM     28  H1  UNL     1      23.252  -7.991  10.656  1.00  0.00     0.247 HD
ENDBRANCH  23  27
ENDBRANCH   3  23
BRANCH   1  29
HETATM   29  C8  UNL     1      17.635  -9.041  13.274  1.00  0.00     0.129 C 
BRANCH  29  30
HETATM   30  C7  UNL     1      18.021 -10.402  12.815  1.00  0.00     0.027 C 
BRANCH  30  31
HETATM   31  C6  UNL     1      17.514 -10.680  11.422  1.00  0.00     0.078 C 
BRANCH  31  32
HETATM   32  C5  UNL     1      18.506 -11.455  10.619  1.00  0.00     0.083 A 
HETATM   33  N1  UNL     1      18.418 -12.727  10.218  1.00  0.00    -0.346 N 
HETATM   34  C3  UNL     1      19.548 -13.018   9.519  1.00  0.00     0.109 A 
HETATM   35  C4  UNL     1      20.341 -11.890   9.496  1.00  0.00     0.106 A 
HETATM   36  N2  UNL     1      19.681 -10.938  10.179  1.00  0.00    -0.354 N 
ATOM     37  H2  UNL     1      20.009  -9.987  10.341  1.00  0.00     0.166 HD
BRANCH  33  38
HETATM   38  C2  UNL     1      17.309 -13.610  10.494  1.00  0.00     0.125 C 
HETATM   39  C1  UNL     1      16.260 -13.539   9.410  1.00  0.00     0.027 C 
ENDBRANCH  33  38
ENDBRANCH  31  32
ENDBRANCH  30  31
ENDBRANCH  29  30
ENDBRANCH   1  29
TORSDOF 11
ENDMDL
MODEL 2
REMARK VINA RESULT: -7.416050301      2.182      3.246
REMARK  11 active torsions:
REMARK  status: ('A' for Active; 'I' for Inactive)
REMARK    1  A    between atoms: C2_2  and  N1_3 
REMARK    2  A    between atoms: C5_8  and  C6_9 
REMARK    3  A    between atoms: C6_9  and  C7_10 
REMARK    4  A    between atoms: C7_10  and  C8_11 
REMARK    5  A    between atoms: C8_11  and  N3_12 
REMARK    6  A    between atoms: C10_14  and  N4_15 
REMARK    7  A    between atoms: N4_15  and  O1_19 
REMARK    8  A    between atoms: C12_22  and  C13_23 
REMARK    9  A    between atoms: C13_23  and  N6_24 
REMARK   10  A    between atoms: C15_28  and  N8_29 
REMARK   11  A    between atoms: C16_34  and  N10_35 
ROOT
HETATM    1  N3  UNL     1      19.024  -6.617  12.580  1.00  0.00    -0.358 N 
HETATM    2  C9  UNL     1      18.020  -6.347  13.449  1.00  0.00     0.124 A 
HETATM    3  C10 UNL     1      17.296  -5.197  13.293  1.00  0.00     0.096 A 
HETATM    4  C11 UNL     1      17.546  -4.294  12.281  1.00  0.00     0.046 A 
HETATM    5  C12 UNL     1      18.558  -4.569  11.406  1.00  0.00    -0.015 A 
HETATM    6  C17 UNL     1      19.283  -5.744  11.582  1.00  0.00     0.015 A 
HETATM    7  C18 UNL     1      20.391  -6.046  10.651  1.00  0.00     0.069 C 
ENDROOT
BRANCH   5   8
HETATM    8  C13 UNL     1      18.926  -3.669  10.306  1.00  0.00     0.189 C 
BRANCH   8   9
HETATM    9  N6  UNL     1      18.109  -3.706   9.147  1.00  0.00    -0.174 N 
HETATM   10  C14 UNL     1      16.780  -3.809   9.243  1.00  0.00     0.218 A 
HETATM   11  N7  UNL     1      15.980  -3.867   8.149  1.00  0.00    -0.187 N 
HETATM   12  C15 UNL     1      16.524  -3.820   6.934  1.00  0.00     0.691 A 
ATOM     13  H7  UNL     1      14.969  -3.947   8.256  1.00  0.00     0.185 HD
HETATM   14  N9  UNL     1      17.843  -3.718   6.823  1.00  0.00    -0.023 N 
HETATM   15  C16 UNL     1      18.650  -3.659   7.912  1.00  0.00     0.693 A 
ATOM     16  H9  UNL     1      18.261  -3.681   5.893  1.00  0.00     0.203 HD
BRANCH  12  17
HETATM   17  N8  UNL     1      15.791  -3.875   5.863  1.00  0.00    -0.234 N 
ATOM     18  H82 UNL     1      14.783  -3.742   5.934  1.00  0.00     0.174 HD
ATOM     19  H81 UNL     1      16.203  -4.047   4.946  1.00  0.00     0.174 HD
ENDBRANCH  12  17
BRANCH  15  20
HETATM   20  N10 UNL     1      19.912  -3.540   7.710  1.00  0.00    -0.234 N 
ATOM     21 2H10 UNL     1      20.486  -3.215   8.489  1.00  0.00     0.174 HD
ATOM     22 1H10 UNL     1      20.352  -3.769   6.820  1.00  0.00     0.174 HD
ENDBRANCH  15  20
ENDBRANCH   8   9
ENDBRANCH   5   8
BRANCH   3  23
HETATM   23  N4  UNL     1      16.251  -4.971  14.242  1.00  0.00    -0.169 N 
HETATM   24  N5  UNL     1      15.917  -3.806  14.591  1.00  0.00    -0.319 N 
ATOM     25  H52 UNL     1      16.404  -3.010  14.181  1.00  0.00     0.179 HD
ATOM     26  H51 UNL     1      15.171  -3.645  15.268  1.00  0.00     0.179 HD
BRANCH  23  27
HETATM   27  O1  UNL     1      15.598  -6.038  14.791  1.00  0.00    -0.268 OA
ATOM     28  H1  UNL     1      15.008  -5.899  15.522  1.00  0.00     0.247 HD
ENDBRANCH  23  27
ENDBRANCH   3  23
BRANCH   1  29
HETATM   29  C8  UNL     1      19.742  -7.850  12.797  1.00  0.00     0.129 C 
BRANCH  29  30
HETATM   30  C7  UNL     1      18.925  -9.092  12.765  1.00  0.00     0.027 C 
BRANCH  30  31
HETATM   31  C6  UNL     1      18.405  -9.376  11.377  1.00  0.00     0.078 C 
BRANCH  31  32
HETATM   32  C5  UNL     1      19.039 -10.593  10.789  1.00  0.00     0.083 A 
HETATM   33  N1  UNL     1      18.464 -11.773  10.535  1.00  0.00    -0.346 N 
HETATM   34  C3  UNL     1      19.415 -12.589  10.007  1.00  0.00     0.109 A 
HETATM   35  C4  UNL     1      20.598 -11.883   9.940  1.00  0.00     0.106 A 
HETATM   36  N2  UNL     1      20.344 -10.656  10.427  1.00  0.00    -0.354 N 
ATOM     37  H2  UNL     1      21.022  -9.898  10.510  1.00  0.00     0.166 HD
BRANCH  33  38
HETATM   38  C2  UNL     1      17.078 -12.093  10.787  1.00  0.00     0.125 C 
HETATM   39  C1  UNL     1      16.555 -13.108   9.798  1.00  0.00     0.027 C 
ENDBRANCH  33  38
ENDBRANCH  31  32
ENDBRANCH  30  31
ENDBRANCH  29  30
ENDBRANCH   1  29
TORSDOF 11
ENDMDL
MODEL 3
REMARK VINA RESULT: -7.389603555      0.771      1.644
REMARK  11 active torsions:
REMARK  status: ('A' for Active; 'I' for Inactive)
REMARK    1  A    between atoms: C2_2  and  N1_3 
REMARK    2  A    between atoms: C5_8  and  C6_9 
REMARK    3  A    between atoms: C6_9  and  C7_10 
REMARK    4  A    between atoms: C7_10  and  C8_11 
REMARK    5  A    between atoms: C8_11  and  N3_12 
REMARK    6  A    between atoms: C10_14  and  N4_15 
REMARK    7  A    between atoms: N4_15  and  O1_19 
REMARK    8  A    between atoms: C12_22  and  C13_23 
REMARK    9  A    between atoms: C13_23  and  N6_24 
REMARK   10  A    between atoms: C15_28  and  N8_29 
REMARK   11  A    between atoms: C16_34  and  N10_35 
ROOT
HETATM    1  N3  UNL     1      18.623  -8.398  12.298  1.00  0.00    -0.358 N 
HETATM    2  C9  UNL     1      19.969  -8.554  12.322  1.00  0.00     0.124 A 
HETATM    3  C10 UNL     1      20.768  -7.472  12.075  1.00  0.00     0.096 A 
HETATM    4  C11 UNL     1      20.260  -6.219  11.804  1.00  0.00     0.046 A 
HETATM    5  C12 UNL     1      18.903  -6.065  11.781  1.00  0.00    -0.015 A 
HETATM    6  C17 UNL     1      18.106  -7.178  12.034  1.00  0.00     0.015 A 
HETATM    7  C18 UNL     1      16.636  -7.027  11.998  1.00  0.00     0.069 C 
ENDROOT
BRANCH   5   8
HETATM    8  C13 UNL     1      18.252  -4.783  11.482  1.00  0.00     0.189 C 
BRANCH   8   9
HETATM    9  N6  UNL     1      18.234  -4.375  10.124  1.00  0.00    -0.174 N 
HETATM   10  C14 UNL     1      19.357  -4.329   9.402  1.00  0.00     0.218 A 
HETATM   11  N7  UNL     1      19.367  -3.922   8.108  1.00  0.00    -0.187 N 
HETATM   12  C15 UNL     1      18.227  -3.554   7.527  1.00  0.00     0.691 A 
ATOM     13  H7  UNL     1      20.242  -3.897   7.585  1.00  0.00     0.185 HD
HETATM   14  N9  UNL     1      17.103  -3.595   8.231  1.00  0.00    -0.023 N 
HETATM   15  C16 UNL     1      17.084  -4.000   9.525  1.00  0.00     0.693 A 
ATOM     16  H9  UNL     1      16.228  -3.313   7.786  1.00  0.00     0.203 HD
BRANCH  12  17
HETATM   17  N8  UNL     1      18.197  -3.157   6.290  1.00  0.00    -0.234 N 
ATOM     18  H82 UNL     1      17.333  -2.776   5.903  1.00  0.00     0.174 HD
ATOM     19  H81 UNL     1      19.021  -3.216   5.693  1.00  0.00     0.174 HD
ENDBRANCH  12  17
BRANCH  15  20
HETATM   20  N10 UNL     1      15.949  -4.027  10.122  1.00  0.00    -0.234 N 
ATOM     21 2H10 UNL     1      15.948  -4.207  11.127  1.00  0.00     0.174 HD
ATOM     22 1H10 UNL     1      15.067  -3.862   9.639  1.00  0.00     0.174 HD
ENDBRANCH  15  20
ENDBRANCH   8   9
ENDBRANCH   5   8
BRANCH   3  23
HETATM   23  N4  UNL     1      22.179  -7.703  12.115  1.00  0.00    -0.169 N 
HETATM   24  N5  UNL     1      22.892  -7.270  13.060  1.00  0.00    -0.319 N 
ATOM     25  H52 UNL     1      22.448  -6.746  13.814  1.00  0.00     0.179 HD
ATOM     26  H51 UNL     1      23.898  -7.434  13.088  1.00  0.00     0.179 HD
BRANCH  23  27
HETATM   27  O1  UNL     1      22.774  -8.405  11.106  1.00  0.00    -0.268 OA
ATOM     28  H1  UNL     1      22.238  -8.783  10.419  1.00  0.00     0.247 HD
ENDBRANCH  23  27
ENDBRANCH   3  23
BRANCH   1  29
HETATM   29  C8  UNL     1      17.838  -9.578  12.573  1.00  0.00     0.129 C 
BRANCH  29  30
HETATM   30  C7  UNL     1      17.559 -10.458  11.407  1.00  0.00     0.027 C 
BRANCH  30  31
HETATM   31  C6  UNL     1      17.414 -11.900  11.824  1.00  0.00     0.078 C 
BRANCH  31  32
HETATM   32  C5  UNL     1      17.295 -12.806  10.645  1.00  0.00     0.083 A 
HETATM   33  N1  UNL     1      18.281 -13.415   9.978  1.00  0.00    -0.346 N 
HETATM   34  C3  UNL     1      17.715 -14.136   8.973  1.00  0.00     0.109 A 
HETATM   35  C4  UNL     1      16.349 -13.960   9.035  1.00  0.00     0.106 A 
HETATM   36  N2  UNL     1      16.111 -13.137  10.071  1.00  0.00    -0.354 N 
ATOM     37  H2  UNL     1      15.192 -12.815  10.375  1.00  0.00     0.166 HD
BRANCH  33  38
HETATM   38  C2  UNL     1      19.686 -13.306  10.292  1.00  0.00     0.125 C 
HETATM   39  C1  UNL     1      20.353 -12.216   9.485  1.00  0.00     0.027 C 
ENDBRANCH  33  38
ENDBRANCH  31  32
ENDBRANCH  30  31
ENDBRANCH  29  30
ENDBRANCH   1  29
TORSDOF 11
ENDMDL
MODEL 4
REMARK VINA RESULT: -7.275886893      2.748      8.440
REMARK  11 active torsions:
REMARK  status: ('A' for Active; 'I' for Inactive)
REMARK    1  A    between atoms: C2_2  and  N1_3 
REMARK    2  A    between atoms: C5_8  and  C6_9 
REMARK    3  A    between atoms: C6_9  and  C7_10 
REMARK    4  A    between atoms: C7_10  and  C8_11 
REMARK    5  A    between atoms: C8_11  and  N3_12 
REMARK    6  A    between atoms: C10_14  and  N4_15 
REMARK    7  A    between atoms: N4_15  and  O1_19 
REMARK    8  A    between atoms: C12_22  and  C13_23 
REMARK    9  A    between atoms: C13_23  and  N6_24 
REMARK   10  A    between atoms: C15_28  and  N8_29 
REMARK   11  A    between atoms: C16_34  and  N10_35 
ROOT
HETATM    1  N3  UNL     1      17.746  -9.578  12.098  1.00  0.00    -0.358 N 
HETATM    2  C9  UNL     1      16.757  -9.588  13.024  1.00  0.00     0.124 A 
HETATM    3  C10 UNL     1      16.273 -10.786  13.469  1.00  0.00     0.096 A 
HETATM    4  C11 UNL     1      16.754 -11.997  13.014  1.00  0.00     0.046 A 
HETATM    5  C12 UNL     1      17.752 -11.984  12.081  1.00  0.00    -0.015 A 
HETATM    6  C17 UNL     1      18.230 -10.754  11.640  1.00  0.00     0.015 A 
HETATM    7  C18 UNL     1      19.299 -10.727  10.620  1.00  0.00     0.069 C 
ENDROOT
BRANCH   5   8
HETATM    8  C13 UNL     1      18.323 -13.211  11.511  1.00  0.00     0.189 C 
BRANCH   8   9
HETATM    9  N6  UNL     1      17.648 -13.777  10.400  1.00  0.00    -0.174 N 
HETATM   10  C14 UNL     1      16.465 -13.302   9.997  1.00  0.00     0.218 A 
HETATM   11  N7  UNL     1      15.791 -13.841   8.951  1.00  0.00    -0.187 N 
HETATM   12  C15 UNL     1      16.314 -14.876   8.295  1.00  0.00     0.691 A 
ATOM     13  H7  UNL     1      14.890 -13.457   8.668  1.00  0.00     0.185 HD
HETATM   14  N9  UNL     1      17.488 -15.357   8.683  1.00  0.00    -0.023 N 
HETATM   15  C16 UNL     1      18.169 -14.825   9.728  1.00  0.00     0.693 A 
ATOM     16  H9  UNL     1      17.890 -16.150   8.182  1.00  0.00     0.203 HD
BRANCH  12  17
HETATM   17  N8  UNL     1      15.698 -15.419   7.288  1.00  0.00    -0.234 N 
ATOM     18  H82 UNL     1      15.393 -16.391   7.348  1.00  0.00     0.174 HD
ATOM     19  H81 UNL     1      15.509 -14.894   6.435  1.00  0.00     0.174 HD
ENDBRANCH  12  17
BRANCH  15  20
HETATM   20  N10 UNL     1      19.307 -15.341  10.022  1.00  0.00    -0.234 N 
ATOM     21 2H10 UNL     1      19.835 -14.917  10.784  1.00  0.00     0.174 HD
ATOM     22 1H10 UNL     1      19.684 -16.155   9.537  1.00  0.00     0.174 HD
ENDBRANCH  15  20
ENDBRANCH   8   9
ENDBRANCH   5   8
BRANCH   3  23
HETATM   23  N4  UNL     1      15.231 -10.727  14.446  1.00  0.00    -0.169 N 
HETATM   24  N5  UNL     1      14.930 -11.727  15.153  1.00  0.00    -0.319 N 
ATOM     25  H52 UNL     1      15.448 -12.596  15.023  1.00  0.00     0.179 HD
ATOM     26  H51 UNL     1      14.187 -11.685  15.849  1.00  0.00     0.179 HD
BRANCH  23  27
HETATM   27  O1  UNL     1      14.537  -9.563  14.620  1.00  0.00    -0.268 OA
ATOM     28  H1  UNL     1      14.890  -8.890  15.190  1.00  0.00     0.247 HD
ENDBRANCH  23  27
ENDBRANCH   3  23
BRANCH   1  29
HETATM   29  C8  UNL     1      18.215  -8.280  11.676  1.00  0.00     0.129 C 
BRANCH  29  30
HETATM   30  C7  UNL     1      17.270  -7.150  11.882  1.00  0.00     0.027 C 
BRANCH  30  31
HETATM   31  C6  UNL     1      17.975  -5.819  11.815  1.00  0.00     0.078 C 
BRANCH  31  32
HETATM   32  C5  UNL     1      17.288  -4.877  10.883  1.00  0.00     0.083 A 
HETATM   33  N1  UNL     1      17.760  -4.364   9.742  1.00  0.00    -0.346 N 
HETATM   34  C3  UNL     1      16.799  -3.551   9.227  1.00  0.00     0.109 A 
HETATM   35  C4  UNL     1      15.716  -3.573  10.080  1.00  0.00     0.106 A 
HETATM   36  N2  UNL     1      16.037  -4.395  11.094  1.00  0.00    -0.354 N 
ATOM     37  H2  UNL     1      15.440  -4.618  11.890  1.00  0.00     0.166 HD
BRANCH  33  38
HETATM   38  C2  UNL     1      19.062  -4.644   9.183  1.00  0.00     0.125 C 
HETATM   39  C1  UNL     1      19.268  -3.924   7.870  1.00  0.00     0.027 C 
ENDBRANCH  33  38
ENDBRANCH  31  32
ENDBRANCH  30  31
ENDBRANCH  29  30
ENDBRANCH   1  29
TORSDOF 11
ENDMDL
MODEL 5
REMARK VINA RESULT: -7.259890863      2.199      7.773
REMARK  11 active torsions:
REMARK  status: ('A' for Active; 'I' for Inactive)
REMARK    1  A    between atoms: C2_2  and  N1_3 
REMARK    2  A    between atoms: C5_8  and  C6_9 
REMARK    3  A    between atoms: C6_9  and  C7_10 
REMARK    4  A    between atoms: C7_10  and  C8_11 
REMARK    5  A    between atoms: C8_11  and  N3_12 
REMARK    6  A    between atoms: C10_14  and  N4_15 
REMARK    7  A    between atoms: N4_15  and  O1_19 
REMARK    8  A    between atoms: C12_22  and  C13_23 
REMARK    9  A    between atoms: C13_23  and  N6_24 
REMARK   10  A    between atoms: C15_28  and  N8_29 
REMARK   11  A    between atoms: C16_34  and  N10_35 
ROOT
HETATM    1  N3  UNL     1      19.158  -8.219  12.212  1.00  0.00    -0.358 N 
HETATM    2  C9  UNL     1      17.950  -7.669  12.485  1.00  0.00     0.124 A 
HETATM    3  C10 UNL     1      16.896  -8.489  12.779  1.00  0.00     0.096 A 
HETATM    4  C11 UNL     1      17.011  -9.864  12.812  1.00  0.00     0.046 A 
HETATM    5  C12 UNL     1      18.230 -10.415  12.536  1.00  0.00    -0.015 A 
HETATM    6  C17 UNL     1      19.289  -9.563  12.238  1.00  0.00     0.015 A 
HETATM    7  C18 UNL     1      20.610 -10.149  11.924  1.00  0.00     0.069 C 
ENDROOT
BRANCH   5   8
HETATM    8  C13 UNL     1      18.461 -11.865  12.520  1.00  0.00     0.189 C 
BRANCH   8   9
HETATM    9  N6  UNL     1      17.847 -12.601  11.475  1.00  0.00    -0.174 N 
HETATM   10  C14 UNL     1      18.410 -12.685  10.266  1.00  0.00     0.218 A 
HETATM   11  N7  UNL     1      17.830 -13.365   9.246  1.00  0.00    -0.187 N 
HETATM   12  C15 UNL     1      16.663 -13.975   9.443  1.00  0.00     0.691 A 
ATOM     13  H7  UNL     1      18.285 -13.409   8.334  1.00  0.00     0.185 HD
HETATM   14  N9  UNL     1      16.091 -13.901  10.639  1.00  0.00    -0.023 N 
HETATM   15  C16 UNL     1      16.664 -13.223  11.664  1.00  0.00     0.693 A 
ATOM     16  H9  UNL     1      15.197 -14.368  10.791  1.00  0.00     0.203 HD
BRANCH  12  17
HETATM   17  N8  UNL     1      16.076 -14.635   8.490  1.00  0.00    -0.234 N 
ATOM     18  H82 UNL     1      16.114 -15.654   8.485  1.00  0.00     0.174 HD
ATOM     19  H81 UNL     1      15.574 -14.155   7.742  1.00  0.00     0.174 HD
ENDBRANCH  12  17
BRANCH  15  20
HETATM   20  N10 UNL     1      16.051 -13.222  12.791  1.00  0.00    -0.234 N 
ATOM     21 2H10 UNL     1      16.563 -13.559  13.607  1.00  0.00     0.174 HD
ATOM     22 1H10 UNL     1      15.094 -12.887  12.898  1.00  0.00     0.174 HD
ENDBRANCH  15  20
ENDBRANCH   8   9
ENDBRANCH   5   8
BRANCH   3  23
HETATM   23  N4  UNL     1      15.650  -7.847  13.059  1.00  0.00    -0.169 N 
HETATM   24  N5  UNL     1      14.738  -8.428  13.706  1.00  0.00    -0.319 N 
ATOM     25  H52 UNL     1      14.898  -9.379  14.040  1.00  0.00     0.179 HD
ATOM     26  H51 UNL     1      13.849  -7.970  13.905  1.00  0.00     0.179 HD
BRANCH  23  27
HETATM   27  O1  UNL     1      15.434  -6.573  12.613  1.00  0.00    -0.268 OA
ATOM     28  H1  UNL     1      15.024  -6.437  11.767  1.00  0.00     0.247 HD
ENDBRANCH  23  27
ENDBRANCH   3  23
BRANCH   1  29
HETATM   29  C8  UNL     1      20.228  -7.297  11.917  1.00  0.00     0.129 C 
BRANCH  29  30
HETATM   30  C7  UNL     1      19.847  -5.861  11.850  1.00  0.00     0.027 C 
BRANCH  30  31
HETATM   31  C6  UNL     1      19.880  -5.345  10.432  1.00  0.00     0.078 C 
BRANCH  31  32
HETATM   32  C5  UNL     1      18.583  -4.718  10.043  1.00  0.00     0.083 A 
HETATM   33  N1  UNL     1      18.309  -4.027   8.932  1.00  0.00    -0.346 N 
HETATM   34  C3  UNL     1      17.008  -3.639   8.998  1.00  0.00     0.109 A 
HETATM   35  C4  UNL     1      16.479  -4.109  10.182  1.00  0.00     0.106 A 
HETATM   36  N2  UNL     1      17.466  -4.770  10.811  1.00  0.00    -0.354 N 
ATOM     37  H2  UNL     1      17.387  -5.234  11.716  1.00  0.00     0.166 HD
BRANCH  33  38
HETATM   38  C2  UNL     1      19.249  -3.757   7.869  1.00  0.00     0.125 C 
HETATM   39  C1  UNL     1      18.575  -3.760   6.518  1.00  0.00     0.027 C 
ENDBRANCH  33  38
ENDBRANCH  31  32
ENDBRANCH  30  31
ENDBRANCH  29  30
ENDBRANCH   1  29
TORSDOF 11
ENDMDL
