MODEL 1
REMARK VINA RESULT: -9.888574178      0.000      0.000
REMARK  12 active torsions:
REMARK  status: ('A' for Active; 'I' for Inactive)
REMARK    1  A    between atoms: C2_2  and  C3_3 
REMARK    2  A    between atoms: C3_3  and  C4_4 
REMARK    3  A    between atoms: C4_4  and  C5_5 
REMARK    4  A    between atoms: C6_6  and  C7_7 
REMARK    5  A    between atoms: C7_7  and  O1_8 
REMARK    6  A    between atoms: C7_7  and  C8_10 
REMARK    7  A    between atoms: C13_15  and  O2_16 
REMARK    8  A    between atoms: C13_15  and  C14_18 
REMARK    9  A    between atoms: C19_23  and  C20_24 
REMARK   10  A    between atoms: C20_24  and  C21_25 
REMARK   11  A    between atoms: C21_25  and  C22_26 
REMARK       I    between atoms: C22_26  and  N1_28 
REMARK   12  A    between atoms: N1_28  and  C23_30 
ROOT
HETATM    1  C4  UNL     1      73.931  87.153  49.044  1.00  0.00     0.072 C 
HETATM    2  C16 UNL     1      74.833  87.627  47.929  1.00  0.00     0.038 C 
HETATM    3  C17 UNL     1      74.004  87.874  46.657  1.00  0.00     0.037 C 
HETATM    4  C18 UNL     1      73.410  89.230  46.795  1.00  0.00    -0.074 C 
HETATM    5  C19 UNL     1      73.624  90.204  45.906  1.00  0.00    -0.023 C 
HETATM    6  C24 UNL     1      72.542  89.499  47.964  1.00  0.00     0.109 C 
HETATM    7  S1  UNL     1      72.327  87.950  48.883  1.00  0.00    -0.142 SA
ENDROOT
BRANCH   1   8
HETATM    8  C3  UNL     1      74.583  87.395  50.358  1.00  0.00     0.033 C 
BRANCH   8   9
HETATM    9  C2  UNL     1      75.982  86.927  50.506  1.00  0.00    -0.002 C 
HETATM   10  C1  UNL     1      76.768  88.108  51.104  1.00  0.00     0.005 C 
ENDBRANCH   8   9
ENDBRANCH   1   8
BRANCH   1  11
HETATM   11  C5  UNL     1      73.694  85.694  48.896  1.00  0.00    -0.083 C 
HETATM   12  C6  UNL     1      73.513  84.507  48.767  1.00  0.00    -0.073 C 
BRANCH  12  13
HETATM   13  C7  UNL     1      73.314  83.068  48.595  1.00  0.00     0.201 C 
BRANCH  13  14
HETATM   14  O1  UNL     1      73.477  82.673  47.274  1.00  0.00    -0.383 OA
ATOM     15  H1  UNL     1      72.706  82.853  46.749  1.00  0.00     0.211 HD
ENDBRANCH  13  14
BRANCH  13  16
HETATM   16  C8  UNL     1      71.956  82.628  49.114  1.00  0.00     0.027 C 
HETATM   17  C9  UNL     1      71.787  81.139  48.733  1.00  0.00     0.016 C 
HETATM   18  C10 UNL     1      70.373  81.191  48.261  1.00  0.00     0.028 A 
HETATM   19  C11 UNL     1      70.656  82.373  47.247  1.00  0.00     0.028 A 
HETATM   20  C13 UNL     1      69.750  81.332  47.016  1.00  0.00     0.066 A 
HETATM   21  C12 UNL     1      70.876  83.364  48.321  1.00  0.00     0.016 C 
BRANCH  20  22
HETATM   22  O2  UNL     1      68.377  81.657  46.963  1.00  0.00    -0.389 OA
ATOM     23  H2  UNL     1      68.118  82.568  46.887  1.00  0.00     0.210 HD
ENDBRANCH  20  22
BRANCH  20  24
HETATM   24  C14 UNL     1      70.059  80.273  45.947  1.00  0.00     0.034 C 
HETATM   25  C15 UNL     1      68.848  80.163  45.037  1.00  0.00     0.008 C 
ENDBRANCH  20  24
ENDBRANCH  13  16
ENDBRANCH  12  13
ENDBRANCH   1  11
BRANCH   5  26
HETATM   26  C20 UNL     1      73.023  91.548  46.062  1.00  0.00     0.037 C 
BRANCH  26  27
HETATM   27  C21 UNL     1      74.008  92.619  45.601  1.00  0.00     0.107 C 
BRANCH  27  28
HETATM   28  C22 UNL     1      73.513  93.195  44.344  1.00  0.00     0.236 C 
HETATM   29  O3  UNL     1      72.694  94.165  44.313  1.00  0.00    -0.273 OA
HETATM   30  N1  UNL     1      73.933  92.688  43.108  1.00  0.00    -0.157 N 
ATOM     31  H1  UNL     1      73.335  92.853  42.298  1.00  0.00     0.187 HD
BRANCH  30  32
HETATM   32  C23 UNL     1      75.007  92.037  42.928  1.00  0.00     0.716 A 
HETATM   33  N2  UNL     1      75.240  90.737  42.790  1.00  0.00    -0.115 N 
HETATM   34  N3  UNL     1      76.522  90.565  42.628  1.00  0.00    -0.213 N 
ATOM     35  H2  UNL     1      74.536  89.999  42.808  1.00  0.00     0.207 HD
HETATM   36  N4  UNL     1      77.123  91.726  42.658  1.00  0.00    -0.213 N 
ATOM     37  H3  UNL     1      76.984  89.665  42.498  1.00  0.00     0.210 HD
HETATM   38  N5  UNL     1      76.208  92.646  42.841  1.00  0.00    -0.115 N 
ATOM     39  H4  UNL     1      78.125  91.887  42.557  1.00  0.00     0.210 HD
ATOM     40  H5  UNL     1      76.376  93.650  42.907  1.00  0.00     0.207 HD
ENDBRANCH  30  32
ENDBRANCH  27  28
ENDBRANCH  26  27
ENDBRANCH   5  26
TORSDOF 12
ENDMDL
MODEL 2
REMARK VINA RESULT: -9.811678250      1.895      3.534
REMARK  12 active torsions:
REMARK  status: ('A' for Active; 'I' for Inactive)
REMARK    1  A    between atoms: C2_2  and  C3_3 
REMARK    2  A    between atoms: C3_3  and  C4_4 
REMARK    3  A    between atoms: C4_4  and  C5_5 
REMARK    4  A    between atoms: C6_6  and  C7_7 
REMARK    5  A    between atoms: C7_7  and  O1_8 
REMARK    6  A    between atoms: C7_7  and  C8_10 
REMARK    7  A    between atoms: C13_15  and  O2_16 
REMARK    8  A    between atoms: C13_15  and  C14_18 
REMARK    9  A    between atoms: C19_23  and  C20_24 
REMARK   10  A    between atoms: C20_24  and  C21_25 
REMARK   11  A    between atoms: C21_25  and  C22_26 
REMARK       I    between atoms: C22_26  and  N1_28 
REMARK   12  A    between atoms: N1_28  and  C23_30 
ROOT
HETATM    1  C4  UNL     1      73.551  87.678  48.577  1.00  0.00     0.072 C 
HETATM    2  C16 UNL     1      74.401  88.050  47.384  1.00  0.00     0.038 C 
HETATM    3  C17 UNL     1      73.505  88.574  46.249  1.00  0.00     0.037 C 
HETATM    4  C18 UNL     1      73.239  90.006  46.546  1.00  0.00    -0.074 C 
HETATM    5  C19 UNL     1      73.556  90.988  45.697  1.00  0.00    -0.023 C 
HETATM    6  C24 UNL     1      72.590  90.347  47.833  1.00  0.00     0.109 C 
HETATM    7  S1  UNL     1      72.151  88.801  48.676  1.00  0.00    -0.142 SA
ENDROOT
BRANCH   1   8
HETATM    8  C3  UNL     1      74.386  87.663  49.806  1.00  0.00     0.033 C 
BRANCH   8   9
HETATM    9  C2  UNL     1      75.855  87.630  49.615  1.00  0.00    -0.002 C 
HETATM   10  C1  UNL     1      76.473  88.032  50.967  1.00  0.00     0.005 C 
ENDBRANCH   8   9
ENDBRANCH   1   8
BRANCH   1  11
HETATM   11  C5  UNL     1      72.987  86.319  48.372  1.00  0.00    -0.083 C 
HETATM   12  C6  UNL     1      72.518  85.220  48.196  1.00  0.00    -0.073 C 
BRANCH  12  13
HETATM   13  C7  UNL     1      71.931  83.900  47.969  1.00  0.00     0.201 C 
BRANCH  13  14
HETATM   14  O1  UNL     1      70.550  83.910  48.114  1.00  0.00    -0.383 OA
ATOM     15  H1  UNL     1      70.281  84.287  48.944  1.00  0.00     0.211 HD
ENDBRANCH  13  14
BRANCH  13  16
HETATM   16  C8  UNL     1      72.549  82.852  48.879  1.00  0.00     0.027 C 
HETATM   17  C9  UNL     1      73.283  83.610  50.009  1.00  0.00     0.016 C 
HETATM   18  C10 UNL     1      74.536  82.799  50.041  1.00  0.00     0.028 A 
HETATM   19  C11 UNL     1      74.802  82.976  48.491  1.00  0.00     0.028 A 
HETATM   20  C13 UNL     1      75.805  82.917  49.465  1.00  0.00     0.066 A 
HETATM   21  C12 UNL     1      73.653  82.132  48.104  1.00  0.00     0.016 C 
BRANCH  20  22
HETATM   22  O2  UNL     1      76.664  81.796  49.453  1.00  0.00    -0.389 OA
ATOM     23  H2  UNL     1      77.191  81.606  50.220  1.00  0.00     0.210 HD
ENDBRANCH  20  22
BRANCH  20  24
HETATM   24  C14 UNL     1      76.620  84.174  49.801  1.00  0.00     0.034 C 
HETATM   25  C15 UNL     1      76.668  84.307  51.314  1.00  0.00     0.008 C 
ENDBRANCH  20  24
ENDBRANCH  13  16
ENDBRANCH  12  13
ENDBRANCH   1  11
BRANCH   5  26
HETATM   26  C20 UNL     1      73.283  92.409  46.013  1.00  0.00     0.037 C 
BRANCH  26  27
HETATM   27  C21 UNL     1      74.330  93.303  45.352  1.00  0.00     0.107 C 
BRANCH  27  28
HETATM   28  C22 UNL     1      73.805  93.752  44.056  1.00  0.00     0.236 C 
HETATM   29  O3  UNL     1      73.008  94.735  43.945  1.00  0.00    -0.273 OA
HETATM   30  N1  UNL     1      74.170  93.103  42.870  1.00  0.00    -0.157 N 
ATOM     31  H1  UNL     1      73.549  93.195  42.066  1.00  0.00     0.187 HD
BRANCH  30  32
HETATM   32  C23 UNL     1      75.223  92.409  42.728  1.00  0.00     0.716 A 
HETATM   33  N2  UNL     1      76.503  92.753  42.635  1.00  0.00    -0.115 N 
HETATM   34  N3  UNL     1      77.211  91.667  42.498  1.00  0.00    -0.213 N 
ATOM     35  H2  UNL     1      76.869  93.705  42.666  1.00  0.00     0.207 HD
HETATM   36  N4  UNL     1      76.416  90.628  42.500  1.00  0.00    -0.213 N 
ATOM     37  H3  UNL     1      78.226  91.633  42.403  1.00  0.00     0.210 HD
HETATM   38  N5  UNL     1      75.188  91.063  42.641  1.00  0.00    -0.115 N 
ATOM     39  H4  UNL     1      76.701  89.653  42.409  1.00  0.00     0.210 HD
ATOM     40  H5  UNL     1      74.350  90.483  42.680  1.00  0.00     0.207 HD
ENDBRANCH  30  32
ENDBRANCH  27  28
ENDBRANCH  26  27
ENDBRANCH   5  26
TORSDOF 12
ENDMDL
MODEL 3
REMARK VINA RESULT: -9.799756484      1.399      2.009
REMARK  12 active torsions:
REMARK  status: ('A' for Active; 'I' for Inactive)
REMARK    1  A    between atoms: C2_2  and  C3_3 
REMARK    2  A    between atoms: C3_3  and  C4_4 
REMARK    3  A    between atoms: C4_4  and  C5_5 
REMARK    4  A    between atoms: C6_6  and  C7_7 
REMARK    5  A    between atoms: C7_7  and  O1_8 
REMARK    6  A    between atoms: C7_7  and  C8_10 
REMARK    7  A    between atoms: C13_15  and  O2_16 
REMARK    8  A    between atoms: C13_15  and  C14_18 
REMARK    9  A    between atoms: C19_23  and  C20_24 
REMARK   10  A    between atoms: C20_24  and  C21_25 
REMARK   11  A    between atoms: C21_25  and  C22_26 
REMARK       I    between atoms: C22_26  and  N1_28 
REMARK   12  A    between atoms: N1_28  and  C23_30 
ROOT
HETATM    1  C4  UNL     1      73.583  87.514  48.564  1.00  0.00     0.072 C 
HETATM    2  C16 UNL     1      74.616  88.037  47.593  1.00  0.00     0.038 C 
HETATM    3  C17 UNL     1      73.939  88.414  46.264  1.00  0.00     0.037 C 
HETATM    4  C18 UNL     1      73.376  89.778  46.448  1.00  0.00    -0.074 C 
HETATM    5  C19 UNL     1      73.716  90.808  45.669  1.00  0.00    -0.023 C 
HETATM    6  C24 UNL     1      72.395  89.990  47.536  1.00  0.00     0.109 C 
HETATM    7  S1  UNL     1      72.032  88.384  48.298  1.00  0.00    -0.142 SA
ENDROOT
BRANCH   1   8
HETATM    8  C3  UNL     1      74.095  87.627  49.955  1.00  0.00     0.033 C 
BRANCH   8   9
HETATM    9  C2  UNL     1      75.549  87.416  50.151  1.00  0.00    -0.002 C 
HETATM   10  C1  UNL     1      75.683  86.237  51.130  1.00  0.00     0.005 C 
ENDBRANCH   8   9
ENDBRANCH   1   8
BRANCH   1  11
HETATM   11  C5  UNL     1      73.318  86.081  48.273  1.00  0.00    -0.083 C 
HETATM   12  C6  UNL     1      73.113  84.913  48.046  1.00  0.00    -0.073 C 
BRANCH  12  13
HETATM   13  C7  UNL     1      72.886  83.492  47.785  1.00  0.00     0.201 C 
BRANCH  13  14
HETATM   14  O1  UNL     1      71.540  83.204  47.598  1.00  0.00    -0.383 OA
ATOM     15  H1  UNL     1      70.977  83.869  47.976  1.00  0.00     0.211 HD
ENDBRANCH  13  14
BRANCH  13  16
HETATM   16  C8  UNL     1      73.463  82.623  48.890  1.00  0.00     0.027 C 
HETATM   17  C9  UNL     1      73.362  81.156  48.411  1.00  0.00     0.016 C 
HETATM   18  C10 UNL     1      72.873  80.543  49.680  1.00  0.00     0.028 A 
HETATM   19  C11 UNL     1      71.662  81.553  49.812  1.00  0.00     0.028 A 
HETATM   20  C13 UNL     1      71.618  80.209  50.198  1.00  0.00     0.066 A 
HETATM   21  C12 UNL     1      72.536  82.708  50.102  1.00  0.00     0.016 C 
BRANCH  20  22
HETATM   22  O2  UNL     1      71.491  79.927  51.576  1.00  0.00    -0.389 OA
ATOM     23  H2  UNL     1      70.755  80.285  52.058  1.00  0.00     0.210 HD
ENDBRANCH  20  22
BRANCH  20  24
HETATM   24  C14 UNL     1      70.766  79.212  49.398  1.00  0.00     0.034 C 
HETATM   25  C15 UNL     1      70.105  79.972  48.261  1.00  0.00     0.008 C 
ENDBRANCH  20  24
ENDBRANCH  13  16
ENDBRANCH  12  13
ENDBRANCH   1  11
BRANCH   5  26
HETATM   26  C20 UNL     1      73.144  92.159  45.870  1.00  0.00     0.037 C 
BRANCH  26  27
HETATM   27  C21 UNL     1      74.144  93.224  45.423  1.00  0.00     0.107 C 
BRANCH  27  28
HETATM   28  C22 UNL     1      73.696  93.770  44.136  1.00  0.00     0.236 C 
HETATM   29  O3  UNL     1      72.927  94.777  44.052  1.00  0.00    -0.273 OA
HETATM   30  N1  UNL     1      74.109  93.193  42.928  1.00  0.00    -0.157 N 
ATOM     31  H1  UNL     1      73.532  93.352  42.102  1.00  0.00     0.187 HD
BRANCH  30  32
HETATM   32  C23 UNL     1      75.153  92.484  42.793  1.00  0.00     0.716 A 
HETATM   33  N2  UNL     1      76.442  92.805  42.767  1.00  0.00    -0.115 N 
HETATM   34  N3  UNL     1      77.134  91.712  42.603  1.00  0.00    -0.213 N 
ATOM     35  H2  UNL     1      76.825  93.746  42.861  1.00  0.00     0.207 HD
HETATM   36  N4  UNL     1      76.320  90.692  42.522  1.00  0.00    -0.213 N 
ATOM     37  H3  UNL     1      78.151  91.662  42.547  1.00  0.00     0.210 HD
HETATM   38  N5  UNL     1      75.096  91.145  42.637  1.00  0.00    -0.115 N 
ATOM     39  H4  UNL     1      76.590  89.717  42.393  1.00  0.00     0.210 HD
ATOM     40  H5  UNL     1      74.246  90.582  42.613  1.00  0.00     0.207 HD
ENDBRANCH  30  32
ENDBRANCH  27  28
ENDBRANCH  26  27
ENDBRANCH   5  26
TORSDOF 12
ENDMDL
MODEL 4
REMARK VINA RESULT: -9.756758607      1.531      2.103
REMARK  12 active torsions:
REMARK  status: ('A' for Active; 'I' for Inactive)
REMARK    1  A    between atoms: C2_2  and  C3_3 
REMARK    2  A    between atoms: C3_3  and  C4_4 
REMARK    3  A    between atoms: C4_4  and  C5_5 
REMARK    4  A    between atoms: C6_6  and  C7_7 
REMARK    5  A    between atoms: C7_7  and  O1_8 
REMARK    6  A    between atoms: C7_7  and  C8_10 
REMARK    7  A    between atoms: C13_15  and  O2_16 
REMARK    8  A    between atoms: C13_15  and  C14_18 
REMARK    9  A    between atoms: C19_23  and  C20_24 
REMARK   10  A    between atoms: C20_24  and  C21_25 
REMARK   11  A    between atoms: C21_25  and  C22_26 
REMARK       I    between atoms: C22_26  and  N1_28 
REMARK   12  A    between atoms: N1_28  and  C23_30 
ROOT
HETATM    1  C4  UNL     1      73.571  87.529  48.666  1.00  0.00     0.072 C 
HETATM    2  C16 UNL     1      74.560  88.002  47.626  1.00  0.00     0.038 C 
HETATM    3  C17 UNL     1      73.814  88.396  46.339  1.00  0.00     0.037 C 
HETATM    4  C18 UNL     1      73.319  89.782  46.544  1.00  0.00    -0.074 C 
HETATM    5  C19 UNL     1      73.648  90.792  45.733  1.00  0.00    -0.023 C 
HETATM    6  C24 UNL     1      72.417  90.043  47.690  1.00  0.00     0.109 C 
HETATM    7  S1  UNL     1      72.041  88.458  48.490  1.00  0.00    -0.142 SA
ENDROOT
BRANCH   1   8
HETATM    8  C3  UNL     1      74.174  87.634  50.020  1.00  0.00     0.033 C 
BRANCH   8   9
HETATM    9  C2  UNL     1      75.643  87.459  50.112  1.00  0.00    -0.002 C 
HETATM   10  C1  UNL     1      75.873  86.193  50.956  1.00  0.00     0.005 C 
ENDBRANCH   8   9
ENDBRANCH   1   8
BRANCH   1  11
HETATM   11  C5  UNL     1      73.231  86.106  48.407  1.00  0.00    -0.083 C 
HETATM   12  C6  UNL     1      72.943  84.954  48.188  1.00  0.00    -0.073 C 
BRANCH  12  13
HETATM   13  C7  UNL     1      72.575  83.566  47.909  1.00  0.00     0.201 C 
BRANCH  13  14
HETATM   14  O1  UNL     1      71.425  83.476  47.136  1.00  0.00    -0.383 OA
ATOM     15  H1  UNL     1      70.636  83.590  47.654  1.00  0.00     0.211 HD
ENDBRANCH  13  14
BRANCH  13  16
HETATM   16  C8  UNL     1      72.413  82.765  49.191  1.00  0.00     0.027 C 
HETATM   17  C9  UNL     1      73.678  81.887  49.338  1.00  0.00     0.016 C 
HETATM   18  C10 UNL     1      73.016  80.614  49.749  1.00  0.00     0.028 A 
HETATM   19  C11 UNL     1      72.034  80.614  48.507  1.00  0.00     0.028 A 
HETATM   20  C13 UNL     1      72.585  79.463  49.082  1.00  0.00     0.066 A 
HETATM   21  C12 UNL     1      71.264  81.776  48.998  1.00  0.00     0.016 C 
BRANCH  20  22
HETATM   22  O2  UNL     1      71.706  78.573  49.737  1.00  0.00    -0.389 OA
ATOM     23  H2  UNL     1      71.182  77.972  49.220  1.00  0.00     0.210 HD
ENDBRANCH  20  22
BRANCH  20  24
HETATM   24  C14 UNL     1      73.641  78.655  48.313  1.00  0.00     0.034 C 
HETATM   25  C15 UNL     1      73.517  79.009  46.841  1.00  0.00     0.008 C 
ENDBRANCH  20  24
ENDBRANCH  13  16
ENDBRANCH  12  13
ENDBRANCH   1  11
BRANCH   5  26
HETATM   26  C20 UNL     1      73.144  92.167  45.956  1.00  0.00     0.037 C 
BRANCH  26  27
HETATM   27  C21 UNL     1      74.151  93.186  45.430  1.00  0.00     0.107 C 
BRANCH  27  28
HETATM   28  C22 UNL     1      73.663  93.701  44.144  1.00  0.00     0.236 C 
HETATM   29  O3  UNL     1      72.853  94.675  44.063  1.00  0.00    -0.273 OA
HETATM   30  N1  UNL     1      74.080  93.128  42.936  1.00  0.00    -0.157 N 
ATOM     31  H1  UNL     1      73.485  93.256  42.118  1.00  0.00     0.187 HD
BRANCH  30  32
HETATM   32  C23 UNL     1      75.149  92.460  42.792  1.00  0.00     0.716 A 
HETATM   33  N2  UNL     1      76.422  92.835  42.717  1.00  0.00    -0.115 N 
HETATM   34  N3  UNL     1      77.155  91.767  42.566  1.00  0.00    -0.213 N 
ATOM     35  H2  UNL     1      76.766  93.793  42.769  1.00  0.00     0.207 HD
HETATM   36  N4  UNL     1      76.384  90.711  42.541  1.00  0.00    -0.213 N 
ATOM     37  H3  UNL     1      78.171  91.757  42.480  1.00  0.00     0.210 HD
HETATM   38  N5  UNL     1      75.145  91.115  42.679  1.00  0.00    -0.115 N 
ATOM     39  H4  UNL     1      76.691  89.745  42.434  1.00  0.00     0.210 HD
ATOM     40  H5  UNL     1      74.319  90.517  42.699  1.00  0.00     0.207 HD
ENDBRANCH  30  32
ENDBRANCH  27  28
ENDBRANCH  26  27
ENDBRANCH   5  26
TORSDOF 12
ENDMDL
MODEL 5
REMARK VINA RESULT: -9.717999272      1.105      1.383
REMARK  12 active torsions:
REMARK  status: ('A' for Active; 'I' for Inactive)
REMARK    1  A    between atoms: C2_2  and  C3_3 
REMARK    2  A    between atoms: C3_3  and  C4_4 
REMARK    3  A    between atoms: C4_4  and  C5_5 
REMARK    4  A    between atoms: C6_6  and  C7_7 
REMARK    5  A    between atoms: C7_7  and  O1_8 
REMARK    6  A    between atoms: C7_7  and  C8_10 
REMARK    7  A    between atoms: C13_15  and  O2_16 
REMARK    8  A    between atoms: C13_15  and  C14_18 
REMARK    9  A    between atoms: C19_23  and  C20_24 
REMARK   10  A    between atoms: C20_24  and  C21_25 
REMARK   11  A    between atoms: C21_25  and  C22_26 
REMARK       I    between atoms: C22_26  and  N1_28 
REMARK   12  A    between atoms: N1_28  and  C23_30 
ROOT
HETATM    1  C4  UNL     1      73.811  87.157  49.240  1.00  0.00     0.072 C 
HETATM    2  C16 UNL     1      74.572  87.459  47.971  1.00  0.00     0.038 C 
HETATM    3  C17 UNL     1      73.587  87.817  46.844  1.00  0.00     0.037 C 
HETATM    4  C18 UNL     1      73.248  89.253  47.018  1.00  0.00    -0.074 C 
HETATM    5  C19 UNL     1      73.457  90.164  46.064  1.00  0.00    -0.023 C 
HETATM    6  C24 UNL     1      72.646  89.681  48.302  1.00  0.00     0.109 C 
HETATM    7  S1  UNL     1      72.349  88.203  49.312  1.00  0.00    -0.142 SA
ENDROOT
BRANCH   1   8
HETATM    8  C3  UNL     1      74.708  87.312  50.415  1.00  0.00     0.033 C 
BRANCH   8   9
HETATM    9  C2  UNL     1      76.164  87.367  50.141  1.00  0.00    -0.002 C 
HETATM   10  C1  UNL     1      76.786  88.182  51.289  1.00  0.00     0.005 C 
ENDBRANCH   8   9
ENDBRANCH   1   8
BRANCH   1  11
HETATM   11  C5  UNL     1      73.324  85.755  49.198  1.00  0.00    -0.083 C 
HETATM   12  C6  UNL     1      72.921  84.617  49.178  1.00  0.00    -0.073 C 
BRANCH  12  13
HETATM   13  C7  UNL     1      72.424  83.241  49.177  1.00  0.00     0.201 C 
BRANCH  13  14
HETATM   14  O1  UNL     1      73.283  82.375  49.841  1.00  0.00    -0.383 OA
ATOM     15  H1  UNL     1      72.812  81.696  50.311  1.00  0.00     0.211 HD
ENDBRANCH  13  14
BRANCH  13  16
HETATM   16  C8  UNL     1      72.162  82.745  47.765  1.00  0.00     0.027 C 
HETATM   17  C9  UNL     1      70.633  82.812  47.538  1.00  0.00     0.016 C 
HETATM   18  C10 UNL     1      70.452  81.493  46.864  1.00  0.00     0.028 A 
HETATM   19  C11 UNL     1      71.177  80.695  48.024  1.00  0.00     0.028 A 
HETATM   20  C13 UNL     1      70.092  80.208  47.285  1.00  0.00     0.066 A 
HETATM   21  C12 UNL     1      72.506  81.257  47.706  1.00  0.00     0.016 C 
BRANCH  20  22
HETATM   22  O2  UNL     1      70.324  79.110  46.428  1.00  0.00    -0.389 OA
ATOM     23  H2  UNL     1      69.790  79.008  45.649  1.00  0.00     0.210 HD
ENDBRANCH  20  22
BRANCH  20  24
HETATM   24  C14 UNL     1      68.722  80.043  47.957  1.00  0.00     0.034 C 
HETATM   25  C15 UNL     1      68.629  78.620  48.482  1.00  0.00     0.008 C 
ENDBRANCH  20  24
ENDBRANCH  13  16
ENDBRANCH  12  13
ENDBRANCH   1  11
BRANCH   5  26
HETATM   26  C20 UNL     1      73.112  91.591  46.258  1.00  0.00     0.037 C 
BRANCH  26  27
HETATM   27  C21 UNL     1      74.163  92.479  45.597  1.00  0.00     0.107 C 
BRANCH  27  28
HETATM   28  C22 UNL     1      73.599  93.018  44.353  1.00  0.00     0.236 C 
HETATM   29  O3  UNL     1      72.738  93.952  44.342  1.00  0.00    -0.273 OA
HETATM   30  N1  UNL     1      73.996  92.516  43.107  1.00  0.00    -0.157 N 
ATOM     31  H1  UNL     1      73.364  92.645  42.317  1.00  0.00     0.187 HD
BRANCH  30  32
HETATM   32  C23 UNL     1      75.092  91.911  42.895  1.00  0.00     0.716 A 
HETATM   33  N2  UNL     1      75.376  90.620  42.757  1.00  0.00    -0.115 N 
HETATM   34  N3  UNL     1      76.658  90.502  42.554  1.00  0.00    -0.213 N 
ATOM     35  H2  UNL     1      74.705  89.853  42.803  1.00  0.00     0.207 HD
HETATM   36  N4  UNL     1      77.209  91.688  42.557  1.00  0.00    -0.213 N 
ATOM     37  H3  UNL     1      77.154  89.622  42.414  1.00  0.00     0.210 HD
HETATM   38  N5  UNL     1      76.262  92.570  42.765  1.00  0.00    -0.115 N 
ATOM     39  H4  UNL     1      78.199  91.892  42.421  1.00  0.00     0.210 HD
ATOM     40  H5  UNL     1      76.388  93.580  42.820  1.00  0.00     0.207 HD
ENDBRANCH  30  32
ENDBRANCH  27  28
ENDBRANCH  26  27
ENDBRANCH   5  26
TORSDOF 12
ENDMDL
