MODEL 1
REMARK VINA RESULT: -7.555334028      0.000      0.000
REMARK  11 active torsions:
REMARK  status: ('A' for Active; 'I' for Inactive)
REMARK    1  A    between atoms: C2_2  and  C3_3 
REMARK    2  A    between atoms: C2_2  and  C5_6 
REMARK    3  A    between atoms: C3_3  and  C4_4 
REMARK    4  A    between atoms: C6_7  and  O2_8 
REMARK    5  A    between atoms: C18_21  and  O3_22 
REMARK    6  A    between atoms: C18_21  and  C19_24 
REMARK    7  A    between atoms: C19_24  and  O4_25 
REMARK    8  A    between atoms: O4_25  and  C20_26 
REMARK       I    between atoms: C20_26  and  N1_28 
REMARK    9  A    between atoms: N1_28  and  C21_30 
REMARK   10  A    between atoms: C21_30  and  C22_31 
REMARK   11  A    between atoms: C22_31  and  O6_32 
ROOT
HETATM    1  C5  UNL     1      73.316  80.006  47.516  1.00  0.00    -0.040 C 
HETATM    2  C6  UNL     1      71.890  80.106  47.266  1.00  0.00     0.149 C 
HETATM    3  C7  UNL     1      71.374  81.292  48.071  1.00  0.00     0.047 C 
HETATM    4  C8  UNL     1      72.535  81.843  48.865  1.00  0.00    -0.026 C 
HETATM    5  C9  UNL     1      72.018  82.196  50.227  1.00  0.00     0.016 C 
HETATM    6  C10 UNL     1      73.034  83.079  48.097  1.00  0.00    -0.001 C 
HETATM    7  C11 UNL     1      71.989  84.149  48.071  1.00  0.00     0.007 C 
HETATM    8  C12 UNL     1      72.305  85.402  48.794  1.00  0.00     0.013 C 
HETATM    9  C13 UNL     1      73.667  85.905  48.402  1.00  0.00    -0.007 C 
HETATM   10  C14 UNL     1      73.721  86.168  46.934  1.00  0.00     0.019 C 
HETATM   11  C15 UNL     1      74.661  84.875  48.862  1.00  0.00     0.001 C 
HETATM   12  C16 UNL     1      74.674  85.084  50.351  1.00  0.00     0.009 C 
HETATM   13  C17 UNL     1      74.712  86.609  50.446  1.00  0.00     0.041 C 
HETATM   14  C18 UNL     1      74.111  87.120  49.148  1.00  0.00     0.087 C 
HETATM   15  C23 UNL     1      74.409  83.496  48.399  1.00  0.00    -0.005 C 
HETATM   16  C24 UNL     1      75.126  82.574  49.402  1.00  0.00     0.006 C 
HETATM   17  C25 UNL     1      74.950  81.142  48.996  1.00  0.00     0.015 C 
HETATM   18  C26 UNL     1      73.502  80.712  48.860  1.00  0.00    -0.010 C 
HETATM   19  C27 UNL     1      73.190  79.730  49.935  1.00  0.00     0.021 C 
ENDROOT
BRANCH  14  20
HETATM   20  O3  UNL     1      75.115  87.740  48.377  1.00  0.00    -0.387 OA
ATOM     21  H3  UNL     1      74.899  88.664  48.324  1.00  0.00     0.210 HD
ENDBRANCH  14  20
BRANCH  14  22
HETATM   22  C19 UNL     1      73.040  88.096  49.469  1.00  0.00     0.219 C 
BRANCH  22  23
HETATM   23  O4  UNL     1      73.400  89.335  48.839  1.00  0.00    -0.301 OA
BRANCH  23  24
HETATM   24  C20 UNL     1      72.705  89.875  47.790  1.00  0.00     0.360 C 
HETATM   25  O5  UNL     1      71.490  89.557  47.688  1.00  0.00    -0.239 OA
HETATM   26  N1  UNL     1      73.346  90.745  46.883  1.00  0.00    -0.335 N 
ATOM     27  H1  UNL     1      74.331  90.987  46.987  1.00  0.00     0.164 HD
BRANCH  26  28
HETATM   28  C21 UNL     1      72.549  91.282  45.794  1.00  0.00     0.151 C 
BRANCH  28  29
HETATM   29  C22 UNL     1      73.389  91.373  44.538  1.00  0.00     0.183 C 
BRANCH  29  30
HETATM   30  O6  UNL     1      73.909  90.125  44.194  1.00  0.00    -0.399 OA
ATOM     31  H6  UNL     1      74.804  90.035  44.497  1.00  0.00     0.209 HD
ENDBRANCH  29  30
ENDBRANCH  28  29
ENDBRANCH  26  28
ENDBRANCH  23  24
ENDBRANCH  22  23
ENDBRANCH  14  22
BRANCH   2  32
HETATM   32  O2  UNL     1      71.073  79.061  47.657  1.00  0.00    -0.391 OA
ATOM     33  H2  UNL     1      70.611  78.570  46.988  1.00  0.00     0.210 HD
ENDBRANCH   2  32
BRANCH   1  34
HETATM   34  C2  UNL     1      74.134  78.841  47.252  1.00  0.00    -0.072 C 
HETATM   35  C1  UNL     1      73.566  77.510  46.967  1.00  0.00     0.044 C 
BRANCH  34  36
HETATM   36  C3  UNL     1      75.345  79.021  46.367  1.00  0.00     0.103 C 
BRANCH  36  37
HETATM   37  C4  UNL     1      75.226  78.543  44.999  1.00  0.00     0.235 C 
HETATM   38  O1  UNL     1      75.520  79.121  43.988  1.00  0.00    -0.307 OA
ENDBRANCH  36  37
ENDBRANCH  34  36
ENDBRANCH   1  34
TORSDOF 11
ENDMDL
MODEL 2
REMARK VINA RESULT: -7.159704754      3.698      5.789
REMARK  11 active torsions:
REMARK  status: ('A' for Active; 'I' for Inactive)
REMARK    1  A    between atoms: C2_2  and  C3_3 
REMARK    2  A    between atoms: C2_2  and  C5_6 
REMARK    3  A    between atoms: C3_3  and  C4_4 
REMARK    4  A    between atoms: C6_7  and  O2_8 
REMARK    5  A    between atoms: C18_21  and  O3_22 
REMARK    6  A    between atoms: C18_21  and  C19_24 
REMARK    7  A    between atoms: C19_24  and  O4_25 
REMARK    8  A    between atoms: O4_25  and  C20_26 
REMARK       I    between atoms: C20_26  and  N1_28 
REMARK    9  A    between atoms: N1_28  and  C21_30 
REMARK   10  A    between atoms: C21_30  and  C22_31 
REMARK   11  A    between atoms: C22_31  and  O6_32 
ROOT
HETATM    1  C5  UNL     1      72.993  80.980  49.698  1.00  0.00    -0.040 C 
HETATM    2  C6  UNL     1      73.964  80.303  48.859  1.00  0.00     0.149 C 
HETATM    3  C7  UNL     1      74.832  81.377  48.218  1.00  0.00     0.047 C 
HETATM    4  C8  UNL     1      74.288  82.719  48.650  1.00  0.00    -0.026 C 
HETATM    5  C9  UNL     1      74.336  83.627  47.459  1.00  0.00     0.016 C 
HETATM    6  C10 UNL     1      75.203  83.208  49.787  1.00  0.00    -0.001 C 
HETATM    7  C11 UNL     1      76.592  83.451  49.287  1.00  0.00     0.007 C 
HETATM    8  C12 UNL     1      77.070  84.852  49.314  1.00  0.00     0.013 C 
HETATM    9  C13 UNL     1      76.818  85.468  50.662  1.00  0.00    -0.007 C 
HETATM   10  C14 UNL     1      77.526  84.697  51.725  1.00  0.00     0.019 C 
HETATM   11  C15 UNL     1      75.327  85.514  50.848  1.00  0.00     0.001 C 
HETATM   12  C16 UNL     1      74.921  86.628  49.922  1.00  0.00     0.009 C 
HETATM   13  C17 UNL     1      75.990  87.679  50.222  1.00  0.00     0.041 C 
HETATM   14  C18 UNL     1      77.187  86.912  50.756  1.00  0.00     0.087 C 
HETATM   15  C23 UNL     1      74.622  84.228  50.668  1.00  0.00    -0.005 C 
HETATM   16  C24 UNL     1      73.166  84.586  50.322  1.00  0.00     0.006 C 
HETATM   17  C25 UNL     1      72.360  83.335  50.148  1.00  0.00     0.015 C 
HETATM   18  C26 UNL     1      72.910  82.385  49.101  1.00  0.00    -0.010 C 
HETATM   19  C27 UNL     1      71.964  82.336  47.953  1.00  0.00     0.021 C 
ENDROOT
BRANCH  14  20
HETATM   20  O3  UNL     1      77.363  87.210  52.123  1.00  0.00    -0.387 OA
ATOM     21  H3  UNL     1      78.276  87.048  52.331  1.00  0.00     0.210 HD
ENDBRANCH  14  20
BRANCH  14  22
HETATM   22  C19 UNL     1      78.392  87.312  49.989  1.00  0.00     0.219 C 
BRANCH  22  23
HETATM   23  O4  UNL     1      78.522  88.735  50.125  1.00  0.00    -0.301 OA
BRANCH  23  24
HETATM   24  C20 UNL     1      78.800  89.354  51.315  1.00  0.00     0.360 C 
HETATM   25  O5  UNL     1      78.019  90.277  51.673  1.00  0.00    -0.239 OA
HETATM   26  N1  UNL     1      79.915  88.956  52.082  1.00  0.00    -0.335 N 
ATOM     27  H1  UNL     1      80.532  88.206  51.770  1.00  0.00     0.164 HD
BRANCH  26  28
HETATM   28  C21 UNL     1      80.151  89.654  53.333  1.00  0.00     0.151 C 
BRANCH  28  29
HETATM   29  C22 UNL     1      79.612  88.838  54.488  1.00  0.00     0.183 C 
BRANCH  29  30
HETATM   30  O6  UNL     1      78.225  88.955  54.578  1.00  0.00    -0.399 OA
ATOM     31  H6  UNL     1      77.923  89.745  54.146  1.00  0.00     0.209 HD
ENDBRANCH  29  30
ENDBRANCH  28  29
ENDBRANCH  26  28
ENDBRANCH  23  24
ENDBRANCH  22  23
ENDBRANCH  14  22
BRANCH   2  32
HETATM   32  O2  UNL     1      73.509  79.561  47.784  1.00  0.00    -0.391 OA
ATOM     33  H2  UNL     1      73.957  79.645  46.951  1.00  0.00     0.210 HD
ENDBRANCH   2  32
BRANCH   1  34
HETATM   34  C2  UNL     1      71.769  80.394  50.205  1.00  0.00    -0.072 C 
HETATM   35  C1  UNL     1      70.883  79.550  49.381  1.00  0.00     0.044 C 
BRANCH  34  36
HETATM   36  C3  UNL     1      71.797  79.808  51.597  1.00  0.00     0.103 C 
BRANCH  36  37
HETATM   37  C4  UNL     1      70.534  79.785  52.316  1.00  0.00     0.235 C 
HETATM   38  O1  UNL     1      70.173  80.522  53.194  1.00  0.00    -0.307 OA
ENDBRANCH  36  37
ENDBRANCH  34  36
ENDBRANCH   1  34
TORSDOF 11
ENDMDL
MODEL 3
REMARK VINA RESULT: -7.150300621      1.521      1.900
REMARK  11 active torsions:
REMARK  status: ('A' for Active; 'I' for Inactive)
REMARK    1  A    between atoms: C2_2  and  C3_3 
REMARK    2  A    between atoms: C2_2  and  C5_6 
REMARK    3  A    between atoms: C3_3  and  C4_4 
REMARK    4  A    between atoms: C6_7  and  O2_8 
REMARK    5  A    between atoms: C18_21  and  O3_22 
REMARK    6  A    between atoms: C18_21  and  C19_24 
REMARK    7  A    between atoms: C19_24  and  O4_25 
REMARK    8  A    between atoms: O4_25  and  C20_26 
REMARK       I    between atoms: C20_26  and  N1_28 
REMARK    9  A    between atoms: N1_28  and  C21_30 
REMARK   10  A    between atoms: C21_30  and  C22_31 
REMARK   11  A    between atoms: C22_31  and  O6_32 
ROOT
HETATM    1  C5  UNL     1      71.292  79.674  46.433  1.00  0.00    -0.040 C 
HETATM    2  C6  UNL     1      69.970  80.262  46.322  1.00  0.00     0.149 C 
HETATM    3  C7  UNL     1      69.861  81.332  47.400  1.00  0.00     0.047 C 
HETATM    4  C8  UNL     1      71.141  81.304  48.201  1.00  0.00    -0.026 C 
HETATM    5  C9  UNL     1      70.772  81.479  49.642  1.00  0.00     0.016 C 
HETATM    6  C10 UNL     1      72.001  82.468  47.679  1.00  0.00    -0.001 C 
HETATM    7  C11 UNL     1      71.348  83.784  47.965  1.00  0.00     0.007 C 
HETATM    8  C12 UNL     1      72.050  84.680  48.912  1.00  0.00     0.013 C 
HETATM    9  C13 UNL     1      73.499  84.816  48.532  1.00  0.00    -0.007 C 
HETATM   10  C14 UNL     1      73.624  85.377  47.155  1.00  0.00     0.019 C 
HETATM   11  C15 UNL     1      74.118  83.454  48.682  1.00  0.00     0.001 C 
HETATM   12  C16 UNL     1      74.206  83.304  50.175  1.00  0.00     0.009 C 
HETATM   13  C17 UNL     1      74.726  84.680  50.592  1.00  0.00     0.041 C 
HETATM   14  C18 UNL     1      74.309  85.632  49.484  1.00  0.00     0.087 C 
HETATM   15  C23 UNL     1      73.439  82.362  47.956  1.00  0.00    -0.005 C 
HETATM   16  C24 UNL     1      73.834  81.062  48.679  1.00  0.00     0.006 C 
HETATM   17  C25 UNL     1      73.211  79.886  47.990  1.00  0.00     0.015 C 
HETATM   18  C26 UNL     1      71.700  79.964  47.879  1.00  0.00    -0.010 C 
HETATM   19  C27 UNL     1      71.101  78.907  48.739  1.00  0.00     0.021 C 
ENDROOT
BRANCH  14  20
HETATM   20  O3  UNL     1      75.453  86.073  48.788  1.00  0.00    -0.387 OA
ATOM     21  H3  UNL     1      75.252  86.929  48.429  1.00  0.00     0.210 HD
ENDBRANCH  14  20
BRANCH  14  22
HETATM   22  C19 UNL     1      73.604  86.790  50.089  1.00  0.00     0.219 C 
BRANCH  22  23
HETATM   23  O4  UNL     1      74.109  87.970  49.445  1.00  0.00    -0.301 OA
BRANCH  23  24
HETATM   24  C20 UNL     1      73.336  88.790  48.667  1.00  0.00     0.360 C 
HETATM   25  O5  UNL     1      72.219  89.137  49.139  1.00  0.00    -0.239 OA
HETATM   26  N1  UNL     1      73.795  89.211  47.401  1.00  0.00    -0.335 N 
ATOM     27  H1  UNL     1      74.702  88.917  47.041  1.00  0.00     0.164 HD
BRANCH  26  28
HETATM   28  C21 UNL     1      72.924  90.081  46.629  1.00  0.00     0.151 C 
BRANCH  28  29
HETATM   29  C22 UNL     1      73.698  90.699  45.484  1.00  0.00     0.183 C 
BRANCH  29  30
HETATM   30  O6  UNL     1      74.079  89.728  44.558  1.00  0.00    -0.399 OA
ATOM     31  H6  UNL     1      73.400  89.071  44.456  1.00  0.00     0.209 HD
ENDBRANCH  29  30
ENDBRANCH  28  29
ENDBRANCH  26  28
ENDBRANCH  23  24
ENDBRANCH  22  23
ENDBRANCH  14  22
BRANCH   2  32
HETATM   32  O2  UNL     1      68.867  79.458  46.543  1.00  0.00    -0.391 OA
ATOM     33  H2  UNL     1      68.072  79.631  46.053  1.00  0.00     0.210 HD
ENDBRANCH   2  32
BRANCH   1  34
HETATM   34  C2  UNL     1      71.698  78.407  45.863  1.00  0.00    -0.072 C 
HETATM   35  C1  UNL     1      70.768  77.519  45.138  1.00  0.00     0.044 C 
BRANCH  34  36
HETATM   36  C3  UNL     1      73.031  78.351  45.154  1.00  0.00     0.103 C 
BRANCH  36  37
HETATM   37  C4  UNL     1      72.994  78.092  43.724  1.00  0.00     0.235 C 
HETATM   38  O1  UNL     1      73.707  78.552  42.874  1.00  0.00    -0.307 OA
ENDBRANCH  36  37
ENDBRANCH  34  36
ENDBRANCH   1  34
TORSDOF 11
ENDMDL
MODEL 4
REMARK VINA RESULT: -7.135473643      3.660      5.558
REMARK  11 active torsions:
REMARK  status: ('A' for Active; 'I' for Inactive)
REMARK    1  A    between atoms: C2_2  and  C3_3 
REMARK    2  A    between atoms: C2_2  and  C5_6 
REMARK    3  A    between atoms: C3_3  and  C4_4 
REMARK    4  A    between atoms: C6_7  and  O2_8 
REMARK    5  A    between atoms: C18_21  and  O3_22 
REMARK    6  A    between atoms: C18_21  and  C19_24 
REMARK    7  A    between atoms: C19_24  and  O4_25 
REMARK    8  A    between atoms: O4_25  and  C20_26 
REMARK       I    between atoms: C20_26  and  N1_28 
REMARK    9  A    between atoms: N1_28  and  C21_30 
REMARK   10  A    between atoms: C21_30  and  C22_31 
REMARK   11  A    between atoms: C22_31  and  O6_32 
ROOT
HETATM    1  C5  UNL     1      72.944  81.059  49.562  1.00  0.00    -0.040 C 
HETATM    2  C6  UNL     1      73.848  80.436  48.613  1.00  0.00     0.149 C 
HETATM    3  C7  UNL     1      74.698  81.545  48.007  1.00  0.00     0.047 C 
HETATM    4  C8  UNL     1      74.210  82.857  48.578  1.00  0.00    -0.026 C 
HETATM    5  C9  UNL     1      74.206  83.857  47.463  1.00  0.00     0.016 C 
HETATM    6  C10 UNL     1      75.202  83.236  49.692  1.00  0.00    -0.001 C 
HETATM    7  C11 UNL     1      76.564  83.497  49.128  1.00  0.00     0.007 C 
HETATM    8  C12 UNL     1      77.071  84.883  49.237  1.00  0.00     0.013 C 
HETATM    9  C13 UNL     1      76.915  85.391  50.643  1.00  0.00    -0.007 C 
HETATM   10  C14 UNL     1      77.669  84.525  51.596  1.00  0.00     0.019 C 
HETATM   11  C15 UNL     1      75.439  85.446  50.924  1.00  0.00     0.001 C 
HETATM   12  C16 UNL     1      75.002  86.638  50.117  1.00  0.00     0.009 C 
HETATM   13  C17 UNL     1      76.108  87.644  50.433  1.00  0.00     0.041 C 
HETATM   14  C18 UNL     1      77.319  86.816  50.829  1.00  0.00     0.087 C 
HETATM   15  C23 UNL     1      74.698  84.191  50.686  1.00  0.00    -0.005 C 
HETATM   16  C24 UNL     1      73.231  84.600  50.460  1.00  0.00     0.006 C 
HETATM   17  C25 UNL     1      72.390  83.380  50.237  1.00  0.00     0.015 C 
HETATM   18  C26 UNL     1      72.856  82.510  49.086  1.00  0.00    -0.010 C 
HETATM   19  C27 UNL     1      71.840  82.569  47.998  1.00  0.00     0.021 C 
ENDROOT
BRANCH  14  20
HETATM   20  O3  UNL     1      77.584  87.000  52.202  1.00  0.00    -0.387 OA
ATOM     21  H3  UNL     1      78.528  87.021  52.306  1.00  0.00     0.210 HD
ENDBRANCH  14  20
BRANCH  14  22
HETATM   22  C19 UNL     1      78.484  87.258  50.023  1.00  0.00     0.219 C 
BRANCH  22  23
HETATM   23  O4  UNL     1      78.430  88.691  49.959  1.00  0.00    -0.301 OA
BRANCH  23  24
HETATM   24  C20 UNL     1      79.310  89.507  50.618  1.00  0.00     0.360 C 
HETATM   25  O5  UNL     1      79.760  89.089  51.719  1.00  0.00    -0.239 OA
HETATM   26  N1  UNL     1      79.676  90.753  50.067  1.00  0.00    -0.335 N 
ATOM     27  H1  UNL     1      79.297  91.070  49.175  1.00  0.00     0.164 HD
BRANCH  26  28
HETATM   28  C21 UNL     1      80.614  91.568  50.819  1.00  0.00     0.151 C 
BRANCH  28  29
HETATM   29  C22 UNL     1      79.860  92.485  51.759  1.00  0.00     0.183 C 
BRANCH  29  30
HETATM   30  O6  UNL     1      79.834  91.962  53.052  1.00  0.00    -0.399 OA
ATOM     31  H6  UNL     1      78.983  92.094  53.454  1.00  0.00     0.209 HD
ENDBRANCH  29  30
ENDBRANCH  28  29
ENDBRANCH  26  28
ENDBRANCH  23  24
ENDBRANCH  22  23
ENDBRANCH  14  22
BRANCH   2  32
HETATM   32  O2  UNL     1      73.314  79.792  47.513  1.00  0.00    -0.391 OA
ATOM     33  H2  UNL     1      73.853  79.690  46.738  1.00  0.00     0.210 HD
ENDBRANCH   2  32
BRANCH   1  34
HETATM   34  C2  UNL     1      71.741  80.454  50.096  1.00  0.00    -0.072 C 
HETATM   35  C1  UNL     1      70.816  79.650  49.274  1.00  0.00     0.044 C 
BRANCH  34  36
HETATM   36  C3  UNL     1      71.827  79.806  51.457  1.00  0.00     0.103 C 
BRANCH  36  37
HETATM   37  C4  UNL     1      70.770  80.135  52.400  1.00  0.00     0.235 C 
HETATM   38  O1  UNL     1      70.420  81.225  52.763  1.00  0.00    -0.307 OA
ENDBRANCH  36  37
ENDBRANCH  34  36
ENDBRANCH   1  34
TORSDOF 11
ENDMDL
MODEL 5
REMARK VINA RESULT: -7.106431442      2.808      5.126
REMARK  11 active torsions:
REMARK  status: ('A' for Active; 'I' for Inactive)
REMARK    1  A    between atoms: C2_2  and  C3_3 
REMARK    2  A    between atoms: C2_2  and  C5_6 
REMARK    3  A    between atoms: C3_3  and  C4_4 
REMARK    4  A    between atoms: C6_7  and  O2_8 
REMARK    5  A    between atoms: C18_21  and  O3_22 
REMARK    6  A    between atoms: C18_21  and  C19_24 
REMARK    7  A    between atoms: C19_24  and  O4_25 
REMARK    8  A    between atoms: O4_25  and  C20_26 
REMARK       I    between atoms: C20_26  and  N1_28 
REMARK    9  A    between atoms: N1_28  and  C21_30 
REMARK   10  A    between atoms: C21_30  and  C22_31 
REMARK   11  A    between atoms: C22_31  and  O6_32 
ROOT
HETATM    1  C5  UNL     1      72.887  79.893  49.586  1.00  0.00    -0.040 C 
HETATM    2  C6  UNL     1      74.242  79.576  49.998  1.00  0.00     0.149 C 
HETATM    3  C7  UNL     1      75.150  80.658  49.428  1.00  0.00     0.047 C 
HETATM    4  C8  UNL     1      74.290  81.585  48.600  1.00  0.00    -0.026 C 
HETATM    5  C9  UNL     1      75.065  81.931  47.365  1.00  0.00     0.016 C 
HETATM    6  C10 UNL     1      74.020  82.819  49.478  1.00  0.00    -0.001 C 
HETATM    7  C11 UNL     1      75.290  83.558  49.766  1.00  0.00     0.007 C 
HETATM    8  C12 UNL     1      75.406  84.920  49.198  1.00  0.00     0.013 C 
HETATM    9  C13 UNL     1      74.177  85.727  49.511  1.00  0.00    -0.007 C 
HETATM   10  C14 UNL     1      73.988  85.835  50.987  1.00  0.00     0.019 C 
HETATM   11  C15 UNL     1      73.028  85.060  48.807  1.00  0.00     0.001 C 
HETATM   12  C16 UNL     1      73.276  85.426  47.370  1.00  0.00     0.009 C 
HETATM   13  C17 UNL     1      73.642  86.905  47.488  1.00  0.00     0.041 C 
HETATM   14  C18 UNL     1      74.166  87.090  48.901  1.00  0.00     0.087 C 
HETATM   15  C23 UNL     1      72.853  83.623  49.094  1.00  0.00    -0.005 C 
HETATM   16  C24 UNL     1      72.072  83.044  47.901  1.00  0.00     0.006 C 
HETATM   17  C25 UNL     1      71.819  81.582  48.117  1.00  0.00     0.015 C 
HETATM   18  C26 UNL     1      73.076  80.764  48.343  1.00  0.00    -0.010 C 
HETATM   19  C27 UNL     1      73.274  79.857  47.179  1.00  0.00     0.021 C 
ENDROOT
BRANCH  14  20
HETATM   20  O3  UNL     1      73.256  87.872  49.641  1.00  0.00    -0.387 OA
ATOM     21  H3  UNL     1      73.028  87.378  50.420  1.00  0.00     0.210 HD
ENDBRANCH  14  20
BRANCH  14  22
HETATM   22  C19 UNL     1      75.484  87.769  48.837  1.00  0.00     0.219 C 
BRANCH  22  23
HETATM   23  O4  UNL     1      75.794  88.209  50.168  1.00  0.00    -0.301 OA
BRANCH  23  24
HETATM   24  C20 UNL     1      77.052  88.149  50.706  1.00  0.00     0.360 C 
HETATM   25  O5  UNL     1      78.018  88.327  49.916  1.00  0.00    -0.239 OA
HETATM   26  N1  UNL     1      77.226  87.898  52.083  1.00  0.00    -0.335 N 
ATOM     27  H1  UNL     1      76.428  87.756  52.701  1.00  0.00     0.164 HD
BRANCH  26  28
HETATM   28  C21 UNL     1      78.588  87.847  52.587  1.00  0.00     0.151 C 
BRANCH  28  29
HETATM   29  C22 UNL     1      78.832  89.009  53.526  1.00  0.00     0.183 C 
BRANCH  29  30
HETATM   30  O6  UNL     1      78.017  88.918  54.654  1.00  0.00    -0.399 OA
ATOM     31  H6  UNL     1      77.929  88.016  54.938  1.00  0.00     0.209 HD
ENDBRANCH  29  30
ENDBRANCH  28  29
ENDBRANCH  26  28
ENDBRANCH  23  24
ENDBRANCH  22  23
ENDBRANCH  14  22
BRANCH   2  32
HETATM   32  O2  UNL     1      74.812  78.398  49.551  1.00  0.00    -0.391 OA
ATOM     33  H2  UNL     1      75.749  78.280  49.648  1.00  0.00     0.210 HD
ENDBRANCH   2  32
BRANCH   1  34
HETATM   34  C2  UNL     1      71.770  78.972  49.594  1.00  0.00    -0.072 C 
HETATM   35  C1  UNL     1      71.936  77.510  49.482  1.00  0.00     0.044 C 
BRANCH  34  36
HETATM   36  C3  UNL     1      70.654  79.232  50.578  1.00  0.00     0.103 C 
BRANCH  36  37
HETATM   37  C4  UNL     1      70.975  80.078  51.715  1.00  0.00     0.235 C 
HETATM   38  O1  UNL     1      70.313  80.275  52.698  1.00  0.00    -0.307 OA
ENDBRANCH  36  37
ENDBRANCH  34  36
ENDBRANCH   1  34
TORSDOF 11
ENDMDL
