MODEL 1
REMARK VINA RESULT: -8.613227723      0.000      0.000
REMARK  9 active torsions:
REMARK  status: ('A' for Active; 'I' for Inactive)
REMARK    1  A    between atoms: C2_2  and  C3_3 
REMARK    2  A    between atoms: C6_6  and  O1_7 
REMARK    3  A    between atoms: C7_9  and  O2_10 
REMARK    4  A    between atoms: C8_12  and  N1_13 
REMARK    5  A    between atoms: C9_15  and  C10_16 
REMARK    6  A    between atoms: C10_16  and  C12_18 
REMARK    7  A    between atoms: C12_18  and  N2_19 
REMARK    8  A    between atoms: N2_19  and  C13_21 
REMARK    9  A    between atoms: C18_28  and  C19_29 
ROOT
HETATM    1  C12 UNL     1      72.368  80.421  48.323  1.00  0.00     0.123 C 
ENDROOT
BRANCH   1   2
HETATM    2  C10 UNL     1      72.867  81.730  49.001  1.00  0.00     0.037 C 
HETATM    3  C11 UNL     1      72.068  82.138  50.168  1.00  0.00     0.017 C 
BRANCH   2   4
HETATM    4  C9  UNL     1      73.126  82.670  47.910  1.00  0.00     0.066 C 
HETATM    5  N1  UNL     1      73.622  83.929  48.033  1.00  0.00    -0.373 N 
ATOM      6  H1  UNL     1      74.515  84.078  47.564  1.00  0.00     0.164 HD
BRANCH   5   7
HETATM    7  C8  UNL     1      73.124  85.048  48.687  1.00  0.00     0.018 C 
HETATM    8  C7  UNL     1      73.625  85.311  50.077  1.00  0.00     0.192 C 
HETATM    9  C6  UNL     1      74.813  86.264  50.108  1.00  0.00     0.153 C 
HETATM   10  C5  UNL     1      74.996  87.092  48.890  1.00  0.00     0.048 C 
HETATM   11  C3  UNL     1      73.710  87.472  48.236  1.00  0.00    -0.020 C 
HETATM   12  C4  UNL     1      74.065  88.256  46.962  1.00  0.00     0.020 C 
HETATM   13  C28 UNL     1      72.927  86.265  47.822  1.00  0.00     0.068 C 
BRANCH   8  14
HETATM   14  O2  UNL     1      72.614  85.722  50.930  1.00  0.00    -0.387 OA
ATOM     15  H2  UNL     1      72.950  86.231  51.658  1.00  0.00     0.210 HD
ENDBRANCH   8  14
BRANCH   9  16
HETATM   16  O1  UNL     1      74.669  87.068  51.236  1.00  0.00    -0.393 OA
ATOM     17  H1  UNL     1      74.719  86.549  52.029  1.00  0.00     0.210 HD
ENDBRANCH   9  16
BRANCH  11  18
HETATM   18  C2  UNL     1      72.889  88.392  49.066  1.00  0.00    -0.027 C 
HETATM   19  C1  UNL     1      72.338  89.482  48.571  1.00  0.00     0.007 C 
ENDBRANCH  11  18
ENDBRANCH   5   7
ENDBRANCH   2   4
ENDBRANCH   1   2
BRANCH   1  20
HETATM   20  N2  UNL     1      71.229  80.668  47.554  1.00  0.00    -0.414 N 
ATOM     21  H2  UNL     1      70.770  81.579  47.590  1.00  0.00     0.153 HD
BRANCH  20  22
HETATM   22  C13 UNL     1      70.712  79.630  46.714  1.00  0.00     0.103 C 
HETATM   23  C14 UNL     1      70.744  80.307  45.308  1.00  0.00     0.053 C 
HETATM   24  C15 UNL     1      70.056  79.440  44.194  1.00  0.00     0.106 C 
HETATM   25  C16 UNL     1      71.116  78.343  44.060  1.00  0.00     0.043 C 
HETATM   26  N4  UNL     1      69.003  78.728  44.676  1.00  0.00    -0.309 N 
HETATM   27  C17 UNL     1      70.726  77.512  45.272  1.00  0.00     0.117 C 
HETATM   28  N3  UNL     1      69.656  78.098  45.759  1.00  0.00    -0.217 NA
HETATM   29  C26 UNL     1      69.435  79.063  46.790  1.00  0.00     0.052 C 
HETATM   30  C24 UNL     1      68.612  78.162  47.580  1.00  0.00     0.008 C 
HETATM   31  C27 UNL     1      68.543  80.236  46.642  1.00  0.00     0.037 C 
HETATM   32  C23 UNL     1      67.243  77.965  47.000  1.00  0.00     0.012 C 
HETATM   33  C25 UNL     1      68.411  78.574  49.027  1.00  0.00     0.012 C 
HETATM   34  C22 UNL     1      66.757  78.089  45.659  1.00  0.00     0.059 C 
HETATM   35  C18 UNL     1      67.672  78.473  44.535  1.00  0.00     0.025 C 
BRANCH  35  36
HETATM   36  C19 UNL     1      67.246  78.610  43.337  1.00  0.00    -0.064 C 
HETATM   37  C20 UNL     1      67.567  77.510  42.329  1.00  0.00     0.045 C 
HETATM   38  C21 UNL     1      66.466  79.709  42.800  1.00  0.00     0.045 C 
ENDBRANCH  35  36
ENDBRANCH  20  22
ENDBRANCH   1  20
TORSDOF 9
ENDMDL
MODEL 2
REMARK VINA RESULT: -8.432688000      5.238      8.339
REMARK  9 active torsions:
REMARK  status: ('A' for Active; 'I' for Inactive)
REMARK    1  A    between atoms: C2_2  and  C3_3 
REMARK    2  A    between atoms: C6_6  and  O1_7 
REMARK    3  A    between atoms: C7_9  and  O2_10 
REMARK    4  A    between atoms: C8_12  and  N1_13 
REMARK    5  A    between atoms: C9_15  and  C10_16 
REMARK    6  A    between atoms: C10_16  and  C12_18 
REMARK    7  A    between atoms: C12_18  and  N2_19 
REMARK    8  A    between atoms: N2_19  and  C13_21 
REMARK    9  A    between atoms: C18_28  and  C19_29 
ROOT
HETATM    1  C12 UNL     1      73.285  88.314  48.801  1.00  0.00     0.123 C 
ENDROOT
BRANCH   1   2
HETATM    2  C10 UNL     1      72.964  89.350  47.686  1.00  0.00     0.037 C 
HETATM    3  C11 UNL     1      71.543  89.728  47.614  1.00  0.00     0.017 C 
BRANCH   2   4
HETATM    4  C9  UNL     1      73.674  88.884  46.493  1.00  0.00     0.066 C 
HETATM    5  N1  UNL     1      74.286  89.664  45.565  1.00  0.00    -0.373 N 
ATOM      6  H1  UNL     1      75.291  89.509  45.482  1.00  0.00     0.164 HD
BRANCH   5   7
HETATM    7  C8  UNL     1      73.783  90.635  44.711  1.00  0.00     0.018 C 
HETATM    8  C7  UNL     1      73.261  91.897  45.335  1.00  0.00     0.192 C 
HETATM    9  C6  UNL     1      74.305  93.003  45.398  1.00  0.00     0.153 C 
HETATM   10  C5  UNL     1      75.463  92.837  44.483  1.00  0.00     0.048 C 
HETATM   11  C3  UNL     1      75.106  92.175  43.194  1.00  0.00    -0.020 C 
HETATM   12  C4  UNL     1      76.409  92.010  42.395  1.00  0.00     0.020 C 
HETATM   13  C28 UNL     1      74.537  90.809  43.418  1.00  0.00     0.068 C 
BRANCH   8  14
HETATM   14  O2  UNL     1      72.087  92.330  44.738  1.00  0.00    -0.387 OA
ATOM     15  H2  UNL     1      71.322  91.937  45.140  1.00  0.00     0.210 HD
ENDBRANCH   8  14
BRANCH   9  16
HETATM   16  O1  UNL     1      73.649  94.206  45.152  1.00  0.00    -0.393 OA
ATOM     17  H1  UNL     1      73.965  94.888  45.733  1.00  0.00     0.210 HD
ENDBRANCH   9  16
BRANCH  11  18
HETATM   18  C2  UNL     1      74.209  93.004  42.346  1.00  0.00    -0.027 C 
HETATM   19  C1  UNL     1      74.640  94.068  41.699  1.00  0.00     0.007 C 
ENDBRANCH  11  18
ENDBRANCH   5   7
ENDBRANCH   2   4
ENDBRANCH   1   2
BRANCH   1  20
HETATM   20  N2  UNL     1      72.731  87.070  48.492  1.00  0.00    -0.414 N 
ATOM     21  H2  UNL     1      71.973  86.997  47.813  1.00  0.00     0.153 HD
BRANCH  20  22
HETATM   22  C13 UNL     1      73.240  85.896  49.137  1.00  0.00     0.103 C 
HETATM   23  C14 UNL     1      74.779  86.150  49.098  1.00  0.00     0.053 C 
HETATM   24  C15 UNL     1      75.616  84.916  49.593  1.00  0.00     0.106 C 
HETATM   25  C16 UNL     1      75.302  85.003  51.089  1.00  0.00     0.043 C 
HETATM   26  N4  UNL     1      75.027  83.733  49.271  1.00  0.00    -0.309 N 
HETATM   27  C17 UNL     1      73.927  84.352  51.063  1.00  0.00     0.117 C 
HETATM   28  N3  UNL     1      73.747  83.984  49.814  1.00  0.00    -0.217 NA
HETATM   29  C26 UNL     1      73.099  84.579  48.688  1.00  0.00     0.052 C 
HETATM   30  C24 UNL     1      72.139  83.495  48.555  1.00  0.00     0.008 C 
HETATM   31  C27 UNL     1      73.690  84.628  47.330  1.00  0.00     0.037 C 
HETATM   32  C23 UNL     1      72.744  82.248  47.981  1.00  0.00     0.012 C 
HETATM   33  C25 UNL     1      70.921  83.813  47.706  1.00  0.00     0.012 C 
HETATM   34  C22 UNL     1      74.092  81.766  47.977  1.00  0.00     0.059 C 
HETATM   35  C18 UNL     1      75.195  82.543  48.631  1.00  0.00     0.025 C 
BRANCH  35  36
HETATM   36  C19 UNL     1      76.407  82.134  48.615  1.00  0.00    -0.064 C 
HETATM   37  C20 UNL     1      76.919  81.350  49.821  1.00  0.00     0.045 C 
HETATM   38  C21 UNL     1      77.385  82.322  47.560  1.00  0.00     0.045 C 
ENDBRANCH  35  36
ENDBRANCH  20  22
ENDBRANCH   1  20
TORSDOF 9
ENDMDL
MODEL 3
REMARK VINA RESULT: -8.171082999      1.281      2.111
REMARK  9 active torsions:
REMARK  status: ('A' for Active; 'I' for Inactive)
REMARK    1  A    between atoms: C2_2  and  C3_3 
REMARK    2  A    between atoms: C6_6  and  O1_7 
REMARK    3  A    between atoms: C7_9  and  O2_10 
REMARK    4  A    between atoms: C8_12  and  N1_13 
REMARK    5  A    between atoms: C9_15  and  C10_16 
REMARK    6  A    between atoms: C10_16  and  C12_18 
REMARK    7  A    between atoms: C12_18  and  N2_19 
REMARK    8  A    between atoms: N2_19  and  C13_21 
REMARK    9  A    between atoms: C18_28  and  C19_29 
ROOT
HETATM    1  C12 UNL     1      72.001  80.854  48.418  1.00  0.00     0.123 C 
ENDROOT
BRANCH   1   2
HETATM    2  C10 UNL     1      72.928  82.062  48.097  1.00  0.00     0.037 C 
HETATM    3  C11 UNL     1      74.335  81.852  48.476  1.00  0.00     0.017 C 
BRANCH   2   4
HETATM    4  C9  UNL     1      72.203  83.251  48.549  1.00  0.00     0.066 C 
HETATM    5  N1  UNL     1      72.301  84.500  48.025  1.00  0.00    -0.373 N 
ATOM      6  H1  UNL     1      71.431  84.862  47.635  1.00  0.00     0.164 HD
BRANCH   5   7
HETATM    7  C8  UNL     1      73.378  85.370  47.928  1.00  0.00     0.018 C 
HETATM    8  C7  UNL     1      73.082  86.793  47.554  1.00  0.00     0.192 C 
HETATM    9  C6  UNL     1      72.916  87.702  48.765  1.00  0.00     0.153 C 
HETATM   10  C5  UNL     1      73.486  87.182  50.033  1.00  0.00     0.048 C 
HETATM   11  C3  UNL     1      74.720  86.365  49.835  1.00  0.00    -0.020 C 
HETATM   12  C4  UNL     1      75.142  85.842  51.217  1.00  0.00     0.020 C 
HETATM   13  C28 UNL     1      74.457  85.177  48.962  1.00  0.00     0.068 C 
BRANCH   8  14
HETATM   14  O2  UNL     1      74.003  87.300  46.651  1.00  0.00    -0.387 OA
ATOM     15  H2  UNL     1      74.890  87.041  46.869  1.00  0.00     0.210 HD
ENDBRANCH   8  14
BRANCH   9  16
HETATM   16  O1  UNL     1      73.480  88.933  48.438  1.00  0.00    -0.393 OA
ATOM     17  H1  UNL     1      72.935  89.646  48.749  1.00  0.00     0.210 HD
ENDBRANCH   9  16
BRANCH  11  18
HETATM   18  C2  UNL     1      75.868  87.164  49.331  1.00  0.00    -0.027 C 
HETATM   19  C1  UNL     1      76.644  87.863  50.135  1.00  0.00     0.007 C 
ENDBRANCH  11  18
ENDBRANCH   5   7
ENDBRANCH   2   4
ENDBRANCH   1   2
BRANCH   1  20
HETATM   20  N2  UNL     1      70.825  80.922  47.668  1.00  0.00    -0.414 N 
ATOM     21  H2  UNL     1      70.220  81.741  47.731  1.00  0.00     0.153 HD
BRANCH  20  22
HETATM   22  C13 UNL     1      70.477  79.829  46.810  1.00  0.00     0.103 C 
HETATM   23  C14 UNL     1      70.542  80.494  45.401  1.00  0.00     0.053 C 
HETATM   24  C15 UNL     1      70.026  79.552  44.254  1.00  0.00     0.106 C 
HETATM   25  C16 UNL     1      71.198  78.568  44.212  1.00  0.00     0.043 C 
HETATM   26  N4  UNL     1      69.018  78.740  44.671  1.00  0.00    -0.309 N 
HETATM   27  C17 UNL     1      70.808  77.711  45.406  1.00  0.00     0.117 C 
HETATM   28  N3  UNL     1      69.653  78.190  45.808  1.00  0.00    -0.217 NA
HETATM   29  C26 UNL     1      69.262  79.136  46.806  1.00  0.00     0.052 C 
HETATM   30  C24 UNL     1      68.480  78.162  47.549  1.00  0.00     0.008 C 
HETATM   31  C27 UNL     1      68.269  80.210  46.577  1.00  0.00     0.037 C 
HETATM   32  C23 UNL     1      67.183  77.821  46.877  1.00  0.00     0.012 C 
HETATM   33  C25 UNL     1      68.135  78.563  48.972  1.00  0.00     0.012 C 
HETATM   34  C22 UNL     1      66.784  77.884  45.504  1.00  0.00     0.059 C 
HETATM   35  C18 UNL     1      67.734  78.350  44.442  1.00  0.00     0.025 C 
BRANCH  35  36
HETATM   36  C19 UNL     1      67.383  78.433  43.214  1.00  0.00    -0.064 C 
HETATM   37  C20 UNL     1      66.533  79.627  42.788  1.00  0.00     0.045 C 
HETATM   38  C21 UNL     1      67.705  77.510  42.143  1.00  0.00     0.045 C 
ENDBRANCH  35  36
ENDBRANCH  20  22
ENDBRANCH   1  20
TORSDOF 9
ENDMDL
MODEL 4
REMARK VINA RESULT: -8.009220511      5.911     10.790
REMARK  9 active torsions:
REMARK  status: ('A' for Active; 'I' for Inactive)
REMARK    1  A    between atoms: C2_2  and  C3_3 
REMARK    2  A    between atoms: C6_6  and  O1_7 
REMARK    3  A    between atoms: C7_9  and  O2_10 
REMARK    4  A    between atoms: C8_12  and  N1_13 
REMARK    5  A    between atoms: C9_15  and  C10_16 
REMARK    6  A    between atoms: C10_16  and  C12_18 
REMARK    7  A    between atoms: C12_18  and  N2_19 
REMARK    8  A    between atoms: N2_19  and  C13_21 
REMARK    9  A    between atoms: C18_28  and  C19_29 
ROOT
HETATM    1  C12 UNL     1      77.546  83.188  48.604  1.00  0.00     0.123 C 
ENDROOT
BRANCH   1   2
HETATM    2  C10 UNL     1      76.083  83.460  49.059  1.00  0.00     0.037 C 
HETATM    3  C11 UNL     1      75.767  82.936  50.397  1.00  0.00     0.017 C 
BRANCH   2   4
HETATM    4  C9  UNL     1      75.240  83.127  47.909  1.00  0.00     0.066 C 
HETATM    5  N1  UNL     1      74.509  83.999  47.168  1.00  0.00    -0.373 N 
ATOM      6  H1  UNL     1      74.781  84.048  46.186  1.00  0.00     0.164 HD
BRANCH   5   7
HETATM    7  C8  UNL     1      73.457  84.836  47.514  1.00  0.00     0.018 C 
HETATM    8  C7  UNL     1      72.775  84.578  48.825  1.00  0.00     0.192 C 
HETATM    9  C6  UNL     1      73.344  85.413  49.964  1.00  0.00     0.153 C 
HETATM   10  C5  UNL     1      74.122  86.608  49.549  1.00  0.00     0.048 C 
HETATM   11  C3  UNL     1      73.608  87.241  48.300  1.00  0.00    -0.020 C 
HETATM   12  C4  UNL     1      74.552  88.407  47.963  1.00  0.00     0.020 C 
HETATM   13  C28 UNL     1      73.640  86.286  47.147  1.00  0.00     0.068 C 
BRANCH   8  14
HETATM   14  O2  UNL     1      71.398  84.702  48.734  1.00  0.00    -0.387 OA
ATOM     15  H2  UNL     1      71.090  84.566  47.846  1.00  0.00     0.210 HD
ENDBRANCH   8  14
BRANCH   9  16
HETATM   16  O1  UNL     1      72.278  85.777  50.783  1.00  0.00    -0.393 OA
ATOM     17  H1  UNL     1      71.621  85.091  50.806  1.00  0.00     0.210 HD
ENDBRANCH   9  16
BRANCH  11  18
HETATM   18  C2  UNL     1      72.259  87.843  48.467  1.00  0.00    -0.027 C 
HETATM   19  C1  UNL     1      72.034  89.127  48.276  1.00  0.00     0.007 C 
ENDBRANCH  11  18
ENDBRANCH   5   7
ENDBRANCH   2   4
ENDBRANCH   1   2
BRANCH   1  20
HETATM   20  N2  UNL     1      78.296  84.366  48.626  1.00  0.00    -0.414 N 
ATOM     21  H2  UNL     1      78.921  84.594  47.852  1.00  0.00     0.153 HD
BRANCH  20  22
HETATM   22  C13 UNL     1      78.179  85.251  49.746  1.00  0.00     0.103 C 
HETATM   23  C14 UNL     1      78.779  86.573  49.175  1.00  0.00     0.053 C 
HETATM   24  C15 UNL     1      78.941  87.693  50.264  1.00  0.00     0.106 C 
HETATM   25  C16 UNL     1      77.465  88.052  50.456  1.00  0.00     0.043 C 
HETATM   26  N4  UNL     1      79.246  87.180  51.487  1.00  0.00    -0.309 N 
HETATM   27  C17 UNL     1      77.076  86.899  51.368  1.00  0.00     0.117 C 
HETATM   28  N3  UNL     1      78.193  86.243  51.586  1.00  0.00    -0.217 NA
HETATM   29  C26 UNL     1      78.807  85.099  50.988  1.00  0.00     0.052 C 
HETATM   30  C24 UNL     1      78.771  84.326  52.218  1.00  0.00     0.008 C 
HETATM   31  C27 UNL     1      80.242  85.030  50.628  1.00  0.00     0.037 C 
HETATM   32  C23 UNL     1      79.794  84.776  53.219  1.00  0.00     0.012 C 
HETATM   33  C25 UNL     1      78.968  82.830  52.045  1.00  0.00     0.012 C 
HETATM   34  C22 UNL     1      80.444  86.038  53.404  1.00  0.00     0.059 C 
HETATM   35  C18 UNL     1      80.139  87.205  52.515  1.00  0.00     0.025 C 
BRANCH  35  36
HETATM   36  C19 UNL     1      80.730  88.332  52.655  1.00  0.00    -0.064 C 
HETATM   37  C20 UNL     1      79.990  89.445  53.394  1.00  0.00     0.045 C 
HETATM   38  C21 UNL     1      82.056  88.694  52.193  1.00  0.00     0.045 C 
ENDBRANCH  35  36
ENDBRANCH  20  22
ENDBRANCH   1  20
TORSDOF 9
ENDMDL
MODEL 5
REMARK VINA RESULT: -8.000904984      6.641     12.683
REMARK  9 active torsions:
REMARK  status: ('A' for Active; 'I' for Inactive)
REMARK    1  A    between atoms: C2_2  and  C3_3 
REMARK    2  A    between atoms: C6_6  and  O1_7 
REMARK    3  A    between atoms: C7_9  and  O2_10 
REMARK    4  A    between atoms: C8_12  and  N1_13 
REMARK    5  A    between atoms: C9_15  and  C10_16 
REMARK    6  A    between atoms: C10_16  and  C12_18 
REMARK    7  A    between atoms: C12_18  and  N2_19 
REMARK    8  A    between atoms: N2_19  and  C13_21 
REMARK    9  A    between atoms: C18_28  and  C19_29 
ROOT
HETATM    1  C12 UNL     1      78.566  84.765  52.224  1.00  0.00     0.123 C 
ENDROOT
BRANCH   1   2
HETATM    2  C10 UNL     1      77.536  84.450  51.101  1.00  0.00     0.037 C 
HETATM    3  C11 UNL     1      78.117  84.428  49.749  1.00  0.00     0.017 C 
BRANCH   2   4
HETATM    4  C9  UNL     1      76.362  85.274  51.395  1.00  0.00     0.066 C 
HETATM    5  N1  UNL     1      75.201  85.299  50.691  1.00  0.00    -0.373 N 
ATOM      6  H1  UNL     1      74.380  85.012  51.223  1.00  0.00     0.164 HD
BRANCH   5   7
HETATM    7  C8  UNL     1      74.937  85.648  49.374  1.00  0.00     0.018 C 
HETATM    8  C7  UNL     1      73.939  84.812  48.628  1.00  0.00     0.192 C 
HETATM    9  C6  UNL     1      72.528  85.381  48.685  1.00  0.00     0.153 C 
HETATM   10  C5  UNL     1      72.436  86.816  49.054  1.00  0.00     0.048 C 
HETATM   11  C3  UNL     1      73.584  87.629  48.555  1.00  0.00    -0.020 C 
HETATM   12  C4  UNL     1      73.385  89.061  49.075  1.00  0.00     0.020 C 
HETATM   13  C28 UNL     1      74.887  87.127  49.097  1.00  0.00     0.068 C 
BRANCH   8  14
HETATM   14  O2  UNL     1      74.338  84.555  47.326  1.00  0.00    -0.387 OA
ATOM     15  H2  UNL     1      74.081  83.686  47.042  1.00  0.00     0.210 HD
ENDBRANCH   8  14
BRANCH   9  16
HETATM   16  O1  UNL     1      71.938  85.151  47.445  1.00  0.00    -0.393 OA
ATOM     17  H1  UNL     1      71.005  85.330  47.477  1.00  0.00     0.210 HD
ENDBRANCH   9  16
BRANCH  11  18
HETATM   18  C2  UNL     1      73.618  87.733  47.073  1.00  0.00    -0.027 C 
HETATM   19  C1  UNL     1      73.845  88.874  46.454  1.00  0.00     0.007 C 
ENDBRANCH  11  18
ENDBRANCH   5   7
ENDBRANCH   2   4
ENDBRANCH   1   2
BRANCH   1  20
HETATM   20  N2  UNL     1      79.414  85.806  51.838  1.00  0.00    -0.414 N 
ATOM     21  H2  UNL     1      80.274  85.607  51.327  1.00  0.00     0.153 HD
BRANCH  20  22
HETATM   22  C13 UNL     1      79.063  87.154  52.168  1.00  0.00     0.103 C 
HETATM   23  C14 UNL     1      79.093  87.845  50.769  1.00  0.00     0.053 C 
HETATM   24  C15 UNL     1      78.911  89.403  50.851  1.00  0.00     0.106 C 
HETATM   25  C16 UNL     1      77.425  89.449  51.213  1.00  0.00     0.043 C 
HETATM   26  N4  UNL     1      79.471  89.927  51.974  1.00  0.00    -0.309 N 
HETATM   27  C17 UNL     1      77.552  89.155  52.700  1.00  0.00     0.117 C 
HETATM   28  N3  UNL     1      78.845  89.091  52.926  1.00  0.00    -0.217 NA
HETATM   29  C26 UNL     1      79.790  88.020  52.992  1.00  0.00     0.052 C 
HETATM   30  C24 UNL     1      80.130  88.288  54.380  1.00  0.00     0.008 C 
HETATM   31  C27 UNL     1      81.120  88.057  52.342  1.00  0.00     0.037 C 
HETATM   32  C23 UNL     1      80.986  89.508  54.545  1.00  0.00     0.012 C 
HETATM   33  C25 UNL     1      80.847  87.158  55.096  1.00  0.00     0.012 C 
HETATM   34  C22 UNL     1      81.140  90.673  53.728  1.00  0.00     0.059 C 
HETATM   35  C18 UNL     1      80.364  90.835  52.455  1.00  0.00     0.025 C 
BRANCH  35  36
HETATM   36  C19 UNL     1      80.510  91.861  51.704  1.00  0.00    -0.064 C 
HETATM   37  C20 UNL     1      79.598  93.062  51.942  1.00  0.00     0.045 C 
HETATM   38  C21 UNL     1      81.465  92.034  50.626  1.00  0.00     0.045 C 
ENDBRANCH  35  36
ENDBRANCH  20  22
ENDBRANCH   1  20
TORSDOF 9
ENDMDL
