MODEL 1
REMARK VINA RESULT: -9.918089129      0.000      0.000
REMARK  11 active torsions:
REMARK  status: ('A' for Active; 'I' for Inactive)
REMARK    1  A    between atoms: C2_2  and  C3_3 
REMARK    2  A    between atoms: C2_2  and  C24_28 
REMARK    3  A    between atoms: C4_4  and  C5_5 
REMARK    4  A    between atoms: C7_7  and  O1_8 
REMARK    5  A    between atoms: O1_8  and  C8_9 
REMARK    6  A    between atoms: C8_9  and  C9_11 
REMARK    7  A    between atoms: C20_22  and  O3_23 
REMARK    8  A    between atoms: C24_28  and  O4_29 
REMARK    9  A    between atoms: C24_28  and  C25_31 
REMARK   10  A    between atoms: C26_32  and  O5_33 
REMARK   11  A    between atoms: C26_32  and  C27_35 
ROOT
HETATM    1  C5  UNL     1      72.876  88.109  49.500  1.00  0.00     0.015 C 
HETATM    2  C6  UNL     1      74.290  88.038  48.950  1.00  0.00     0.042 C 
HETATM    3  C7  UNL     1      74.900  86.774  49.568  1.00  0.00     0.137 C 
HETATM    4  C14 UNL     1      73.756  86.049  50.132  1.00  0.00     0.025 C 
HETATM    5  C15 UNL     1      72.468  86.638  49.554  1.00  0.00     0.000 C 
HETATM    6  C16 UNL     1      72.151  86.113  48.191  1.00  0.00     0.006 C 
HETATM    7  C17 UNL     1      72.016  84.609  48.245  1.00  0.00     0.012 C 
HETATM    8  C18 UNL     1      73.340  84.047  48.653  1.00  0.00    -0.014 C 
HETATM    9  C19 UNL     1      74.392  84.156  47.622  1.00  0.00     0.018 C 
HETATM   10  C20 UNL     1      73.251  82.573  49.044  1.00  0.00     0.126 C 
HETATM   11  C21 UNL     1      74.534  82.410  49.831  1.00  0.00     0.033 C 
HETATM   12  C22 UNL     1      74.878  83.799  50.381  1.00  0.00     0.008 C 
HETATM   13  C23 UNL     1      73.690  84.592  50.005  1.00  0.00     0.003 C 
ENDROOT
BRANCH   1  14
HETATM   14  C4  UNL     1      71.971  88.871  48.646  1.00  0.00    -0.025 C 
HETATM   15  C3  UNL     1      72.359  89.507  47.557  1.00  0.00    -0.023 C 
BRANCH  15  16
HETATM   16  C2  UNL     1      73.721  89.580  46.999  1.00  0.00     0.036 C 
HETATM   17  C1  UNL     1      74.066  88.362  46.161  1.00  0.00     0.017 C 
BRANCH  16  18
HETATM   18  C24 UNL     1      73.755  90.766  46.018  1.00  0.00     0.151 C 
BRANCH  18  19
HETATM   19  O4  UNL     1      72.470  91.300  46.023  1.00  0.00    -0.391 OA
ATOM     20  H4  UNL     1      72.351  91.681  46.885  1.00  0.00     0.210 HD
ENDBRANCH  18  19
BRANCH  18  21
HETATM   21  C25 UNL     1      74.218  90.337  44.699  1.00  0.00     0.049 C 
HETATM   22  C26 UNL     1      74.757  91.120  43.806  1.00  0.00     0.141 C 
BRANCH  22  23
HETATM   23  O5  UNL     1      75.153  90.545  42.575  1.00  0.00    -0.355 OA
ATOM     24  H5  UNL     1      74.737  90.863  41.782  1.00  0.00     0.218 HD
ENDBRANCH  22  23
BRANCH  22  25
HETATM   25  C27 UNL     1      74.985  92.534  43.971  1.00  0.00     0.233 C 
HETATM   26  O6  UNL     1      76.115  93.071  43.917  1.00  0.00    -0.642 OA
HETATM   27  O7  UNL     1      73.879  93.358  44.207  1.00  0.00    -0.642 OA
ENDBRANCH  22  25
ENDBRANCH  18  21
ENDBRANCH  16  18
ENDBRANCH  15  16
ENDBRANCH   1  14
BRANCH   3  28
HETATM   28  O1  UNL     1      75.783  87.176  50.609  1.00  0.00    -0.315 OA
BRANCH  28  29
HETATM   29  C8  UNL     1      77.139  86.981  50.601  1.00  0.00     0.263 C 
HETATM   30  O2  UNL     1      77.611  86.006  49.987  1.00  0.00    -0.265 OA
BRANCH  29  31
HETATM   31  C9  UNL     1      77.989  87.961  51.336  1.00  0.00     0.085 C 
HETATM   32  C10 UNL     1      77.218  89.168  51.767  1.00  0.00     0.014 C 
HETATM   33  C11 UNL     1      78.282  90.238  51.815  1.00  0.00     0.001 C 
HETATM   34  C12 UNL     1      79.078  89.978  50.562  1.00  0.00     0.001 C 
HETATM   35  C13 UNL     1      79.075  88.488  50.423  1.00  0.00     0.014 C 
ENDBRANCH  29  31
ENDBRANCH  28  29
ENDBRANCH   3  28
BRANCH  10  36
HETATM   36  O3  UNL     1      72.129  82.433  49.850  1.00  0.00    -0.395 OA
ATOM     37  H3  UNL     1      71.754  81.581  49.660  1.00  0.00     0.210 HD
ENDBRANCH  10  36
TORSDOF 11
ENDMDL
MODEL 2
REMARK VINA RESULT: -9.848271387      2.679      7.458
REMARK  11 active torsions:
REMARK  status: ('A' for Active; 'I' for Inactive)
REMARK    1  A    between atoms: C2_2  and  C3_3 
REMARK    2  A    between atoms: C2_2  and  C24_28 
REMARK    3  A    between atoms: C4_4  and  C5_5 
REMARK    4  A    between atoms: C7_7  and  O1_8 
REMARK    5  A    between atoms: O1_8  and  C8_9 
REMARK    6  A    between atoms: C8_9  and  C9_11 
REMARK    7  A    between atoms: C20_22  and  O3_23 
REMARK    8  A    between atoms: C24_28  and  O4_29 
REMARK    9  A    between atoms: C24_28  and  C25_31 
REMARK   10  A    between atoms: C26_32  and  O5_33 
REMARK   11  A    between atoms: C26_32  and  C27_35 
ROOT
HETATM    1  C5  UNL     1      74.047  85.648  50.539  1.00  0.00     0.015 C 
HETATM    2  C6  UNL     1      74.423  86.176  49.166  1.00  0.00     0.042 C 
HETATM    3  C7  UNL     1      75.286  87.415  49.433  1.00  0.00     0.137 C 
HETATM    4  C14 UNL     1      75.621  87.333  50.860  1.00  0.00     0.025 C 
HETATM    5  C15 UNL     1      75.309  85.920  51.356  1.00  0.00     0.000 C 
HETATM    6  C16 UNL     1      76.388  84.939  51.028  1.00  0.00     0.006 C 
HETATM    7  C17 UNL     1      77.692  85.393  51.643  1.00  0.00     0.012 C 
HETATM    8  C18 UNL     1      78.059  86.701  51.017  1.00  0.00    -0.014 C 
HETATM    9  C19 UNL     1      78.482  86.603  49.605  1.00  0.00     0.018 C 
HETATM   10  C20 UNL     1      79.183  87.410  51.770  1.00  0.00     0.126 C 
HETATM   11  C21 UNL     1      79.020  88.825  51.256  1.00  0.00     0.033 C 
HETATM   12  C22 UNL     1      77.550  88.965  50.845  1.00  0.00     0.008 C 
HETATM   13  C23 UNL     1      76.968  87.688  51.308  1.00  0.00     0.003 C 
ENDROOT
BRANCH   1  14
HETATM   14  C4  UNL     1      73.725  84.225  50.533  1.00  0.00    -0.025 C 
HETATM   15  C3  UNL     1      73.143  83.614  49.519  1.00  0.00    -0.023 C 
BRANCH  15  16
HETATM   16  C2  UNL     1      72.715  84.209  48.239  1.00  0.00     0.036 C 
HETATM   17  C1  UNL     1      73.765  84.056  47.154  1.00  0.00     0.017 C 
BRANCH  16  18
HETATM   18  C24 UNL     1      71.500  83.406  47.741  1.00  0.00     0.151 C 
BRANCH  18  19
HETATM   19  O4  UNL     1      70.380  84.063  48.240  1.00  0.00    -0.391 OA
ATOM     20  H4  UNL     1      69.834  84.254  47.486  1.00  0.00     0.210 HD
ENDBRANCH  18  19
BRANCH  18  21
HETATM   21  C25 UNL     1      71.601  82.004  48.148  1.00  0.00     0.049 C 
HETATM   22  C26 UNL     1      70.859  81.038  47.685  1.00  0.00     0.141 C 
BRANCH  22  23
HETATM   23  O5  UNL     1      71.084  79.733  48.184  1.00  0.00    -0.355 OA
ATOM     24  H5  UNL     1      71.966  79.384  48.132  1.00  0.00     0.218 HD
ENDBRANCH  22  23
BRANCH  22  25
HETATM   25  C27 UNL     1      69.818  81.190  46.699  1.00  0.00     0.233 C 
HETATM   26  O6  UNL     1      69.957  80.908  45.487  1.00  0.00    -0.642 OA
HETATM   27  O7  UNL     1      68.577  81.682  47.118  1.00  0.00    -0.642 OA
ENDBRANCH  22  25
ENDBRANCH  18  21
ENDBRANCH  16  18
ENDBRANCH  15  16
ENDBRANCH   1  14
BRANCH   3  28
HETATM   28  O1  UNL     1      74.489  88.569  49.187  1.00  0.00    -0.315 OA
BRANCH  28  29
HETATM   29  C8  UNL     1      73.186  88.540  48.763  1.00  0.00     0.263 C 
HETATM   30  O2  UNL     1      72.294  88.186  49.557  1.00  0.00    -0.265 OA
BRANCH  29  31
HETATM   31  C9  UNL     1      72.901  88.942  47.356  1.00  0.00     0.085 C 
HETATM   32  C10 UNL     1      74.104  88.811  46.476  1.00  0.00     0.014 C 
HETATM   33  C11 UNL     1      73.848  89.850  45.412  1.00  0.00     0.001 C 
HETATM   34  C12 UNL     1      73.336  91.025  46.205  1.00  0.00     0.001 C 
HETATM   35  C13 UNL     1      72.529  90.408  47.303  1.00  0.00     0.014 C 
ENDBRANCH  29  31
ENDBRANCH  28  29
ENDBRANCH   3  28
BRANCH  10  36
HETATM   36  O3  UNL     1      78.888  87.316  53.124  1.00  0.00    -0.395 OA
ATOM     37  H3  UNL     1      79.356  86.561  53.459  1.00  0.00     0.210 HD
ENDBRANCH  10  36
TORSDOF 11
ENDMDL
MODEL 3
REMARK VINA RESULT: -9.769210899      1.982      5.225
REMARK  11 active torsions:
REMARK  status: ('A' for Active; 'I' for Inactive)
REMARK    1  A    between atoms: C2_2  and  C3_3 
REMARK    2  A    between atoms: C2_2  and  C24_28 
REMARK    3  A    between atoms: C4_4  and  C5_5 
REMARK    4  A    between atoms: C7_7  and  O1_8 
REMARK    5  A    between atoms: O1_8  and  C8_9 
REMARK    6  A    between atoms: C8_9  and  C9_11 
REMARK    7  A    between atoms: C20_22  and  O3_23 
REMARK    8  A    between atoms: C24_28  and  O4_29 
REMARK    9  A    between atoms: C24_28  and  C25_31 
REMARK   10  A    between atoms: C26_32  and  O5_33 
REMARK   11  A    between atoms: C26_32  and  C27_35 
ROOT
HETATM    1  C5  UNL     1      73.751  87.126  49.133  1.00  0.00     0.015 C 
HETATM    2  C6  UNL     1      73.180  86.355  50.312  1.00  0.00     0.042 C 
HETATM    3  C7  UNL     1      73.568  84.893  50.062  1.00  0.00     0.137 C 
HETATM    4  C14 UNL     1      74.575  84.953  48.996  1.00  0.00     0.025 C 
HETATM    5  C15 UNL     1      75.066  86.396  48.867  1.00  0.00     0.000 C 
HETATM    6  C16 UNL     1      76.099  86.751  49.887  1.00  0.00     0.006 C 
HETATM    7  C17 UNL     1      77.283  85.821  49.756  1.00  0.00     0.012 C 
HETATM    8  C18 UNL     1      76.808  84.434  50.052  1.00  0.00    -0.014 C 
HETATM    9  C19 UNL     1      76.471  84.195  51.470  1.00  0.00     0.018 C 
HETATM   10  C20 UNL     1      77.829  83.371  49.651  1.00  0.00     0.126 C 
HETATM   11  C21 UNL     1      76.952  82.139  49.601  1.00  0.00     0.033 C 
HETATM   12  C22 UNL     1      75.531  82.636  49.310  1.00  0.00     0.008 C 
HETATM   13  C23 UNL     1      75.745  84.075  49.057  1.00  0.00     0.003 C 
ENDROOT
BRANCH   1  14
HETATM   14  C4  UNL     1      73.986  88.534  49.435  1.00  0.00    -0.025 C 
HETATM   15  C3  UNL     1      73.578  89.523  48.663  1.00  0.00    -0.023 C 
BRANCH  15  16
HETATM   16  C2  UNL     1      72.835  89.422  47.394  1.00  0.00     0.036 C 
HETATM   17  C1  UNL     1      71.341  89.607  47.586  1.00  0.00     0.017 C 
BRANCH  16  18
HETATM   18  C24 UNL     1      73.277  90.599  46.506  1.00  0.00     0.151 C 
BRANCH  18  19
HETATM   19  O4  UNL     1      72.142  91.383  46.323  1.00  0.00    -0.391 OA
ATOM     20  H4  UNL     1      72.246  92.129  46.903  1.00  0.00     0.210 HD
ENDBRANCH  18  19
BRANCH  18  21
HETATM   21  C25 UNL     1      73.875  90.115  45.262  1.00  0.00     0.049 C 
HETATM   22  C26 UNL     1      74.505  90.860  44.398  1.00  0.00     0.141 C 
BRANCH  22  23
HETATM   23  O5  UNL     1      75.028  90.235  43.241  1.00  0.00    -0.355 OA
ATOM     24  H5  UNL     1      75.918  89.906  43.277  1.00  0.00     0.218 HD
ENDBRANCH  22  23
BRANCH  22  25
HETATM   25  C27 UNL     1      74.714  92.281  44.524  1.00  0.00     0.233 C 
HETATM   26  O6  UNL     1      73.846  93.082  44.941  1.00  0.00    -0.642 OA
HETATM   27  O7  UNL     1      75.960  92.801  44.158  1.00  0.00    -0.642 OA
ENDBRANCH  22  25
ENDBRANCH  18  21
ENDBRANCH  16  18
ENDBRANCH  15  16
ENDBRANCH   1  14
BRANCH   3  28
HETATM   28  O1  UNL     1      72.411  84.203  49.600  1.00  0.00    -0.315 OA
BRANCH  28  29
HETATM   29  C8  UNL     1      72.163  83.885  48.291  1.00  0.00     0.263 C 
HETATM   30  O2  UNL     1      72.000  84.800  47.462  1.00  0.00    -0.265 OA
BRANCH  29  31
HETATM   31  C9  UNL     1      72.101  82.441  47.924  1.00  0.00     0.085 C 
HETATM   32  C10 UNL     1      70.821  82.087  47.236  1.00  0.00     0.014 C 
HETATM   33  C11 UNL     1      70.653  80.628  47.586  1.00  0.00     0.001 C 
HETATM   34  C12 UNL     1      71.026  80.587  49.046  1.00  0.00     0.001 C 
HETATM   35  C13 UNL     1      72.128  81.590  49.175  1.00  0.00     0.014 C 
ENDBRANCH  29  31
ENDBRANCH  28  29
ENDBRANCH   3  28
BRANCH  10  36
HETATM   36  O3  UNL     1      78.305  83.718  48.392  1.00  0.00    -0.395 OA
ATOM     37  H3  UNL     1      77.549  83.929  47.858  1.00  0.00     0.210 HD
ENDBRANCH  10  36
TORSDOF 11
ENDMDL
MODEL 4
REMARK VINA RESULT: -9.703159372      2.789      7.838
REMARK  11 active torsions:
REMARK  status: ('A' for Active; 'I' for Inactive)
REMARK    1  A    between atoms: C2_2  and  C3_3 
REMARK    2  A    between atoms: C2_2  and  C24_28 
REMARK    3  A    between atoms: C4_4  and  C5_5 
REMARK    4  A    between atoms: C7_7  and  O1_8 
REMARK    5  A    between atoms: O1_8  and  C8_9 
REMARK    6  A    between atoms: C8_9  and  C9_11 
REMARK    7  A    between atoms: C20_22  and  O3_23 
REMARK    8  A    between atoms: C24_28  and  O4_29 
REMARK    9  A    between atoms: C24_28  and  C25_31 
REMARK   10  A    between atoms: C26_32  and  O5_33 
REMARK   11  A    between atoms: C26_32  and  C27_35 
ROOT
HETATM    1  C5  UNL     1      74.867  85.216  50.233  1.00  0.00     0.015 C 
HETATM    2  C6  UNL     1      75.146  86.111  49.037  1.00  0.00     0.042 C 
HETATM    3  C7  UNL     1      75.564  87.460  49.633  1.00  0.00     0.137 C 
HETATM    4  C14 UNL     1      75.819  87.177  51.050  1.00  0.00     0.025 C 
HETATM    5  C15 UNL     1      75.931  85.662  51.236  1.00  0.00     0.000 C 
HETATM    6  C16 UNL     1      77.278  85.131  50.868  1.00  0.00     0.006 C 
HETATM    7  C17 UNL     1      78.337  85.802  51.712  1.00  0.00     0.012 C 
HETATM    8  C18 UNL     1      78.319  87.262  51.388  1.00  0.00    -0.014 C 
HETATM    9  C19 UNL     1      78.837  87.595  50.045  1.00  0.00     0.018 C 
HETATM   10  C20 UNL     1      79.119  88.090  52.391  1.00  0.00     0.126 C 
HETATM   11  C21 UNL     1      78.558  89.472  52.131  1.00  0.00     0.033 C 
HETATM   12  C22 UNL     1      77.146  89.263  51.574  1.00  0.00     0.008 C 
HETATM   13  C23 UNL     1      76.960  87.804  51.718  1.00  0.00     0.003 C 
ENDROOT
BRANCH   1  14
HETATM   14  C4  UNL     1      75.002  83.797  49.925  1.00  0.00    -0.025 C 
HETATM   15  C3  UNL     1      74.002  83.042  49.513  1.00  0.00    -0.023 C 
BRANCH  15  16
HETATM   16  C2  UNL     1      72.604  83.451  49.286  1.00  0.00     0.036 C 
HETATM   17  C1  UNL     1      72.380  83.982  47.882  1.00  0.00     0.017 C 
BRANCH  16  18
HETATM   18  C24 UNL     1      71.732  82.186  49.383  1.00  0.00     0.151 C 
BRANCH  18  19
HETATM   19  O4  UNL     1      71.543  81.958  50.742  1.00  0.00    -0.391 OA
ATOM     20  H4  UNL     1      70.617  82.101  50.902  1.00  0.00     0.210 HD
ENDBRANCH  18  19
BRANCH  18  21
HETATM   21  C25 UNL     1      72.355  81.070  48.671  1.00  0.00     0.049 C 
HETATM   22  C26 UNL     1      71.815  80.426  47.674  1.00  0.00     0.141 C 
BRANCH  22  23
HETATM   23  O5  UNL     1      72.552  79.366  47.094  1.00  0.00    -0.355 OA
ATOM     24  H5  UNL     1      72.110  78.536  46.966  1.00  0.00     0.218 HD
ENDBRANCH  22  23
BRANCH  22  25
HETATM   25  C27 UNL     1      70.519  80.707  47.109  1.00  0.00     0.233 C 
HETATM   26  O6  UNL     1      69.448  80.220  47.539  1.00  0.00    -0.642 OA
HETATM   27  O7  UNL     1      70.449  81.574  46.014  1.00  0.00    -0.642 OA
ENDBRANCH  22  25
ENDBRANCH  18  21
ENDBRANCH  16  18
ENDBRANCH  15  16
ENDBRANCH   1  14
BRANCH   3  28
HETATM   28  O1  UNL     1      74.466  88.357  49.506  1.00  0.00    -0.315 OA
BRANCH  28  29
HETATM   29  C8  UNL     1      73.239  88.021  48.996  1.00  0.00     0.263 C 
HETATM   30  O2  UNL     1      72.462  87.331  49.682  1.00  0.00    -0.265 OA
BRANCH  29  31
HETATM   31  C9  UNL     1      72.896  88.508  47.629  1.00  0.00     0.085 C 
HETATM   32  C10 UNL     1      74.105  88.654  46.760  1.00  0.00     0.014 C 
HETATM   33  C11 UNL     1      73.687  89.738  45.797  1.00  0.00     0.001 C 
HETATM   34  C12 UNL     1      72.996  90.735  46.690  1.00  0.00     0.001 C 
HETATM   35  C13 UNL     1      72.296  89.895  47.711  1.00  0.00     0.014 C 
ENDBRANCH  29  31
ENDBRANCH  28  29
ENDBRANCH   3  28
BRANCH  10  36
HETATM   36  O3  UNL     1      78.785  87.629  53.658  1.00  0.00    -0.395 OA
ATOM     37  H3  UNL     1      79.123  88.260  54.283  1.00  0.00     0.210 HD
ENDBRANCH  10  36
TORSDOF 11
ENDMDL
MODEL 5
REMARK VINA RESULT: -9.655235836      2.984      7.564
REMARK  11 active torsions:
REMARK  status: ('A' for Active; 'I' for Inactive)
REMARK    1  A    between atoms: C2_2  and  C3_3 
REMARK    2  A    between atoms: C2_2  and  C24_28 
REMARK    3  A    between atoms: C4_4  and  C5_5 
REMARK    4  A    between atoms: C7_7  and  O1_8 
REMARK    5  A    between atoms: O1_8  and  C8_9 
REMARK    6  A    between atoms: C8_9  and  C9_11 
REMARK    7  A    between atoms: C20_22  and  O3_23 
REMARK    8  A    between atoms: C24_28  and  O4_29 
REMARK    9  A    between atoms: C24_28  and  C25_31 
REMARK   10  A    between atoms: C26_32  and  O5_33 
REMARK   11  A    between atoms: C26_32  and  C27_35 
ROOT
HETATM    1  C5  UNL     1      74.840  83.501  49.804  1.00  0.00     0.015 C 
HETATM    2  C6  UNL     1      74.761  84.508  48.669  1.00  0.00     0.042 C 
HETATM    3  C7  UNL     1      74.999  85.874  49.324  1.00  0.00     0.137 C 
HETATM    4  C14 UNL     1      75.513  85.558  50.663  1.00  0.00     0.025 C 
HETATM    5  C15 UNL     1      75.937  84.089  50.691  1.00  0.00     0.000 C 
HETATM    6  C16 UNL     1      77.291  83.864  50.098  1.00  0.00     0.006 C 
HETATM    7  C17 UNL     1      78.316  84.681  50.851  1.00  0.00     0.012 C 
HETATM    8  C18 UNL     1      77.972  86.125  50.668  1.00  0.00    -0.014 C 
HETATM    9  C19 UNL     1      78.210  86.640  49.304  1.00  0.00     0.018 C 
HETATM   10  C20 UNL     1      78.740  87.031  51.627  1.00  0.00     0.126 C 
HETATM   11  C21 UNL     1      77.894  88.285  51.572  1.00  0.00     0.033 C 
HETATM   12  C22 UNL     1      76.480  87.831  51.193  1.00  0.00     0.008 C 
HETATM   13  C23 UNL     1      76.600  86.359  51.226  1.00  0.00     0.003 C 
ENDROOT
BRANCH   1  14
HETATM   14  C4  UNL     1      75.196  82.161  49.351  1.00  0.00    -0.025 C 
HETATM   15  C3  UNL     1      74.358  81.142  49.359  1.00  0.00    -0.023 C 
BRANCH  15  16
HETATM   16  C2  UNL     1      72.953  81.141  49.805  1.00  0.00     0.036 C 
HETATM   17  C1  UNL     1      72.580  82.415  50.541  1.00  0.00     0.017 C 
BRANCH  16  18
HETATM   18  C24 UNL     1      72.069  81.130  48.545  1.00  0.00     0.151 C 
BRANCH  18  19
HETATM   19  O4  UNL     1      72.791  80.433  47.581  1.00  0.00    -0.391 OA
ATOM     20  H4  UNL     1      72.329  80.570  46.762  1.00  0.00     0.210 HD
ENDBRANCH  18  19
BRANCH  18  21
HETATM   21  C25 UNL     1      71.707  82.492  48.152  1.00  0.00     0.049 C 
HETATM   22  C26 UNL     1      70.686  82.806  47.405  1.00  0.00     0.141 C 
BRANCH  22  23
HETATM   23  O5  UNL     1      70.474  84.176  47.116  1.00  0.00    -0.355 OA
ATOM     24  H5  UNL     1      70.044  84.707  47.776  1.00  0.00     0.218 HD
ENDBRANCH  22  23
BRANCH  22  25
HETATM   25  C27 UNL     1      69.747  81.867  46.845  1.00  0.00     0.233 C 
HETATM   26  O6  UNL     1      68.567  81.736  47.244  1.00  0.00    -0.642 OA
HETATM   27  O7  UNL     1      70.175  81.052  45.792  1.00  0.00    -0.642 OA
ENDBRANCH  22  25
ENDBRANCH  18  21
ENDBRANCH  16  18
ENDBRANCH  15  16
ENDBRANCH   1  14
BRANCH   3  28
HETATM   28  O1  UNL     1      73.743  86.536  49.429  1.00  0.00    -0.315 OA
BRANCH  28  29
HETATM   29  C8  UNL     1      73.109  87.174  48.396  1.00  0.00     0.263 C 
HETATM   30  O2  UNL     1      72.309  86.538  47.686  1.00  0.00    -0.265 OA
BRANCH  29  31
HETATM   31  C9  UNL     1      73.415  88.617  48.175  1.00  0.00     0.085 C 
HETATM   32  C10 UNL     1      72.177  89.455  48.111  1.00  0.00     0.014 C 
HETATM   33  C11 UNL     1      72.605  90.607  47.236  1.00  0.00     0.001 C 
HETATM   34  C12 UNL     1      73.386  89.927  46.141  1.00  0.00     0.001 C 
HETATM   35  C13 UNL     1      74.087  88.801  46.831  1.00  0.00     0.014 C 
ENDBRANCH  29  31
ENDBRANCH  28  29
ENDBRANCH   3  28
BRANCH  10  36
HETATM   36  O3  UNL     1      78.694  86.432  52.879  1.00  0.00    -0.395 OA
ATOM     37  H3  UNL     1      77.866  86.675  53.274  1.00  0.00     0.210 HD
ENDBRANCH  10  36
TORSDOF 11
ENDMDL
