MODEL 1
REMARK VINA RESULT: -6.934943301      0.000      0.000
REMARK  6 active torsions:
REMARK  status: ('A' for Active; 'I' for Inactive)
REMARK    1  A    between atoms: O1_1  and  C1_3 
REMARK    2  A    between atoms: C1_3  and  C2_4 
REMARK    3  A    between atoms: C2_4  and  C3_5 
REMARK    4  A    between atoms: C3_5  and  C4_6 
REMARK    5  A    between atoms: C4_6  and  C5_7 
REMARK    6  A    between atoms: C5_7  and  N1_8 
ROOT
HETATM    1  N1  UNL     1       2.722  -6.040   6.533  1.00  0.00     0.112 N 
HETATM    2  C6  UNL     1       1.676  -6.606   5.690  1.00  0.00     0.294 C 
HETATM    3  C7  UNL     1       2.183  -7.902   5.050  1.00  0.00     0.144 C 
HETATM    4  N2  UNL     1       2.100  -7.813   3.628  1.00  0.00    -0.419 N 
ATOM      5  H2  UNL     1       2.921  -7.869   3.025  1.00  0.00     0.153 HD
HETATM    6  C8  UNL     1       0.785  -7.641   3.116  1.00  0.00     0.115 C 
HETATM    7  C9  UNL     1       0.697  -6.388   2.269  1.00  0.00     0.038 C 
HETATM    8  C10 UNL     1       1.980  -5.986   1.625  1.00  0.00     0.115 C 
HETATM    9  N3  UNL     1       2.772  -5.114   2.426  1.00  0.00    -0.419 N 
ATOM     10  H3  UNL     1       3.704  -5.381   2.743  1.00  0.00     0.153 HD
HETATM   11  C11 UNL     1       2.205  -3.853   2.763  1.00  0.00     0.140 C 
HETATM   12  C12 UNL     1       2.347  -3.533   4.248  1.00  0.00     0.189 C 
HETATM   13  O2  UNL     1       3.187  -4.436   4.879  1.00  0.00    -0.361 OA
HETATM   14  C13 UNL     1       2.863  -4.606   6.222  1.00  0.00     0.440 C 
ENDROOT
BRANCH   1  15
HETATM   15  C5  UNL     1       2.304  -6.129   7.920  1.00  0.00     0.275 C 
BRANCH  15  16
HETATM   16  C4  UNL     1       3.178  -7.073   8.708  1.00  0.00     0.030 C 
BRANCH  16  17
HETATM   17  C3  UNL     1       4.364  -6.236   9.207  1.00  0.00     0.004 C 
BRANCH  17  18
HETATM   18  C2  UNL     1       5.608  -7.060   9.034  1.00  0.00     0.026 C 
BRANCH  18  19
HETATM   19  C1  UNL     1       6.076  -7.002   7.576  1.00  0.00     0.164 C 
BRANCH  19  20
HETATM   20  O1  UNL     1       7.415  -6.613   7.607  1.00  0.00    -0.401 OA
ATOM     21  H1  UNL     1       7.431  -5.686   7.399  1.00  0.00     0.209 HD
ENDBRANCH  19  20
ENDBRANCH  18  19
ENDBRANCH  17  18
ENDBRANCH  16  17
ENDBRANCH  15  16
ENDBRANCH   1  15
TORSDOF 6
ENDMDL
MODEL 2
REMARK VINA RESULT: -6.727608795      1.314      1.506
REMARK  6 active torsions:
REMARK  status: ('A' for Active; 'I' for Inactive)
REMARK    1  A    between atoms: O1_1  and  C1_3 
REMARK    2  A    between atoms: C1_3  and  C2_4 
REMARK    3  A    between atoms: C2_4  and  C3_5 
REMARK    4  A    between atoms: C3_5  and  C4_6 
REMARK    5  A    between atoms: C4_6  and  C5_7 
REMARK    6  A    between atoms: C5_7  and  N1_8 
ROOT
HETATM    1  N1  UNL     1       3.383  -6.614   6.964  1.00  0.00     0.112 N 
HETATM    2  C6  UNL     1       2.206  -7.102   6.256  1.00  0.00     0.294 C 
HETATM    3  C7  UNL     1       2.620  -8.204   5.276  1.00  0.00     0.144 C 
HETATM    4  N2  UNL     1       2.224  -7.855   3.949  1.00  0.00    -0.419 N 
ATOM      5  H2  UNL     1       2.895  -7.722   3.193  1.00  0.00     0.153 HD
HETATM    6  C8  UNL     1       0.823  -7.707   3.764  1.00  0.00     0.115 C 
HETATM    7  C9  UNL     1       0.493  -6.329   3.226  1.00  0.00     0.038 C 
HETATM    8  C10 UNL     1       1.585  -5.700   2.429  1.00  0.00     0.115 C 
HETATM    9  N3  UNL     1       2.491  -4.928   3.210  1.00  0.00    -0.419 N 
ATOM     10  H3  UNL     1       3.482  -5.167   3.269  1.00  0.00     0.153 HD
HETATM   11  C11 UNL     1       1.953  -3.809   3.906  1.00  0.00     0.140 C 
HETATM   12  C12 UNL     1       2.402  -3.765   5.364  1.00  0.00     0.189 C 
HETATM   13  O2  UNL     1       3.401  -4.693   5.612  1.00  0.00    -0.361 OA
HETATM   14  C13 UNL     1       3.387  -5.141   6.930  1.00  0.00     0.440 C 
ENDROOT
BRANCH   1  15
HETATM   15  C5  UNL     1       3.283  -7.001   8.359  1.00  0.00     0.275 C 
BRANCH  15  16
HETATM   16  C4  UNL     1       4.442  -6.475   9.170  1.00  0.00     0.030 C 
BRANCH  16  17
HETATM   17  C3  UNL     1       5.671  -7.281   8.725  1.00  0.00     0.004 C 
BRANCH  17  18
HETATM   18  C2  UNL     1       6.535  -7.498   9.935  1.00  0.00     0.026 C 
BRANCH  18  19
HETATM   19  C1  UNL     1       7.784  -8.297   9.550  1.00  0.00     0.164 C 
BRANCH  19  20
HETATM   20  O1  UNL     1       7.465  -9.643   9.733  1.00  0.00    -0.401 OA
ATOM     21  H1  UNL     1       8.289 -10.104   9.831  1.00  0.00     0.209 HD
ENDBRANCH  19  20
ENDBRANCH  18  19
ENDBRANCH  17  18
ENDBRANCH  16  17
ENDBRANCH  15  16
ENDBRANCH   1  15
TORSDOF 6
ENDMDL
MODEL 3
REMARK VINA RESULT: -6.476451265      1.340      2.697
REMARK  6 active torsions:
REMARK  status: ('A' for Active; 'I' for Inactive)
REMARK    1  A    between atoms: O1_1  and  C1_3 
REMARK    2  A    between atoms: C1_3  and  C2_4 
REMARK    3  A    between atoms: C2_4  and  C3_5 
REMARK    4  A    between atoms: C3_5  and  C4_6 
REMARK    5  A    between atoms: C4_6  and  C5_7 
REMARK    6  A    between atoms: C5_7  and  N1_8 
ROOT
HETATM    1  N1  UNL     1       2.567  -5.619   6.714  1.00  0.00     0.112 N 
HETATM    2  C6  UNL     1       3.094  -5.039   5.483  1.00  0.00     0.294 C 
HETATM    3  C7  UNL     1       2.334  -3.748   5.163  1.00  0.00     0.144 C 
HETATM    4  N2  UNL     1       1.745  -3.834   3.866  1.00  0.00    -0.419 N 
ATOM      5  H2  UNL     1       0.737  -3.787   3.717  1.00  0.00     0.153 HD
HETATM    6  C8  UNL     1       2.670  -3.989   2.799  1.00  0.00     0.115 C 
HETATM    7  C9  UNL     1       2.365  -5.240   1.999  1.00  0.00     0.038 C 
HETATM    8  C10 UNL     1       0.933  -5.656   2.026  1.00  0.00     0.115 C 
HETATM    9  N3  UNL     1       0.615  -6.539   3.098  1.00  0.00    -0.419 N 
ATOM     10  H3  UNL     1      -0.064  -6.283   3.815  1.00  0.00     0.153 HD
HETATM   11  C11 UNL     1       1.286  -7.793   3.122  1.00  0.00     0.140 C 
HETATM   12  C12 UNL     1       1.857  -8.117   4.500  1.00  0.00     0.189 C 
HETATM   13  O2  UNL     1       1.400  -7.225   5.457  1.00  0.00    -0.361 OA
HETATM   14  C13 UNL     1       2.311  -7.054   6.495  1.00  0.00     0.440 C 
ENDROOT
BRANCH   1  15
HETATM   15  C5  UNL     1       3.584  -5.528   7.745  1.00  0.00     0.275 C 
BRANCH  15  16
HETATM   16  C4  UNL     1       3.541  -6.713   8.679  1.00  0.00     0.030 C 
BRANCH  16  17
HETATM   17  C3  UNL     1       4.972  -6.885   9.210  1.00  0.00     0.004 C 
BRANCH  17  18
HETATM   18  C2  UNL     1       5.885  -7.007   8.023  1.00  0.00     0.026 C 
BRANCH  18  19
HETATM   19  C1  UNL     1       7.282  -7.441   8.479  1.00  0.00     0.164 C 
BRANCH  19  20
HETATM   20  O1  UNL     1       8.113  -7.335   7.364  1.00  0.00    -0.401 OA
ATOM     21  H1  UNL     1       8.913  -6.919   7.662  1.00  0.00     0.209 HD
ENDBRANCH  19  20
ENDBRANCH  18  19
ENDBRANCH  17  18
ENDBRANCH  16  17
ENDBRANCH  15  16
ENDBRANCH   1  15
TORSDOF 6
ENDMDL
MODEL 4
REMARK VINA RESULT: -6.292031099      1.107      1.371
REMARK  6 active torsions:
REMARK  status: ('A' for Active; 'I' for Inactive)
REMARK    1  A    between atoms: O1_1  and  C1_3 
REMARK    2  A    between atoms: C1_3  and  C2_4 
REMARK    3  A    between atoms: C2_4  and  C3_5 
REMARK    4  A    between atoms: C3_5  and  C4_6 
REMARK    5  A    between atoms: C4_6  and  C5_7 
REMARK    6  A    between atoms: C5_7  and  N1_8 
ROOT
HETATM    1  N1  UNL     1       2.170  -6.049   5.720  1.00  0.00     0.112 N 
HETATM    2  C6  UNL     1       1.404  -7.096   5.053  1.00  0.00     0.294 C 
HETATM    3  C7  UNL     1       2.293  -8.327   4.850  1.00  0.00     0.144 C 
HETATM    4  N2  UNL     1       2.350  -8.668   3.466  1.00  0.00    -0.419 N 
ATOM      5  H2  UNL     1       3.221  -8.662   2.934  1.00  0.00     0.153 HD
HETATM    6  C8  UNL     1       1.102  -9.018   2.884  1.00  0.00     0.115 C 
HETATM    7  C9  UNL     1       0.793  -8.129   1.697  1.00  0.00     0.038 C 
HETATM    8  C10 UNL     1       1.996  -7.586   1.003  1.00  0.00     0.115 C 
HETATM    9  N3  UNL     1       2.444  -6.340   1.528  1.00  0.00    -0.419 N 
ATOM     10  H3  UNL     1       3.372  -6.239   1.941  1.00  0.00     0.153 HD
HETATM   11  C11 UNL     1       1.540  -5.244   1.451  1.00  0.00     0.140 C 
HETATM   12  C12 UNL     1       1.429  -4.493   2.775  1.00  0.00     0.189 C 
HETATM   13  O2  UNL     1       2.395  -4.913   3.675  1.00  0.00    -0.361 OA
HETATM   14  C13 UNL     1       1.976  -4.780   4.996  1.00  0.00     0.440 C 
ENDROOT
BRANCH   1  15
HETATM   15  C5  UNL     1       1.635  -5.856   7.055  1.00  0.00     0.275 C 
BRANCH  15  16
HETATM   16  C4  UNL     1       2.727  -5.592   8.062  1.00  0.00     0.030 C 
BRANCH  16  17
HETATM   17  C3  UNL     1       3.423  -6.942   8.296  1.00  0.00     0.004 C 
BRANCH  17  18
HETATM   18  C2  UNL     1       4.877  -6.665   8.552  1.00  0.00     0.026 C 
BRANCH  18  19
HETATM   19  C1  UNL     1       5.685  -6.881   7.268  1.00  0.00     0.164 C 
BRANCH  19  20
HETATM   20  O1  UNL     1       6.999  -6.517   7.563  1.00  0.00    -0.401 OA
ATOM     21  H1  UNL     1       6.948  -5.819   8.205  1.00  0.00     0.209 HD
ENDBRANCH  19  20
ENDBRANCH  18  19
ENDBRANCH  17  18
ENDBRANCH  16  17
ENDBRANCH  15  16
ENDBRANCH   1  15
TORSDOF 6
ENDMDL
MODEL 5
REMARK VINA RESULT: -6.272249335      5.180      8.869
REMARK  6 active torsions:
REMARK  status: ('A' for Active; 'I' for Inactive)
REMARK    1  A    between atoms: O1_1  and  C1_3 
REMARK    2  A    between atoms: C1_3  and  C2_4 
REMARK    3  A    between atoms: C2_4  and  C3_5 
REMARK    4  A    between atoms: C3_5  and  C4_6 
REMARK    5  A    between atoms: C4_6  and  C5_7 
REMARK    6  A    between atoms: C5_7  and  N1_8 
ROOT
HETATM    1  N1  UNL     1       7.811  -8.046   9.845  1.00  0.00     0.112 N 
HETATM    2  C6  UNL     1       8.832  -7.944   8.809  1.00  0.00     0.294 C 
HETATM    3  C7  UNL     1       8.593  -9.024   7.749  1.00  0.00     0.144 C 
HETATM    4  N2  UNL     1       9.752  -9.847   7.617  1.00  0.00    -0.419 N 
ATOM      5  H2  UNL     1       9.741 -10.847   7.815  1.00  0.00     0.153 HD
HETATM    6  C8  UNL     1      10.923  -9.165   7.188  1.00  0.00     0.115 C 
HETATM    7  C9  UNL     1      12.049  -9.348   8.185  1.00  0.00     0.038 C 
HETATM    8  C10 UNL     1      11.973 -10.609   8.978  1.00  0.00     0.115 C 
HETATM    9  N3  UNL     1      11.230 -10.481  10.185  1.00  0.00    -0.419 N 
ATOM     10  H3  UNL     1      10.384 -11.027  10.351  1.00  0.00     0.153 HD
HETATM   11  C11 UNL     1      11.720  -9.557  11.150  1.00  0.00     0.140 C 
HETATM   12  C12 UNL     1      10.622  -8.643  11.686  1.00  0.00     0.189 C 
HETATM   13  O2  UNL     1       9.368  -9.069  11.277  1.00  0.00    -0.361 OA
HETATM   14  C13 UNL     1       8.465  -8.016  11.165  1.00  0.00     0.440 C 
ENDROOT
BRANCH   1  15
HETATM   15  C5  UNL     1       6.955  -6.877   9.774  1.00  0.00     0.275 C 
BRANCH  15  16
HETATM   16  C4  UNL     1       5.503  -7.234   9.984  1.00  0.00     0.030 C 
BRANCH  16  17
HETATM   17  C3  UNL     1       4.700  -6.287   9.080  1.00  0.00     0.004 C 
BRANCH  17  18
HETATM   18  C2  UNL     1       4.246  -7.076   7.884  1.00  0.00     0.026 C 
BRANCH  18  19
HETATM   19  C1  UNL     1       4.788  -6.439   6.600  1.00  0.00     0.164 C 
BRANCH  19  20
HETATM   20  O1  UNL     1       6.035  -7.018   6.367  1.00  0.00    -0.401 OA
ATOM     21  H1  UNL     1       6.614  -6.314   6.102  1.00  0.00     0.209 HD
ENDBRANCH  19  20
ENDBRANCH  18  19
ENDBRANCH  17  18
ENDBRANCH  16  17
ENDBRANCH  15  16
ENDBRANCH   1  15
TORSDOF 6
ENDMDL
