MODEL 1
REMARK VINA RESULT: -6.204150293      0.000      0.000
REMARK  8 active torsions:
REMARK  status: ('A' for Active; 'I' for Inactive)
REMARK    1  A    between atoms: C2_2  and  C3_3 
REMARK    2  A    between atoms: C3_3  and  O1_4 
REMARK    3  A    between atoms: C3_3  and  C4_6 
REMARK    4  A    between atoms: C4_6  and  N1_7 
REMARK    5  A    between atoms: C6_9  and  O2_10 
REMARK    6  A    between atoms: C7_12  and  O3_13 
REMARK    7  A    between atoms: C8_15  and  C9_16 
REMARK    8  A    between atoms: C9_16  and  N2_17 
ROOT
HETATM    1  N1  UNL     1       3.200  -6.161   6.175  1.00  0.00     0.098 N 
HETATM    2  C5  UNL     1       2.467  -7.141   5.506  1.00  0.00     0.307 C 
HETATM    3  C6  UNL     1       1.395  -6.712   4.575  1.00  0.00     0.175 C 
HETATM    4  C7  UNL     1       0.832  -5.360   4.719  1.00  0.00     0.156 C 
HETATM    5  C8  UNL     1       1.752  -4.355   5.355  1.00  0.00     0.078 C 
HETATM    6  C12 UNL     1       2.583  -4.903   6.428  1.00  0.00     0.227 C 
HETATM    7  C13 UNL     1       1.797  -4.928   7.743  1.00  0.00     0.043 C 
ENDROOT
BRANCH   1   8
HETATM    8  C4  UNL     1       3.886  -6.552   7.353  1.00  0.00     0.304 C 
BRANCH   8   9
HETATM    9  C3  UNL     1       5.238  -7.150   7.272  1.00  0.00     0.146 C 
BRANCH   9  10
HETATM   10  C2  UNL     1       6.029  -6.951   8.572  1.00  0.00     0.029 C 
HETATM   11  C1  UNL     1       5.005  -6.710   9.697  1.00  0.00     0.007 C 
ENDBRANCH   9  10
BRANCH   9  12
HETATM   12  O1  UNL     1       5.954  -6.255   6.374  1.00  0.00    -0.394 OA
ATOM     13  H1  UNL     1       6.704  -6.025   6.911  1.00  0.00     0.210 HD
ENDBRANCH   9  12
ENDBRANCH   8   9
ENDBRANCH   1   8
BRANCH   3  14
HETATM   14  O2  UNL     1       0.333  -7.643   4.712  1.00  0.00    -0.391 OA
ATOM     15  H2  UNL     1      -0.422  -7.268   4.274  1.00  0.00     0.210 HD
ENDBRANCH   3  14
BRANCH   5  16
HETATM   16  C9  UNL     1       2.325  -3.370   4.404  1.00  0.00     0.280 C 
BRANCH  16  17
HETATM   17  N2  UNL     1       1.480  -2.629   3.552  1.00  0.00     0.080 N 
HETATM   18  C10 UNL     1       1.791  -1.192   3.842  1.00  0.00     0.309 C 
HETATM   19  C11 UNL     1       1.778  -2.735   2.142  1.00  0.00     0.309 C 
ENDBRANCH  16  17
ENDBRANCH   5  16
BRANCH   4  20
HETATM   20  O3  UNL     1      -0.338  -5.433   5.464  1.00  0.00    -0.392 OA
ATOM     21  H3  UNL     1      -0.528  -4.576   5.828  1.00  0.00     0.210 HD
ENDBRANCH   4  20
TORSDOF 8
ENDMDL
MODEL 2
REMARK VINA RESULT: -6.198002238      1.012      1.149
REMARK  8 active torsions:
REMARK  status: ('A' for Active; 'I' for Inactive)
REMARK    1  A    between atoms: C2_2  and  C3_3 
REMARK    2  A    between atoms: C3_3  and  O1_4 
REMARK    3  A    between atoms: C3_3  and  C4_6 
REMARK    4  A    between atoms: C4_6  and  N1_7 
REMARK    5  A    between atoms: C6_9  and  O2_10 
REMARK    6  A    between atoms: C7_12  and  O3_13 
REMARK    7  A    between atoms: C8_15  and  C9_16 
REMARK    8  A    between atoms: C9_16  and  N2_17 
ROOT
HETATM    1  N1  UNL     1       3.751  -6.050   6.833  1.00  0.00     0.098 N 
HETATM    2  C5  UNL     1       3.511  -7.220   6.114  1.00  0.00     0.307 C 
HETATM    3  C6  UNL     1       2.566  -7.169   4.972  1.00  0.00     0.175 C 
HETATM    4  C7  UNL     1       1.590  -6.069   4.911  1.00  0.00     0.156 C 
HETATM    5  C8  UNL     1       2.001  -4.815   5.632  1.00  0.00     0.078 C 
HETATM    6  C12 UNL     1       2.734  -5.056   6.876  1.00  0.00     0.227 C 
HETATM    7  C13 UNL     1       1.750  -5.321   8.022  1.00  0.00     0.043 C 
ENDROOT
BRANCH   1   8
HETATM    8  C4  UNL     1       4.279  -6.188   8.143  1.00  0.00     0.304 C 
BRANCH   8   9
HETATM    9  C3  UNL     1       5.403  -7.113   8.407  1.00  0.00     0.146 C 
BRANCH   9  10
HETATM   10  C2  UNL     1       5.907  -7.001   9.852  1.00  0.00     0.029 C 
HETATM   11  C1  UNL     1       7.043  -8.027  10.020  1.00  0.00     0.007 C 
ENDBRANCH   9  10
BRANCH   9  12
HETATM   12  O1  UNL     1       6.515  -6.516   7.680  1.00  0.00    -0.394 OA
ATOM     13  H1  UNL     1       6.517  -7.044   6.891  1.00  0.00     0.210 HD
ENDBRANCH   9  12
ENDBRANCH   8   9
ENDBRANCH   1   8
BRANCH   3  14
HETATM   14  O2  UNL     1       1.845  -8.392   4.978  1.00  0.00    -0.391 OA
ATOM     15  H2  UNL     1       1.476  -8.499   4.109  1.00  0.00     0.210 HD
ENDBRANCH   3  14
BRANCH   5  16
HETATM   16  C9  UNL     1       2.412  -3.707   4.734  1.00  0.00     0.280 C 
BRANCH  16  17
HETATM   17  N2  UNL     1       1.493  -3.160   3.814  1.00  0.00     0.080 N 
HETATM   18  C10 UNL     1       1.535  -1.680   4.050  1.00  0.00     0.309 C 
HETATM   19  C11 UNL     1       1.875  -3.265   2.424  1.00  0.00     0.309 C 
ENDBRANCH  16  17
ENDBRANCH   5  16
BRANCH   4  20
HETATM   20  O3  UNL     1       0.378  -6.509   5.431  1.00  0.00    -0.392 OA
ATOM     21  H3  UNL     1       0.411  -6.459   6.379  1.00  0.00     0.210 HD
ENDBRANCH   4  20
TORSDOF 8
ENDMDL
MODEL 3
REMARK VINA RESULT: -6.075331346      1.751      5.532
REMARK  8 active torsions:
REMARK  status: ('A' for Active; 'I' for Inactive)
REMARK    1  A    between atoms: C2_2  and  C3_3 
REMARK    2  A    between atoms: C3_3  and  O1_4 
REMARK    3  A    between atoms: C3_3  and  C4_6 
REMARK    4  A    between atoms: C4_6  and  N1_7 
REMARK    5  A    between atoms: C6_9  and  O2_10 
REMARK    6  A    between atoms: C7_12  and  O3_13 
REMARK    7  A    between atoms: C8_15  and  C9_16 
REMARK    8  A    between atoms: C9_16  and  N2_17 
ROOT
HETATM    1  N1  UNL     1       1.410  -3.779   4.824  1.00  0.00     0.098 N 
HETATM    2  C5  UNL     1       0.421  -4.715   4.522  1.00  0.00     0.307 C 
HETATM    3  C6  UNL     1       0.561  -6.092   5.055  1.00  0.00     0.175 C 
HETATM    4  C7  UNL     1       1.894  -6.557   5.469  1.00  0.00     0.156 C 
HETATM    5  C8  UNL     1       2.847  -5.469   5.879  1.00  0.00     0.078 C 
HETATM    6  C12 UNL     1       2.730  -4.244   5.085  1.00  0.00     0.227 C 
HETATM    7  C13 UNL     1       3.535  -4.379   3.787  1.00  0.00     0.043 C 
ENDROOT
BRANCH   1   8
HETATM    8  C4  UNL     1       1.510  -2.643   3.982  1.00  0.00     0.304 C 
BRANCH   8   9
HETATM    9  C3  UNL     1       1.171  -1.296   4.493  1.00  0.00     0.146 C 
BRANCH   9  10
HETATM   10  C2  UNL     1       1.876  -0.188   3.698  1.00  0.00     0.029 C 
HETATM   11  C1  UNL     1       1.409   1.159   4.279  1.00  0.00     0.007 C 
ENDBRANCH   9  10
BRANCH   9  12
HETATM   12  O1  UNL     1       1.884  -1.222   5.761  1.00  0.00    -0.394 OA
ATOM     13  H1  UNL     1       1.434  -1.894   6.259  1.00  0.00     0.210 HD
ENDBRANCH   9  12
ENDBRANCH   8   9
ENDBRANCH   1   8
BRANCH   3  14
HETATM   14  O2  UNL     1       0.084  -6.974   4.050  1.00  0.00    -0.391 OA
ATOM     15  H2  UNL     1      -0.697  -7.388   4.395  1.00  0.00     0.210 HD
ENDBRANCH   3  14
BRANCH   5  16
HETATM   16  C9  UNL     1       3.077  -5.382   7.343  1.00  0.00     0.280 C 
BRANCH  16  17
HETATM   17  N2  UNL     1       4.253  -5.915   7.911  1.00  0.00     0.080 N 
HETATM   18  C10 UNL     1       3.785  -6.971   8.866  1.00  0.00     0.309 C 
HETATM   19  C11 UNL     1       5.093  -6.663   7.003  1.00  0.00     0.309 C 
ENDBRANCH  16  17
ENDBRANCH   5  16
BRANCH   4  20
HETATM   20  O3  UNL     1       2.463  -7.286   4.432  1.00  0.00    -0.392 OA
ATOM     21  H3  UNL     1       2.621  -8.175   4.727  1.00  0.00     0.210 HD
ENDBRANCH   4  20
TORSDOF 8
ENDMDL
MODEL 4
REMARK VINA RESULT: -6.060940526      0.906      1.213
REMARK  8 active torsions:
REMARK  status: ('A' for Active; 'I' for Inactive)
REMARK    1  A    between atoms: C2_2  and  C3_3 
REMARK    2  A    between atoms: C3_3  and  O1_4 
REMARK    3  A    between atoms: C3_3  and  C4_6 
REMARK    4  A    between atoms: C4_6  and  N1_7 
REMARK    5  A    between atoms: C6_9  and  O2_10 
REMARK    6  A    between atoms: C7_12  and  O3_13 
REMARK    7  A    between atoms: C8_15  and  C9_16 
REMARK    8  A    between atoms: C9_16  and  N2_17 
ROOT
HETATM    1  N1  UNL     1       3.294  -6.645   6.342  1.00  0.00     0.098 N 
HETATM    2  C5  UNL     1       2.704  -7.748   5.725  1.00  0.00     0.307 C 
HETATM    3  C6  UNL     1       1.879  -7.524   4.512  1.00  0.00     0.175 C 
HETATM    4  C7  UNL     1       1.333  -6.180   4.267  1.00  0.00     0.156 C 
HETATM    5  C8  UNL     1       2.112  -5.055   4.891  1.00  0.00     0.078 C 
HETATM    6  C12 UNL     1       2.669  -5.374   6.207  1.00  0.00     0.227 C 
HETATM    7  C13 UNL     1       1.607  -5.162   7.292  1.00  0.00     0.043 C 
ENDROOT
BRANCH   1   8
HETATM    8  C4  UNL     1       3.689  -6.793   7.696  1.00  0.00     0.304 C 
BRANCH   8   9
HETATM    9  C3  UNL     1       5.073  -7.194   8.036  1.00  0.00     0.146 C 
BRANCH   9  10
HETATM   10  C2  UNL     1       5.522  -6.609   9.382  1.00  0.00     0.029 C 
HETATM   11  C1  UNL     1       6.543  -7.590   9.988  1.00  0.00     0.007 C 
ENDBRANCH   9  10
BRANCH   9  12
HETATM   12  O1  UNL     1       5.890  -6.420   7.112  1.00  0.00    -0.394 OA
ATOM     13  H1  UNL     1       5.520  -6.687   6.279  1.00  0.00     0.210 HD
ENDBRANCH   9  12
ENDBRANCH   8   9
ENDBRANCH   1   8
BRANCH   3  14
HETATM   14  O2  UNL     1       0.789  -8.431   4.582  1.00  0.00    -0.391 OA
ATOM     15  H2  UNL     1       1.119  -9.228   4.980  1.00  0.00     0.210 HD
ENDBRANCH   3  14
BRANCH   5  16
HETATM   16  C9  UNL     1       2.909  -4.260   3.924  1.00  0.00     0.280 C 
BRANCH  16  17
HETATM   17  N2  UNL     1       2.393  -3.056   3.398  1.00  0.00     0.080 N 
HETATM   18  C10 UNL     1       1.845  -3.419   2.050  1.00  0.00     0.309 C 
HETATM   19  C11 UNL     1       1.230  -2.534   4.077  1.00  0.00     0.309 C 
ENDBRANCH  16  17
ENDBRANCH   5  16
BRANCH   4  20
HETATM   20  O3  UNL     1       0.024  -6.130   4.730  1.00  0.00    -0.392 OA
ATOM     21  H3  UNL     1      -0.270  -5.227   4.734  1.00  0.00     0.210 HD
ENDBRANCH   4  20
TORSDOF 8
ENDMDL
MODEL 5
REMARK VINA RESULT: -5.882132785      1.028      1.058
REMARK  8 active torsions:
REMARK  status: ('A' for Active; 'I' for Inactive)
REMARK    1  A    between atoms: C2_2  and  C3_3 
REMARK    2  A    between atoms: C3_3  and  O1_4 
REMARK    3  A    between atoms: C3_3  and  C4_6 
REMARK    4  A    between atoms: C4_6  and  N1_7 
REMARK    5  A    between atoms: C6_9  and  O2_10 
REMARK    6  A    between atoms: C7_12  and  O3_13 
REMARK    7  A    between atoms: C8_15  and  C9_16 
REMARK    8  A    between atoms: C9_16  and  N2_17 
ROOT
HETATM    1  N1  UNL     1       3.182  -6.544   6.194  1.00  0.00     0.098 N 
HETATM    2  C5  UNL     1       2.378  -7.443   5.493  1.00  0.00     0.307 C 
HETATM    3  C6  UNL     1       1.346  -6.903   4.574  1.00  0.00     0.175 C 
HETATM    4  C7  UNL     1       0.888  -5.518   4.761  1.00  0.00     0.156 C 
HETATM    5  C8  UNL     1       1.879  -4.607   5.432  1.00  0.00     0.078 C 
HETATM    6  C12 UNL     1       2.662  -5.251   6.487  1.00  0.00     0.227 C 
HETATM    7  C13 UNL     1       1.870  -5.259   7.800  1.00  0.00     0.043 C 
ENDROOT
BRANCH   1   8
HETATM    8  C4  UNL     1       3.831  -7.024   7.360  1.00  0.00     0.304 C 
BRANCH   8   9
HETATM    9  C3  UNL     1       5.008  -6.316   7.912  1.00  0.00     0.146 C 
BRANCH   9  10
HETATM   10  C2  UNL     1       6.296  -7.135   7.749  1.00  0.00     0.029 C 
HETATM   11  C1  UNL     1       6.989  -7.174   9.123  1.00  0.00     0.007 C 
ENDBRANCH   9  10
BRANCH   9  12
HETATM   12  O1  UNL     1       4.811  -6.396   9.352  1.00  0.00    -0.394 OA
ATOM     13  H1  UNL     1       4.038  -5.854   9.458  1.00  0.00     0.210 HD
ENDBRANCH   9  12
ENDBRANCH   8   9
ENDBRANCH   1   8
BRANCH   3  14
HETATM   14  O2  UNL     1       0.216  -7.754   4.679  1.00  0.00    -0.391 OA
ATOM     15  H2  UNL     1      -0.388  -7.338   5.283  1.00  0.00     0.210 HD
ENDBRANCH   3  14
BRANCH   5  16
HETATM   16  C9  UNL     1       2.530  -3.638   4.515  1.00  0.00     0.280 C 
BRANCH  16  17
HETATM   17  N2  UNL     1       1.888  -3.249   3.320  1.00  0.00     0.080 N 
HETATM   18  C10 UNL     1       1.858  -1.751   3.360  1.00  0.00     0.309 C 
HETATM   19  C11 UNL     1       2.628  -3.515   2.107  1.00  0.00     0.309 C 
ENDBRANCH  16  17
ENDBRANCH   5  16
BRANCH   4  20
HETATM   20  O3  UNL     1      -0.288  -5.525   5.501  1.00  0.00    -0.392 OA
ATOM     21  H3  UNL     1      -0.699  -4.671   5.438  1.00  0.00     0.210 HD
ENDBRANCH   4  20
TORSDOF 8
ENDMDL
