MODEL 1
REMARK VINA RESULT: -7.758549317      0.000      0.000
REMARK  8 active torsions:
REMARK  status: ('A' for Active; 'I' for Inactive)
REMARK    1  A    between atoms: O1_1  and  C1_3 
REMARK    2  A    between atoms: C1_3  and  C2_4 
REMARK    3  A    between atoms: C5_7  and  O2_8 
REMARK    4  A    between atoms: O2_8  and  C6_9 
REMARK    5  A    between atoms: C6_9  and  C7_10 
REMARK    6  A    between atoms: C7_10  and  N1_11 
REMARK    7  A    between atoms: C12_16  and  O3_17 
REMARK    8  A    between atoms: C13_19  and  O4_20 
ROOT
HETATM    1  C2  UNL     1       2.445  -6.495   6.727  1.00  0.00     0.041 C 
HETATM    2  C3  UNL     1       2.541  -6.510   8.234  1.00  0.00     0.012 C 
HETATM    3  C4  UNL     1       3.853  -7.197   8.560  1.00  0.00     0.035 C 
HETATM    4  C5  UNL     1       4.933  -6.175   8.182  1.00  0.00     0.152 C 
HETATM    5  C12 UNL     1       4.948  -6.103   6.698  1.00  0.00     0.176 C 
HETATM    6  C13 UNL     1       3.617  -5.879   6.061  1.00  0.00     0.155 C 
ENDROOT
BRANCH   4   7
HETATM    7  O2  UNL     1       6.133  -6.482   8.746  1.00  0.00    -0.382 OA
BRANCH   7   8
HETATM    8  C6  UNL     1       6.221  -7.604   9.506  1.00  0.00     0.198 C 
BRANCH   8   9
HETATM    9  C7  UNL     1       7.455  -8.393   9.174  1.00  0.00     0.298 C 
BRANCH   9  10
HETATM   10  N1  UNL     1       8.672  -7.767   9.694  1.00  0.00     0.090 N 
HETATM   11  C8  UNL     1       9.861  -8.251   9.069  1.00  0.00     0.272 C 
HETATM   12  C9  UNL     1      10.710  -8.894  10.140  1.00  0.00     0.032 C 
HETATM   13  C10 UNL     1       9.627  -9.270  11.160  1.00  0.00     0.032 C 
HETATM   14  C11 UNL     1       8.755  -8.037  11.115  1.00  0.00     0.272 C 
ENDBRANCH   9  10
ENDBRANCH   8   9
ENDBRANCH   7   8
ENDBRANCH   4   7
BRANCH   5  15
HETATM   15  O3  UNL     1       5.595  -7.191   6.108  1.00  0.00    -0.390 OA
ATOM     16  H3  UNL     1       5.830  -7.033   5.201  1.00  0.00     0.210 HD
ENDBRANCH   5  15
BRANCH   6  17
HETATM   17  O4  UNL     1       3.413  -4.505   5.782  1.00  0.00    -0.392 OA
ATOM     18  H4  UNL     1       3.813  -4.243   4.961  1.00  0.00     0.210 HD
ENDBRANCH   6  17
BRANCH   1  19
HETATM   19  C1  UNL     1       1.203  -5.708   6.361  1.00  0.00     0.171 C 
BRANCH  19  20
HETATM   20  O1  UNL     1       0.995  -4.704   7.327  1.00  0.00    -0.400 OA
ATOM     21  H1  UNL     1       0.189  -4.888   7.794  1.00  0.00     0.209 HD
ENDBRANCH  19  20
ENDBRANCH   1  19
TORSDOF 8
ENDMDL
MODEL 2
REMARK VINA RESULT: -7.678785801      2.541      7.109
REMARK  8 active torsions:
REMARK  status: ('A' for Active; 'I' for Inactive)
REMARK    1  A    between atoms: O1_1  and  C1_3 
REMARK    2  A    between atoms: C1_3  and  C2_4 
REMARK    3  A    between atoms: C5_7  and  O2_8 
REMARK    4  A    between atoms: O2_8  and  C6_9 
REMARK    5  A    between atoms: C6_9  and  C7_10 
REMARK    6  A    between atoms: C7_10  and  N1_11 
REMARK    7  A    between atoms: C12_16  and  O3_17 
REMARK    8  A    between atoms: C13_19  and  O4_20 
ROOT
HETATM    1  C2  UNL     1       9.523  -8.237  10.227  1.00  0.00     0.041 C 
HETATM    2  C3  UNL     1       8.262  -8.095  11.047  1.00  0.00     0.012 C 
HETATM    3  C4  UNL     1       7.340  -7.202  10.240  1.00  0.00     0.035 C 
HETATM    4  C5  UNL     1       6.866  -8.083   9.076  1.00  0.00     0.152 C 
HETATM    5  C12 UNL     1       8.035  -8.264   8.177  1.00  0.00     0.176 C 
HETATM    6  C13 UNL     1       9.285  -8.725   8.848  1.00  0.00     0.155 C 
ENDROOT
BRANCH   4   7
HETATM    7  O2  UNL     1       5.762  -7.565   8.472  1.00  0.00    -0.382 OA
BRANCH   7   8
HETATM    8  C6  UNL     1       4.996  -6.687   9.171  1.00  0.00     0.198 C 
BRANCH   8   9
HETATM    9  C7  UNL     1       3.552  -6.782   8.769  1.00  0.00     0.298 C 
BRANCH   9  10
HETATM   10  N1  UNL     1       3.103  -5.602   8.029  1.00  0.00     0.090 N 
HETATM   11  C8  UNL     1       1.681  -5.505   7.940  1.00  0.00     0.272 C 
HETATM   12  C9  UNL     1       1.311  -5.558   6.476  1.00  0.00     0.032 C 
HETATM   13  C10 UNL     1       2.520  -6.317   5.915  1.00  0.00     0.032 C 
HETATM   14  C11 UNL     1       3.645  -5.668   6.687  1.00  0.00     0.272 C 
ENDBRANCH   9  10
ENDBRANCH   8   9
ENDBRANCH   7   8
ENDBRANCH   4   7
BRANCH   5  15
HETATM   15  O3  UNL     1       8.291  -7.142   7.386  1.00  0.00    -0.390 OA
ATOM     16  H3  UNL     1       8.612  -7.365   6.521  1.00  0.00     0.210 HD
ENDBRANCH   5  15
BRANCH   6  17
HETATM   17  O4  UNL     1       9.426 -10.132   8.747  1.00  0.00    -0.392 OA
ATOM     18  H4  UNL     1       8.764 -10.595   9.247  1.00  0.00     0.210 HD
ENDBRANCH   6  17
BRANCH   1  19
HETATM   19  C1  UNL     1      10.422  -9.220  10.948  1.00  0.00     0.171 C 
BRANCH  19  20
HETATM   20  O1  UNL     1       9.625 -10.202  11.568  1.00  0.00    -0.400 OA
ATOM     21  H1  UNL     1      10.159 -10.967  11.745  1.00  0.00     0.209 HD
ENDBRANCH  19  20
ENDBRANCH   1  19
TORSDOF 8
ENDMDL
MODEL 3
REMARK VINA RESULT: -7.522232422      2.540      7.079
REMARK  8 active torsions:
REMARK  status: ('A' for Active; 'I' for Inactive)
REMARK    1  A    between atoms: O1_1  and  C1_3 
REMARK    2  A    between atoms: C1_3  and  C2_4 
REMARK    3  A    between atoms: C5_7  and  O2_8 
REMARK    4  A    between atoms: O2_8  and  C6_9 
REMARK    5  A    between atoms: C6_9  and  C7_10 
REMARK    6  A    between atoms: C7_10  and  N1_11 
REMARK    7  A    between atoms: C12_16  and  O3_17 
REMARK    8  A    between atoms: C13_19  and  O4_20 
ROOT
HETATM    1  C2  UNL     1       9.523  -8.265  10.178  1.00  0.00     0.041 C 
HETATM    2  C3  UNL     1       8.283  -8.158  11.035  1.00  0.00     0.012 C 
HETATM    3  C4  UNL     1       7.328  -7.260  10.272  1.00  0.00     0.035 C 
HETATM    4  C5  UNL     1       6.834  -8.121   9.102  1.00  0.00     0.152 C 
HETATM    5  C12 UNL     1       7.981  -8.265   8.168  1.00  0.00     0.176 C 
HETATM    6  C13 UNL     1       9.254  -8.724   8.795  1.00  0.00     0.155 C 
ENDROOT
BRANCH   4   7
HETATM    7  O2  UNL     1       5.708  -7.603   8.540  1.00  0.00    -0.382 OA
BRANCH   7   8
HETATM    8  C6  UNL     1       5.014  -6.664   9.232  1.00  0.00     0.198 C 
BRANCH   8   9
HETATM    9  C7  UNL     1       4.118  -5.868   8.326  1.00  0.00     0.298 C 
BRANCH   9  10
HETATM   10  N1  UNL     1       2.936  -6.624   7.909  1.00  0.00     0.090 N 
HETATM   11  C8  UNL     1       3.024  -7.103   6.566  1.00  0.00     0.272 C 
HETATM   12  C9  UNL     1       1.893  -6.476   5.784  1.00  0.00     0.032 C 
HETATM   13  C10 UNL     1       1.655  -5.209   6.615  1.00  0.00     0.032 C 
HETATM   14  C11 UNL     1       1.778  -5.761   8.016  1.00  0.00     0.272 C 
ENDBRANCH   9  10
ENDBRANCH   8   9
ENDBRANCH   7   8
ENDBRANCH   4   7
BRANCH   5  15
HETATM   15  O3  UNL     1       8.201  -7.123   7.397  1.00  0.00    -0.390 OA
ATOM     16  H3  UNL     1       9.052  -6.729   7.554  1.00  0.00     0.210 HD
ENDBRANCH   5  15
BRANCH   6  17
HETATM   17  O4  UNL     1       9.411 -10.126   8.659  1.00  0.00    -0.392 OA
ATOM     18  H4  UNL     1       9.008 -10.603   9.375  1.00  0.00     0.210 HD
ENDBRANCH   6  17
BRANCH   1  19
HETATM   19  C1  UNL     1      10.454  -9.251  10.852  1.00  0.00     0.171 C 
BRANCH  19  20
HETATM   20  O1  UNL     1       9.686 -10.206  11.546  1.00  0.00    -0.400 OA
ATOM     21  H1  UNL     1      10.267 -10.859  11.917  1.00  0.00     0.209 HD
ENDBRANCH  19  20
ENDBRANCH   1  19
TORSDOF 8
ENDMDL
MODEL 4
REMARK VINA RESULT: -7.284744360      2.788      7.426
REMARK  8 active torsions:
REMARK  status: ('A' for Active; 'I' for Inactive)
REMARK    1  A    between atoms: O1_1  and  C1_3 
REMARK    2  A    between atoms: C1_3  and  C2_4 
REMARK    3  A    between atoms: C5_7  and  O2_8 
REMARK    4  A    between atoms: O2_8  and  C6_9 
REMARK    5  A    between atoms: C6_9  and  C7_10 
REMARK    6  A    between atoms: C7_10  and  N1_11 
REMARK    7  A    between atoms: C12_16  and  O3_17 
REMARK    8  A    between atoms: C13_19  and  O4_20 
ROOT
HETATM    1  C2  UNL     1      10.355  -9.210   9.283  1.00  0.00     0.041 C 
HETATM    2  C3  UNL     1       9.809  -8.120   8.390  1.00  0.00     0.012 C 
HETATM    3  C4  UNL     1       8.300  -8.211   8.499  1.00  0.00     0.035 C 
HETATM    4  C5  UNL     1       7.977  -7.669   9.898  1.00  0.00     0.152 C 
HETATM    5  C12 UNL     1       8.447  -8.691  10.868  1.00  0.00     0.176 C 
HETATM    6  C13 UNL     1       9.856  -9.144  10.677  1.00  0.00     0.155 C 
ENDROOT
BRANCH   4   7
HETATM    7  O2  UNL     1       6.661  -7.340  10.017  1.00  0.00    -0.382 OA
BRANCH   7   8
HETATM    8  C6  UNL     1       5.897  -7.321   8.894  1.00  0.00     0.198 C 
BRANCH   8   9
HETATM    9  C7  UNL     1       4.547  -6.719   9.163  1.00  0.00     0.298 C 
BRANCH   9  10
HETATM   10  N1  UNL     1       4.101  -5.847   8.074  1.00  0.00     0.090 N 
HETATM   11  C8  UNL     1       2.689  -5.631   8.074  1.00  0.00     0.272 C 
HETATM   12  C9  UNL     1       2.146  -6.173   6.771  1.00  0.00     0.032 C 
HETATM   13  C10 UNL     1       3.222  -7.213   6.437  1.00  0.00     0.032 C 
HETATM   14  C11 UNL     1       4.475  -6.457   6.815  1.00  0.00     0.272 C 
ENDBRANCH   9  10
ENDBRANCH   8   9
ENDBRANCH   7   8
ENDBRANCH   4   7
BRANCH   5  15
HETATM   15  O3  UNL     1       7.590  -9.790  10.959  1.00  0.00    -0.390 OA
ATOM     16  H3  UNL     1       8.023 -10.614  10.771  1.00  0.00     0.210 HD
ENDBRANCH   5  15
BRANCH   6  17
HETATM   17  O4  UNL     1      10.738  -8.431  11.526  1.00  0.00    -0.392 OA
ATOM     18  H4  UNL     1      10.833  -7.523  11.263  1.00  0.00     0.210 HD
ENDBRANCH   6  17
BRANCH   1  19
HETATM   19  C1  UNL     1      11.863  -9.074   9.293  1.00  0.00     0.171 C 
BRANCH  19  20
HETATM   20  O1  UNL     1      12.335  -9.109   7.966  1.00  0.00    -0.400 OA
ATOM     21  H1  UNL     1      13.020  -8.459   7.865  1.00  0.00     0.209 HD
ENDBRANCH  19  20
ENDBRANCH   1  19
TORSDOF 8
ENDMDL
MODEL 5
REMARK VINA RESULT: -7.262736770      1.534      2.262
REMARK  8 active torsions:
REMARK  status: ('A' for Active; 'I' for Inactive)
REMARK    1  A    between atoms: O1_1  and  C1_3 
REMARK    2  A    between atoms: C1_3  and  C2_4 
REMARK    3  A    between atoms: C5_7  and  O2_8 
REMARK    4  A    between atoms: O2_8  and  C6_9 
REMARK    5  A    between atoms: C6_9  and  C7_10 
REMARK    6  A    between atoms: C7_10  and  N1_11 
REMARK    7  A    between atoms: C12_16  and  O3_17 
REMARK    8  A    between atoms: C13_19  and  O4_20 
ROOT
HETATM    1  C2  UNL     1       1.883  -5.729   4.737  1.00  0.00     0.041 C 
HETATM    2  C3  UNL     1       1.484  -6.981   5.482  1.00  0.00     0.012 C 
HETATM    3  C4  UNL     1       2.779  -7.628   5.932  1.00  0.00     0.035 C 
HETATM    4  C5  UNL     1       3.289  -6.730   7.067  1.00  0.00     0.152 C 
HETATM    5  C12 UNL     1       3.744  -5.465   6.436  1.00  0.00     0.176 C 
HETATM    6  C13 UNL     1       2.757  -4.823   5.520  1.00  0.00     0.155 C 
ENDROOT
BRANCH   4   7
HETATM    7  O2  UNL     1       4.234  -7.360   7.819  1.00  0.00    -0.382 OA
BRANCH   7   8
HETATM    8  C6  UNL     1       4.645  -6.767   8.968  1.00  0.00     0.198 C 
BRANCH   8   9
HETATM    9  C7  UNL     1       6.143  -6.771   9.080  1.00  0.00     0.298 C 
BRANCH   9  10
HETATM   10  N1  UNL     1       6.675  -8.106   9.362  1.00  0.00     0.090 N 
HETATM   11  C8  UNL     1       7.031  -8.287  10.734  1.00  0.00     0.272 C 
HETATM   12  C9  UNL     1       8.514  -8.575  10.785  1.00  0.00     0.032 C 
HETATM   13  C10 UNL     1       8.969  -7.903   9.483  1.00  0.00     0.032 C 
HETATM   14  C11 UNL     1       7.855  -8.311   8.548  1.00  0.00     0.272 C 
ENDBRANCH   9  10
ENDBRANCH   8   9
ENDBRANCH   7   8
ENDBRANCH   4   7
BRANCH   5  15
HETATM   15  O3  UNL     1       4.985  -5.586   5.808  1.00  0.00    -0.390 OA
ATOM     16  H3  UNL     1       4.913  -5.732   4.872  1.00  0.00     0.210 HD
ENDBRANCH   5  15
BRANCH   6  17
HETATM   17  O4  UNL     1       2.018  -3.819   6.193  1.00  0.00    -0.392 OA
ATOM     18  H4  UNL     1       1.202  -4.152   6.549  1.00  0.00     0.210 HD
ENDBRANCH   6  17
BRANCH   1  19
HETATM   19  C1  UNL     1       0.610  -4.993   4.375  1.00  0.00     0.171 C 
BRANCH  19  20
HETATM   20  O1  UNL     1      -0.299  -5.095   5.446  1.00  0.00    -0.400 OA
ATOM     21  H1  UNL     1      -0.580  -4.223   5.697  1.00  0.00     0.209 HD
ENDBRANCH  19  20
ENDBRANCH   1  19
TORSDOF 8
ENDMDL
