MODEL 1
REMARK VINA RESULT: -6.311051871      0.000      0.000
REMARK  3 active torsions:
REMARK  status: ('A' for Active; 'I' for Inactive)
REMARK    1  A    between atoms: C2_2  and  C3_3 
REMARK    2  A    between atoms: C3_3  and  N1_4 
REMARK    3  A    between atoms: C5_6  and  O1_7 
ROOT
HETATM    1  N1  UNL     1       4.509  -6.997   8.804  1.00  0.00     0.095 N 
HETATM    2  C4  UNL     1       5.354  -7.212   7.645  1.00  0.00     0.305 C 
HETATM    3  C5  UNL     1       6.684  -6.669   8.137  1.00  0.00     0.158 C 
HETATM    4  C6  UNL     1       6.746  -7.328   9.484  1.00  0.00     0.037 C 
HETATM    5  C7  UNL     1       7.091  -8.792   9.410  1.00  0.00     0.042 C 
HETATM    6  C8  UNL     1       7.782  -8.982  10.760  1.00  0.00     0.168 C 
HETATM    7  O2  UNL     1       8.426  -7.806  11.027  1.00  0.00    -0.390 OA
HETATM    8  C9  UNL     1       7.749  -6.773  10.413  1.00  0.00     0.181 C 
HETATM    9  C10 UNL     1       5.312  -7.108   9.970  1.00  0.00     0.287 C 
ENDROOT
BRANCH   3  10
HETATM   10  O1  UNL     1       7.734  -6.990   7.308  1.00  0.00    -0.393 OA
ATOM     11  H1  UNL     1       7.516  -7.666   6.677  1.00  0.00     0.210 HD
ENDBRANCH   3  10
BRANCH   1  12
HETATM   12  C3  UNL     1       3.798  -5.754   8.671  1.00  0.00     0.299 C 
BRANCH  12  13
HETATM   13  C2  UNL     1       3.068  -5.603   7.414  1.00  0.00    -0.007 C 
HETATM   14  C1  UNL     1       1.759  -5.430   7.371  1.00  0.00     0.008 C 
ENDBRANCH  12  13
ENDBRANCH   1  12
TORSDOF 3
ENDMDL
MODEL 2
REMARK VINA RESULT: -6.294118377      2.175      3.186
REMARK  3 active torsions:
REMARK  status: ('A' for Active; 'I' for Inactive)
REMARK    1  A    between atoms: C2_2  and  C3_3 
REMARK    2  A    between atoms: C3_3  and  N1_4 
REMARK    3  A    between atoms: C5_6  and  O1_7 
ROOT
HETATM    1  N1  UNL     1       7.111  -6.873   9.095  1.00  0.00     0.095 N 
HETATM    2  C4  UNL     1       6.895  -7.683  10.279  1.00  0.00     0.305 C 
HETATM    3  C5  UNL     1       7.460  -9.021   9.835  1.00  0.00     0.158 C 
HETATM    4  C6  UNL     1       8.754  -8.563   9.228  1.00  0.00     0.037 C 
HETATM    5  C7  UNL     1       9.789  -8.190  10.256  1.00  0.00     0.042 C 
HETATM    6  C8  UNL     1      11.071  -8.499   9.484  1.00  0.00     0.168 C 
HETATM    7  O2  UNL     1      10.784  -9.569   8.684  1.00  0.00    -0.390 OA
HETATM    8  C9  UNL     1       9.440  -9.555   8.378  1.00  0.00     0.181 C 
HETATM    9  C10 UNL     1       8.277  -7.343   8.437  1.00  0.00     0.287 C 
ENDROOT
BRANCH   3  10
HETATM   10  O1  UNL     1       7.612  -9.911  10.873  1.00  0.00    -0.393 OA
ATOM     11  H1  UNL     1       7.288 -10.780  10.666  1.00  0.00     0.210 HD
ENDBRANCH   3  10
BRANCH   1  12
HETATM   12  C3  UNL     1       5.921  -6.855   8.288  1.00  0.00     0.299 C 
BRANCH  12  13
HETATM   13  C2  UNL     1       4.697  -6.527   9.016  1.00  0.00    -0.007 C 
HETATM   14  C1  UNL     1       3.499  -6.879   8.584  1.00  0.00     0.008 C 
ENDBRANCH  12  13
ENDBRANCH   1  12
TORSDOF 3
ENDMDL
MODEL 3
REMARK VINA RESULT: -6.047274506      2.848      3.745
REMARK  3 active torsions:
REMARK  status: ('A' for Active; 'I' for Inactive)
REMARK    1  A    between atoms: C2_2  and  C3_3 
REMARK    2  A    between atoms: C3_3  and  N1_4 
REMARK    3  A    between atoms: C5_6  and  O1_7 
ROOT
HETATM    1  N1  UNL     1       7.675  -8.712   9.648  1.00  0.00     0.095 N 
HETATM    2  C4  UNL     1       7.829  -8.254   8.280  1.00  0.00     0.305 C 
HETATM    3  C5  UNL     1       9.237  -7.686   8.308  1.00  0.00     0.158 C 
HETATM    4  C6  UNL     1       9.949  -8.803   9.014  1.00  0.00     0.037 C 
HETATM    5  C7  UNL     1      10.186 -10.002   8.134  1.00  0.00     0.042 C 
HETATM    6  C8  UNL     1      11.453 -10.569   8.773  1.00  0.00     0.168 C 
HETATM    7  O2  UNL     1      12.164  -9.493   9.226  1.00  0.00    -0.390 OA
HETATM    8  C9  UNL     1      11.290  -8.471   9.531  1.00  0.00     0.181 C 
HETATM    9  C10 UNL     1       8.949  -9.111  10.131  1.00  0.00     0.287 C 
ENDROOT
BRANCH   3  10
HETATM   10  O1  UNL     1       9.730  -7.412   7.054  1.00  0.00    -0.393 OA
ATOM     11  H1  UNL     1      10.591  -7.785   6.904  1.00  0.00     0.210 HD
ENDBRANCH   3  10
BRANCH   1  12
HETATM   12  C3  UNL     1       7.013  -7.705  10.432  1.00  0.00     0.299 C 
BRANCH  12  13
HETATM   13  C2  UNL     1       6.124  -6.830   9.673  1.00  0.00    -0.007 C 
HETATM   14  C1  UNL     1       4.808  -6.887   9.783  1.00  0.00     0.008 C 
ENDBRANCH  12  13
ENDBRANCH   1  12
TORSDOF 3
ENDMDL
MODEL 4
REMARK VINA RESULT: -5.990390724      2.736      5.627
REMARK  3 active torsions:
REMARK  status: ('A' for Active; 'I' for Inactive)
REMARK    1  A    between atoms: C2_2  and  C3_3 
REMARK    2  A    between atoms: C3_3  and  N1_4 
REMARK    3  A    between atoms: C5_6  and  O1_7 
ROOT
HETATM    1  N1  UNL     1       4.671  -6.032   8.240  1.00  0.00     0.095 N 
HETATM    2  C4  UNL     1       4.827  -6.854   7.055  1.00  0.00     0.305 C 
HETATM    3  C5  UNL     1       3.382  -7.184   6.725  1.00  0.00     0.158 C 
HETATM    4  C6  UNL     1       2.773  -5.818   6.852  1.00  0.00     0.037 C 
HETATM    5  C7  UNL     1       3.092  -4.919   5.687  1.00  0.00     0.042 C 
HETATM    6  C8  UNL     1       1.860  -4.014   5.690  1.00  0.00     0.168 C 
HETATM    7  O2  UNL     1       0.818  -4.793   6.107  1.00  0.00    -0.390 OA
HETATM    8  C9  UNL     1       1.300  -5.788   6.931  1.00  0.00     0.181 C 
HETATM    9  C10 UNL     1       3.441  -5.332   8.140  1.00  0.00     0.287 C 
ENDROOT
BRANCH   3  10
HETATM   10  O1  UNL     1       3.232  -7.751   5.481  1.00  0.00    -0.393 OA
ATOM     11  H1  UNL     1       3.120  -8.694   5.513  1.00  0.00     0.210 HD
ENDBRANCH   3  10
BRANCH   1  12
HETATM   12  C3  UNL     1       4.819  -6.839   9.421  1.00  0.00     0.299 C 
BRANCH  12  13
HETATM   13  C2  UNL     1       6.158  -6.824  10.005  1.00  0.00    -0.007 C 
HETATM   14  C1  UNL     1       6.759  -7.921  10.431  1.00  0.00     0.008 C 
ENDBRANCH  12  13
ENDBRANCH   1  12
TORSDOF 3
ENDMDL
MODEL 5
REMARK VINA RESULT: -5.815895935      3.216      5.965
REMARK  3 active torsions:
REMARK  status: ('A' for Active; 'I' for Inactive)
REMARK    1  A    between atoms: C2_2  and  C3_3 
REMARK    2  A    between atoms: C3_3  and  N1_4 
REMARK    3  A    between atoms: C5_6  and  O1_7 
ROOT
HETATM    1  N1  UNL     1       4.122  -6.956   7.594  1.00  0.00     0.095 N 
HETATM    2  C4  UNL     1       2.902  -6.630   8.308  1.00  0.00     0.305 C 
HETATM    3  C5  UNL     1       2.510  -5.317   7.653  1.00  0.00     0.158 C 
HETATM    4  C6  UNL     1       2.689  -5.689   6.210  1.00  0.00     0.037 C 
HETATM    5  C7  UNL     1       1.582  -6.564   5.684  1.00  0.00     0.042 C 
HETATM    6  C8  UNL     1       1.594  -6.169   4.208  1.00  0.00     0.168 C 
HETATM    7  O2  UNL     1       1.938  -4.847   4.170  1.00  0.00    -0.390 OA
HETATM    8  C9  UNL     1       2.724  -4.556   5.265  1.00  0.00     0.181 C 
HETATM    9  C10 UNL     1       4.021  -6.439   6.276  1.00  0.00     0.287 C 
ENDROOT
BRANCH   3  10
HETATM   10  O1  UNL     1       1.235  -4.917   7.975  1.00  0.00    -0.393 OA
ATOM     11  H1  UNL     1       0.678  -4.802   7.213  1.00  0.00     0.210 HD
ENDBRANCH   3  10
BRANCH   1  12
HETATM   12  C3  UNL     1       5.264  -6.500   8.340  1.00  0.00     0.299 C 
BRANCH  12  13
HETATM   13  C2  UNL     1       5.309  -6.961   9.726  1.00  0.00    -0.007 C 
HETATM   14  C1  UNL     1       6.404  -7.459  10.273  1.00  0.00     0.008 C 
ENDBRANCH  12  13
ENDBRANCH   1  12
TORSDOF 3
ENDMDL
