MODEL 1
REMARK VINA RESULT: -6.809347601      0.000      0.000
REMARK  3 active torsions:
REMARK  status: ('A' for Active; 'I' for Inactive)
REMARK    1  A    between atoms: O1_1  and  C1_3 
REMARK    2  A    between atoms: C1_3  and  C2_4 
REMARK    3  A    between atoms: C5_7  and  N1_8 
ROOT
HETATM    1  C2  UNL     1       7.980  -8.781   8.913  1.00  0.00     0.011 C 
HETATM    2  C3  UNL     1       7.664  -8.942  10.382  1.00  0.00     0.009 C 
HETATM    3  C4  UNL     1       6.725  -7.802  10.676  1.00  0.00     0.025 C 
HETATM    4  C5  UNL     1       6.728  -6.894   9.469  1.00  0.00     0.079 C 
HETATM    5  C10 UNL     1       7.994  -7.256   8.790  1.00  0.00     0.031 C 
ENDROOT
BRANCH   4   6
HETATM    6  N1  UNL     1       5.553  -7.024   8.678  1.00  0.00    -0.404 N 
HETATM    7  C6  UNL     1       4.342  -6.621   9.305  1.00  0.00     0.143 C 
HETATM    8  C7  UNL     1       3.507  -5.656   8.481  1.00  0.00     0.187 C 
HETATM    9  O2  UNL     1       3.302  -6.055   7.187  1.00  0.00    -0.388 OA
HETATM   10  C8  UNL     1       4.271  -6.904   6.687  1.00  0.00     0.187 C 
HETATM   11  C9  UNL     1       5.639  -6.613   7.322  1.00  0.00     0.143 C 
ENDBRANCH   4   6
BRANCH   1  12
HETATM   12  C1  UNL     1       9.372  -9.255   8.570  1.00  0.00     0.168 C 
BRANCH  12  13
HETATM   13  O1  UNL     1       9.399 -10.050   7.437  1.00  0.00    -0.400 OA
ATOM     14  H1  UNL     1      10.237 -10.481   7.313  1.00  0.00     0.209 HD
ENDBRANCH  12  13
ENDBRANCH   1  12
TORSDOF 3
ENDMDL
MODEL 2
REMARK VINA RESULT: -6.344671455      2.229      5.556
REMARK  3 active torsions:
REMARK  status: ('A' for Active; 'I' for Inactive)
REMARK    1  A    between atoms: O1_1  and  C1_3 
REMARK    2  A    between atoms: C1_3  and  C2_4 
REMARK    3  A    between atoms: C5_7  and  N1_8 
ROOT
HETATM    1  C2  UNL     1       7.182  -7.181   8.664  1.00  0.00     0.011 C 
HETATM    2  C3  UNL     1       7.142  -6.714  10.101  1.00  0.00     0.009 C 
HETATM    3  C4  UNL     1       8.031  -7.691  10.822  1.00  0.00     0.025 C 
HETATM    4  C5  UNL     1       8.344  -8.812   9.858  1.00  0.00     0.079 C 
HETATM    5  C10 UNL     1       7.257  -8.697   8.859  1.00  0.00     0.031 C 
ENDROOT
BRANCH   4   6
HETATM    6  N1  UNL     1       9.664  -8.737   9.335  1.00  0.00    -0.404 N 
HETATM    7  C6  UNL     1      10.686  -8.457  10.283  1.00  0.00     0.143 C 
HETATM    8  C7  UNL     1      11.862  -9.418  10.230  1.00  0.00     0.187 C 
HETATM    9  O2  UNL     1      12.372  -9.613   8.974  1.00  0.00    -0.388 OA
HETATM   10  C8  UNL     1      11.473  -9.390   7.948  1.00  0.00     0.187 C 
HETATM   11  C9  UNL     1      10.041  -9.725   8.389  1.00  0.00     0.143 C 
ENDBRANCH   4   6
BRANCH   1  12
HETATM   12  C1  UNL     1       5.890  -6.903   7.933  1.00  0.00     0.168 C 
BRANCH  12  13
HETATM   13  O1  UNL     1       6.093  -6.519   6.619  1.00  0.00    -0.400 OA
ATOM     14  H1  UNL     1       6.071  -7.253   6.016  1.00  0.00     0.209 HD
ENDBRANCH  12  13
ENDBRANCH   1  12
TORSDOF 3
ENDMDL
MODEL 3
REMARK VINA RESULT: -6.108444530      1.952      5.177
REMARK  3 active torsions:
REMARK  status: ('A' for Active; 'I' for Inactive)
REMARK    1  A    between atoms: O1_1  and  C1_3 
REMARK    2  A    between atoms: C1_3  and  C2_4 
REMARK    3  A    between atoms: C5_7  and  N1_8 
ROOT
HETATM    1  C2  UNL     1       3.430  -5.317   6.709  1.00  0.00     0.011 C 
HETATM    2  C3  UNL     1       2.380  -5.376   7.794  1.00  0.00     0.009 C 
HETATM    3  C4  UNL     1       2.868  -6.466   8.709  1.00  0.00     0.025 C 
HETATM    4  C5  UNL     1       4.016  -7.158   8.013  1.00  0.00     0.079 C 
HETATM    5  C10 UNL     1       3.803  -6.796   6.593  1.00  0.00     0.031 C 
ENDROOT
BRANCH   4   6
HETATM    6  N1  UNL     1       5.283  -6.802   8.551  1.00  0.00    -0.404 N 
HETATM    7  C6  UNL     1       5.401  -6.898   9.964  1.00  0.00     0.143 C 
HETATM    8  C7  UNL     1       6.612  -7.685  10.435  1.00  0.00     0.187 C 
HETATM    9  O2  UNL     1       7.791  -7.303   9.850  1.00  0.00    -0.388 OA
HETATM   10  C8  UNL     1       7.652  -6.713   8.609  1.00  0.00     0.187 C 
HETATM   11  C9  UNL     1       6.432  -7.276   7.865  1.00  0.00     0.143 C 
ENDBRANCH   4   6
BRANCH   1  12
HETATM   12  C1  UNL     1       2.855  -4.910   5.373  1.00  0.00     0.168 C 
BRANCH  12  13
HETATM   13  O1  UNL     1       3.740  -4.161   4.617  1.00  0.00    -0.400 OA
ATOM     14  H1  UNL     1       3.489  -4.112   3.702  1.00  0.00     0.209 HD
ENDBRANCH  12  13
ENDBRANCH   1  12
TORSDOF 3
ENDMDL
MODEL 4
REMARK VINA RESULT: -5.849567246      1.850      2.486
REMARK  3 active torsions:
REMARK  status: ('A' for Active; 'I' for Inactive)
REMARK    1  A    between atoms: O1_1  and  C1_3 
REMARK    2  A    between atoms: C1_3  and  C2_4 
REMARK    3  A    between atoms: C5_7  and  N1_8 
ROOT
HETATM    1  C2  UNL     1      10.131  -9.566   9.053  1.00  0.00     0.011 C 
HETATM    2  C3  UNL     1      10.171  -9.643  10.562  1.00  0.00     0.009 C 
HETATM    3  C4  UNL     1       9.348  -8.464  11.005  1.00  0.00     0.025 C 
HETATM    4  C5  UNL     1       9.077  -7.618   9.783  1.00  0.00     0.079 C 
HETATM    5  C10 UNL     1      10.140  -8.050   8.845  1.00  0.00     0.031 C 
ENDROOT
BRANCH   4   6
HETATM    6  N1  UNL     1       7.747  -7.753   9.302  1.00  0.00    -0.404 N 
HETATM    7  C6  UNL     1       6.736  -7.830  10.299  1.00  0.00     0.143 C 
HETATM    8  C7  UNL     1       5.582  -6.866  10.090  1.00  0.00     0.187 C 
HETATM    9  O2  UNL     1       5.052  -6.889   8.827  1.00  0.00    -0.388 OA
HETATM   10  C8  UNL     1       5.927  -7.317   7.846  1.00  0.00     0.187 C 
HETATM   11  C9  UNL     1       7.374  -6.944   8.197  1.00  0.00     0.143 C 
ENDBRANCH   4   6
BRANCH   1  12
HETATM   12  C1  UNL     1      11.393 -10.097   8.417  1.00  0.00     0.168 C 
BRANCH  12  13
HETATM   13  O1  UNL     1      12.032  -9.153   7.632  1.00  0.00    -0.400 OA
ATOM     14  H1  UNL     1      12.916  -8.970   7.928  1.00  0.00     0.209 HD
ENDBRANCH  12  13
ENDBRANCH   1  12
TORSDOF 3
ENDMDL
MODEL 5
REMARK VINA RESULT: -5.832180901      1.534      2.443
REMARK  3 active torsions:
REMARK  status: ('A' for Active; 'I' for Inactive)
REMARK    1  A    between atoms: O1_1  and  C1_3 
REMARK    2  A    between atoms: C1_3  and  C2_4 
REMARK    3  A    between atoms: C5_7  and  N1_8 
ROOT
HETATM    1  C2  UNL     1       8.689  -7.910  10.363  1.00  0.00     0.011 C 
HETATM    2  C3  UNL     1       9.546  -7.914   9.117  1.00  0.00     0.009 C 
HETATM    3  C4  UNL     1       8.551  -8.059   7.997  1.00  0.00     0.025 C 
HETATM    4  C5  UNL     1       7.213  -8.381   8.621  1.00  0.00     0.079 C 
HETATM    5  C10 UNL     1       7.592  -8.895   9.957  1.00  0.00     0.031 C 
ENDROOT
BRANCH   4   6
HETATM    6  N1  UNL     1       6.324  -7.273   8.622  1.00  0.00    -0.404 N 
HETATM    7  C6  UNL     1       6.055  -6.697   7.350  1.00  0.00     0.143 C 
HETATM    8  C7  UNL     1       4.577  -6.524   7.046  1.00  0.00     0.187 C 
HETATM    9  O2  UNL     1       3.867  -5.908   8.044  1.00  0.00    -0.388 OA
HETATM   10  C8  UNL     1       4.416  -6.042   9.305  1.00  0.00     0.187 C 
HETATM   11  C9  UNL     1       5.168  -7.373   9.440  1.00  0.00     0.143 C 
ENDBRANCH   4   6
BRANCH   1  12
HETATM   12  C1  UNL     1       9.399  -8.517  11.550  1.00  0.00     0.168 C 
BRANCH  12  13
HETATM   13  O1  UNL     1       9.799  -9.822  11.321  1.00  0.00    -0.400 OA
ATOM     14  H1  UNL     1       9.080 -10.440  11.379  1.00  0.00     0.209 HD
ENDBRANCH  12  13
ENDBRANCH   1  12
TORSDOF 3
ENDMDL
