MODEL 1
REMARK VINA RESULT: -6.353323382      0.000      0.000
REMARK  2 active torsions:
REMARK  status: ('A' for Active; 'I' for Inactive)
REMARK    1  A    between atoms: C4_4  and  C5_5 
REMARK    2  A    between atoms: C5_5  and  N1_6 
ROOT
HETATM    1  C1  UNL     1       6.283  -6.669   9.494  1.00  0.00     0.019 C 
HETATM    2  C2  UNL     1       6.625  -7.861  10.348  1.00  0.00     0.004 C 
HETATM    3  C3  UNL     1       7.632  -8.767   9.742  1.00  0.00     0.026 C 
HETATM    4  C4  UNL     1       8.514  -8.135   8.715  1.00  0.00     0.104 C 
HETATM    5  N2  UNL     1       7.870  -7.350   7.740  1.00  0.00    -0.415 N 
ATOM      6  H2  UNL     1       8.326  -7.119   6.857  1.00  0.00     0.153 HD
HETATM    7  C10 UNL     1       6.560  -6.895   8.037  1.00  0.00     0.114 C 
ENDROOT
BRANCH   4   8
HETATM    8  C5  UNL     1       9.348  -9.230   8.081  1.00  0.00     0.297 C 
BRANCH   8   9
HETATM    9  N1  UNL     1      10.520  -9.488   8.890  1.00  0.00     0.094 N 
HETATM   10  C6  UNL     1      11.172  -8.281   9.319  1.00  0.00     0.298 C 
HETATM   11  C7  UNL     1      12.136  -8.587  10.450  1.00  0.00     0.198 C 
HETATM   12  O1  UNL     1      12.596  -9.894  10.333  1.00  0.00    -0.388 OA
HETATM   13  C8  UNL     1      12.762 -10.266   8.992  1.00  0.00     0.198 C 
HETATM   14  C9  UNL     1      11.408 -10.442   8.301  1.00  0.00     0.298 C 
ENDBRANCH   8   9
ENDBRANCH   4   8
TORSDOF 2
ENDMDL
MODEL 2
REMARK VINA RESULT: -6.270866026      5.815      8.707
REMARK  2 active torsions:
REMARK  status: ('A' for Active; 'I' for Inactive)
REMARK    1  A    between atoms: C4_4  and  C5_5 
REMARK    2  A    between atoms: C5_5  and  N1_6 
ROOT
HETATM    1  C1  UNL     1       6.065  -7.327   8.347  1.00  0.00     0.019 C 
HETATM    2  C2  UNL     1       5.212  -6.804   9.471  1.00  0.00     0.004 C 
HETATM    3  C3  UNL     1       3.931  -6.204   9.025  1.00  0.00     0.026 C 
HETATM    4  C4  UNL     1       3.444  -6.669   7.692  1.00  0.00     0.104 C 
HETATM    5  N2  UNL     1       4.395  -6.689   6.654  1.00  0.00    -0.415 N 
ATOM      6  H2  UNL     1       4.113  -6.712   5.674  1.00  0.00     0.153 HD
HETATM    7  C10 UNL     1       5.762  -6.675   7.030  1.00  0.00     0.114 C 
ENDROOT
BRANCH   4   8
HETATM    8  C5  UNL     1       2.236  -5.833   7.319  1.00  0.00     0.297 C 
BRANCH   8   9
HETATM    9  N1  UNL     1       2.215  -5.609   5.889  1.00  0.00     0.094 N 
HETATM   10  C6  UNL     1       2.208  -4.212   5.549  1.00  0.00     0.298 C 
HETATM   11  C7  UNL     1       2.569  -4.035   4.085  1.00  0.00     0.198 C 
HETATM   12  O1  UNL     1       2.186  -5.163   3.368  1.00  0.00    -0.388 OA
HETATM   13  C8  UNL     1       0.990  -5.705   3.857  1.00  0.00     0.198 C 
HETATM   14  C9  UNL     1       1.205  -6.369   5.219  1.00  0.00     0.298 C 
ENDBRANCH   8   9
ENDBRANCH   4   8
TORSDOF 2
ENDMDL
MODEL 3
REMARK VINA RESULT: -6.213888589      0.758      1.456
REMARK  2 active torsions:
REMARK  status: ('A' for Active; 'I' for Inactive)
REMARK    1  A    between atoms: C4_4  and  C5_5 
REMARK    2  A    between atoms: C5_5  and  N1_6 
ROOT
HETATM    1  C1  UNL     1       5.777  -6.519   9.187  1.00  0.00     0.019 C 
HETATM    2  C2  UNL     1       6.047  -7.596  10.205  1.00  0.00     0.004 C 
HETATM    3  C3  UNL     1       7.137  -8.527   9.821  1.00  0.00     0.026 C 
HETATM    4  C4  UNL     1       8.116  -7.982   8.833  1.00  0.00     0.104 C 
HETATM    5  N2  UNL     1       7.569  -7.334   7.708  1.00  0.00    -0.415 N 
ATOM      6  H2  UNL     1       8.117  -7.186   6.861  1.00  0.00     0.153 HD
HETATM    7  C10 UNL     1       6.224  -6.895   7.805  1.00  0.00     0.114 C 
ENDROOT
BRANCH   4   8
HETATM    8  C5  UNL     1       9.041  -9.110   8.424  1.00  0.00     0.297 C 
BRANCH   8   9
HETATM    9  N1  UNL     1      10.379  -8.852   8.913  1.00  0.00     0.094 N 
HETATM   10  C6  UNL     1      11.281  -9.942   8.658  1.00  0.00     0.298 C 
HETATM   11  C7  UNL     1      12.715  -9.478   8.834  1.00  0.00     0.198 C 
HETATM   12  O1  UNL     1      12.762  -8.436   9.754  1.00  0.00    -0.388 OA
HETATM   13  C8  UNL     1      11.825  -8.612  10.781  1.00  0.00     0.198 C 
HETATM   14  C9  UNL     1      10.401  -8.394  10.268  1.00  0.00     0.298 C 
ENDBRANCH   8   9
ENDBRANCH   4   8
TORSDOF 2
ENDMDL
MODEL 4
REMARK VINA RESULT: -6.091487917      2.249      3.635
REMARK  2 active torsions:
REMARK  status: ('A' for Active; 'I' for Inactive)
REMARK    1  A    between atoms: C4_4  and  C5_5 
REMARK    2  A    between atoms: C5_5  and  N1_6 
ROOT
HETATM    1  C1  UNL     1       4.088  -5.904   7.022  1.00  0.00     0.019 C 
HETATM    2  C2  UNL     1       3.251  -6.326   8.200  1.00  0.00     0.004 C 
HETATM    3  C3  UNL     1       4.021  -6.997   9.276  1.00  0.00     0.026 C 
HETATM    4  C4  UNL     1       5.481  -6.683   9.300  1.00  0.00     0.104 C 
HETATM    5  N2  UNL     1       6.152  -6.751   8.063  1.00  0.00    -0.415 N 
ATOM      6  H2  UNL     1       7.168  -6.836   8.013  1.00  0.00     0.153 HD
HETATM    7  C10 UNL     1       5.356  -6.697   6.891  1.00  0.00     0.114 C 
ENDROOT
BRANCH   4   8
HETATM    8  C5  UNL     1       6.134  -7.579  10.333  1.00  0.00     0.297 C 
BRANCH   8   9
HETATM    9  N1  UNL     1       7.526  -7.787   9.995  1.00  0.00     0.094 N 
HETATM   10  C6  UNL     1       7.733  -8.978   9.217  1.00  0.00     0.298 C 
HETATM   11  C7  UNL     1       9.109  -8.945   8.578  1.00  0.00     0.198 C 
HETATM   12  O1  UNL     1       9.975  -8.194   9.366  1.00  0.00    -0.388 OA
HETATM   13  C8  UNL     1       9.709  -8.363  10.732  1.00  0.00     0.198 C 
HETATM   14  C9  UNL     1       8.398  -7.680  11.124  1.00  0.00     0.298 C 
ENDBRANCH   8   9
ENDBRANCH   4   8
TORSDOF 2
ENDMDL
MODEL 5
REMARK VINA RESULT: -6.011494841      1.314      1.895
REMARK  2 active torsions:
REMARK  status: ('A' for Active; 'I' for Inactive)
REMARK    1  A    between atoms: C4_4  and  C5_5 
REMARK    2  A    between atoms: C5_5  and  N1_6 
ROOT
HETATM    1  C1  UNL     1       6.128  -6.673   8.714  1.00  0.00     0.019 C 
HETATM    2  C2  UNL     1       5.774  -7.273  10.048  1.00  0.00     0.004 C 
HETATM    3  C3  UNL     1       6.893  -7.998  10.697  1.00  0.00     0.026 C 
HETATM    4  C4  UNL     1       8.258  -7.588  10.249  1.00  0.00     0.104 C 
HETATM    5  N2  UNL     1       8.449  -7.478   8.859  1.00  0.00    -0.415 N 
ATOM      6  H2  UNL     1       9.383  -7.487   8.448  1.00  0.00     0.153 HD
HETATM    7  C10 UNL     1       7.289  -7.357   8.054  1.00  0.00     0.114 C 
ENDROOT
BRANCH   4   8
HETATM    8  C5  UNL     1       9.259  -8.540  10.872  1.00  0.00     0.297 C 
BRANCH   8   9
HETATM    9  N1  UNL     1      10.407  -8.686  10.002  1.00  0.00     0.094 N 
HETATM   10  C6  UNL     1      10.457  -9.974   9.365  1.00  0.00     0.298 C 
HETATM   11  C7  UNL     1      11.431  -9.937   8.201  1.00  0.00     0.198 C 
HETATM   12  O1  UNL     1      12.418  -8.988   8.445  1.00  0.00    -0.388 OA
HETATM   13  C8  UNL     1      12.760  -8.935   9.803  1.00  0.00     0.198 C 
HETATM   14  C9  UNL     1      11.636  -8.307  10.628  1.00  0.00     0.298 C 
ENDBRANCH   8   9
ENDBRANCH   4   8
TORSDOF 2
ENDMDL
