MODEL 1
REMARK VINA RESULT: -8.962152192      0.000      0.000
REMARK  2 active torsions:
REMARK  status: ('A' for Active; 'I' for Inactive)
REMARK    1  A    between atoms: C4_7  and  N1_8 
REMARK    2  A    between atoms: N1_8  and  C5_10 
ROOT
HETATM    1  N1  UNL     1      25.409  24.828  15.674  1.00  0.00    -0.336 N 
ATOM      2  H1  UNL     1      24.841  25.564  16.096  1.00  0.00     0.168 HD
ENDROOT
BRANCH   1   3
HETATM    3  C4  UNL     1      25.703  24.894  14.301  1.00  0.00     0.118 A 
HETATM    4  C3  UNL     1      24.861  24.331  13.355  1.00  0.00     0.188 A 
HETATM    5  C2  UNL     1      25.116  24.374  12.003  1.00  0.00     0.199 A 
HETATM    6  F3  UNL     1      23.720  23.698  13.738  1.00  0.00    -0.200 F 
HETATM    7  C1  UNL     1      26.282  25.021  11.615  1.00  0.00     0.199 A 
HETATM    8  F2  UNL     1      24.310  23.833  11.065  1.00  0.00    -0.199 F 
HETATM    9  F1  UNL     1      26.555  25.077  10.277  1.00  0.00    -0.199 F 
HETATM   10  C14 UNL     1      27.133  25.588  12.553  1.00  0.00     0.199 A 
HETATM   11  C13 UNL     1      26.845  25.526  13.901  1.00  0.00     0.188 A 
HETATM   12  F5  UNL     1      28.274  26.217  12.131  1.00  0.00    -0.199 F 
HETATM   13  F4  UNL     1      27.721  26.102  14.773  1.00  0.00    -0.200 F 
ENDBRANCH   1   3
BRANCH   1  14
HETATM   14  C5  UNL     1      25.844  23.847  16.425  1.00  0.00     0.122 A 
HETATM   15  C6  UNL     1      24.967  23.146  17.224  1.00  0.00     0.137 A 
HETATM   16  N2  UNL     1      25.398  22.133  18.004  1.00  0.00    -0.361 N 
HETATM   17  C7  UNL     1      26.703  21.776  18.023  1.00  0.00     0.059 A 
ATOM     18  H2  UNL     1      24.730  21.629  18.588  1.00  0.00     0.165 HD
HETATM   19  C8  UNL     1      27.098  20.729  18.840  1.00  0.00     0.032 A 
HETATM   20  C12 UNL     1      27.588  22.470  17.228  1.00  0.00     0.060 A 
HETATM   21  C9  UNL     1      28.428  20.374  18.851  1.00  0.00     0.002 A 
HETATM   22  C10 UNL     1      29.330  21.062  18.058  1.00  0.00     0.002 A 
HETATM   23  C11 UNL     1      28.906  22.097  17.258  1.00  0.00     0.032 A 
HETATM   24  N3  UNL     1      27.143  23.493  16.443  1.00  0.00    -0.340 N 
ATOM     25  H3  UNL     1      27.807  23.999  15.858  1.00  0.00     0.167 HD
ENDBRANCH   1  14
TORSDOF 2
ENDMDL
MODEL 2
REMARK VINA RESULT: -8.909838091      0.520      2.312
REMARK  2 active torsions:
REMARK  status: ('A' for Active; 'I' for Inactive)
REMARK    1  A    between atoms: C4_7  and  N1_8 
REMARK    2  A    between atoms: N1_8  and  C5_10 
ROOT
HETATM    1  N1  UNL     1      24.852  24.202  15.718  1.00  0.00    -0.336 N 
ATOM      2  H1  UNL     1      24.046  24.694  16.104  1.00  0.00     0.168 HD
ENDROOT
BRANCH   1   3
HETATM    3  C4  UNL     1      25.272  24.495  14.409  1.00  0.00     0.118 A 
HETATM    4  C3  UNL     1      26.335  25.351  14.166  1.00  0.00     0.188 A 
HETATM    5  C2  UNL     1      26.774  25.662  12.899  1.00  0.00     0.199 A 
HETATM    6  F3  UNL     1      27.001  25.932  15.200  1.00  0.00    -0.200 F 
HETATM    7  C1  UNL     1      26.091  25.069  11.846  1.00  0.00     0.199 A 
HETATM    8  F2  UNL     1      27.806  26.493  12.641  1.00  0.00    -0.199 F 
HETATM    9  F1  UNL     1      26.510  25.363  10.579  1.00  0.00    -0.199 F 
HETATM   10  C14 UNL     1      25.026  24.210  12.077  1.00  0.00     0.199 A 
HETATM   11  C13 UNL     1      24.613  23.920  13.361  1.00  0.00     0.188 A 
HETATM   12  F5  UNL     1      24.377  23.644  11.011  1.00  0.00    -0.199 F 
HETATM   13  F4  UNL     1      23.559  23.069  13.521  1.00  0.00    -0.200 F 
ENDBRANCH   1   3
BRANCH   1  14
HETATM   14  C5  UNL     1      25.471  23.313  16.456  1.00  0.00     0.122 A 
HETATM   15  C6  UNL     1      24.746  22.442  17.241  1.00  0.00     0.137 A 
HETATM   16  N2  UNL     1      25.366  21.521  18.007  1.00  0.00    -0.361 N 
HETATM   17  C7  UNL     1      26.715  21.424  18.026  1.00  0.00     0.059 A 
ATOM     18  H2  UNL     1      24.809  20.887  18.581  1.00  0.00     0.165 HD
HETATM   19  C8  UNL     1      27.307  20.462  18.828  1.00  0.00     0.032 A 
HETATM   20  C12 UNL     1      27.448  22.290  17.244  1.00  0.00     0.060 A 
HETATM   21  C9  UNL     1      28.680  20.373  18.839  1.00  0.00     0.002 A 
HETATM   22  C10 UNL     1      29.431  21.235  18.059  1.00  0.00     0.002 A 
HETATM   23  C11 UNL     1      28.814  22.180  17.273  1.00  0.00     0.032 A 
HETATM   24  N3  UNL     1      26.813  23.218  16.473  1.00  0.00    -0.340 N 
ATOM     25  H3  UNL     1      27.367  23.853  15.898  1.00  0.00     0.167 HD
ENDBRANCH   1  14
TORSDOF 2
ENDMDL
MODEL 3
REMARK VINA RESULT: -8.882778466      1.079      2.861
REMARK  2 active torsions:
REMARK  status: ('A' for Active; 'I' for Inactive)
REMARK    1  A    between atoms: C4_7  and  N1_8 
REMARK    2  A    between atoms: N1_8  and  C5_10 
ROOT
HETATM    1  N1  UNL     1      26.404  24.965  15.257  1.00  0.00    -0.336 N 
ATOM      2  H1  UNL     1      26.226  25.871  15.692  1.00  0.00     0.168 HD
ENDROOT
BRANCH   1   3
HETATM    3  C4  UNL     1      25.876  24.701  13.981  1.00  0.00     0.118 A 
HETATM    4  C3  UNL     1      26.541  25.095  12.830  1.00  0.00     0.188 A 
HETATM    5  C2  UNL     1      26.055  24.855  11.565  1.00  0.00     0.199 A 
HETATM    6  F3  UNL     1      27.728  25.752  12.911  1.00  0.00    -0.200 F 
HETATM    7  C1  UNL     1      24.842  24.185  11.485  1.00  0.00     0.199 A 
HETATM    8  F2  UNL     1      26.685  25.230  10.431  1.00  0.00    -0.199 F 
HETATM    9  F1  UNL     1      24.341  23.936  10.239  1.00  0.00    -0.199 F 
HETATM   10  C14 UNL     1      24.168  23.785  12.631  1.00  0.00     0.199 A 
HETATM   11  C13 UNL     1      24.685  24.043  13.884  1.00  0.00     0.188 A 
HETATM   12  F5  UNL     1      22.973  23.127  12.511  1.00  0.00    -0.199 F 
HETATM   13  F4  UNL     1      23.974  23.625  14.971  1.00  0.00    -0.200 F 
ENDBRANCH   1   3
BRANCH   1  14
HETATM   14  C5  UNL     1      27.120  24.077  15.902  1.00  0.00     0.122 A 
HETATM   15  C6  UNL     1      28.496  24.103  15.816  1.00  0.00     0.137 A 
HETATM   16  N2  UNL     1      29.249  23.197  16.474  1.00  0.00    -0.361 N 
HETATM   17  C7  UNL     1      28.676  22.238  17.237  1.00  0.00     0.059 A 
ATOM     18  H2  UNL     1      30.265  23.235  16.395  1.00  0.00     0.165 HD
HETATM   19  C8  UNL     1      29.489  21.329  17.893  1.00  0.00     0.032 A 
HETATM   20  C12 UNL     1      27.301  22.203  17.329  1.00  0.00     0.060 A 
HETATM   21  C9  UNL     1      28.896  20.358  18.666  1.00  0.00     0.002 A 
HETATM   22  C10 UNL     1      27.516  20.309  18.770  1.00  0.00     0.002 A 
HETATM   23  C11 UNL     1      26.735  21.226  18.106  1.00  0.00     0.032 A 
HETATM   24  N3  UNL     1      26.549  23.123  16.661  1.00  0.00    -0.340 N 
ATOM     25  H3  UNL     1      25.532  23.088  16.738  1.00  0.00     0.167 HD
ENDBRANCH   1  14
TORSDOF 2
ENDMDL
MODEL 4
REMARK VINA RESULT: -8.850480819      1.076      2.033
REMARK  2 active torsions:
REMARK  status: ('A' for Active; 'I' for Inactive)
REMARK    1  A    between atoms: C4_7  and  N1_8 
REMARK    2  A    between atoms: N1_8  and  C5_10 
ROOT
HETATM    1  N1  UNL     1      26.466  24.989  15.236  1.00  0.00    -0.336 N 
ATOM      2  H1  UNL     1      26.316  25.905  15.660  1.00  0.00     0.168 HD
ENDROOT
BRANCH   1   3
HETATM    3  C4  UNL     1      25.921  24.723  13.968  1.00  0.00     0.118 A 
HETATM    4  C3  UNL     1      24.710  24.063  13.829  1.00  0.00     0.188 A 
HETATM    5  C2  UNL     1      24.144  23.783  12.605  1.00  0.00     0.199 A 
HETATM    6  F3  UNL     1      24.017  23.655  14.925  1.00  0.00    -0.200 F 
HETATM    7  C1  UNL     1      24.854  24.200  11.487  1.00  0.00     0.199 A 
HETATM    8  F2  UNL     1      22.967  23.142  12.446  1.00  0.00    -0.199 F 
HETATM    9  F1  UNL     1      24.311  23.934  10.262  1.00  0.00    -0.199 F 
HETATM   10  C14 UNL     1      26.067  24.862  11.615  1.00  0.00     0.199 A 
HETATM   11  C13 UNL     1      26.604  25.125  12.858  1.00  0.00     0.188 A 
HETATM   12  F5  UNL     1      26.738  25.257  10.488  1.00  0.00    -0.199 F 
HETATM   13  F4  UNL     1      27.800  25.779  12.917  1.00  0.00    -0.200 F 
ENDBRANCH   1   3
BRANCH   1  14
HETATM   14  C5  UNL     1      27.164  24.091  15.887  1.00  0.00     0.122 A 
HETATM   15  C6  UNL     1      28.541  24.108  15.828  1.00  0.00     0.137 A 
HETATM   16  N2  UNL     1      29.275  23.191  16.491  1.00  0.00    -0.361 N 
HETATM   17  C7  UNL     1      28.681  22.230  17.235  1.00  0.00     0.059 A 
ATOM     18  H2  UNL     1      30.293  23.223  16.432  1.00  0.00     0.165 HD
HETATM   19  C8  UNL     1      29.476  21.310  17.898  1.00  0.00     0.032 A 
HETATM   20  C12 UNL     1      27.305  22.204  17.301  1.00  0.00     0.060 A 
HETATM   21  C9  UNL     1      28.861  20.336  18.652  1.00  0.00     0.002 A 
HETATM   22  C10 UNL     1      27.480  20.296  18.728  1.00  0.00     0.002 A 
HETATM   23  C11 UNL     1      26.717  21.224  18.058  1.00  0.00     0.032 A 
HETATM   24  N3  UNL     1      26.572  23.135  16.627  1.00  0.00    -0.340 N 
ATOM     25  H3  UNL     1      25.553  23.106  16.684  1.00  0.00     0.167 HD
ENDBRANCH   1  14
TORSDOF 2
ENDMDL
MODEL 5
REMARK VINA RESULT: -8.796382553      1.840      3.151
REMARK  2 active torsions:
REMARK  status: ('A' for Active; 'I' for Inactive)
REMARK    1  A    between atoms: C4_7  and  N1_8 
REMARK    2  A    between atoms: N1_8  and  C5_10 
ROOT
HETATM    1  N1  UNL     1      25.401  25.031  15.750  1.00  0.00    -0.336 N 
ATOM      2  H1  UNL     1      25.552  25.874  16.304  1.00  0.00     0.168 HD
ENDROOT
BRANCH   1   3
HETATM    3  C4  UNL     1      25.746  25.035  14.388  1.00  0.00     0.118 A 
HETATM    4  C3  UNL     1      24.916  24.470  13.432  1.00  0.00     0.188 A 
HETATM    5  C2  UNL     1      25.220  24.454  12.089  1.00  0.00     0.199 A 
HETATM    6  F3  UNL     1      23.740  23.894  13.795  1.00  0.00    -0.200 F 
HETATM    7  C1  UNL     1      26.422  25.043  11.721  1.00  0.00     0.199 A 
HETATM    8  F2  UNL     1      24.427  23.909  11.142  1.00  0.00    -0.199 F 
HETATM    9  F1  UNL     1      26.744  25.040  10.393  1.00  0.00    -0.199 F 
HETATM   10  C14 UNL     1      27.261  25.612  12.669  1.00  0.00     0.199 A 
HETATM   11  C13 UNL     1      26.924  25.610  14.007  1.00  0.00     0.188 A 
HETATM   12  F5  UNL     1      28.439  26.183  12.267  1.00  0.00    -0.199 F 
HETATM   13  F4  UNL     1      27.791  26.185  14.890  1.00  0.00    -0.200 F 
ENDBRANCH   1   3
BRANCH   1  14
HETATM   14  C5  UNL     1      24.891  23.971  16.327  1.00  0.00     0.122 A 
HETATM   15  C6  UNL     1      25.718  23.033  16.907  1.00  0.00     0.137 A 
HETATM   16  N2  UNL     1      25.210  21.935  17.504  1.00  0.00    -0.361 N 
HETATM   17  C7  UNL     1      23.874  21.724  17.553  1.00  0.00     0.059 A 
ATOM     18  H2  UNL     1      25.842  21.254  17.926  1.00  0.00     0.165 HD
HETATM   19  C8  UNL     1      23.399  20.584  18.178  1.00  0.00     0.032 A 
HETATM   20  C12 UNL     1      23.039  22.656  16.977  1.00  0.00     0.060 A 
HETATM   21  C9  UNL     1      22.039  20.379  18.222  1.00  0.00     0.002 A 
HETATM   22  C10 UNL     1      21.186  21.305  17.647  1.00  0.00     0.002 A 
HETATM   23  C11 UNL     1      21.688  22.429  17.034  1.00  0.00     0.032 A 
HETATM   24  N3  UNL     1      23.562  23.762  16.375  1.00  0.00    -0.340 N 
ATOM     25  H3  UNL     1      22.933  24.446  15.952  1.00  0.00     0.167 HD
ENDBRANCH   1  14
TORSDOF 2
ENDMDL
