MODEL 1
REMARK VINA RESULT: -7.785826039      0.000      0.000
REMARK  4 active torsions:
REMARK  status: ('A' for Active; 'I' for Inactive)
REMARK    1  A    between atoms: C2_2  and  C3_3 
REMARK    2  A    between atoms: C3_3  and  O1_6 
REMARK    3  A    between atoms: O1_6  and  C4_7 
REMARK    4  A    between atoms: C10_16  and  O2_18 
ROOT
HETATM    1  C1  UNL     1      25.632  22.543  18.122  1.00  0.00     0.025 C 
HETATM    2  C2  UNL     1      26.640  22.255  17.060  1.00  0.00     0.060 C 
HETATM    3  C5  UNL     1      26.005  21.277  16.003  1.00  0.00     0.097 C 
HETATM    4  C6  UNL     1      25.680  22.101  14.918  1.00  0.00    -0.181 C 
HETATM    5  C7  UNL     1      25.422  22.902  13.793  1.00  0.00     0.093 C 
HETATM    6  C8  UNL     1      25.875  24.337  14.221  1.00  0.00     0.007 A 
HETATM    7  C9  UNL     1      24.828  25.356  13.778  1.00  0.00     0.020 C 
HETATM    8  C10 UNL     1      27.206  24.804  14.254  1.00  0.00     0.071 A 
HETATM    9  C11 UNL     1      27.489  26.275  14.087  1.00  0.00     0.047 C 
HETATM   10  C12 UNL     1      26.425  24.420  15.569  1.00  0.00    -0.001 A 
HETATM   11  C13 UNL     1      25.861  25.659  16.325  1.00  0.00     0.019 C 
HETATM   12  C14 UNL     1      27.149  23.526  16.380  1.00  0.00     0.031 C 
ENDROOT
BRANCH   2  13
HETATM   13  C3  UNL     1      27.829  21.557  17.679  1.00  0.00     0.369 C 
HETATM   14  F1  UNL     1      27.685  20.216  17.496  1.00  0.00    -0.175 F 
HETATM   15  F2  UNL     1      28.954  22.067  17.058  1.00  0.00    -0.175 F 
BRANCH  13  16
HETATM   16  O1  UNL     1      27.814  21.823  19.030  1.00  0.00    -0.227 OA
BRANCH  16  17
HETATM   17  C4  UNL     1      28.993  21.467  19.671  1.00  0.00     0.529 C 
HETATM   18  F3  UNL     1      29.876  22.529  19.728  1.00  0.00    -0.144 F 
HETATM   19  F4  UNL     1      29.607  20.384  19.074  1.00  0.00    -0.144 F 
HETATM   20  F5  UNL     1      28.696  21.103  20.971  1.00  0.00    -0.144 F 
ENDBRANCH  16  17
ENDBRANCH  13  16
ENDBRANCH   2  13
BRANCH   8  21
HETATM   21  O2  UNL     1      28.314  24.015  13.926  1.00  0.00    -0.389 OA
ATOM     22  H2  UNL     1      28.918  24.221  13.221  1.00  0.00     0.210 HD
ENDBRANCH   8  21
TORSDOF 4
ENDMDL
MODEL 2
REMARK VINA RESULT: -7.182109486      1.116      1.516
REMARK  4 active torsions:
REMARK  status: ('A' for Active; 'I' for Inactive)
REMARK    1  A    between atoms: C2_2  and  C3_3 
REMARK    2  A    between atoms: C3_3  and  O1_6 
REMARK    3  A    between atoms: O1_6  and  C4_7 
REMARK    4  A    between atoms: C10_16  and  O2_18 
ROOT
HETATM    1  C1  UNL     1      24.548  23.039  17.470  1.00  0.00     0.025 C 
HETATM    2  C2  UNL     1      25.773  22.585  16.748  1.00  0.00     0.060 C 
HETATM    3  C5  UNL     1      25.344  21.727  15.500  1.00  0.00     0.097 C 
HETATM    4  C6  UNL     1      25.503  22.594  14.412  1.00  0.00    -0.181 C 
HETATM    5  C7  UNL     1      25.734  23.426  13.304  1.00  0.00     0.093 C 
HETATM    6  C8  UNL     1      26.258  24.765  13.921  1.00  0.00     0.007 A 
HETATM    7  C9  UNL     1      25.575  25.946  13.235  1.00  0.00     0.020 C 
HETATM    8  C10 UNL     1      27.572  25.001  14.379  1.00  0.00     0.071 A 
HETATM    9  C11 UNL     1      28.124  26.403  14.380  1.00  0.00     0.047 C 
HETATM   10  C12 UNL     1      26.374  24.754  15.374  1.00  0.00    -0.001 A 
HETATM   11  C13 UNL     1      25.813  26.071  15.987  1.00  0.00     0.019 C 
HETATM   12  C14 UNL     1      26.662  23.752  16.320  1.00  0.00     0.031 C 
ENDROOT
BRANCH   2  13
HETATM   13  C3  UNL     1      26.587  21.697  17.661  1.00  0.00     0.369 C 
HETATM   14  F1  UNL     1      26.112  21.834  18.930  1.00  0.00    -0.175 F 
HETATM   15  F2  UNL     1      26.460  20.409  17.175  1.00  0.00    -0.175 F 
BRANCH  13  16
HETATM   16  O1  UNL     1      27.889  22.142  17.626  1.00  0.00    -0.227 OA
BRANCH  16  17
HETATM   17  C4  UNL     1      28.748  21.382  18.409  1.00  0.00     0.529 C 
HETATM   18  F3  UNL     1      29.318  20.356  17.680  1.00  0.00    -0.144 F 
HETATM   19  F4  UNL     1      28.120  20.866  19.525  1.00  0.00    -0.144 F 
HETATM   20  F5  UNL     1      29.773  22.195  18.855  1.00  0.00    -0.144 F 
ENDBRANCH  16  17
ENDBRANCH  13  16
ENDBRANCH   2  13
BRANCH   8  21
HETATM   21  O2  UNL     1      28.586  24.036  14.360  1.00  0.00    -0.389 OA
ATOM     22  H2  UNL     1      29.162  23.891  13.618  1.00  0.00     0.210 HD
ENDBRANCH   8  21
TORSDOF 4
ENDMDL
MODEL 3
REMARK VINA RESULT: -7.166222481      1.341      1.597
REMARK  4 active torsions:
REMARK  status: ('A' for Active; 'I' for Inactive)
REMARK    1  A    between atoms: C2_2  and  C3_3 
REMARK    2  A    between atoms: C3_3  and  O1_6 
REMARK    3  A    between atoms: O1_6  and  C4_7 
REMARK    4  A    between atoms: C10_16  and  O2_18 
ROOT
HETATM    1  C1  UNL     1      26.594  23.149  18.796  1.00  0.00     0.025 C 
HETATM    2  C2  UNL     1      26.398  22.142  17.711  1.00  0.00     0.060 C 
HETATM    3  C5  UNL     1      24.929  21.583  17.791  1.00  0.00     0.097 C 
HETATM    4  C6  UNL     1      24.250  22.242  16.759  1.00  0.00    -0.181 C 
HETATM    5  C7  UNL     1      23.577  22.837  15.679  1.00  0.00     0.093 C 
HETATM    6  C8  UNL     1      24.649  23.758  15.008  1.00  0.00     0.007 A 
HETATM    7  C9  UNL     1      24.023  25.110  14.675  1.00  0.00     0.020 C 
HETATM    8  C10 UNL     1      25.675  23.330  14.140  1.00  0.00     0.071 A 
HETATM    9  C11 UNL     1      26.238  24.282  13.117  1.00  0.00     0.047 C 
HETATM   10  C12 UNL     1      25.961  23.717  15.642  1.00  0.00    -0.001 A 
HETATM   11  C13 UNL     1      26.550  25.150  15.797  1.00  0.00     0.019 C 
HETATM   12  C14 UNL     1      26.680  22.717  16.324  1.00  0.00     0.031 C 
ENDROOT
BRANCH   2  13
HETATM   13  C3  UNL     1      27.346  20.985  17.932  1.00  0.00     0.369 C 
HETATM   14  F1  UNL     1      26.759  19.852  17.457  1.00  0.00    -0.175 F 
HETATM   15  F2  UNL     1      28.517  21.302  17.269  1.00  0.00    -0.175 F 
BRANCH  13  16
HETATM   16  O1  UNL     1      27.534  20.851  19.289  1.00  0.00    -0.227 OA
BRANCH  16  17
HETATM   17  C4  UNL     1      28.853  20.582  19.634  1.00  0.00     0.529 C 
HETATM   18  F3  UNL     1      29.616  21.734  19.639  1.00  0.00    -0.144 F 
HETATM   19  F4  UNL     1      29.431  19.645  18.800  1.00  0.00    -0.144 F 
HETATM   20  F5  UNL     1      28.876  20.061  20.914  1.00  0.00    -0.144 F 
ENDBRANCH  16  17
ENDBRANCH  13  16
ENDBRANCH   2  13
BRANCH   8  21
HETATM   21  O2  UNL     1      25.882  21.992  13.783  1.00  0.00    -0.389 OA
ATOM     22  H2  UNL     1      25.188  21.409  13.496  1.00  0.00     0.210 HD
ENDBRANCH   8  21
TORSDOF 4
ENDMDL
MODEL 4
REMARK VINA RESULT: -7.062172590      1.610      1.969
REMARK  4 active torsions:
REMARK  status: ('A' for Active; 'I' for Inactive)
REMARK    1  A    between atoms: C2_2  and  C3_3 
REMARK    2  A    between atoms: C3_3  and  O1_6 
REMARK    3  A    between atoms: O1_6  and  C4_7 
REMARK    4  A    between atoms: C10_16  and  O2_18 
ROOT
HETATM    1  C1  UNL     1      25.372  23.845  18.340  1.00  0.00     0.025 C 
HETATM    2  C2  UNL     1      25.242  22.820  17.263  1.00  0.00     0.060 C 
HETATM    3  C5  UNL     1      23.723  22.673  16.877  1.00  0.00     0.097 C 
HETATM    4  C6  UNL     1      23.602  23.379  15.673  1.00  0.00    -0.181 C 
HETATM    5  C7  UNL     1      23.483  24.016  14.427  1.00  0.00     0.093 C 
HETATM    6  C8  UNL     1      24.921  24.554  14.123  1.00  0.00     0.007 A 
HETATM    7  C9  UNL     1      24.829  25.982  13.589  1.00  0.00     0.020 C 
HETATM    8  C10 UNL     1      25.999  23.788  13.634  1.00  0.00     0.071 A 
HETATM    9  C11 UNL     1      27.089  24.452  12.832  1.00  0.00     0.047 C 
HETATM   10  C12 UNL     1      25.912  24.236  15.143  1.00  0.00    -0.001 A 
HETATM   11  C13 UNL     1      26.801  25.475  15.460  1.00  0.00     0.019 C 
HETATM   12  C14 UNL     1      26.081  23.158  16.032  1.00  0.00     0.031 C 
ENDROOT
BRANCH   2  13
HETATM   13  C3  UNL     1      25.715  21.484  17.790  1.00  0.00     0.369 C 
HETATM   14  F1  UNL     1      24.624  20.736  18.109  1.00  0.00    -0.175 F 
HETATM   15  F2  UNL     1      26.484  20.916  16.791  1.00  0.00    -0.175 F 
BRANCH  13  16
HETATM   16  O1  UNL     1      26.441  21.719  18.936  1.00  0.00    -0.227 OA
BRANCH  16  17
HETATM   17  C4  UNL     1      27.751  21.264  18.857  1.00  0.00     0.529 C 
HETATM   18  F3  UNL     1      28.498  22.031  17.983  1.00  0.00    -0.144 F 
HETATM   19  F4  UNL     1      27.822  19.936  18.487  1.00  0.00    -0.144 F 
HETATM   20  F5  UNL     1      28.332  21.373  20.107  1.00  0.00    -0.144 F 
ENDBRANCH  16  17
ENDBRANCH  13  16
ENDBRANCH   2  13
BRANCH   8  21
HETATM   21  O2  UNL     1      25.923  22.413  13.378  1.00  0.00    -0.389 OA
ATOM     22  H2  UNL     1      26.223  22.009  12.572  1.00  0.00     0.210 HD
ENDBRANCH   8  21
TORSDOF 4
ENDMDL
MODEL 5
REMARK VINA RESULT: -6.948075568      1.624      2.401
REMARK  4 active torsions:
REMARK  status: ('A' for Active; 'I' for Inactive)
REMARK    1  A    between atoms: C2_2  and  C3_3 
REMARK    2  A    between atoms: C3_3  and  O1_6 
REMARK    3  A    between atoms: O1_6  and  C4_7 
REMARK    4  A    between atoms: C10_16  and  O2_18 
ROOT
HETATM    1  C1  UNL     1      28.854  22.426  18.663  1.00  0.00     0.025 C 
HETATM    2  C2  UNL     1      27.717  21.725  17.997  1.00  0.00     0.060 C 
HETATM    3  C5  UNL     1      26.397  22.003  18.808  1.00  0.00     0.097 C 
HETATM    4  C6  UNL     1      25.724  22.973  18.054  1.00  0.00    -0.181 C 
HETATM    5  C7  UNL     1      25.002  23.886  17.267  1.00  0.00     0.093 C 
HETATM    6  C8  UNL     1      25.924  24.154  16.032  1.00  0.00     0.007 A 
HETATM    7  C9  UNL     1      25.950  25.651  15.730  1.00  0.00     0.020 C 
HETATM    8  C10 UNL     1      26.072  23.304  14.916  1.00  0.00     0.071 A 
HETATM    9  C11 UNL     1      26.465  23.880  13.581  1.00  0.00     0.047 C 
HETATM   10  C12 UNL     1      27.175  23.406  16.039  1.00  0.00    -0.001 A 
HETATM   11  C13 UNL     1      28.371  24.318  15.633  1.00  0.00     0.019 C 
HETATM   12  C14 UNL     1      27.551  22.144  16.537  1.00  0.00     0.031 C 
ENDROOT
BRANCH   2  13
HETATM   13  C3  UNL     1      27.969  20.235  18.022  1.00  0.00     0.369 C 
HETATM   14  F1  UNL     1      27.090  19.635  17.173  1.00  0.00    -0.175 F 
HETATM   15  F2  UNL     1      29.288  20.051  17.649  1.00  0.00    -0.175 F 
BRANCH  13  16
HETATM   16  O1  UNL     1      27.723  19.790  19.301  1.00  0.00    -0.227 OA
BRANCH  16  17
HETATM   17  C4  UNL     1      28.876  19.434  19.988  1.00  0.00     0.529 C 
HETATM   18  F3  UNL     1      29.316  20.463  20.799  1.00  0.00    -0.144 F 
HETATM   19  F4  UNL     1      29.893  19.045  19.138  1.00  0.00    -0.144 F 
HETATM   20  F5  UNL     1      28.588  18.355  20.803  1.00  0.00    -0.144 F 
ENDBRANCH  16  17
ENDBRANCH  13  16
ENDBRANCH   2  13
BRANCH   8  21
HETATM   21  O2  UNL     1      25.417  22.073  14.785  1.00  0.00    -0.389 OA
ATOM     22  H2  UNL     1      25.681  21.284  15.245  1.00  0.00     0.210 HD
ENDBRANCH   8  21
TORSDOF 4
ENDMDL
