MODEL 1
REMARK VINA RESULT: -9.630270496      0.000      0.000
REMARK  3 active torsions:
REMARK  status: ('A' for Active; 'I' for Inactive)
REMARK    1  A    between atoms: C4_5  and  N1_6 
REMARK    2  A    between atoms: N1_6  and  C5_8 
REMARK    3  A    between atoms: C10_13  and  C11_14 
ROOT
HETATM    1  C5  UNL     1      24.486  23.735  16.145  1.00  0.00     0.061 A 
HETATM    2  C6  UNL     1      23.394  23.053  16.636  1.00  0.00     0.032 A 
HETATM    3  C7  UNL     1      23.585  21.947  17.437  1.00  0.00     0.003 A 
HETATM    4  C8  UNL     1      24.855  21.504  17.763  1.00  0.00     0.014 A 
HETATM    5  C9  UNL     1      25.934  22.198  17.263  1.00  0.00     0.008 A 
HETATM    6  C10 UNL     1      27.199  21.792  17.561  1.00  0.00     0.058 A 
HETATM    7  C12 UNL     1      28.309  22.490  17.059  1.00  0.00     0.144 A 
HETATM    8  F4  UNL     1      29.566  22.074  17.366  1.00  0.00    -0.204 F 
HETATM    9  C13 UNL     1      28.067  23.579  16.270  1.00  0.00     0.131 A 
HETATM   10  N2  UNL     1      26.823  23.969  15.984  1.00  0.00    -0.360 N 
ATOM     11  H2  UNL     1      26.681  24.788  15.392  1.00  0.00     0.165 HD
HETATM   12  C14 UNL     1      25.757  23.308  16.459  1.00  0.00     0.070 A 
ENDROOT
BRANCH   1  13
HETATM   13  N1  UNL     1      24.331  24.875  15.320  1.00  0.00    -0.341 N 
ATOM     14  H1  UNL     1      23.809  25.688  15.647  1.00  0.00     0.167 HD
BRANCH  13  15
HETATM   15  C4  UNL     1      24.874  24.863  14.126  1.00  0.00     0.107 A 
HETATM   16  C3  UNL     1      24.331  24.102  13.106  1.00  0.00     0.052 A 
HETATM   17  C2  UNL     1      24.884  24.072  11.840  1.00  0.00     0.051 A 
HETATM   18  C1  UNL     1      26.004  24.826  11.612  1.00  0.00     0.172 A 
HETATM   19  F1  UNL     1      26.563  24.812  10.381  1.00  0.00    -0.201 F 
HETATM   20  C15 UNL     1      26.537  25.582  12.644  1.00  0.00     0.228 A 
HETATM   21  N3  UNL     1      25.975  25.589  13.863  1.00  0.00    -0.317 N 
HETATM   22  F5  UNL     1      27.641  26.314  12.388  1.00  0.00    -0.183 F 
ATOM     23  H3  UNL     1      26.390  26.156  14.603  1.00  0.00     0.170 HD
ENDBRANCH  13  15
ENDBRANCH   1  13
BRANCH   6  24
HETATM   24  C11 UNL     1      27.530  20.630  18.404  1.00  0.00     0.390 C 
HETATM   25  F2  UNL     1      28.076  21.171  19.582  1.00  0.00    -0.209 F 
HETATM   26  F3  UNL     1      28.590  19.982  17.768  1.00  0.00    -0.209 F 
ENDBRANCH   6  24
TORSDOF 3
ENDMDL
MODEL 2
REMARK VINA RESULT: -9.407092817      0.910      1.439
REMARK  3 active torsions:
REMARK  status: ('A' for Active; 'I' for Inactive)
REMARK    1  A    between atoms: C4_5  and  N1_6 
REMARK    2  A    between atoms: N1_6  and  C5_8 
REMARK    3  A    between atoms: C10_13  and  C11_14 
ROOT
HETATM    1  C5  UNL     1      24.995  24.189  15.976  1.00  0.00     0.061 A 
HETATM    2  C6  UNL     1      23.775  23.670  16.351  1.00  0.00     0.032 A 
HETATM    3  C7  UNL     1      23.728  22.530  17.125  1.00  0.00     0.003 A 
HETATM    4  C8  UNL     1      24.884  21.891  17.538  1.00  0.00     0.014 A 
HETATM    5  C9  UNL     1      26.094  22.424  17.152  1.00  0.00     0.008 A 
HETATM    6  C10 UNL     1      27.253  21.822  17.538  1.00  0.00     0.058 A 
HETATM    7  C12 UNL     1      28.495  22.354  17.154  1.00  0.00     0.144 A 
HETATM    8  F4  UNL     1      29.644  21.744  17.546  1.00  0.00    -0.204 F 
HETATM    9  C13 UNL     1      28.489  23.485  16.386  1.00  0.00     0.131 A 
HETATM   10  N2  UNL     1      27.347  24.067  16.014  1.00  0.00    -0.360 N 
ATOM     11  H2  UNL     1      27.380  24.911  15.442  1.00  0.00     0.165 HD
HETATM   12  C14 UNL     1      26.157  23.566  16.376  1.00  0.00     0.070 A 
ENDROOT
BRANCH   1  13
HETATM   13  N1  UNL     1      25.085  25.358  15.181  1.00  0.00    -0.341 N 
ATOM     14  H1  UNL     1      24.848  26.271  15.569  1.00  0.00     0.167 HD
BRANCH  13  15
HETATM   15  C4  UNL     1      25.481  25.241  13.937  1.00  0.00     0.107 A 
HETATM   16  C3  UNL     1      26.680  25.790  13.517  1.00  0.00     0.052 A 
HETATM   17  C2  UNL     1      27.119  25.681  12.211  1.00  0.00     0.051 A 
HETATM   18  C1  UNL     1      26.325  25.005  11.323  1.00  0.00     0.172 A 
HETATM   19  F1  UNL     1      26.733  24.885  10.040  1.00  0.00    -0.201 F 
HETATM   20  C15 UNL     1      25.126  24.462  11.758  1.00  0.00     0.228 A 
HETATM   21  N3  UNL     1      24.729  24.586  13.034  1.00  0.00    -0.317 N 
HETATM   22  F5  UNL     1      24.367  23.802  10.859  1.00  0.00    -0.183 F 
ATOM     23  H3  UNL     1      23.842  24.175  13.325  1.00  0.00     0.170 HD
ENDBRANCH  13  15
ENDBRANCH   1  13
BRANCH   6  24
HETATM   24  C11 UNL     1      27.333  20.605  18.364  1.00  0.00     0.390 C 
HETATM   25  F2  UNL     1      27.901  21.020  19.581  1.00  0.00    -0.209 F 
HETATM   26  F3  UNL     1      28.297  19.794  17.762  1.00  0.00    -0.209 F 
ENDBRANCH   6  24
TORSDOF 3
ENDMDL
MODEL 3
REMARK VINA RESULT: -9.384297433      2.713      3.900
REMARK  3 active torsions:
REMARK  status: ('A' for Active; 'I' for Inactive)
REMARK    1  A    between atoms: C4_5  and  N1_6 
REMARK    2  A    between atoms: N1_6  and  C5_8 
REMARK    3  A    between atoms: C10_13  and  C11_14 
ROOT
HETATM    1  C5  UNL     1      25.234  23.768  16.380  1.00  0.00     0.061 A 
HETATM    2  C6  UNL     1      26.421  23.177  16.756  1.00  0.00     0.032 A 
HETATM    3  C7  UNL     1      26.401  21.976  17.432  1.00  0.00     0.003 A 
HETATM    4  C8  UNL     1      25.210  21.344  17.742  1.00  0.00     0.014 A 
HETATM    5  C9  UNL     1      24.034  21.949  17.358  1.00  0.00     0.008 A 
HETATM    6  C10 UNL     1      22.842  21.357  17.646  1.00  0.00     0.058 A 
HETATM    7  C12 UNL     1      21.634  21.961  17.261  1.00  0.00     0.144 A 
HETATM    8  F4  UNL     1      20.452  21.359  17.554  1.00  0.00    -0.204 F 
HETATM    9  C13 UNL     1      21.707  23.152  16.594  1.00  0.00     0.131 A 
HETATM   10  N2  UNL     1      22.881  23.723  16.316  1.00  0.00    -0.360 N 
ATOM     11  H2  UNL     1      22.898  24.612  15.815  1.00  0.00     0.165 HD
HETATM   12  C14 UNL     1      24.039  23.153  16.681  1.00  0.00     0.070 A 
ENDROOT
BRANCH   1  13
HETATM   13  N1  UNL     1      25.213  25.002  15.685  1.00  0.00    -0.341 N 
ATOM     14  H1  UNL     1      24.947  25.863  16.160  1.00  0.00     0.167 HD
BRANCH  13  15
HETATM   15  C4  UNL     1      25.544  25.011  14.416  1.00  0.00     0.107 A 
HETATM   16  C3  UNL     1      24.712  24.454  13.460  1.00  0.00     0.052 A 
HETATM   17  C2  UNL     1      25.038  24.450  12.117  1.00  0.00     0.051 A 
HETATM   18  C1  UNL     1      26.225  25.022  11.745  1.00  0.00     0.172 A 
HETATM   19  F1  UNL     1      26.566  25.031  10.437  1.00  0.00    -0.201 F 
HETATM   20  C15 UNL     1      27.049  25.575  12.713  1.00  0.00     0.228 A 
HETATM   21  N3  UNL     1      26.702  25.562  14.010  1.00  0.00    -0.317 N 
HETATM   22  F5  UNL     1      28.212  26.130  12.314  1.00  0.00    -0.183 F 
ATOM     23  H3  UNL     1      27.328  25.977  14.700  1.00  0.00     0.170 HD
ENDBRANCH  13  15
ENDBRANCH   1  13
BRANCH   6  24
HETATM   24  C11 UNL     1      22.691  20.077  18.359  1.00  0.00     0.390 C 
HETATM   25  F2  UNL     1      21.867  19.290  17.536  1.00  0.00    -0.209 F 
HETATM   26  F3  UNL     1      21.924  20.355  19.492  1.00  0.00    -0.209 F 
ENDBRANCH   6  24
TORSDOF 3
ENDMDL
MODEL 4
REMARK VINA RESULT: -9.357139108      2.767      4.059
REMARK  3 active torsions:
REMARK  status: ('A' for Active; 'I' for Inactive)
REMARK    1  A    between atoms: C4_5  and  N1_6 
REMARK    2  A    between atoms: N1_6  and  C5_8 
REMARK    3  A    between atoms: C10_13  and  C11_14 
ROOT
HETATM    1  C5  UNL     1      25.464  23.728  16.439  1.00  0.00     0.061 A 
HETATM    2  C6  UNL     1      26.624  23.094  16.829  1.00  0.00     0.032 A 
HETATM    3  C7  UNL     1      26.552  21.882  17.481  1.00  0.00     0.003 A 
HETATM    4  C8  UNL     1      25.334  21.281  17.753  1.00  0.00     0.014 A 
HETATM    5  C9  UNL     1      24.187  21.929  17.354  1.00  0.00     0.008 A 
HETATM    6  C10 UNL     1      22.971  21.369  17.605  1.00  0.00     0.058 A 
HETATM    7  C12 UNL     1      21.791  22.018  17.205  1.00  0.00     0.144 A 
HETATM    8  F4  UNL     1      20.585  21.448  17.461  1.00  0.00    -0.204 F 
HETATM    9  C13 UNL     1      21.916  23.218  16.563  1.00  0.00     0.131 A 
HETATM   10  N2  UNL     1      23.112  23.758  16.322  1.00  0.00    -0.360 N 
ATOM     11  H2  UNL     1      23.167  24.655  15.839  1.00  0.00     0.165 HD
HETATM   12  C14 UNL     1      24.244  23.145  16.701  1.00  0.00     0.070 A 
ENDROOT
BRANCH   1  13
HETATM   13  N1  UNL     1      25.496  24.975  15.767  1.00  0.00    -0.341 N 
ATOM     14  H1  UNL     1      25.300  25.841  16.267  1.00  0.00     0.167 HD
BRANCH  13  15
HETATM   15  C4  UNL     1      25.785  24.990  14.488  1.00  0.00     0.107 A 
HETATM   16  C3  UNL     1      26.989  25.501  14.037  1.00  0.00     0.052 A 
HETATM   17  C2  UNL     1      27.317  25.528  12.695  1.00  0.00     0.051 A 
HETATM   18  C1  UNL     1      26.406  25.030  11.802  1.00  0.00     0.172 A 
HETATM   19  F1  UNL     1      26.704  25.046  10.484  1.00  0.00    -0.201 F 
HETATM   20  C15 UNL     1      25.203  24.522  12.269  1.00  0.00     0.228 A 
HETATM   21  N3  UNL     1      24.916  24.510  13.580  1.00  0.00    -0.317 N 
HETATM   22  F5  UNL     1      24.327  24.038  11.365  1.00  0.00    -0.183 F 
ATOM     23  H3  UNL     1      24.023  24.130  13.894  1.00  0.00     0.170 HD
ENDBRANCH  13  15
ENDBRANCH   1  13
BRANCH   6  24
HETATM   24  C11 UNL     1      22.765  20.082  18.290  1.00  0.00     0.390 C 
HETATM   25  F2  UNL     1      21.849  19.378  17.488  1.00  0.00    -0.209 F 
HETATM   26  F3  UNL     1      22.075  20.377  19.467  1.00  0.00    -0.209 F 
ENDBRANCH   6  24
TORSDOF 3
ENDMDL
MODEL 5
REMARK VINA RESULT: -9.146617454      1.983      7.042
REMARK  3 active torsions:
REMARK  status: ('A' for Active; 'I' for Inactive)
REMARK    1  A    between atoms: C4_5  and  N1_6 
REMARK    2  A    between atoms: N1_6  and  C5_8 
REMARK    3  A    between atoms: C10_13  and  C11_14 
ROOT
HETATM    1  C5  UNL     1      26.936  22.687  16.163  1.00  0.00     0.061 A 
HETATM    2  C6  UNL     1      28.181  23.257  16.317  1.00  0.00     0.032 A 
HETATM    3  C7  UNL     1      28.602  24.226  15.432  1.00  0.00     0.003 A 
HETATM    4  C8  UNL     1      27.797  24.644  14.386  1.00  0.00     0.014 A 
HETATM    5  C9  UNL     1      26.556  24.063  14.248  1.00  0.00     0.008 A 
HETATM    6  C10 UNL     1      25.737  24.448  13.230  1.00  0.00     0.058 A 
HETATM    7  C12 UNL     1      24.468  23.865  13.077  1.00  0.00     0.144 A 
HETATM    8  F4  UNL     1      23.661  24.259  12.058  1.00  0.00    -0.204 F 
HETATM    9  C13 UNL     1      24.098  22.909  13.981  1.00  0.00     0.131 A 
HETATM   10  N2  UNL     1      24.909  22.539  14.975  1.00  0.00    -0.360 N 
ATOM     11  H2  UNL     1      24.599  21.823  15.632  1.00  0.00     0.165 HD
HETATM   12  C14 UNL     1      26.122  23.090  15.128  1.00  0.00     0.070 A 
ENDROOT
BRANCH   1  13
HETATM   13  N1  UNL     1      26.468  21.689  17.053  1.00  0.00    -0.341 N 
ATOM     14  H1  UNL     1      25.564  21.241  16.904  1.00  0.00     0.167 HD
BRANCH  13  15
HETATM   15  C4  UNL     1      27.223  21.354  18.071  1.00  0.00     0.107 A 
HETATM   16  C3  UNL     1      27.066  21.965  19.303  1.00  0.00     0.052 A 
HETATM   17  C2  UNL     1      27.849  21.630  20.392  1.00  0.00     0.051 A 
HETATM   18  C1  UNL     1      28.802  20.661  20.222  1.00  0.00     0.172 A 
HETATM   19  F1  UNL     1      29.580  20.317  21.272  1.00  0.00    -0.201 F 
HETATM   20  C15 UNL     1      28.948  20.060  18.982  1.00  0.00     0.228 A 
HETATM   21  N3  UNL     1      28.170  20.408  17.944  1.00  0.00    -0.317 N 
HETATM   22  F5  UNL     1      29.896  19.109  18.846  1.00  0.00    -0.183 F 
ATOM     23  H3  UNL     1      28.301  19.947  17.044  1.00  0.00     0.170 HD
ENDBRANCH  13  15
ENDBRANCH   1  13
BRANCH   6  24
HETATM   24  C11 UNL     1      26.072  25.470  12.224  1.00  0.00     0.390 C 
HETATM   25  F2  UNL     1      27.245  25.008  11.603  1.00  0.00    -0.209 F 
HETATM   26  F3  UNL     1      26.455  26.605  12.941  1.00  0.00    -0.209 F 
ENDBRANCH   6  24
TORSDOF 3
ENDMDL
