MODEL 1
REMARK VINA RESULT: -5.825267391      0.000      0.000
REMARK  6 active torsions:
REMARK  status: ('A' for Active; 'I' for Inactive)
REMARK    1  A    between atoms: N2_4  and  N3_6 
REMARK    2  A    between atoms: N3_6  and  C1_7 
REMARK    3  A    between atoms: C1_7  and  N4_8 
REMARK    4  A    between atoms: N4_8  and  C2_10 
REMARK    5  A    between atoms: C2_10  and  C3_14 
REMARK    6  A    between atoms: C3_14  and  C4_18 
ROOT
HETATM    1  C2  UNL     1      22.506 -16.106   5.304  1.00  0.00     0.119 C 
HETATM    2  N5  UNL     1      22.531 -16.061   4.033  1.00  0.00    -0.384 N 
ATOM      3  H51 UNL     1      21.943 -16.692   3.488  1.00  0.00     0.157 HD
ATOM      4  H52 UNL     1      23.143 -15.386   3.573  1.00  0.00     0.157 HD
ENDROOT
BRANCH   1   5
HETATM    5  N4  UNL     1      23.314 -15.237   6.053  1.00  0.00    -0.360 N 
ATOM      6  H4  UNL     1      23.340 -14.247   5.810  1.00  0.00     0.162 HD
BRANCH   5   7
HETATM    7  C1  UNL     1      24.103 -15.707   7.150  1.00  0.00     0.259 C 
BRANCH   7   8
HETATM    8  N3  UNL     1      25.227 -14.851   7.366  1.00  0.00    -0.106 NA
BRANCH   8   9
HETATM    9  N2  UNL     1      24.955 -13.530   7.065  1.00  0.00    -0.252 N 
HETATM   10  N1  UNL     1      25.848 -12.714   6.785  1.00  0.00    -0.334 N 
ATOM     11  H12 UNL     1      26.811 -13.047   6.783  1.00  0.00     0.177 HD
ATOM     12  H11 UNL     1      25.647 -11.739   6.563  1.00  0.00     0.177 HD
ATOM     13  H2  UNL     1      23.985 -13.214   7.072  1.00  0.00     0.203 HD
ENDBRANCH   8   9
ENDBRANCH   7   8
ENDBRANCH   5   7
ENDBRANCH   1   5
BRANCH   1  14
HETATM   14  C3  UNL     1      21.639 -17.062   5.957  1.00  0.00     0.056 C 
HETATM   15  N6  UNL     1      21.867 -18.312   5.747  1.00  0.00    -0.399 N 
ATOM     16  H62 UNL     1      22.633 -18.606   5.141  1.00  0.00     0.156 HD
ATOM     17  H61 UNL     1      21.255 -18.986   6.207  1.00  0.00     0.156 HD
BRANCH  14  18
HETATM   18  C4  UNL     1      20.519 -16.633   6.842  1.00  0.00     0.146 C 
HETATM   19  S1  UNL     1      20.675 -17.508   8.416  1.00  0.00    -0.091 SA
ENDBRANCH  14  18
ENDBRANCH   1  14
TORSDOF 6
ENDMDL
MODEL 2
REMARK VINA RESULT: -5.712400194      1.613      2.332
REMARK  6 active torsions:
REMARK  status: ('A' for Active; 'I' for Inactive)
REMARK    1  A    between atoms: N2_4  and  N3_6 
REMARK    2  A    between atoms: N3_6  and  C1_7 
REMARK    3  A    between atoms: C1_7  and  N4_8 
REMARK    4  A    between atoms: N4_8  and  C2_10 
REMARK    5  A    between atoms: C2_10  and  C3_14 
REMARK    6  A    between atoms: C3_14  and  C4_18 
ROOT
HETATM    1  C2  UNL     1      23.534 -15.728   6.738  1.00  0.00     0.119 C 
HETATM    2  N5  UNL     1      23.703 -16.530   7.712  1.00  0.00    -0.384 N 
ATOM      3  H51 UNL     1      23.152 -17.386   7.769  1.00  0.00     0.157 HD
ATOM      4  H52 UNL     1      24.395 -16.302   8.427  1.00  0.00     0.157 HD
ENDROOT
BRANCH   1   5
HETATM    5  N4  UNL     1      24.294 -14.551   6.659  1.00  0.00    -0.360 N 
ATOM      6  H4  UNL     1      23.970 -13.788   6.065  1.00  0.00     0.162 HD
BRANCH   5   7
HETATM    7  C1  UNL     1      25.512 -14.395   7.392  1.00  0.00     0.259 C 
BRANCH   7   8
HETATM    8  N3  UNL     1      26.498 -13.733   6.597  1.00  0.00    -0.106 NA
BRANCH   8   9
HETATM    9  N2  UNL     1      27.389 -13.000   7.357  1.00  0.00    -0.252 N 
HETATM   10  N1  UNL     1      27.817 -13.402   8.451  1.00  0.00    -0.334 N 
ATOM     11  H12 UNL     1      27.489 -14.307   8.786  1.00  0.00     0.177 HD
ATOM     12  H11 UNL     1      28.475 -12.861   9.012  1.00  0.00     0.177 HD
ATOM     13  H2  UNL     1      27.707 -12.096   7.007  1.00  0.00     0.203 HD
ENDBRANCH   8   9
ENDBRANCH   7   8
ENDBRANCH   5   7
ENDBRANCH   1   5
BRANCH   1  14
HETATM   14  C3  UNL     1      22.554 -16.050   5.725  1.00  0.00     0.056 C 
HETATM   15  N6  UNL     1      22.766 -15.613   4.532  1.00  0.00    -0.399 N 
ATOM     16  H62 UNL     1      23.598 -15.062   4.321  1.00  0.00     0.156 HD
ATOM     17  H61 UNL     1      22.074 -15.840   3.817  1.00  0.00     0.156 HD
BRANCH  14  18
HETATM   18  C4  UNL     1      21.338 -16.855   6.033  1.00  0.00     0.146 C 
HETATM   19  S1  UNL     1      20.105 -15.757   6.770  1.00  0.00    -0.091 SA
ENDBRANCH  14  18
ENDBRANCH   1  14
TORSDOF 6
ENDMDL
MODEL 3
REMARK VINA RESULT: -5.701648364      2.242      2.782
REMARK  6 active torsions:
REMARK  status: ('A' for Active; 'I' for Inactive)
REMARK    1  A    between atoms: N2_4  and  N3_6 
REMARK    2  A    between atoms: N3_6  and  C1_7 
REMARK    3  A    between atoms: C1_7  and  N4_8 
REMARK    4  A    between atoms: N4_8  and  C2_10 
REMARK    5  A    between atoms: C2_10  and  C3_14 
REMARK    6  A    between atoms: C3_14  and  C4_18 
ROOT
HETATM    1  C2  UNL     1      23.145 -15.473   7.496  1.00  0.00     0.119 C 
HETATM    2  N5  UNL     1      23.750 -16.473   7.999  1.00  0.00    -0.384 N 
ATOM      3  H51 UNL     1      23.225 -17.306   8.264  1.00  0.00     0.157 HD
ATOM      4  H52 UNL     1      24.761 -16.426   8.130  1.00  0.00     0.157 HD
ENDROOT
BRANCH   1   5
HETATM    5  N4  UNL     1      23.867 -14.326   7.131  1.00  0.00    -0.360 N 
ATOM      6  H4  UNL     1      23.383 -13.559   6.665  1.00  0.00     0.162 HD
BRANCH   5   7
HETATM    7  C1  UNL     1      25.268 -14.208   7.398  1.00  0.00     0.259 C 
BRANCH   7   8
HETATM    8  N3  UNL     1      25.717 -12.874   7.149  1.00  0.00    -0.106 NA
BRANCH   8   9
HETATM    9  N2  UNL     1      27.063 -12.708   7.415  1.00  0.00    -0.252 N 
HETATM   10  N1  UNL     1      27.713 -13.524   8.088  1.00  0.00    -0.334 N 
ATOM     11  H12 UNL     1      27.221 -14.340   8.450  1.00  0.00     0.177 HD
ATOM     12  H11 UNL     1      28.706 -13.402   8.284  1.00  0.00     0.177 HD
ATOM     13  H2  UNL     1      27.540 -11.886   7.044  1.00  0.00     0.203 HD
ENDBRANCH   8   9
ENDBRANCH   7   8
ENDBRANCH   5   7
ENDBRANCH   1   5
BRANCH   1  14
HETATM   14  C3  UNL     1      21.712 -15.538   7.311  1.00  0.00     0.056 C 
HETATM   15  N6  UNL     1      20.978 -14.821   8.089  1.00  0.00    -0.399 N 
ATOM     16  H62 UNL     1      21.402 -14.232   8.806  1.00  0.00     0.156 HD
ATOM     17  H61 UNL     1      19.967 -14.868   7.958  1.00  0.00     0.156 HD
BRANCH  14  18
HETATM   18  C4  UNL     1      21.092 -16.400   6.264  1.00  0.00     0.146 C 
HETATM   19  S1  UNL     1      21.903 -16.045   4.687  1.00  0.00    -0.091 SA
ENDBRANCH  14  18
ENDBRANCH   1  14
TORSDOF 6
ENDMDL
MODEL 4
REMARK VINA RESULT: -5.689053516      1.131      1.342
REMARK  6 active torsions:
REMARK  status: ('A' for Active; 'I' for Inactive)
REMARK    1  A    between atoms: N2_4  and  N3_6 
REMARK    2  A    between atoms: N3_6  and  C1_7 
REMARK    3  A    between atoms: C1_7  and  N4_8 
REMARK    4  A    between atoms: N4_8  and  C2_10 
REMARK    5  A    between atoms: C2_10  and  C3_14 
REMARK    6  A    between atoms: C3_14  and  C4_18 
ROOT
HETATM    1  C2  UNL     1      22.545 -16.227   5.233  1.00  0.00     0.119 C 
HETATM    2  N5  UNL     1      22.531 -16.078   3.970  1.00  0.00    -0.384 N 
ATOM      3  H51 UNL     1      22.043 -16.753   3.382  1.00  0.00     0.157 HD
ATOM      4  H52 UNL     1      23.011 -15.277   3.560  1.00  0.00     0.157 HD
ENDROOT
BRANCH   1   5
HETATM    5  N4  UNL     1      23.216 -15.297   6.042  1.00  0.00    -0.360 N 
ATOM      6  H4  UNL     1      23.138 -14.303   5.829  1.00  0.00     0.162 HD
BRANCH   5   7
HETATM    7  C1  UNL     1      24.008 -15.711   7.160  1.00  0.00     0.259 C 
BRANCH   7   8
HETATM    8  N3  UNL     1      25.147 -14.860   7.313  1.00  0.00    -0.106 NA
BRANCH   8   9
HETATM    9  N2  UNL     1      24.864 -13.537   7.031  1.00  0.00    -0.252 N 
HETATM   10  N1  UNL     1      25.750 -12.710   6.764  1.00  0.00    -0.334 N 
ATOM     11  H12 UNL     1      26.717 -13.035   6.758  1.00  0.00     0.177 HD
ATOM     12  H11 UNL     1      25.542 -11.734   6.557  1.00  0.00     0.177 HD
ATOM     13  H2  UNL     1      23.892 -13.229   7.042  1.00  0.00     0.203 HD
ENDBRANCH   8   9
ENDBRANCH   7   8
ENDBRANCH   5   7
ENDBRANCH   1   5
BRANCH   1  14
HETATM   14  C3  UNL     1      21.865 -17.363   5.815  1.00  0.00     0.056 C 
HETATM   15  N6  UNL     1      20.711 -17.156   6.350  1.00  0.00    -0.399 N 
ATOM     16  H62 UNL     1      20.303 -16.221   6.357  1.00  0.00     0.156 HD
ATOM     17  H61 UNL     1      20.232 -17.957   6.760  1.00  0.00     0.156 HD
BRANCH  14  18
HETATM   18  C4  UNL     1      22.462 -18.729   5.805  1.00  0.00     0.146 C 
HETATM   19  S1  UNL     1      21.779 -19.654   7.200  1.00  0.00    -0.091 SA
ENDBRANCH  14  18
ENDBRANCH   1  14
TORSDOF 6
ENDMDL
MODEL 5
REMARK VINA RESULT: -5.682921188      2.690      3.926
REMARK  6 active torsions:
REMARK  status: ('A' for Active; 'I' for Inactive)
REMARK    1  A    between atoms: N2_4  and  N3_6 
REMARK    2  A    between atoms: N3_6  and  C1_7 
REMARK    3  A    between atoms: C1_7  and  N4_8 
REMARK    4  A    between atoms: N4_8  and  C2_10 
REMARK    5  A    between atoms: C2_10  and  C3_14 
REMARK    6  A    between atoms: C3_14  and  C4_18 
ROOT
HETATM    1  C2  UNL     1      21.994 -16.562   5.373  1.00  0.00     0.119 C 
HETATM    2  N5  UNL     1      21.773 -16.078   4.217  1.00  0.00    -0.384 N 
ATOM      3  H51 UNL     1      21.841 -16.674   3.392  1.00  0.00     0.157 HD
ATOM      4  H52 UNL     1      21.526 -15.092   4.132  1.00  0.00     0.157 HD
ENDROOT
BRANCH   1   5
HETATM    5  N4  UNL     1      21.899 -15.742   6.508  1.00  0.00    -0.360 N 
ATOM      6  H4  UNL     1      22.746 -15.326   6.895  1.00  0.00     0.162 HD
BRANCH   5   7
HETATM    7  C1  UNL     1      20.641 -15.474   7.134  1.00  0.00     0.259 C 
BRANCH   7   8
HETATM    8  N3  UNL     1      19.563 -15.728   6.229  1.00  0.00    -0.106 NA
BRANCH   8   9
HETATM    9  N2  UNL     1      18.397 -15.084   6.597  1.00  0.00    -0.252 N 
HETATM   10  N1  UNL     1      18.312 -13.847   6.657  1.00  0.00    -0.334 N 
ATOM     11  H12 UNL     1      19.140 -13.302   6.422  1.00  0.00     0.177 HD
ATOM     12  H11 UNL     1      17.451 -13.372   6.929  1.00  0.00     0.177 HD
ATOM     13  H2  UNL     1      17.578 -15.646   6.829  1.00  0.00     0.203 HD
ENDBRANCH   8   9
ENDBRANCH   7   8
ENDBRANCH   5   7
ENDBRANCH   1   5
BRANCH   1  14
HETATM   14  C3  UNL     1      22.344 -17.960   5.494  1.00  0.00     0.056 C 
HETATM   15  N6  UNL     1      22.410 -18.654   4.410  1.00  0.00    -0.399 N 
ATOM     16  H62 UNL     1      22.220 -18.222   3.506  1.00  0.00     0.156 HD
ATOM     17  H61 UNL     1      22.657 -19.640   4.497  1.00  0.00     0.156 HD
BRANCH  14  18
HETATM   18  C4  UNL     1      22.621 -18.591   6.816  1.00  0.00     0.146 C 
HETATM   19  S1  UNL     1      21.069 -19.256   7.461  1.00  0.00    -0.091 SA
ENDBRANCH  14  18
ENDBRANCH   1  14
TORSDOF 6
ENDMDL
