MODEL 1
REMARK VINA RESULT: -6.226668865      0.000      0.000
REMARK  6 active torsions:
REMARK  status: ('A' for Active; 'I' for Inactive)
REMARK    1  A    between atoms: N1_1  and  N2_4 
REMARK    2  A    between atoms: N4_9  and  C2_10 
REMARK    3  A    between atoms: N4_9  and  C4_15 
REMARK    4  A    between atoms: C2_10  and  C3_11 
REMARK    5  A    between atoms: C4_15  and  C5_16 
REMARK    6  A    between atoms: C5_16  and  N6_17 
ROOT
HETATM    1  N2  UNL     1      23.985 -13.897   6.788  1.00  0.00    -0.268 N 
ATOM      2  H2  UNL     1      23.381 -13.286   6.238  1.00  0.00     0.189 HD
HETATM    3  C1  UNL     1      23.607 -15.092   7.103  1.00  0.00     0.344 A 
HETATM    4  N3  UNL     1      23.739 -16.354   7.693  1.00  0.00    -0.168 N 
ATOM      5  H3  UNL     1      24.300 -17.008   8.238  1.00  0.00     0.197 HD
HETATM    6  N4  UNL     1      22.561 -16.084   7.009  1.00  0.00     0.086 N 
ENDROOT
BRANCH   6   7
HETATM    7  C2  UNL     1      22.366 -16.566   5.678  1.00  0.00     0.319 C 
BRANCH   7   8
HETATM    8  C3  UNL     1      22.415 -18.037   5.558  1.00  0.00     0.083 C 
HETATM    9  N5  UNL     1      22.431 -18.567   4.397  1.00  0.00    -0.410 N 
ATOM     10  H52 UNL     1      22.409 -17.968   3.572  1.00  0.00     0.155 HD
ATOM     11  H51 UNL     1      22.465 -19.584   4.315  1.00  0.00     0.155 HD
ENDBRANCH   7   8
ENDBRANCH   6   7
BRANCH   6  12
HETATM   12  C4  UNL     1      21.387 -15.693   7.782  1.00  0.00     0.297 C 
BRANCH  12  13
HETATM   13  C5  UNL     1      20.205 -15.539   6.839  1.00  0.00     0.169 C 
BRANCH  13  14
HETATM   14  N6  UNL     1      19.467 -14.365   7.206  1.00  0.00    -0.341 N 
HETATM   15  N7  UNL     1      18.374 -14.098   6.679  1.00  0.00    -0.349 N 
ATOM     16  H72 UNL     1      18.009 -14.736   5.973  1.00  0.00     0.176 HD
ATOM     17  H71 UNL     1      17.849 -13.263   6.940  1.00  0.00     0.176 HD
ATOM     18  H6  UNL     1      19.846 -13.737   7.915  1.00  0.00     0.179 HD
ENDBRANCH  13  14
ENDBRANCH  12  13
ENDBRANCH   6  12
BRANCH   1  19
HETATM   19  N1  UNL     1      25.225 -13.467   7.212  1.00  0.00    -0.342 N 
ATOM     20  H12 UNL     1      25.333 -13.072   8.146  1.00  0.00     0.176 HD
ATOM     21  H11 UNL     1      26.014 -13.555   6.572  1.00  0.00     0.176 HD
ENDBRANCH   1  19
TORSDOF 6
ENDMDL
MODEL 2
REMARK VINA RESULT: -6.154071575      1.145      3.694
REMARK  6 active torsions:
REMARK  status: ('A' for Active; 'I' for Inactive)
REMARK    1  A    between atoms: N1_1  and  N2_4 
REMARK    2  A    between atoms: N4_9  and  C2_10 
REMARK    3  A    between atoms: N4_9  and  C4_15 
REMARK    4  A    between atoms: C2_10  and  C3_11 
REMARK    5  A    between atoms: C4_15  and  C5_16 
REMARK    6  A    between atoms: C5_16  and  N6_17 
ROOT
HETATM    1  N2  UNL     1      22.723 -19.216   6.036  1.00  0.00    -0.268 N 
ATOM      2  H2  UNL     1      23.233 -19.310   6.915  1.00  0.00     0.189 HD
HETATM    3  C1  UNL     1      22.202 -18.085   5.691  1.00  0.00     0.344 A 
HETATM    4  N3  UNL     1      21.492 -17.213   4.859  1.00  0.00    -0.168 N 
ATOM      5  H3  UNL     1      20.974 -17.060   3.994  1.00  0.00     0.197 HD
HETATM    6  N4  UNL     1      21.993 -16.701   6.048  1.00  0.00     0.086 N 
ENDROOT
BRANCH   6   7
HETATM    7  C2  UNL     1      23.202 -15.938   6.060  1.00  0.00     0.319 C 
BRANCH   7   8
HETATM    8  C3  UNL     1      23.280 -14.955   7.159  1.00  0.00     0.083 C 
HETATM    9  N5  UNL     1      24.042 -13.939   7.033  1.00  0.00    -0.410 N 
ATOM     10  H52 UNL     1      24.584 -13.822   6.177  1.00  0.00     0.155 HD
ATOM     11  H51 UNL     1      24.096 -13.259   7.792  1.00  0.00     0.155 HD
ENDBRANCH   7   8
ENDBRANCH   6   7
BRANCH   6  12
HETATM   12  C4  UNL     1      21.086 -16.577   7.184  1.00  0.00     0.297 C 
BRANCH  12  13
HETATM   13  C5  UNL     1      19.713 -16.170   6.675  1.00  0.00     0.169 C 
BRANCH  13  14
HETATM   14  N6  UNL     1      19.497 -14.784   6.978  1.00  0.00    -0.341 N 
HETATM   15  N7  UNL     1      18.435 -14.214   6.676  1.00  0.00    -0.349 N 
ATOM     16  H72 UNL     1      17.713 -14.757   6.203  1.00  0.00     0.176 HD
ATOM     17  H71 UNL     1      18.281 -13.229   6.891  1.00  0.00     0.176 HD
ATOM     18  H6  UNL     1      20.230 -14.256   7.452  1.00  0.00     0.179 HD
ENDBRANCH  13  14
ENDBRANCH  12  13
ENDBRANCH   6  12
BRANCH   1  19
HETATM   19  N1  UNL     1      22.573 -20.294   5.189  1.00  0.00    -0.342 N 
ATOM     20  H12 UNL     1      22.945 -20.250   4.241  1.00  0.00     0.176 HD
ATOM     21  H11 UNL     1      22.087 -21.121   5.537  1.00  0.00     0.176 HD
ENDBRANCH   1  19
TORSDOF 6
ENDMDL
MODEL 3
REMARK VINA RESULT: -6.143928216      1.144      4.593
REMARK  6 active torsions:
REMARK  status: ('A' for Active; 'I' for Inactive)
REMARK    1  A    between atoms: N1_1  and  N2_4 
REMARK    2  A    between atoms: N4_9  and  C2_10 
REMARK    3  A    between atoms: N4_9  and  C4_15 
REMARK    4  A    between atoms: C2_10  and  C3_11 
REMARK    5  A    between atoms: C4_15  and  C5_16 
REMARK    6  A    between atoms: C5_16  and  N6_17 
ROOT
HETATM    1  N2  UNL     1      22.066 -18.215   4.688  1.00  0.00    -0.268 N 
ATOM      2  H2  UNL     1      21.592 -17.667   3.970  1.00  0.00     0.189 HD
HETATM    3  C1  UNL     1      22.405 -17.677   5.814  1.00  0.00     0.344 A 
HETATM    4  N3  UNL     1      22.961 -17.657   7.097  1.00  0.00    -0.168 N 
ATOM      5  H3  UNL     1      23.435 -18.154   7.851  1.00  0.00     0.197 HD
HETATM    6  N4  UNL     1      22.409 -16.477   6.617  1.00  0.00     0.086 N 
ENDROOT
BRANCH   6   7
HETATM    7  C2  UNL     1      21.100 -16.069   7.020  1.00  0.00     0.319 C 
BRANCH   7   8
HETATM    8  C3  UNL     1      21.084 -15.192   8.209  1.00  0.00     0.083 C 
HETATM    9  N5  UNL     1      20.323 -14.167   8.216  1.00  0.00    -0.410 N 
ATOM     10  H52 UNL     1      19.740 -13.970   7.403  1.00  0.00     0.155 HD
ATOM     11  H51 UNL     1      20.312 -13.561   9.037  1.00  0.00     0.155 HD
ENDBRANCH   7   8
ENDBRANCH   6   7
BRANCH   6  12
HETATM   12  C4  UNL     1      23.307 -15.470   6.062  1.00  0.00     0.297 C 
BRANCH  12  13
HETATM   13  C5  UNL     1      24.294 -15.044   7.137  1.00  0.00     0.169 C 
BRANCH  13  14
HETATM   14  N6  UNL     1      24.478 -13.623   7.064  1.00  0.00    -0.341 N 
HETATM   15  N7  UNL     1      25.570 -13.129   6.740  1.00  0.00    -0.349 N 
ATOM     16  H72 UNL     1      26.342 -13.760   6.526  1.00  0.00     0.176 HD
ATOM     17  H71 UNL     1      25.702 -12.118   6.689  1.00  0.00     0.176 HD
ATOM     18  H6  UNL     1      23.695 -13.006   7.282  1.00  0.00     0.179 HD
ENDBRANCH  13  14
ENDBRANCH  12  13
ENDBRANCH   6  12
BRANCH   1  19
HETATM   19  N1  UNL     1      22.362 -19.545   4.481  1.00  0.00    -0.342 N 
ATOM     20  H12 UNL     1      23.334 -19.844   4.407  1.00  0.00     0.176 HD
ATOM     21  H11 UNL     1      21.591 -20.208   4.404  1.00  0.00     0.176 HD
ENDBRANCH   1  19
TORSDOF 6
ENDMDL
MODEL 4
REMARK VINA RESULT: -6.039592559      1.057      3.850
REMARK  6 active torsions:
REMARK  status: ('A' for Active; 'I' for Inactive)
REMARK    1  A    between atoms: N1_1  and  N2_4 
REMARK    2  A    between atoms: N4_9  and  C2_10 
REMARK    3  A    between atoms: N4_9  and  C4_15 
REMARK    4  A    between atoms: C2_10  and  C3_11 
REMARK    5  A    between atoms: C4_15  and  C5_16 
REMARK    6  A    between atoms: C5_16  and  N6_17 
ROOT
HETATM    1  N2  UNL     1      19.350 -15.163   6.999  1.00  0.00    -0.268 N 
ATOM      2  H2  UNL     1      19.112 -15.517   7.926  1.00  0.00     0.189 HD
HETATM    3  C1  UNL     1      20.441 -15.528   6.411  1.00  0.00     0.344 A 
HETATM    4  N3  UNL     1      21.379 -15.556   5.374  1.00  0.00    -0.168 N 
ATOM      5  H3  UNL     1      21.666 -15.236   4.449  1.00  0.00     0.197 HD
HETATM    6  N4  UNL     1      21.641 -16.327   6.498  1.00  0.00     0.086 N 
ENDROOT
BRANCH   6   7
HETATM    7  C2  UNL     1      21.380 -17.732   6.493  1.00  0.00     0.319 C 
BRANCH   7   8
HETATM    8  C3  UNL     1      22.455 -18.541   5.886  1.00  0.00     0.083 C 
HETATM    9  N5  UNL     1      22.367 -18.873   4.657  1.00  0.00    -0.410 N 
ATOM     10  H52 UNL     1      21.556 -18.575   4.114  1.00  0.00     0.155 HD
ATOM     11  H51 UNL     1      23.110 -19.432   4.237  1.00  0.00     0.155 HD
ENDBRANCH   7   8
ENDBRANCH   6   7
BRANCH   6  12
HETATM   12  C4  UNL     1      22.561 -15.798   7.500  1.00  0.00     0.297 C 
BRANCH  12  13
HETATM   13  C5  UNL     1      23.831 -15.335   6.806  1.00  0.00     0.169 C 
BRANCH  13  14
HETATM   14  N6  UNL     1      23.991 -13.926   7.020  1.00  0.00    -0.341 N 
HETATM   15  N7  UNL     1      25.111 -13.389   6.983  1.00  0.00    -0.349 N 
ATOM     16  H72 UNL     1      25.923 -13.977   6.795  1.00  0.00     0.176 HD
ATOM     17  H71 UNL     1      25.225 -12.387   7.136  1.00  0.00     0.176 HD
ATOM     18  H6  UNL     1      23.168 -13.352   7.207  1.00  0.00     0.179 HD
ENDBRANCH  13  14
ENDBRANCH  12  13
ENDBRANCH   6  12
BRANCH   1  19
HETATM   19  N1  UNL     1      18.513 -14.284   6.345  1.00  0.00    -0.342 N 
ATOM     20  H12 UNL     1      17.591 -14.080   6.728  1.00  0.00     0.176 HD
ATOM     21  H11 UNL     1      18.841 -13.854   5.480  1.00  0.00     0.176 HD
ENDBRANCH   1  19
TORSDOF 6
ENDMDL
MODEL 5
REMARK VINA RESULT: -5.942104416      1.066      4.397
REMARK  6 active torsions:
REMARK  status: ('A' for Active; 'I' for Inactive)
REMARK    1  A    between atoms: N1_1  and  N2_4 
REMARK    2  A    between atoms: N4_9  and  C2_10 
REMARK    3  A    between atoms: N4_9  and  C4_15 
REMARK    4  A    between atoms: C2_10  and  C3_11 
REMARK    5  A    between atoms: C4_15  and  C5_16 
REMARK    6  A    between atoms: C5_16  and  N6_17 
ROOT
HETATM    1  N2  UNL     1      19.419 -14.906   6.207  1.00  0.00    -0.268 N 
ATOM      2  H2  UNL     1      19.458 -15.196   5.230  1.00  0.00     0.189 HD
HETATM    3  C1  UNL     1      20.347 -15.253   7.037  1.00  0.00     0.344 A 
HETATM    4  N3  UNL     1      20.987 -15.308   8.280  1.00  0.00    -0.168 N 
ATOM      5  H3  UNL     1      21.001 -15.046   9.266  1.00  0.00     0.197 HD
HETATM    6  N4  UNL     1      21.587 -15.971   7.219  1.00  0.00     0.086 N 
ENDROOT
BRANCH   6   7
HETATM    7  C2  UNL     1      22.683 -15.380   6.518  1.00  0.00     0.319 C 
BRANCH   7   8
HETATM    8  C3  UNL     1      23.697 -14.764   7.397  1.00  0.00     0.083 C 
HETATM    9  N5  UNL     1      24.329 -13.732   6.993  1.00  0.00    -0.410 N 
ATOM     10  H52 UNL     1      24.124 -13.349   6.070  1.00  0.00     0.155 HD
ATOM     11  H51 UNL     1      25.030 -13.306   7.601  1.00  0.00     0.155 HD
ENDBRANCH   7   8
ENDBRANCH   6   7
BRANCH   6  12
HETATM   12  C4  UNL     1      21.389 -17.412   7.104  1.00  0.00     0.297 C 
BRANCH  12  13
HETATM   13  C5  UNL     1      22.501 -17.995   6.248  1.00  0.00     0.169 C 
BRANCH  13  14
HETATM   14  N6  UNL     1      21.995 -18.237   4.928  1.00  0.00    -0.341 N 
HETATM   15  N7  UNL     1      22.459 -19.141   4.213  1.00  0.00    -0.349 N 
ATOM     16  H72 UNL     1      23.215 -19.713   4.588  1.00  0.00     0.176 HD
ATOM     17  H71 UNL     1      22.099 -19.314   3.274  1.00  0.00     0.176 HD
ATOM     18  H6  UNL     1      21.237 -17.656   4.568  1.00  0.00     0.179 HD
ENDBRANCH  13  14
ENDBRANCH  12  13
ENDBRANCH   6  12
BRANCH   1  19
HETATM   19  N1  UNL     1      18.376 -14.134   6.673  1.00  0.00    -0.342 N 
ATOM     20  H12 UNL     1      17.792 -13.619   6.015  1.00  0.00     0.176 HD
ATOM     21  H11 UNL     1      18.212 -14.095   7.679  1.00  0.00     0.176 HD
ENDBRANCH   1  19
TORSDOF 6
ENDMDL
