MODEL 1
REMARK VINA RESULT: -10.456689971      0.000      0.000
REMARK  7 active torsions:
REMARK  status: ('A' for Active; 'I' for Inactive)
REMARK    1  A    between atoms: C2_2  and  C4_4 
REMARK    2  A    between atoms: C2_2  and  C8_13 
REMARK    3  A    between atoms: C4_4  and  N1_5 
REMARK    4  A    between atoms: N1_5  and  C5_8 
REMARK    5  A    between atoms: C5_8  and  C6_9 
REMARK    6  A    between atoms: C6_9  and  C7_10 
REMARK    7  A    between atoms: C14_20  and  O3_22 
ROOT
HETATM    1  C8  UNL     1     -24.121   9.044  -2.526  1.00  0.00     0.142 C 
HETATM    2  O2  UNL     1     -24.940  10.128  -2.269  1.00  0.00    -0.378 OA
HETATM    3  C9  UNL     1     -25.739   9.727  -3.317  1.00  0.00     0.137 C 
HETATM    4  C10 UNL     1     -25.439  10.474  -4.591  1.00  0.00     0.020 C 
HETATM    5  C11 UNL     1     -26.037  11.827  -4.569  1.00  0.00     0.008 C 
HETATM    6  C12 UNL     1     -26.265  12.447  -5.892  1.00  0.00     0.009 C 
HETATM    7  C13 UNL     1     -25.748  11.686  -7.078  1.00  0.00     0.028 C 
HETATM    8  C14 UNL     1     -26.475  12.255  -8.280  1.00  0.00     0.059 C 
HETATM    9  C15 UNL     1     -25.595  12.437  -9.482  1.00  0.00     0.046 C 
HETATM   10  C16 UNL     1     -27.627  11.321  -8.509  1.00  0.00     0.038 C 
HETATM   11  C17 UNL     1     -27.675  10.392  -7.310  1.00  0.00     0.013 C 
HETATM   12  C18 UNL     1     -26.176  10.261  -6.998  1.00  0.00    -0.034 C 
HETATM   13  C19 UNL     1     -25.635   9.405  -8.122  1.00  0.00     0.016 C 
HETATM   14  C20 UNL     1     -25.920   9.578  -5.712  1.00  0.00     0.001 C 
HETATM   15  C21 UNL     1     -24.873   8.489  -5.767  1.00  0.00     0.007 C 
HETATM   16  C22 UNL     1     -24.850   7.682  -4.534  1.00  0.00     0.015 C 
HETATM   17  C23 UNL     1     -25.201   8.348  -3.245  1.00  0.00     0.009 C 
HETATM   18  C24 UNL     1     -26.165   7.475  -2.481  1.00  0.00     0.020 C 
ENDROOT
BRANCH   1  19
HETATM   19  C2  UNL     1     -23.446   8.487  -1.343  1.00  0.00     0.003 C 
HETATM   20  C1  UNL     1     -23.492   7.004  -1.156  1.00  0.00     0.019 C 
HETATM   21  C3  UNL     1     -22.026   9.029  -1.246  1.00  0.00     0.019 C 
BRANCH  19  22
HETATM   22  C4  UNL     1     -24.156   9.063  -0.110  1.00  0.00     0.243 C 
BRANCH  22  23
HETATM   23  N1  UNL     1     -23.375   8.984   1.081  1.00  0.00    -0.074 N 
ATOM     24  H12 UNL     1     -22.497   8.489   0.920  1.00  0.00     0.277 HD
ATOM     25  H11 UNL     1     -22.997   9.895   1.342  1.00  0.00     0.277 HD
BRANCH  23  26
HETATM   26  C5  UNL     1     -24.129   8.389   2.169  1.00  0.00     0.241 C 
BRANCH  26  27
HETATM   27  C6  UNL     1     -25.568   8.122   1.802  1.00  0.00     0.127 C 
BRANCH  27  28
HETATM   28  C7  UNL     1     -25.897   6.725   2.127  1.00  0.00     0.232 C 
HETATM   29  N2  UNL     1     -25.867   6.299   3.478  1.00  0.00    -0.062 NA
HETATM   30  O1  UNL     1     -26.199   5.920   1.229  1.00  0.00    -0.277 OA
ENDBRANCH  27  28
ENDBRANCH  26  27
ENDBRANCH  23  26
ENDBRANCH  22  23
ENDBRANCH  19  22
ENDBRANCH   1  19
BRANCH   8  31
HETATM   31  O3  UNL     1     -26.993  13.537  -7.981  1.00  0.00    -0.390 OA
ATOM     32  H3  UNL     1     -26.318  14.198  -8.082  1.00  0.00     0.210 HD
ENDBRANCH   8  31
TORSDOF 7
ENDMDL
MODEL 2
REMARK VINA RESULT: -9.393438348      1.653      2.945
REMARK  7 active torsions:
REMARK  status: ('A' for Active; 'I' for Inactive)
REMARK    1  A    between atoms: C2_2  and  C4_4 
REMARK    2  A    between atoms: C2_2  and  C8_13 
REMARK    3  A    between atoms: C4_4  and  N1_5 
REMARK    4  A    between atoms: N1_5  and  C5_8 
REMARK    5  A    between atoms: C5_8  and  C6_9 
REMARK    6  A    between atoms: C6_9  and  C7_10 
REMARK    7  A    between atoms: C14_20  and  O3_22 
ROOT
HETATM    1  C8  UNL     1     -25.567   7.178  -3.087  1.00  0.00     0.142 C 
HETATM    2  O2  UNL     1     -24.784   6.763  -4.150  1.00  0.00    -0.378 OA
HETATM    3  C9  UNL     1     -24.580   8.086  -4.469  1.00  0.00     0.137 C 
HETATM    4  C10 UNL     1     -25.502   8.568  -5.559  1.00  0.00     0.020 C 
HETATM    5  C11 UNL     1     -25.042   8.109  -6.889  1.00  0.00     0.008 C 
HETATM    6  C12 UNL     1     -25.522   8.902  -8.040  1.00  0.00     0.009 C 
HETATM    7  C13 UNL     1     -26.512   9.987  -7.731  1.00  0.00     0.028 C 
HETATM    8  C14 UNL     1     -26.496  10.913  -8.931  1.00  0.00     0.059 C 
HETATM    9  C15 UNL     1     -27.859  11.391  -9.338  1.00  0.00     0.046 C 
HETATM   10  C16 UNL     1     -25.555  12.018  -8.550  1.00  0.00     0.038 C 
HETATM   11  C17 UNL     1     -24.879  11.585  -7.262  1.00  0.00     0.013 C 
HETATM   12  C18 UNL     1     -26.026  10.814  -6.591  1.00  0.00    -0.034 C 
HETATM   13  C19 UNL     1     -27.001  11.889  -6.166  1.00  0.00     0.016 C 
HETATM   14  C20 UNL     1     -25.584  10.069  -5.392  1.00  0.00     0.001 C 
HETATM   15  C21 UNL     1     -26.466  10.241  -4.176  1.00  0.00     0.007 C 
HETATM   16  C22 UNL     1     -25.841   9.693  -2.959  1.00  0.00     0.015 C 
HETATM   17  C23 UNL     1     -24.940   8.511  -3.095  1.00  0.00     0.009 C 
HETATM   18  C24 UNL     1     -23.682   8.749  -2.299  1.00  0.00     0.020 C 
ENDROOT
BRANCH   1  19
HETATM   19  C2  UNL     1     -25.547   6.281  -1.920  1.00  0.00     0.003 C 
HETATM   20  C1  UNL     1     -26.239   4.962  -2.054  1.00  0.00     0.019 C 
HETATM   21  C3  UNL     1     -24.124   6.127  -1.401  1.00  0.00     0.019 C 
BRANCH  19  22
HETATM   22  C4  UNL     1     -26.288   7.003  -0.787  1.00  0.00     0.243 C 
BRANCH  22  23
HETATM   23  N1  UNL     1     -25.773   6.700   0.509  1.00  0.00    -0.074 N 
ATOM     24  H12 UNL     1     -26.112   5.799   0.845  1.00  0.00     0.277 HD
ATOM     25  H11 UNL     1     -24.775   6.491   0.475  1.00  0.00     0.277 HD
BRANCH  23  26
HETATM   26  C5  UNL     1     -26.062   7.763   1.453  1.00  0.00     0.241 C 
BRANCH  26  27
HETATM   27  C6  UNL     1     -25.072   8.899   1.373  1.00  0.00     0.127 C 
BRANCH  27  28
HETATM   28  C7  UNL     1     -23.733   8.398   1.724  1.00  0.00     0.232 C 
HETATM   29  N2  UNL     1     -22.614   8.803   0.956  1.00  0.00    -0.062 NA
HETATM   30  O1  UNL     1     -23.580   7.624   2.685  1.00  0.00    -0.277 OA
ENDBRANCH  27  28
ENDBRANCH  26  27
ENDBRANCH  23  26
ENDBRANCH  22  23
ENDBRANCH  19  22
ENDBRANCH   1  19
BRANCH   8  31
HETATM   31  O3  UNL     1     -25.965  10.245 -10.060  1.00  0.00    -0.390 OA
ATOM     32  H3  UNL     1     -26.075  10.777 -10.840  1.00  0.00     0.210 HD
ENDBRANCH   8  31
TORSDOF 7
ENDMDL
MODEL 3
REMARK VINA RESULT: -9.133778720      3.136      4.400
REMARK  7 active torsions:
REMARK  status: ('A' for Active; 'I' for Inactive)
REMARK    1  A    between atoms: C2_2  and  C4_4 
REMARK    2  A    between atoms: C2_2  and  C8_13 
REMARK    3  A    between atoms: C4_4  and  N1_5 
REMARK    4  A    between atoms: N1_5  and  C5_8 
REMARK    5  A    between atoms: C5_8  and  C6_9 
REMARK    6  A    between atoms: C6_9  and  C7_10 
REMARK    7  A    between atoms: C14_20  and  O3_22 
ROOT
HETATM    1  C8  UNL     1     -25.539   7.213  -3.170  1.00  0.00     0.142 C 
HETATM    2  O2  UNL     1     -24.728   6.803  -4.213  1.00  0.00    -0.378 OA
HETATM    3  C9  UNL     1     -24.568   8.126  -4.561  1.00  0.00     0.137 C 
HETATM    4  C10 UNL     1     -25.494   8.547  -5.673  1.00  0.00     0.020 C 
HETATM    5  C11 UNL     1     -24.999   8.075  -6.986  1.00  0.00     0.008 C 
HETATM    6  C12 UNL     1     -25.493   8.823  -8.161  1.00  0.00     0.009 C 
HETATM    7  C13 UNL     1     -26.527   9.877  -7.889  1.00  0.00     0.028 C 
HETATM    8  C14 UNL     1     -26.529  10.775  -9.110  1.00  0.00     0.059 C 
HETATM    9  C15 UNL     1     -27.903  11.192  -9.545  1.00  0.00     0.046 C 
HETATM   10  C16 UNL     1     -25.635  11.923  -8.745  1.00  0.00     0.038 C 
HETATM   11  C17 UNL     1     -24.961  11.546  -7.438  1.00  0.00     0.013 C 
HETATM   12  C18 UNL     1     -26.086  10.747  -6.763  1.00  0.00    -0.034 C 
HETATM   13  C19 UNL     1     -27.106  11.794  -6.376  1.00  0.00     0.016 C 
HETATM   14  C20 UNL     1     -25.633  10.048  -5.542  1.00  0.00     0.001 C 
HETATM   15  C21 UNL     1     -26.536  10.214  -4.341  1.00  0.00     0.007 C 
HETATM   16  C22 UNL     1     -25.908   9.719  -3.104  1.00  0.00     0.015 C 
HETATM   17  C23 UNL     1     -24.962   8.567  -3.202  1.00  0.00     0.009 C 
HETATM   18  C24 UNL     1     -23.724   8.872  -2.396  1.00  0.00     0.020 C 
ENDROOT
BRANCH   1  19
HETATM   19  C2  UNL     1     -25.501   6.344  -1.982  1.00  0.00     0.003 C 
HETATM   20  C1  UNL     1     -24.157   5.998  -1.424  1.00  0.00     0.019 C 
HETATM   21  C3  UNL     1     -26.442   6.879  -0.911  1.00  0.00     0.019 C 
BRANCH  19  22
HETATM   22  C4  UNL     1     -26.117   5.000  -2.390  1.00  0.00     0.243 C 
BRANCH  22  23
HETATM   23  N1  UNL     1     -25.157   4.058  -2.867  1.00  0.00    -0.074 N 
ATOM     24  H12 UNL     1     -24.258   4.503  -3.054  1.00  0.00     0.277 HD
ATOM     25  H11 UNL     1     -24.865   3.416  -2.131  1.00  0.00     0.277 HD
BRANCH  23  26
HETATM   26  C5  UNL     1     -25.650   3.345  -4.031  1.00  0.00     0.241 C 
BRANCH  26  27
HETATM   27  C6  UNL     1     -24.874   2.083  -4.312  1.00  0.00     0.127 C 
BRANCH  27  28
HETATM   28  C7  UNL     1     -23.922   1.847  -3.215  1.00  0.00     0.232 C 
HETATM   29  N2  UNL     1     -22.598   2.338  -3.324  1.00  0.00    -0.062 NA
HETATM   30  O1  UNL     1     -24.271   1.221  -2.199  1.00  0.00    -0.277 OA
ENDBRANCH  27  28
ENDBRANCH  26  27
ENDBRANCH  23  26
ENDBRANCH  22  23
ENDBRANCH  19  22
ENDBRANCH   1  19
BRANCH   8  31
HETATM   31  O3  UNL     1     -25.959  10.102 -10.217  1.00  0.00    -0.390 OA
ATOM     32  H3  UNL     1     -25.873  10.694 -10.956  1.00  0.00     0.210 HD
ENDBRANCH   8  31
TORSDOF 7
ENDMDL
MODEL 4
REMARK VINA RESULT: -9.022992017      4.098      8.630
REMARK  7 active torsions:
REMARK  status: ('A' for Active; 'I' for Inactive)
REMARK    1  A    between atoms: C2_2  and  C4_4 
REMARK    2  A    between atoms: C2_2  and  C8_13 
REMARK    3  A    between atoms: C4_4  and  N1_5 
REMARK    4  A    between atoms: N1_5  and  C5_8 
REMARK    5  A    between atoms: C5_8  and  C6_9 
REMARK    6  A    between atoms: C6_9  and  C7_10 
REMARK    7  A    between atoms: C14_20  and  O3_22 
ROOT
HETATM    1  C8  UNL     1     -25.513  10.939  -7.569  1.00  0.00     0.142 C 
HETATM    2  O2  UNL     1     -25.626   9.578  -7.794  1.00  0.00    -0.378 OA
HETATM    3  C9  UNL     1     -26.184   9.454  -6.541  1.00  0.00     0.137 C 
HETATM    4  C10 UNL     1     -25.180   9.025  -5.502  1.00  0.00     0.020 C 
HETATM    5  C11 UNL     1     -24.905   7.574  -5.594  1.00  0.00     0.008 C 
HETATM    6  C12 UNL     1     -24.373   6.945  -4.366  1.00  0.00     0.009 C 
HETATM    7  C13 UNL     1     -24.058   7.873  -3.229  1.00  0.00     0.028 C 
HETATM    8  C14 UNL     1     -23.979   6.998  -1.994  1.00  0.00     0.059 C 
HETATM    9  C15 UNL     1     -22.854   7.363  -1.071  1.00  0.00     0.046 C 
HETATM   10  C16 UNL     1     -25.337   7.100  -1.363  1.00  0.00     0.038 C 
HETATM   11  C17 UNL     1     -26.223   7.825  -2.360  1.00  0.00     0.013 C 
HETATM   12  C18 UNL     1     -25.206   8.791  -2.986  1.00  0.00    -0.034 C 
HETATM   13  C19 UNL     1     -24.943   9.810  -1.900  1.00  0.00     0.016 C 
HETATM   14  C20 UNL     1     -25.742   9.488  -4.175  1.00  0.00     0.001 C 
HETATM   15  C21 UNL     1     -25.509  10.982  -4.196  1.00  0.00     0.007 C 
HETATM   16  C22 UNL     1     -26.281  11.647  -5.261  1.00  0.00     0.015 C 
HETATM   17  C23 UNL     1     -26.546  10.891  -6.521  1.00  0.00     0.009 C 
HETATM   18  C24 UNL     1     -27.999  11.045  -6.896  1.00  0.00     0.020 C 
ENDROOT
BRANCH   1  19
HETATM   19  C2  UNL     1     -25.621  11.774  -8.776  1.00  0.00     0.003 C 
HETATM   20  C1  UNL     1     -24.471  12.674  -9.096  1.00  0.00     0.019 C 
HETATM   21  C3  UNL     1     -26.024  10.919  -9.970  1.00  0.00     0.019 C 
BRANCH  19  22
HETATM   22  C4  UNL     1     -26.814  12.716  -8.564  1.00  0.00     0.243 C 
BRANCH  22  23
HETATM   23  N1  UNL     1     -27.423  13.139  -9.782  1.00  0.00    -0.074 N 
ATOM     24  H12 UNL     1     -26.900  12.813 -10.595  1.00  0.00     0.277 HD
ATOM     25  H11 UNL     1     -28.301  12.649  -9.952  1.00  0.00     0.277 HD
BRANCH  23  26
HETATM   26  C5  UNL     1     -27.605  14.579  -9.809  1.00  0.00     0.241 C 
BRANCH  26  27
HETATM   27  C6  UNL     1     -26.962  15.269  -8.632  1.00  0.00     0.127 C 
BRANCH  27  28
HETATM   28  C7  UNL     1     -28.012  15.846  -7.778  1.00  0.00     0.232 C 
HETATM   29  N2  UNL     1     -28.947  16.750  -8.339  1.00  0.00    -0.062 NA
HETATM   30  O1  UNL     1     -28.084  15.547  -6.574  1.00  0.00    -0.277 OA
ENDBRANCH  27  28
ENDBRANCH  26  27
ENDBRANCH  23  26
ENDBRANCH  22  23
ENDBRANCH  19  22
ENDBRANCH   1  19
BRANCH   8  31
HETATM   31  O3  UNL     1     -23.759   5.648  -2.360  1.00  0.00    -0.390 OA
ATOM     32  H3  UNL     1     -24.564   5.149  -2.281  1.00  0.00     0.210 HD
ENDBRANCH   8  31
TORSDOF 7
ENDMDL
MODEL 5
REMARK VINA RESULT: -8.940048522      3.104      4.226
REMARK  7 active torsions:
REMARK  status: ('A' for Active; 'I' for Inactive)
REMARK    1  A    between atoms: C2_2  and  C4_4 
REMARK    2  A    between atoms: C2_2  and  C8_13 
REMARK    3  A    between atoms: C4_4  and  N1_5 
REMARK    4  A    between atoms: N1_5  and  C5_8 
REMARK    5  A    between atoms: C5_8  and  C6_9 
REMARK    6  A    between atoms: C6_9  and  C7_10 
REMARK    7  A    between atoms: C14_20  and  O3_22 
ROOT
HETATM    1  C8  UNL     1     -25.454   6.796  -2.854  1.00  0.00     0.142 C 
HETATM    2  O2  UNL     1     -24.698   6.426  -3.952  1.00  0.00    -0.378 OA
HETATM    3  C9  UNL     1     -24.468   7.762  -4.197  1.00  0.00     0.137 C 
HETATM    4  C10 UNL     1     -25.397   8.325  -5.242  1.00  0.00     0.020 C 
HETATM    5  C11 UNL     1     -24.968   7.935  -6.603  1.00  0.00     0.008 C 
HETATM    6  C12 UNL     1     -25.447   8.804  -7.698  1.00  0.00     0.009 C 
HETATM    7  C13 UNL     1     -26.408   9.890  -7.310  1.00  0.00     0.028 C 
HETATM    8  C14 UNL     1     -26.390  10.884  -8.454  1.00  0.00     0.059 C 
HETATM    9  C15 UNL     1     -27.748  11.414  -8.810  1.00  0.00     0.046 C 
HETATM   10  C16 UNL     1     -25.419  11.945  -8.026  1.00  0.00     0.038 C 
HETATM   11  C17 UNL     1     -24.733  11.424  -6.776  1.00  0.00     0.013 C 
HETATM   12  C18 UNL     1     -25.886  10.639  -6.132  1.00  0.00    -0.034 C 
HETATM   13  C19 UNL     1     -26.830  11.708  -5.630  1.00  0.00     0.016 C 
HETATM   14  C20 UNL     1     -25.442   9.816  -4.986  1.00  0.00     0.001 C 
HETATM   15  C21 UNL     1     -26.301   9.936  -3.748  1.00  0.00     0.007 C 
HETATM   16  C22 UNL     1     -25.670   9.304  -2.575  1.00  0.00     0.015 C 
HETATM   17  C23 UNL     1     -24.798   8.112  -2.795  1.00  0.00     0.009 C 
HETATM   18  C24 UNL     1     -23.522   8.278  -2.008  1.00  0.00     0.020 C 
ENDROOT
BRANCH   1  19
HETATM   19  C2  UNL     1     -25.436   5.832  -1.741  1.00  0.00     0.003 C 
HETATM   20  C1  UNL     1     -25.260   6.376  -0.360  1.00  0.00     0.019 C 
HETATM   21  C3  UNL     1     -26.636   4.899  -1.837  1.00  0.00     0.019 C 
BRANCH  19  22
HETATM   22  C4  UNL     1     -24.225   4.915  -1.962  1.00  0.00     0.243 C 
BRANCH  22  23
HETATM   23  N1  UNL     1     -24.494   3.544  -1.673  1.00  0.00    -0.074 N 
ATOM     24  H12 UNL     1     -24.127   3.276  -0.759  1.00  0.00     0.277 HD
ATOM     25  H11 UNL     1     -25.486   3.386  -1.497  1.00  0.00     0.277 HD
BRANCH  23  26
HETATM   26  C5  UNL     1     -23.994   2.676  -2.723  1.00  0.00     0.241 C 
BRANCH  26  27
HETATM   27  C6  UNL     1     -24.725   1.357  -2.784  1.00  0.00     0.127 C 
BRANCH  27  28
HETATM   28  C7  UNL     1     -25.248   1.032  -1.448  1.00  0.00     0.232 C 
HETATM   29  N2  UNL     1     -26.629   1.201  -1.181  1.00  0.00    -0.062 NA
HETATM   30  O1  UNL     1     -24.491   0.614  -0.556  1.00  0.00    -0.277 OA
ENDBRANCH  27  28
ENDBRANCH  26  27
ENDBRANCH  23  26
ENDBRANCH  22  23
ENDBRANCH  19  22
ENDBRANCH   1  19
BRANCH   8  31
HETATM   31  O3  UNL     1     -25.892  10.273  -9.629  1.00  0.00    -0.390 OA
ATOM     32  H3  UNL     1     -25.597  10.933 -10.246  1.00  0.00     0.210 HD
ENDBRANCH   8  31
TORSDOF 7
ENDMDL
