MODEL 1
REMARK VINA RESULT: -8.337210369      0.000      0.000
REMARK  13 active torsions:
REMARK  status: ('A' for Active; 'I' for Inactive)
REMARK    1  A    between atoms: C2_2  and  C4_4 
REMARK    2  A    between atoms: C4_4  and  C5_5 
REMARK    3  A    between atoms: C5_5  and  C6_6 
REMARK    4  A    between atoms: C5_5  and  N4_28 
REMARK       I    between atoms: C6_6  and  N1_8 
REMARK    5  A    between atoms: C10_12  and  C11_13 
REMARK       I    between atoms: C11_13  and  N2_15 
REMARK    6  A    between atoms: N2_15  and  C12_17 
REMARK    7  A    between atoms: C12_17  and  C13_18 
REMARK    8  A    between atoms: C12_17  and  C16_25 
REMARK       I    between atoms: C13_18  and  N3_20 
REMARK    9  A    between atoms: N3_20  and  C14_22 
REMARK   10  A    between atoms: C14_22  and  C15_23 
REMARK   11  A    between atoms: C20_30  and  C21_31 
REMARK       I    between atoms: C21_31  and  N5_33 
REMARK   12  A    between atoms: N5_33  and  C22_35 
REMARK   13  A    between atoms: C26_39  and  C27_40 
ROOT
HETATM    1  C5  UNL     1      20.684  12.643  26.721  1.00  0.00     0.179 C 
ENDROOT
BRANCH   1   2
HETATM    2  C4  UNL     1      20.390  11.555  27.676  1.00  0.00     0.039 C 
BRANCH   2   3
HETATM    3  C2  UNL     1      20.384  11.759  29.119  1.00  0.00    -0.020 C 
HETATM    4  C1  UNL     1      19.077  11.892  29.819  1.00  0.00     0.009 C 
HETATM    5  C3  UNL     1      21.116  13.097  29.362  1.00  0.00     0.009 C 
ENDBRANCH   2   3
ENDBRANCH   1   2
BRANCH   1   6
HETATM    6  C6  UNL     1      21.832  12.422  25.808  1.00  0.00     0.243 C 
HETATM    7  O1  UNL     1      21.872  11.349  25.157  1.00  0.00    -0.271 OA
HETATM    8  N1  UNL     1      22.892  13.336  25.604  1.00  0.00    -0.337 N 
HETATM    9  C7  UNL     1      23.032  14.661  26.225  1.00  0.00     0.127 C 
HETATM   10  C10 UNL     1      24.036  13.127  24.730  1.00  0.00     0.179 C 
HETATM   11  C8  UNL     1      24.529  14.902  26.276  1.00  0.00     0.022 C 
HETATM   12  C9  UNL     1      25.000  14.237  25.013  1.00  0.00     0.037 C 
BRANCH  10  13
HETATM   13  C11 UNL     1      23.645  13.067  23.314  1.00  0.00     0.241 C 
HETATM   14  O2  UNL     1      22.772  13.847  22.880  1.00  0.00    -0.271 OA
HETATM   15  N2  UNL     1      24.240  12.140  22.435  1.00  0.00    -0.346 N 
ATOM     16  H2  UNL     1      24.951  11.506  22.799  1.00  0.00     0.163 HD
BRANCH  15  17
HETATM   17  C12 UNL     1      23.874  12.052  21.008  1.00  0.00     0.180 C 
BRANCH  17  18
HETATM   18  C13 UNL     1      25.069  11.730  20.221  1.00  0.00     0.240 C 
HETATM   19  O3  UNL     1      25.197  12.336  19.094  1.00  0.00    -0.271 OA
HETATM   20  N3  UNL     1      26.055  10.817  20.612  1.00  0.00    -0.359 N 
ATOM     21  H3  UNL     1      25.949  10.334  21.504  1.00  0.00     0.162 HD
BRANCH  20  22
HETATM   22  C14 UNL     1      27.221  10.530  19.799  1.00  0.00     0.133 C 
BRANCH  22  23
HETATM   23  C15 UNL     1      28.285   9.753  20.495  1.00  0.00     0.104 C 
HETATM   24 BR1  UNL     1      29.603  10.943  21.289  1.00  0.00    -0.095 Br
ENDBRANCH  22  23
ENDBRANCH  20  22
ENDBRANCH  17  18
BRANCH  17  25
HETATM   25  C16 UNL     1      22.833  10.961  20.866  1.00  0.00     0.009 C 
HETATM   26  C17 UNL     1      23.080   9.814  21.811  1.00  0.00     0.012 C 
HETATM   27  C18 UNL     1      22.675  10.464  19.470  1.00  0.00     0.012 C 
ENDBRANCH  17  25
ENDBRANCH  15  17
ENDBRANCH  10  13
ENDBRANCH   1   6
BRANCH   1  28
HETATM   28  N4  UNL     1      19.468  12.924  25.902  1.00  0.00    -0.338 N 
HETATM   29  C19 UNL     1      19.372  12.523  24.525  1.00  0.00     0.141 C 
HETATM   30  C20 UNL     1      17.977  12.336  24.012  1.00  0.00     0.097 C 
HETATM   31  C25 UNL     1      17.065  13.469  24.365  1.00  0.00     0.030 C 
HETATM   32  C26 UNL     1      17.040  13.681  25.836  1.00  0.00     0.082 C 
HETATM   33  C30 UNL     1      18.358  13.609  26.473  1.00  0.00     0.225 C 
HETATM   34  O5  UNL     1      18.524  14.176  27.575  1.00  0.00    -0.273 OA
BRANCH  30  35
HETATM   35  C21 UNL     1      17.373  11.027  24.184  1.00  0.00     0.223 C 
HETATM   36  O4  UNL     1      17.988  10.209  24.977  1.00  0.00    -0.273 OA
HETATM   37  N5  UNL     1      16.209  10.500  23.615  1.00  0.00    -0.357 N 
ATOM     38  H5  UNL     1      15.670  11.087  22.978  1.00  0.00     0.162 HD
BRANCH  37  39
HETATM   39  C22 UNL     1      15.732   9.158  23.890  1.00  0.00     0.076 C 
HETATM   40  C23 UNL     1      14.903   9.086  25.134  1.00  0.00     0.032 C 
HETATM   41  C24 UNL     1      14.979   8.652  22.653  1.00  0.00     0.032 C 
ENDBRANCH  37  39
ENDBRANCH  30  35
BRANCH  32  42
HETATM   42  C27 UNL     1      16.334  14.996  26.082  1.00  0.00    -0.010 C 
HETATM   43  C28 UNL     1      14.852  14.930  25.987  1.00  0.00     0.010 C 
HETATM   44  C29 UNL     1      16.850  15.989  25.064  1.00  0.00     0.010 C 
ENDBRANCH  32  42
ENDBRANCH   1  28
TORSDOF 13
ENDMDL
MODEL 2
REMARK VINA RESULT: -8.318174700      4.255     10.345
REMARK  13 active torsions:
REMARK  status: ('A' for Active; 'I' for Inactive)
REMARK    1  A    between atoms: C2_2  and  C4_4 
REMARK    2  A    between atoms: C4_4  and  C5_5 
REMARK    3  A    between atoms: C5_5  and  C6_6 
REMARK    4  A    between atoms: C5_5  and  N4_28 
REMARK       I    between atoms: C6_6  and  N1_8 
REMARK    5  A    between atoms: C10_12  and  C11_13 
REMARK       I    between atoms: C11_13  and  N2_15 
REMARK    6  A    between atoms: N2_15  and  C12_17 
REMARK    7  A    between atoms: C12_17  and  C13_18 
REMARK    8  A    between atoms: C12_17  and  C16_25 
REMARK       I    between atoms: C13_18  and  N3_20 
REMARK    9  A    between atoms: N3_20  and  C14_22 
REMARK   10  A    between atoms: C14_22  and  C15_23 
REMARK   11  A    between atoms: C20_30  and  C21_31 
REMARK       I    between atoms: C21_31  and  N5_33 
REMARK   12  A    between atoms: N5_33  and  C22_35 
REMARK   13  A    between atoms: C26_39  and  C27_40 
ROOT
HETATM    1  C5  UNL     1      25.741  13.732  22.659  1.00  0.00     0.179 C 
ENDROOT
BRANCH   1   2
HETATM    2  C4  UNL     1      26.587  12.949  21.736  1.00  0.00     0.039 C 
BRANCH   2   3
HETATM    3  C2  UNL     1      26.621  13.201  20.300  1.00  0.00    -0.020 C 
HETATM    4  C1  UNL     1      26.596  12.042  19.368  1.00  0.00     0.009 C 
HETATM    5  C3  UNL     1      27.961  13.919  20.026  1.00  0.00     0.009 C 
ENDBRANCH   2   3
ENDBRANCH   1   2
BRANCH   1   6
HETATM    6  C6  UNL     1      24.742  12.965  23.443  1.00  0.00     0.243 C 
HETATM    7  O1  UNL     1      24.771  13.062  24.695  1.00  0.00    -0.271 OA
HETATM    8  N1  UNL     1      23.744  12.130  22.886  1.00  0.00    -0.337 N 
HETATM    9  C7  UNL     1      23.500  11.899  21.456  1.00  0.00     0.127 C 
HETATM   10  C10 UNL     1      22.772  11.354  23.640  1.00  0.00     0.179 C 
HETATM   11  C8  UNL     1      22.899  10.508  21.392  1.00  0.00     0.022 C 
HETATM   12  C9  UNL     1      22.089  10.455  22.657  1.00  0.00     0.037 C 
BRANCH  10  13
HETATM   13  C11 UNL     1      21.827  12.212  24.369  1.00  0.00     0.241 C 
HETATM   14  O2  UNL     1      21.387  13.248  23.830  1.00  0.00    -0.271 OA
HETATM   15  N2  UNL     1      21.409  11.883  25.675  1.00  0.00    -0.346 N 
ATOM     16  H2  UNL     1      21.774  11.036  26.109  1.00  0.00     0.163 HD
BRANCH  15  17
HETATM   17  C12 UNL     1      20.461  12.719  26.438  1.00  0.00     0.180 C 
BRANCH  17  18
HETATM   18  C13 UNL     1      19.090  12.353  26.072  1.00  0.00     0.240 C 
HETATM   19  O3  UNL     1      18.345  13.295  25.612  1.00  0.00    -0.271 OA
HETATM   20  N3  UNL     1      18.551  11.068  26.196  1.00  0.00    -0.359 N 
ATOM     21  H3  UNL     1      19.142  10.322  26.565  1.00  0.00     0.162 HD
BRANCH  20  22
HETATM   22  C14 UNL     1      17.186  10.753  25.820  1.00  0.00     0.133 C 
BRANCH  22  23
HETATM   23  C15 UNL     1      17.053  10.017  24.531  1.00  0.00     0.104 C 
HETATM   24 BR1  UNL     1      15.452   8.911  24.528  1.00  0.00    -0.095 Br
ENDBRANCH  22  23
ENDBRANCH  20  22
ENDBRANCH  17  18
BRANCH  17  25
HETATM   25  C16 UNL     1      20.705  12.464  27.912  1.00  0.00     0.009 C 
HETATM   26  C17 UNL     1      19.824  13.317  28.788  1.00  0.00     0.012 C 
HETATM   27  C18 UNL     1      22.134  12.601  28.313  1.00  0.00     0.012 C 
ENDBRANCH  17  25
ENDBRANCH  15  17
ENDBRANCH  10  13
ENDBRANCH   1   6
BRANCH   1  28
HETATM   28  N4  UNL     1      26.612  14.490  23.605  1.00  0.00    -0.338 N 
HETATM   29  C19 UNL     1      27.721  13.869  24.278  1.00  0.00     0.141 C 
HETATM   30  C20 UNL     1      28.809  14.804  24.708  1.00  0.00     0.097 C 
HETATM   31  C25 UNL     1      28.294  16.021  25.411  1.00  0.00     0.030 C 
HETATM   32  C26 UNL     1      27.315  16.742  24.557  1.00  0.00     0.082 C 
HETATM   33  C30 UNL     1      26.362  15.867  23.870  1.00  0.00     0.225 C 
HETATM   34  O5  UNL     1      25.270  16.346  23.493  1.00  0.00    -0.273 OA
BRANCH  30  35
HETATM   35  C21 UNL     1      29.863  15.087  23.749  1.00  0.00     0.223 C 
HETATM   36  O4  UNL     1      29.964  14.273  22.749  1.00  0.00    -0.273 OA
HETATM   37  N5  UNL     1      30.803  16.122  23.738  1.00  0.00    -0.357 N 
ATOM     38  H5  UNL     1      30.785  16.805  24.496  1.00  0.00     0.162 HD
BRANCH  37  39
HETATM   39  C22 UNL     1      31.802  16.271  22.697  1.00  0.00     0.076 C 
HETATM   40  C23 UNL     1      31.988  17.695  22.277  1.00  0.00     0.032 C 
HETATM   41  C24 UNL     1      33.107  15.629  23.187  1.00  0.00     0.032 C 
ENDBRANCH  37  39
ENDBRANCH  30  35
BRANCH  32  42
HETATM   42  C27 UNL     1      26.642  17.778  25.433  1.00  0.00    -0.010 C 
HETATM   43  C28 UNL     1      26.707  19.167  24.908  1.00  0.00     0.010 C 
HETATM   44  C29 UNL     1      27.309  17.731  26.790  1.00  0.00     0.010 C 
ENDBRANCH  32  42
ENDBRANCH   1  28
TORSDOF 13
ENDMDL
MODEL 3
REMARK VINA RESULT: -8.312537122      3.862      9.962
REMARK  13 active torsions:
REMARK  status: ('A' for Active; 'I' for Inactive)
REMARK    1  A    between atoms: C2_2  and  C4_4 
REMARK    2  A    between atoms: C4_4  and  C5_5 
REMARK    3  A    between atoms: C5_5  and  C6_6 
REMARK    4  A    between atoms: C5_5  and  N4_28 
REMARK       I    between atoms: C6_6  and  N1_8 
REMARK    5  A    between atoms: C10_12  and  C11_13 
REMARK       I    between atoms: C11_13  and  N2_15 
REMARK    6  A    between atoms: N2_15  and  C12_17 
REMARK    7  A    between atoms: C12_17  and  C13_18 
REMARK    8  A    between atoms: C12_17  and  C16_25 
REMARK       I    between atoms: C13_18  and  N3_20 
REMARK    9  A    between atoms: N3_20  and  C14_22 
REMARK   10  A    between atoms: C14_22  and  C15_23 
REMARK   11  A    between atoms: C20_30  and  C21_31 
REMARK       I    between atoms: C21_31  and  N5_33 
REMARK   12  A    between atoms: N5_33  and  C22_35 
REMARK   13  A    between atoms: C26_39  and  C27_40 
ROOT
HETATM    1  C5  UNL     1      25.084  13.443  22.668  1.00  0.00     0.179 C 
ENDROOT
BRANCH   1   2
HETATM    2  C4  UNL     1      25.813  12.554  21.739  1.00  0.00     0.039 C 
BRANCH   2   3
HETATM    3  C2  UNL     1      26.421  13.040  20.505  1.00  0.00    -0.020 C 
HETATM    4  C1  UNL     1      25.758  12.731  19.210  1.00  0.00     0.009 C 
HETATM    5  C3  UNL     1      27.811  12.371  20.425  1.00  0.00     0.009 C 
ENDBRANCH   2   3
ENDBRANCH   1   2
BRANCH   1   6
HETATM    6  C6  UNL     1      24.133  12.784  23.595  1.00  0.00     0.243 C 
HETATM    7  O1  UNL     1      24.152  13.123  24.803  1.00  0.00    -0.271 OA
HETATM    8  N1  UNL     1      23.189  11.799  23.219  1.00  0.00    -0.337 N 
HETATM    9  C7  UNL     1      22.963  11.280  21.863  1.00  0.00     0.127 C 
HETATM   10  C10 UNL     1      22.263  11.126  24.118  1.00  0.00     0.179 C 
HETATM   11  C8  UNL     1      22.447   9.869  22.075  1.00  0.00     0.022 C 
HETATM   12  C9  UNL     1      21.638  10.014  23.334  1.00  0.00     0.037 C 
BRANCH  10  13
HETATM   13  C11 UNL     1      21.267  12.051  24.677  1.00  0.00     0.241 C 
HETATM   14  O2  UNL     1      20.964  13.088  24.050  1.00  0.00    -0.271 OA
HETATM   15  N2  UNL     1      20.644  11.786  25.913  1.00  0.00    -0.346 N 
ATOM     16  H2  UNL     1      20.898  10.938  26.419  1.00  0.00     0.163 HD
BRANCH  15  17
HETATM   17  C12 UNL     1      19.639  12.691  26.505  1.00  0.00     0.180 C 
BRANCH  17  18
HETATM   18  C13 UNL     1      18.300  12.265  26.087  1.00  0.00     0.240 C 
HETATM   19  O3  UNL     1      17.513  11.846  27.014  1.00  0.00    -0.271 OA
HETATM   20  N3  UNL     1      17.837  12.281  24.767  1.00  0.00    -0.359 N 
ATOM     21  H3  UNL     1      18.464  12.610  24.032  1.00  0.00     0.162 HD
BRANCH  20  22
HETATM   22  C14 UNL     1      16.502  11.850  24.401  1.00  0.00     0.133 C 
BRANCH  22  23
HETATM   23  C15 UNL     1      16.421  10.451  23.894  1.00  0.00     0.104 C 
HETATM   24 BR1  UNL     1      15.584   9.287  25.210  1.00  0.00    -0.095 Br
ENDBRANCH  22  23
ENDBRANCH  20  22
ENDBRANCH  17  18
BRANCH  17  25
HETATM   25  C16 UNL     1      19.776  12.610  28.012  1.00  0.00     0.009 C 
HETATM   26  C17 UNL     1      19.852  13.974  28.648  1.00  0.00     0.012 C 
HETATM   27  C18 UNL     1      20.911  11.757  28.463  1.00  0.00     0.012 C 
ENDBRANCH  17  25
ENDBRANCH  15  17
ENDBRANCH  10  13
ENDBRANCH   1   6
BRANCH   1  28
HETATM   28  N4  UNL     1      26.067  14.230  23.470  1.00  0.00    -0.338 N 
HETATM   29  C19 UNL     1      27.308  13.660  23.920  1.00  0.00     0.141 C 
HETATM   30  C20 UNL     1      28.404  14.648  24.183  1.00  0.00     0.097 C 
HETATM   31  C25 UNL     1      27.957  15.817  25.002  1.00  0.00     0.030 C 
HETATM   32  C26 UNL     1      26.805  16.499  24.354  1.00  0.00     0.082 C 
HETATM   33  C30 UNL     1      25.795  15.584  23.816  1.00  0.00     0.225 C 
HETATM   34  O5  UNL     1      24.629  16.007  23.651  1.00  0.00    -0.273 OA
BRANCH  30  35
HETATM   35  C21 UNL     1      29.256  15.011  23.064  1.00  0.00     0.223 C 
HETATM   36  O4  UNL     1      30.529  14.848  23.232  1.00  0.00    -0.273 OA
HETATM   37  N5  UNL     1      28.909  15.520  21.808  1.00  0.00    -0.357 N 
ATOM     38  H5  UNL     1      27.922  15.676  21.602  1.00  0.00     0.162 HD
BRANCH  37  39
HETATM   39  C22 UNL     1      29.888  15.836  20.785  1.00  0.00     0.076 C 
HETATM   40  C23 UNL     1      29.441  15.428  19.417  1.00  0.00     0.032 C 
HETATM   41  C24 UNL     1      30.212  17.333  20.875  1.00  0.00     0.032 C 
ENDBRANCH  37  39
ENDBRANCH  30  35
BRANCH  32  42
HETATM   42  C27 UNL     1      26.243  17.475  25.365  1.00  0.00    -0.010 C 
HETATM   43  C28 UNL     1      26.238  18.893  24.918  1.00  0.00     0.010 C 
HETATM   44  C29 UNL     1      27.072  17.357  26.625  1.00  0.00     0.010 C 
ENDBRANCH  32  42
ENDBRANCH   1  28
TORSDOF 13
ENDMDL
MODEL 4
REMARK VINA RESULT: -8.185481934      4.294     10.271
REMARK  13 active torsions:
REMARK  status: ('A' for Active; 'I' for Inactive)
REMARK    1  A    between atoms: C2_2  and  C4_4 
REMARK    2  A    between atoms: C4_4  and  C5_5 
REMARK    3  A    between atoms: C5_5  and  C6_6 
REMARK    4  A    between atoms: C5_5  and  N4_28 
REMARK       I    between atoms: C6_6  and  N1_8 
REMARK    5  A    between atoms: C10_12  and  C11_13 
REMARK       I    between atoms: C11_13  and  N2_15 
REMARK    6  A    between atoms: N2_15  and  C12_17 
REMARK    7  A    between atoms: C12_17  and  C13_18 
REMARK    8  A    between atoms: C12_17  and  C16_25 
REMARK       I    between atoms: C13_18  and  N3_20 
REMARK    9  A    between atoms: N3_20  and  C14_22 
REMARK   10  A    between atoms: C14_22  and  C15_23 
REMARK   11  A    between atoms: C20_30  and  C21_31 
REMARK       I    between atoms: C21_31  and  N5_33 
REMARK   12  A    between atoms: N5_33  and  C22_35 
REMARK   13  A    between atoms: C26_39  and  C27_40 
ROOT
HETATM    1  C5  UNL     1      26.287  13.971  22.844  1.00  0.00     0.179 C 
ENDROOT
BRANCH   1   2
HETATM    2  C4  UNL     1      27.323  13.188  22.138  1.00  0.00     0.039 C 
BRANCH   2   3
HETATM    3  C2  UNL     1      27.963  13.660  20.916  1.00  0.00    -0.020 C 
HETATM    4  C1  UNL     1      27.265  13.459  19.617  1.00  0.00     0.009 C 
HETATM    5  C3  UNL     1      29.286  12.871  20.797  1.00  0.00     0.009 C 
ENDBRANCH   2   3
ENDBRANCH   1   2
BRANCH   1   6
HETATM    6  C6  UNL     1      25.199  13.192  23.483  1.00  0.00     0.243 C 
HETATM    7  O1  UNL     1      25.136  13.180  24.737  1.00  0.00    -0.271 OA
HETATM    8  N1  UNL     1      24.210  12.460  22.784  1.00  0.00    -0.337 N 
HETATM    9  C7  UNL     1      24.066  12.364  21.324  1.00  0.00     0.127 C 
HETATM   10  C10 UNL     1      23.149  11.673  23.393  1.00  0.00     0.179 C 
HETATM   11  C8  UNL     1      23.409  11.016  21.094  1.00  0.00     0.022 C 
HETATM   12  C9  UNL     1      22.503  10.898  22.288  1.00  0.00     0.037 C 
BRANCH  10  13
HETATM   13  C11 UNL     1      22.191  12.513  24.126  1.00  0.00     0.241 C 
HETATM   14  O2  UNL     1      21.826  13.604  23.641  1.00  0.00    -0.271 OA
HETATM   15  N2  UNL     1      21.676  12.106  25.374  1.00  0.00    -0.346 N 
ATOM     16  H2  UNL     1      21.981  11.215  25.763  1.00  0.00     0.163 HD
BRANCH  15  17
HETATM   17  C12 UNL     1      20.712  12.922  26.138  1.00  0.00     0.180 C 
BRANCH  17  18
HETATM   18  C13 UNL     1      19.348  12.523  25.778  1.00  0.00     0.240 C 
HETATM   19  O3  UNL     1      18.651  13.381  25.122  1.00  0.00    -0.271 OA
HETATM   20  N3  UNL     1      18.769  11.292  26.104  1.00  0.00    -0.359 N 
ATOM     21  H3  UNL     1      19.321  10.614  26.628  1.00  0.00     0.162 HD
BRANCH  20  22
HETATM   22  C14 UNL     1      17.414  10.941  25.725  1.00  0.00     0.133 C 
BRANCH  22  23
HETATM   23  C15 UNL     1      17.308  10.141  24.472  1.00  0.00     0.104 C 
HETATM   24 BR1  UNL     1      15.668   9.094  24.457  1.00  0.00    -0.095 Br
ENDBRANCH  22  23
ENDBRANCH  20  22
ENDBRANCH  17  18
BRANCH  17  25
HETATM   25  C16 UNL     1      20.967  12.677  27.611  1.00  0.00     0.009 C 
HETATM   26  C17 UNL     1      20.047  13.487  28.489  1.00  0.00     0.012 C 
HETATM   27  C18 UNL     1      22.387  12.879  28.014  1.00  0.00     0.012 C 
ENDBRANCH  17  25
ENDBRANCH  15  17
ENDBRANCH  10  13
ENDBRANCH   1   6
BRANCH   1  28
HETATM   28  N4  UNL     1      26.937  14.826  23.882  1.00  0.00    -0.338 N 
HETATM   29  C19 UNL     1      28.032  14.348  24.681  1.00  0.00     0.141 C 
HETATM   30  C20 UNL     1      28.932  15.413  25.231  1.00  0.00     0.097 C 
HETATM   31  C25 UNL     1      28.184  16.543  25.864  1.00  0.00     0.030 C 
HETATM   32  C26 UNL     1      27.223  17.140  24.900  1.00  0.00     0.082 C 
HETATM   33  C30 UNL     1      26.479  16.155  24.110  1.00  0.00     0.225 C 
HETATM   34  O5  UNL     1      25.385  16.491  23.607  1.00  0.00    -0.273 OA
BRANCH  30  35
HETATM   35  C21 UNL     1      30.042  15.842  24.399  1.00  0.00     0.223 C 
HETATM   36  O4  UNL     1      30.605  16.961  24.723  1.00  0.00    -0.273 OA
HETATM   37  N5  UNL     1      30.609  15.222  23.281  1.00  0.00    -0.357 N 
ATOM     38  H5  UNL     1      30.217  14.335  22.965  1.00  0.00     0.162 HD
BRANCH  37  39
HETATM   39  C22 UNL     1      31.729  15.783  22.550  1.00  0.00     0.076 C 
HETATM   40  C23 UNL     1      33.030  15.132  22.901  1.00  0.00     0.032 C 
HETATM   41  C24 UNL     1      31.417  15.698  21.050  1.00  0.00     0.032 C 
ENDBRANCH  37  39
ENDBRANCH  30  35
BRANCH  32  42
HETATM   42  C27 UNL     1      26.324  18.069  25.687  1.00  0.00    -0.010 C 
HETATM   43  C28 UNL     1      25.979  19.335  24.988  1.00  0.00     0.010 C 
HETATM   44  C29 UNL     1      27.030  18.397  26.984  1.00  0.00     0.010 C 
ENDBRANCH  32  42
ENDBRANCH   1  28
TORSDOF 13
ENDMDL
MODEL 5
REMARK VINA RESULT: -8.096267120      4.609     10.949
REMARK  13 active torsions:
REMARK  status: ('A' for Active; 'I' for Inactive)
REMARK    1  A    between atoms: C2_2  and  C4_4 
REMARK    2  A    between atoms: C4_4  and  C5_5 
REMARK    3  A    between atoms: C5_5  and  C6_6 
REMARK    4  A    between atoms: C5_5  and  N4_28 
REMARK       I    between atoms: C6_6  and  N1_8 
REMARK    5  A    between atoms: C10_12  and  C11_13 
REMARK       I    between atoms: C11_13  and  N2_15 
REMARK    6  A    between atoms: N2_15  and  C12_17 
REMARK    7  A    between atoms: C12_17  and  C13_18 
REMARK    8  A    between atoms: C12_17  and  C16_25 
REMARK       I    between atoms: C13_18  and  N3_20 
REMARK    9  A    between atoms: N3_20  and  C14_22 
REMARK   10  A    between atoms: C14_22  and  C15_23 
REMARK   11  A    between atoms: C20_30  and  C21_31 
REMARK       I    between atoms: C21_31  and  N5_33 
REMARK   12  A    between atoms: N5_33  and  C22_35 
REMARK   13  A    between atoms: C26_39  and  C27_40 
ROOT
HETATM    1  C5  UNL     1      28.229  12.951  20.739  1.00  0.00     0.179 C 
ENDROOT
BRANCH   1   2
HETATM    2  C4  UNL     1      29.454  12.242  21.164  1.00  0.00     0.039 C 
BRANCH   2   3
HETATM    3  C2  UNL     1      29.672  10.826  20.894  1.00  0.00    -0.020 C 
HETATM    4  C1  UNL     1      28.694  10.100  20.039  1.00  0.00     0.009 C 
HETATM    5  C3  UNL     1      29.621  10.119  22.266  1.00  0.00     0.009 C 
ENDBRANCH   2   3
ENDBRANCH   1   2
BRANCH   1   6
HETATM    6  C6  UNL     1      26.943  12.370  21.195  1.00  0.00     0.243 C 
HETATM    7  O1  UNL     1      26.778  12.190  22.427  1.00  0.00    -0.271 OA
HETATM    8  N1  UNL     1      25.872  12.006  20.344  1.00  0.00    -0.337 N 
HETATM    9  C7  UNL     1      25.828  12.162  18.884  1.00  0.00     0.127 C 
HETATM   10  C10 UNL     1      24.614  11.414  20.772  1.00  0.00     0.179 C 
HETATM   11  C8  UNL     1      24.901  11.058  18.411  1.00  0.00     0.022 C 
HETATM   12  C9  UNL     1      23.899  10.986  19.529  1.00  0.00     0.037 C 
BRANCH  10  13
HETATM   13  C11 UNL     1      23.818  12.342  21.588  1.00  0.00     0.241 C 
HETATM   14  O2  UNL     1      22.955  13.062  21.044  1.00  0.00    -0.271 OA
HETATM   15  N2  UNL     1      24.014  12.434  22.981  1.00  0.00    -0.346 N 
ATOM     16  H2  UNL     1      24.723  11.844  23.417  1.00  0.00     0.163 HD
BRANCH  15  17
HETATM   17  C12 UNL     1      23.234  13.353  23.833  1.00  0.00     0.180 C 
BRANCH  17  18
HETATM   18  C13 UNL     1      22.329  12.573  24.683  1.00  0.00     0.240 C 
HETATM   19  O3  UNL     1      22.765  11.435  25.096  1.00  0.00    -0.271 OA
HETATM   20  N3  UNL     1      21.045  12.980  25.060  1.00  0.00    -0.359 N 
ATOM     21  H3  UNL     1      20.700  13.880  24.729  1.00  0.00     0.162 HD
BRANCH  20  22
HETATM   22  C14 UNL     1      20.185  12.172  25.904  1.00  0.00     0.133 C 
BRANCH  22  23
HETATM   23  C15 UNL     1      19.947  12.734  27.264  1.00  0.00     0.104 C 
HETATM   24 BR1  UNL     1      21.438  12.334  28.448  1.00  0.00    -0.095 Br
ENDBRANCH  22  23
ENDBRANCH  20  22
ENDBRANCH  17  18
BRANCH  17  25
HETATM   25  C16 UNL     1      24.213  14.140  24.681  1.00  0.00     0.009 C 
HETATM   26  C17 UNL     1      23.679  14.407  26.064  1.00  0.00     0.012 C 
HETATM   27  C18 UNL     1      24.673  15.405  24.042  1.00  0.00     0.012 C 
ENDBRANCH  17  25
ENDBRANCH  15  17
ENDBRANCH  10  13
ENDBRANCH   1   6
BRANCH   1  28
HETATM   28  N4  UNL     1      28.299  14.372  21.191  1.00  0.00    -0.338 N 
HETATM   29  C19 UNL     1      27.831  14.779  22.488  1.00  0.00     0.141 C 
HETATM   30  C20 UNL     1      28.456  16.030  23.027  1.00  0.00     0.097 C 
HETATM   31  C25 UNL     1      28.489  17.146  22.031  1.00  0.00     0.030 C 
HETATM   32  C26 UNL     1      29.194  16.720  20.793  1.00  0.00     0.082 C 
HETATM   33  C30 UNL     1      28.838  15.374  20.335  1.00  0.00     0.225 C 
HETATM   34  O5  UNL     1      29.013  15.084  19.132  1.00  0.00    -0.273 OA
BRANCH  30  35
HETATM   35  C21 UNL     1      29.687  15.886  23.784  1.00  0.00     0.223 C 
HETATM   36  O4  UNL     1      29.790  14.826  24.519  1.00  0.00    -0.273 OA
HETATM   37  N5  UNL     1      30.799  16.732  23.844  1.00  0.00    -0.357 N 
ATOM     38  H5  UNL     1      30.790  17.589  23.291  1.00  0.00     0.162 HD
BRANCH  37  39
HETATM   39  C22 UNL     1      31.966  16.445  24.657  1.00  0.00     0.076 C 
HETATM   40  C23 UNL     1      33.054  15.769  23.884  1.00  0.00     0.032 C 
HETATM   41  C24 UNL     1      32.434  17.754  25.306  1.00  0.00     0.032 C 
ENDBRANCH  37  39
ENDBRANCH  30  35
BRANCH  32  42
HETATM   42  C27 UNL     1      28.940  17.787  19.750  1.00  0.00    -0.010 C 
HETATM   43  C28 UNL     1      30.162  18.281  19.061  1.00  0.00     0.010 C 
HETATM   44  C29 UNL     1      28.258  18.948  20.441  1.00  0.00     0.010 C 
ENDBRANCH  32  42
ENDBRANCH   1  28
TORSDOF 13
ENDMDL
