MODEL 1
REMARK VINA RESULT: -8.831274032      0.000      0.000
REMARK  15 active torsions:
REMARK  status: ('A' for Active; 'I' for Inactive)
REMARK    1  A    between atoms: C2_2  and  C3_3 
REMARK    2  A    between atoms: C3_3  and  C5_5 
REMARK    3  A    between atoms: C5_5  and  N1_6 
REMARK    4  A    between atoms: C5_5  and  C19_29 
REMARK       I    between atoms: N1_6  and  C6_8 
REMARK       I    between atoms: C6_8  and  N2_10 
REMARK    5  A    between atoms: N2_10  and  C7_12 
REMARK    6  A    between atoms: C10_15  and  C11_16 
REMARK    7  A    between atoms: C11_16  and  O2_17 
REMARK    8  A    between atoms: C11_16  and  N3_19 
REMARK    9  A    between atoms: N3_19  and  C12_20 
REMARK   10  A    between atoms: N3_19  and  C14_24 
REMARK   11  A    between atoms: C12_20  and  C13_21 
REMARK       I    between atoms: C19_29  and  N4_31 
REMARK   12  A    between atoms: N4_31  and  C20_33 
REMARK   13  A    between atoms: C20_33  and  C21_34 
REMARK   14  A    between atoms: C20_33  and  C28_45 
REMARK       I    between atoms: C21_34  and  N5_36 
REMARK       I    between atoms: N6_39  and  C24_40 
REMARK   15  A    between atoms: C28_45  and  C30_47 
ROOT
HETATM    1  C5  UNL     1      27.429  12.282  21.741  1.00  0.00     0.182 C 
ENDROOT
BRANCH   1   2
HETATM    2  C3  UNL     1      28.107  11.696  20.550  1.00  0.00     0.013 C 
HETATM    3  C4  UNL     1      27.466  12.059  19.226  1.00  0.00     0.012 C 
BRANCH   2   4
HETATM    4  C2  UNL     1      28.449  10.236  20.630  1.00  0.00     0.002 C 
HETATM    5  C1  UNL     1      29.142   9.940  21.958  1.00  0.00     0.005 C 
ENDBRANCH   2   4
ENDBRANCH   1   2
BRANCH   1   6
HETATM    6  N1  UNL     1      28.122  13.552  21.994  1.00  0.00    -0.330 N 
HETATM    7  C6  UNL     1      28.526  13.908  23.300  1.00  0.00     0.317 C 
HETATM    8  O1  UNL     1      28.277  13.115  24.237  1.00  0.00    -0.247 OA
HETATM    9  N2  UNL     1      29.196  15.114  23.600  1.00  0.00    -0.339 N 
ATOM     10  H2  UNL     1      29.391  15.754  22.830  1.00  0.00     0.164 HD
ATOM     11  H1  UNL     1      28.313  14.185  21.217  1.00  0.00     0.165 HD
BRANCH   9  12
HETATM   12  C7  UNL     1      29.626  15.504  24.931  1.00  0.00     0.086 C 
HETATM   13  C8  UNL     1      30.737  16.490  24.912  1.00  0.00     0.026 C 
HETATM   14  C9  UNL     1      30.395  17.905  25.229  1.00  0.00     0.015 C 
HETATM   15  C10 UNL     1      29.305  18.112  26.218  1.00  0.00     0.060 C 
HETATM   16  C17 UNL     1      28.824  16.833  26.874  1.00  0.00     0.015 C 
HETATM   17  C18 UNL     1      28.451  15.836  25.785  1.00  0.00     0.026 C 
BRANCH  15  18
HETATM   18  C11 UNL     1      29.463  19.170  27.194  1.00  0.00     0.118 C 
BRANCH  18  19
HETATM   19  O2  UNL     1      30.652  19.295  27.709  1.00  0.00    -0.349 OA
ATOM     20  H2  UNL     1      30.789  20.061  28.253  1.00  0.00     0.219 HD
ENDBRANCH  18  19
BRANCH  18  21
HETATM   21  N3  UNL     1      28.535  20.101  27.690  1.00  0.00    -0.359 N 
BRANCH  21  22
HETATM   22  C12 UNL     1      27.152  19.753  27.883  1.00  0.00     0.161 C 
BRANCH  22  23
HETATM   23  C13 UNL     1      26.269  19.880  26.685  1.00  0.00     0.196 C 
HETATM   24 CL1  UNL     1      24.905  21.006  27.019  1.00  0.00    -0.106 Cl
HETATM   25 CL2  UNL     1      25.521  18.348  26.191  1.00  0.00    -0.106 Cl
ENDBRANCH  22  23
ENDBRANCH  21  22
BRANCH  21  26
HETATM   26  C14 UNL     1      28.939  21.428  28.063  1.00  0.00     0.078 C 
HETATM   27  C15 UNL     1      28.006  21.986  29.142  1.00  0.00     0.032 C 
HETATM   28  C16 UNL     1      28.883  22.435  26.929  1.00  0.00     0.032 C 
ENDBRANCH  21  26
ENDBRANCH  18  21
ENDBRANCH  15  18
ENDBRANCH   9  12
ENDBRANCH   1   6
BRANCH   1  29
HETATM   29  C19 UNL     1      25.988  12.465  21.658  1.00  0.00     0.241 C 
HETATM   30  O3  UNL     1      25.513  13.605  21.999  1.00  0.00    -0.271 OA
HETATM   31  N4  UNL     1      25.064  11.497  21.240  1.00  0.00    -0.346 N 
ATOM     32  H4  UNL     1      25.409  10.578  20.967  1.00  0.00     0.163 HD
BRANCH  31  33
HETATM   33  C20 UNL     1      23.616  11.754  21.177  1.00  0.00     0.180 C 
BRANCH  33  34
HETATM   34  C21 UNL     1      22.936  10.787  22.071  1.00  0.00     0.243 C 
HETATM   35  O4  UNL     1      22.771   9.625  21.542  1.00  0.00    -0.271 OA
HETATM   36  N5  UNL     1      22.478  10.976  23.357  1.00  0.00    -0.347 N 
HETATM   37  C22 UNL     1      22.621  12.209  24.079  1.00  0.00     0.145 C 
HETATM   38  C27 UNL     1      21.804   9.901  24.068  1.00  0.00     0.145 C 
HETATM   39  C23 UNL     1      21.319  12.619  24.693  1.00  0.00     0.145 C 
HETATM   40  N6  UNL     1      20.222  11.702  24.513  1.00  0.00    -0.349 N 
HETATM   41  C24 UNL     1      18.902  12.254  24.569  1.00  0.00     0.215 C 
HETATM   42  C26 UNL     1      20.348  10.281  24.288  1.00  0.00     0.145 C 
HETATM   43  C25 UNL     1      17.741  11.353  24.400  1.00  0.00     0.117 C 
HETATM   44  O5  UNL     1      18.750  13.498  24.761  1.00  0.00    -0.274 OA
ENDBRANCH  33  34
BRANCH  33  45
HETATM   45  C28 UNL     1      23.136  11.501  19.764  1.00  0.00     0.013 C 
HETATM   46  C29 UNL     1      24.113  10.678  18.972  1.00  0.00     0.012 C 
BRANCH  45  47
HETATM   47  C30 UNL     1      22.761  12.707  18.996  1.00  0.00     0.002 C 
HETATM   48  C31 UNL     1      23.986  13.177  18.192  1.00  0.00     0.005 C 
ENDBRANCH  45  47
ENDBRANCH  33  45
ENDBRANCH  31  33
ENDBRANCH   1  29
TORSDOF 15
ENDMDL
MODEL 2
REMARK VINA RESULT: -8.808139593      1.753      2.400
REMARK  15 active torsions:
REMARK  status: ('A' for Active; 'I' for Inactive)
REMARK    1  A    between atoms: C2_2  and  C3_3 
REMARK    2  A    between atoms: C3_3  and  C5_5 
REMARK    3  A    between atoms: C5_5  and  N1_6 
REMARK    4  A    between atoms: C5_5  and  C19_29 
REMARK       I    between atoms: N1_6  and  C6_8 
REMARK       I    between atoms: C6_8  and  N2_10 
REMARK    5  A    between atoms: N2_10  and  C7_12 
REMARK    6  A    between atoms: C10_15  and  C11_16 
REMARK    7  A    between atoms: C11_16  and  O2_17 
REMARK    8  A    between atoms: C11_16  and  N3_19 
REMARK    9  A    between atoms: N3_19  and  C12_20 
REMARK   10  A    between atoms: N3_19  and  C14_24 
REMARK   11  A    between atoms: C12_20  and  C13_21 
REMARK       I    between atoms: C19_29  and  N4_31 
REMARK   12  A    between atoms: N4_31  and  C20_33 
REMARK   13  A    between atoms: C20_33  and  C21_34 
REMARK   14  A    between atoms: C20_33  and  C28_45 
REMARK       I    between atoms: C21_34  and  N5_36 
REMARK       I    between atoms: N6_39  and  C24_40 
REMARK   15  A    between atoms: C28_45  and  C30_47 
ROOT
HETATM    1  C5  UNL     1      27.858  12.266  21.966  1.00  0.00     0.182 C 
ENDROOT
BRANCH   1   2
HETATM    2  C3  UNL     1      28.419  10.924  21.643  1.00  0.00     0.013 C 
HETATM    3  C4  UNL     1      29.329  10.355  22.713  1.00  0.00     0.012 C 
BRANCH   2   4
HETATM    4  C2  UNL     1      28.993  10.755  20.266  1.00  0.00     0.002 C 
HETATM    5  C1  UNL     1      28.282   9.610  19.547  1.00  0.00     0.005 C 
ENDBRANCH   2   4
ENDBRANCH   1   2
BRANCH   1   6
HETATM    6  N1  UNL     1      28.588  13.207  21.107  1.00  0.00    -0.330 N 
HETATM    7  C6  UNL     1      29.464  14.164  21.665  1.00  0.00     0.317 C 
HETATM    8  O1  UNL     1      29.602  14.191  22.910  1.00  0.00    -0.247 OA
HETATM    9  N2  UNL     1      30.192  15.091  20.887  1.00  0.00    -0.339 N 
ATOM     10  H2  UNL     1      30.070  15.062  19.875  1.00  0.00     0.164 HD
ATOM     11  H1  UNL     1      28.460  13.170  20.096  1.00  0.00     0.165 HD
BRANCH   9  12
HETATM   12  C7  UNL     1      31.102  16.082  21.432  1.00  0.00     0.086 C 
HETATM   13  C8  UNL     1      30.423  17.355  21.788  1.00  0.00     0.026 C 
HETATM   14  C9  UNL     1      30.182  17.614  23.235  1.00  0.00     0.015 C 
HETATM   15  C10 UNL     1      31.207  17.092  24.176  1.00  0.00     0.060 C 
HETATM   16  C17 UNL     1      32.429  16.515  23.491  1.00  0.00     0.015 C 
HETATM   17  C18 UNL     1      31.974  15.475  22.477  1.00  0.00     0.026 C 
BRANCH  15  18
HETATM   18  C11 UNL     1      31.584  17.923  25.302  1.00  0.00     0.118 C 
BRANCH  18  19
HETATM   19  O2  UNL     1      32.676  17.579  25.920  1.00  0.00    -0.349 OA
ATOM     20  H2  UNL     1      32.760  17.887  26.815  1.00  0.00     0.219 HD
ENDBRANCH  18  19
BRANCH  18  21
HETATM   21  N3  UNL     1      30.959  19.056  25.850  1.00  0.00    -0.359 N 
BRANCH  21  22
HETATM   22  C12 UNL     1      30.016  18.944  26.931  1.00  0.00     0.161 C 
BRANCH  22  23
HETATM   23  C13 UNL     1      28.790  18.139  26.653  1.00  0.00     0.196 C 
HETATM   24 CL1  UNL     1      27.331  18.947  27.329  1.00  0.00    -0.106 Cl
HETATM   25 CL2  UNL     1      28.825  16.520  27.380  1.00  0.00    -0.106 Cl
ENDBRANCH  22  23
ENDBRANCH  21  22
BRANCH  21  26
HETATM   26  C14 UNL     1      31.271  20.376  25.380  1.00  0.00     0.078 C 
HETATM   27  C15 UNL     1      31.610  21.295  26.558  1.00  0.00     0.032 C 
HETATM   28  C16 UNL     1      30.126  21.063  24.658  1.00  0.00     0.032 C 
ENDBRANCH  21  26
ENDBRANCH  18  21
ENDBRANCH  15  18
ENDBRANCH   9  12
ENDBRANCH   1   6
BRANCH   1  29
HETATM   29  C19 UNL     1      26.417  12.428  21.836  1.00  0.00     0.241 C 
HETATM   30  O3  UNL     1      25.903  13.525  22.252  1.00  0.00    -0.271 OA
HETATM   31  N4  UNL     1      25.533  11.484  21.295  1.00  0.00    -0.346 N 
ATOM     32  H4  UNL     1      25.911  10.598  20.959  1.00  0.00     0.163 HD
BRANCH  31  33
HETATM   33  C20 UNL     1      24.085  11.718  21.191  1.00  0.00     0.180 C 
BRANCH  33  34
HETATM   34  C21 UNL     1      23.395  10.757  22.085  1.00  0.00     0.243 C 
HETATM   35  O4  UNL     1      23.252   9.586  21.570  1.00  0.00    -0.271 OA
HETATM   36  N5  UNL     1      22.909  10.961  23.359  1.00  0.00    -0.347 N 
HETATM   37  C22 UNL     1      23.025  12.205  24.065  1.00  0.00     0.145 C 
HETATM   38  C27 UNL     1      22.231   9.890  24.072  1.00  0.00     0.145 C 
HETATM   39  C23 UNL     1      21.707  12.611  24.646  1.00  0.00     0.145 C 
HETATM   40  N6  UNL     1      20.622  11.680  24.457  1.00  0.00    -0.349 N 
HETATM   41  C24 UNL     1      19.296  12.220  24.478  1.00  0.00     0.215 C 
HETATM   42  C26 UNL     1      20.767  10.258  24.256  1.00  0.00     0.145 C 
HETATM   43  C25 UNL     1      18.148  11.305  24.298  1.00  0.00     0.117 C 
HETATM   44  O5  UNL     1      19.129  13.465  24.648  1.00  0.00    -0.274 OA
ENDBRANCH  33  34
BRANCH  33  45
HETATM   45  C28 UNL     1      23.644  11.432  19.771  1.00  0.00     0.013 C 
HETATM   46  C29 UNL     1      24.758  10.866  18.935  1.00  0.00     0.012 C 
BRANCH  45  47
HETATM   47  C30 UNL     1      23.014  12.566  19.062  1.00  0.00     0.002 C 
HETATM   48  C31 UNL     1      24.084  13.263  18.203  1.00  0.00     0.005 C 
ENDBRANCH  45  47
ENDBRANCH  33  45
ENDBRANCH  31  33
ENDBRANCH   1  29
TORSDOF 15
ENDMDL
MODEL 3
REMARK VINA RESULT: -8.750634107      1.407      1.780
REMARK  15 active torsions:
REMARK  status: ('A' for Active; 'I' for Inactive)
REMARK    1  A    between atoms: C2_2  and  C3_3 
REMARK    2  A    between atoms: C3_3  and  C5_5 
REMARK    3  A    between atoms: C5_5  and  N1_6 
REMARK    4  A    between atoms: C5_5  and  C19_29 
REMARK       I    between atoms: N1_6  and  C6_8 
REMARK       I    between atoms: C6_8  and  N2_10 
REMARK    5  A    between atoms: N2_10  and  C7_12 
REMARK    6  A    between atoms: C10_15  and  C11_16 
REMARK    7  A    between atoms: C11_16  and  O2_17 
REMARK    8  A    between atoms: C11_16  and  N3_19 
REMARK    9  A    between atoms: N3_19  and  C12_20 
REMARK   10  A    between atoms: N3_19  and  C14_24 
REMARK   11  A    between atoms: C12_20  and  C13_21 
REMARK       I    between atoms: C19_29  and  N4_31 
REMARK   12  A    between atoms: N4_31  and  C20_33 
REMARK   13  A    between atoms: C20_33  and  C21_34 
REMARK   14  A    between atoms: C20_33  and  C28_45 
REMARK       I    between atoms: C21_34  and  N5_36 
REMARK       I    between atoms: N6_39  and  C24_40 
REMARK   15  A    between atoms: C28_45  and  C30_47 
ROOT
HETATM    1  C5  UNL     1      27.513  12.219  21.741  1.00  0.00     0.182 C 
ENDROOT
BRANCH   1   2
HETATM    2  C3  UNL     1      28.162  11.493  20.613  1.00  0.00     0.013 C 
HETATM    3  C4  UNL     1      27.501  11.713  19.267  1.00  0.00     0.012 C 
BRANCH   2   4
HETATM    4  C2  UNL     1      28.489  10.047  20.851  1.00  0.00     0.002 C 
HETATM    5  C1  UNL     1      29.235   9.897  22.175  1.00  0.00     0.005 C 
ENDBRANCH   2   4
ENDBRANCH   1   2
BRANCH   1   6
HETATM    6  N1  UNL     1      28.225  13.500  21.838  1.00  0.00    -0.330 N 
HETATM    7  C6  UNL     1      28.785  13.925  23.063  1.00  0.00     0.317 C 
HETATM    8  O1  UNL     1      28.657  13.183  24.065  1.00  0.00    -0.247 OA
HETATM    9  N2  UNL     1      29.481  15.144  23.212  1.00  0.00    -0.339 N 
ATOM     10  H2  UNL     1      29.576  15.741  22.391  1.00  0.00     0.164 HD
ATOM     11  H1  UNL     1      28.316  14.089  21.011  1.00  0.00     0.165 HD
BRANCH   9  12
HETATM   12  C7  UNL     1      30.070  15.604  24.457  1.00  0.00     0.086 C 
HETATM   13  C8  UNL     1      31.456  16.112  24.286  1.00  0.00     0.026 C 
HETATM   14  C9  UNL     1      31.646  17.589  24.314  1.00  0.00     0.015 C 
HETATM   15  C10 UNL     1      30.737  18.353  25.208  1.00  0.00     0.060 C 
HETATM   16  C17 UNL     1      29.860  17.477  26.081  1.00  0.00     0.015 C 
HETATM   17  C18 UNL     1      29.121  16.487  25.191  1.00  0.00     0.026 C 
BRANCH  15  18
HETATM   18  C11 UNL     1      31.294  19.454  25.967  1.00  0.00     0.118 C 
BRANCH  18  19
HETATM   19  O2  UNL     1      32.369  19.186  26.649  1.00  0.00    -0.349 OA
ATOM     20  H2  UNL     1      33.167  19.088  26.142  1.00  0.00     0.219 HD
ENDBRANCH  18  19
BRANCH  18  21
HETATM   21  N3  UNL     1      30.862  20.784  26.095  1.00  0.00    -0.359 N 
BRANCH  21  22
HETATM   22  C12 UNL     1      29.502  21.103  26.439  1.00  0.00     0.161 C 
BRANCH  22  23
HETATM   23  C13 UNL     1      29.069  20.734  27.820  1.00  0.00     0.196 C 
HETATM   24 CL1  UNL     1      27.607  19.686  27.767  1.00  0.00    -0.106 Cl
HETATM   25 CL2  UNL     1      28.625  22.131  28.821  1.00  0.00    -0.106 Cl
ENDBRANCH  22  23
ENDBRANCH  21  22
BRANCH  21  26
HETATM   26  C14 UNL     1      31.775  21.880  25.929  1.00  0.00     0.078 C 
HETATM   27  C15 UNL     1      31.054  23.214  26.154  1.00  0.00     0.032 C 
HETATM   28  C16 UNL     1      32.373  21.983  24.538  1.00  0.00     0.032 C 
ENDBRANCH  21  26
ENDBRANCH  18  21
ENDBRANCH  15  18
ENDBRANCH   9  12
ENDBRANCH   1   6
BRANCH   1  29
HETATM   29  C19 UNL     1      26.072  12.411  21.662  1.00  0.00     0.241 C 
HETATM   30  O3  UNL     1      25.611  13.572  21.943  1.00  0.00    -0.271 OA
HETATM   31  N4  UNL     1      25.135  11.431  21.306  1.00  0.00    -0.346 N 
ATOM     32  H4  UNL     1      25.469  10.494  21.081  1.00  0.00     0.163 HD
BRANCH  31  33
HETATM   33  C20 UNL     1      23.690  11.699  21.243  1.00  0.00     0.180 C 
BRANCH  33  34
HETATM   34  C21 UNL     1      23.003  10.750  22.153  1.00  0.00     0.243 C 
HETATM   35  O4  UNL     1      22.850   9.574  21.649  1.00  0.00    -0.271 OA
HETATM   36  N5  UNL     1      22.530  10.967  23.428  1.00  0.00    -0.347 N 
HETATM   37  C22 UNL     1      22.659  12.217  24.122  1.00  0.00     0.145 C 
HETATM   38  C27 UNL     1      21.853   9.906  24.158  1.00  0.00     0.145 C 
HETATM   39  C23 UNL     1      21.349  12.636  24.712  1.00  0.00     0.145 C 
HETATM   40  N6  UNL     1      20.258  11.709  24.541  1.00  0.00    -0.349 N 
HETATM   41  C24 UNL     1      18.935  12.256  24.569  1.00  0.00     0.215 C 
HETATM   42  C26 UNL     1      20.393  10.284  24.351  1.00  0.00     0.145 C 
HETATM   43  C25 UNL     1      17.780  11.345  24.409  1.00  0.00     0.117 C 
HETATM   44  O5  UNL     1      18.775  13.503  24.730  1.00  0.00    -0.274 OA
ENDBRANCH  33  34
BRANCH  33  45
HETATM   45  C28 UNL     1      23.204  11.429  19.835  1.00  0.00     0.013 C 
HETATM   46  C29 UNL     1      24.174  10.589  19.051  1.00  0.00     0.012 C 
BRANCH  45  47
HETATM   47  C30 UNL     1      22.834  12.626  19.051  1.00  0.00     0.002 C 
HETATM   48  C31 UNL     1      24.058  13.076  18.235  1.00  0.00     0.005 C 
ENDBRANCH  45  47
ENDBRANCH  33  45
ENDBRANCH  31  33
ENDBRANCH   1  29
TORSDOF 15
ENDMDL
MODEL 4
REMARK VINA RESULT: -8.716458566      2.688      3.032
REMARK  15 active torsions:
REMARK  status: ('A' for Active; 'I' for Inactive)
REMARK    1  A    between atoms: C2_2  and  C3_3 
REMARK    2  A    between atoms: C3_3  and  C5_5 
REMARK    3  A    between atoms: C5_5  and  N1_6 
REMARK    4  A    between atoms: C5_5  and  C19_29 
REMARK       I    between atoms: N1_6  and  C6_8 
REMARK       I    between atoms: C6_8  and  N2_10 
REMARK    5  A    between atoms: N2_10  and  C7_12 
REMARK    6  A    between atoms: C10_15  and  C11_16 
REMARK    7  A    between atoms: C11_16  and  O2_17 
REMARK    8  A    between atoms: C11_16  and  N3_19 
REMARK    9  A    between atoms: N3_19  and  C12_20 
REMARK   10  A    between atoms: N3_19  and  C14_24 
REMARK   11  A    between atoms: C12_20  and  C13_21 
REMARK       I    between atoms: C19_29  and  N4_31 
REMARK   12  A    between atoms: N4_31  and  C20_33 
REMARK   13  A    between atoms: C20_33  and  C21_34 
REMARK   14  A    between atoms: C20_33  and  C28_45 
REMARK       I    between atoms: C21_34  and  N5_36 
REMARK       I    between atoms: N6_39  and  C24_40 
REMARK   15  A    between atoms: C28_45  and  C30_47 
ROOT
HETATM    1  C5  UNL     1      27.510  11.821  21.363  1.00  0.00     0.182 C 
ENDROOT
BRANCH   1   2
HETATM    2  C3  UNL     1      28.024  10.973  20.251  1.00  0.00     0.013 C 
HETATM    3  C4  UNL     1      27.239  11.091  18.961  1.00  0.00     0.012 C 
BRANCH   2   4
HETATM    4  C2  UNL     1      28.337   9.544  20.592  1.00  0.00     0.002 C 
HETATM    5  C1  UNL     1      28.964   9.470  21.983  1.00  0.00     0.005 C 
ENDBRANCH   2   4
ENDBRANCH   1   2
BRANCH   1   6
HETATM    6  N1  UNL     1      28.322  13.044  21.324  1.00  0.00    -0.330 N 
HETATM    7  C6  UNL     1      29.003  13.497  22.476  1.00  0.00     0.317 C 
HETATM    8  O1  UNL     1      28.895  12.830  23.532  1.00  0.00    -0.247 OA
HETATM    9  N2  UNL     1      29.798  14.663  22.495  1.00  0.00    -0.339 N 
ATOM     10  H2  UNL     1      29.876  15.199  21.631  1.00  0.00     0.164 HD
ATOM     11  H1  UNL     1      28.394  13.573  20.455  1.00  0.00     0.165 HD
BRANCH   9  12
HETATM   12  C7  UNL     1      30.511  15.149  23.662  1.00  0.00     0.086 C 
HETATM   13  C8  UNL     1      31.530  16.178  23.327  1.00  0.00     0.026 C 
HETATM   14  C9  UNL     1      31.197  17.593  23.649  1.00  0.00     0.015 C 
HETATM   15  C10 UNL     1      30.366  17.814  24.861  1.00  0.00     0.060 C 
HETATM   16  C17 UNL     1      30.126  16.558  25.675  1.00  0.00     0.015 C 
HETATM   17  C18 UNL     1      29.559  15.484  24.757  1.00  0.00     0.026 C 
BRANCH  15  18
HETATM   18  C11 UNL     1      30.695  18.935  25.718  1.00  0.00     0.118 C 
BRANCH  18  19
HETATM   19  O2  UNL     1      29.775  19.289  26.567  1.00  0.00    -0.349 OA
ATOM     20  H2  UNL     1      30.087  19.642  27.392  1.00  0.00     0.219 HD
ENDBRANCH  18  19
BRANCH  18  21
HETATM   21  N3  UNL     1      31.858  19.720  25.789  1.00  0.00    -0.359 N 
BRANCH  21  22
HETATM   22  C12 UNL     1      33.025  19.272  26.503  1.00  0.00     0.161 C 
BRANCH  22  23
HETATM   23  C13 UNL     1      33.893  18.286  25.792  1.00  0.00     0.196 C 
HETATM   24 CL1  UNL     1      35.249  17.756  26.849  1.00  0.00    -0.106 Cl
HETATM   25 CL2  UNL     1      34.650  18.939  24.325  1.00  0.00    -0.106 Cl
ENDBRANCH  22  23
ENDBRANCH  21  22
BRANCH  21  26
HETATM   26  C14 UNL     1      31.944  20.984  25.114  1.00  0.00     0.078 C 
HETATM   27  C15 UNL     1      31.850  22.134  26.123  1.00  0.00     0.032 C 
HETATM   28  C16 UNL     1      30.824  21.234  24.121  1.00  0.00     0.032 C 
ENDBRANCH  21  26
ENDBRANCH  18  21
ENDBRANCH  15  18
ENDBRANCH   9  12
ENDBRANCH   1   6
BRANCH   1  29
HETATM   29  C19 UNL     1      26.086  12.122  21.360  1.00  0.00     0.241 C 
HETATM   30  O3  UNL     1      25.738  13.351  21.454  1.00  0.00    -0.271 OA
HETATM   31  N4  UNL     1      25.051  11.181  21.266  1.00  0.00    -0.346 N 
ATOM     32  H4  UNL     1      25.294  10.193  21.195  1.00  0.00     0.163 HD
BRANCH  31  33
HETATM   33  C20 UNL     1      23.629  11.559  21.265  1.00  0.00     0.180 C 
BRANCH  33  34
HETATM   34  C21 UNL     1      22.906  10.641  22.177  1.00  0.00     0.243 C 
HETATM   35  O4  UNL     1      22.714   9.468  21.681  1.00  0.00    -0.271 OA
HETATM   36  N5  UNL     1      22.433  10.884  23.448  1.00  0.00    -0.347 N 
HETATM   37  C22 UNL     1      22.602  12.134  24.134  1.00  0.00     0.145 C 
HETATM   38  C27 UNL     1      21.716   9.853  24.181  1.00  0.00     0.145 C 
HETATM   39  C23 UNL     1      21.304  12.602  24.713  1.00  0.00     0.145 C 
HETATM   40  N6  UNL     1      20.181  11.712  24.543  1.00  0.00    -0.349 N 
HETATM   41  C24 UNL     1      18.878  12.305  24.559  1.00  0.00     0.215 C 
HETATM   42  C26 UNL     1      20.269  10.282  24.364  1.00  0.00     0.145 C 
HETATM   43  C25 UNL     1      17.694  11.434  24.398  1.00  0.00     0.117 C 
HETATM   44  O5  UNL     1      18.761  13.558  24.710  1.00  0.00    -0.274 OA
ENDBRANCH  33  34
BRANCH  33  45
HETATM   45  C28 UNL     1      23.073  11.365  19.870  1.00  0.00     0.013 C 
HETATM   46  C29 UNL     1      23.924  10.441  19.044  1.00  0.00     0.012 C 
BRANCH  45  47
HETATM   47  C30 UNL     1      22.807  12.608  19.115  1.00  0.00     0.002 C 
HETATM   48  C31 UNL     1      24.053  12.949  18.278  1.00  0.00     0.005 C 
ENDBRANCH  45  47
ENDBRANCH  33  45
ENDBRANCH  31  33
ENDBRANCH   1  29
TORSDOF 15
ENDMDL
MODEL 5
REMARK VINA RESULT: -8.662454745      3.652     10.013
REMARK  15 active torsions:
REMARK  status: ('A' for Active; 'I' for Inactive)
REMARK    1  A    between atoms: C2_2  and  C3_3 
REMARK    2  A    between atoms: C3_3  and  C5_5 
REMARK    3  A    between atoms: C5_5  and  N1_6 
REMARK    4  A    between atoms: C5_5  and  C19_29 
REMARK       I    between atoms: N1_6  and  C6_8 
REMARK       I    between atoms: C6_8  and  N2_10 
REMARK    5  A    between atoms: N2_10  and  C7_12 
REMARK    6  A    between atoms: C10_15  and  C11_16 
REMARK    7  A    between atoms: C11_16  and  O2_17 
REMARK    8  A    between atoms: C11_16  and  N3_19 
REMARK    9  A    between atoms: N3_19  and  C12_20 
REMARK   10  A    between atoms: N3_19  and  C14_24 
REMARK   11  A    between atoms: C12_20  and  C13_21 
REMARK       I    between atoms: C19_29  and  N4_31 
REMARK   12  A    between atoms: N4_31  and  C20_33 
REMARK   13  A    between atoms: C20_33  and  C21_34 
REMARK   14  A    between atoms: C20_33  and  C28_45 
REMARK       I    between atoms: C21_34  and  N5_36 
REMARK       I    between atoms: N6_39  and  C24_40 
REMARK   15  A    between atoms: C28_45  and  C30_47 
ROOT
HETATM    1  C5  UNL     1      26.557  12.719  20.483  1.00  0.00     0.182 C 
ENDROOT
BRANCH   1   2
HETATM    2  C3  UNL     1      26.773  11.627  19.492  1.00  0.00     0.013 C 
HETATM    3  C4  UNL     1      25.789  11.625  18.340  1.00  0.00     0.012 C 
BRANCH   2   4
HETATM    4  C2  UNL     1      26.986  10.250  20.054  1.00  0.00     0.002 C 
HETATM    5  C1  UNL     1      28.445   9.837  19.870  1.00  0.00     0.005 C 
ENDBRANCH   2   4
ENDBRANCH   1   2
BRANCH   1   6
HETATM    6  N1  UNL     1      25.887  12.080  21.623  1.00  0.00    -0.330 N 
HETATM    7  C6  UNL     1      24.480  12.109  21.743  1.00  0.00     0.317 C 
HETATM    8  O1  UNL     1      23.818  12.694  20.854  1.00  0.00    -0.247 OA
HETATM    9  N2  UNL     1      23.783  11.510  22.815  1.00  0.00    -0.339 N 
ATOM     10  H2  UNL     1      24.331  11.039  23.534  1.00  0.00     0.164 HD
ATOM     11  H1  UNL     1      26.444  11.610  22.336  1.00  0.00     0.165 HD
BRANCH   9  12
HETATM   12  C7  UNL     1      22.339  11.520  22.962  1.00  0.00     0.086 C 
HETATM   13  C8  UNL     1      21.789  10.196  23.353  1.00  0.00     0.026 C 
HETATM   14  C9  UNL     1      21.360  10.031  24.769  1.00  0.00     0.015 C 
HETATM   15  C10 UNL     1      20.794  11.235  25.430  1.00  0.00     0.060 C 
HETATM   16  C17 UNL     1      20.590  12.408  24.492  1.00  0.00     0.015 C 
HETATM   17  C18 UNL     1      21.903  12.691  23.774  1.00  0.00     0.026 C 
BRANCH  15  18
HETATM   18  C11 UNL     1      19.648  11.060  26.300  1.00  0.00     0.118 C 
BRANCH  18  19
HETATM   19  O2  UNL     1      19.801  10.212  27.275  1.00  0.00    -0.349 OA
ATOM     20  H2  UNL     1      19.817  10.585  28.149  1.00  0.00     0.219 HD
ENDBRANCH  18  19
BRANCH  18  21
HETATM   21  N3  UNL     1      18.378  11.659  26.270  1.00  0.00    -0.359 N 
BRANCH  21  22
HETATM   22  C12 UNL     1      17.212  10.928  25.848  1.00  0.00     0.161 C 
BRANCH  22  23
HETATM   23  C13 UNL     1      17.240  10.395  24.454  1.00  0.00     0.196 C 
HETATM   24 CL1  UNL     1      16.852  11.693  23.270  1.00  0.00    -0.106 Cl
HETATM   25 CL2  UNL     1      16.053   9.107  24.164  1.00  0.00    -0.106 Cl
ENDBRANCH  22  23
ENDBRANCH  21  22
BRANCH  21  26
HETATM   26  C14 UNL     1      18.186  13.016  26.698  1.00  0.00     0.078 C 
HETATM   27  C15 UNL     1      18.363  13.126  28.216  1.00  0.00     0.032 C 
HETATM   28  C16 UNL     1      16.799  13.564  26.418  1.00  0.00     0.032 C 
ENDBRANCH  21  26
ENDBRANCH  18  21
ENDBRANCH  15  18
ENDBRANCH   9  12
ENDBRANCH   1   6
BRANCH   1  29
HETATM   29  C19 UNL     1      27.730  13.471  20.904  1.00  0.00     0.241 C 
HETATM   30  O3  UNL     1      28.432  12.990  21.861  1.00  0.00    -0.271 OA
HETATM   31  N4  UNL     1      28.162  14.686  20.354  1.00  0.00    -0.346 N 
ATOM     32  H4  UNL     1      27.621  15.099  19.594  1.00  0.00     0.163 HD
BRANCH  31  33
HETATM   33  C20 UNL     1      29.363  15.391  20.829  1.00  0.00     0.180 C 
BRANCH  33  34
HETATM   34  C21 UNL     1      28.933  16.468  21.753  1.00  0.00     0.243 C 
HETATM   35  O4  UNL     1      28.373  17.463  21.158  1.00  0.00    -0.271 OA
HETATM   36  N5  UNL     1      29.054  16.526  23.124  1.00  0.00    -0.347 N 
HETATM   37  C22 UNL     1      29.630  15.477  23.917  1.00  0.00     0.145 C 
HETATM   38  C27 UNL     1      28.591  17.693  23.859  1.00  0.00     0.145 C 
HETATM   39  C23 UNL     1      30.643  16.028  24.871  1.00  0.00     0.145 C 
HETATM   40  N6  UNL     1      30.798  17.461  24.867  1.00  0.00    -0.349 N 
HETATM   41  C24 UNL     1      32.060  17.976  25.303  1.00  0.00     0.215 C 
HETATM   42  C26 UNL     1      29.785  18.410  24.467  1.00  0.00     0.145 C 
HETATM   43  C25 UNL     1      32.266  19.441  25.327  1.00  0.00     0.117 C 
HETATM   44  O5  UNL     1      32.976  17.175  25.659  1.00  0.00    -0.274 OA
ENDBRANCH  33  34
BRANCH  33  45
HETATM   45  C28 UNL     1      30.049  16.040  19.645  1.00  0.00     0.013 C 
HETATM   46  C29 UNL     1      29.387  15.685  18.342  1.00  0.00     0.012 C 
BRANCH  45  47
HETATM   47  C30 UNL     1      31.504  15.802  19.546  1.00  0.00     0.002 C 
HETATM   48  C31 UNL     1      31.798  15.104  18.206  1.00  0.00     0.005 C 
ENDBRANCH  45  47
ENDBRANCH  33  45
ENDBRANCH  31  33
ENDBRANCH   1  29
TORSDOF 15
ENDMDL
