MODEL 1
REMARK VINA RESULT: -8.084123979      0.000      0.000
REMARK  11 active torsions:
REMARK  status: ('A' for Active; 'I' for Inactive)
REMARK    1  A    between atoms: C2_2  and  C3_3 
REMARK    2  A    between atoms: C3_3  and  C4_4 
REMARK       I    between atoms: C4_4  and  N1_6 
REMARK    3  A    between atoms: N1_6  and  C5_8 
REMARK    4  A    between atoms: C7_10  and  C8_11 
REMARK    5  A    between atoms: C8_11  and  N2_12 
REMARK       I    between atoms: N2_12  and  C10_14 
REMARK    6  A    between atoms: C10_14  and  C11_16 
REMARK    7  A    between atoms: C16_22  and  N3_23 
REMARK       I    between atoms: N3_23  and  C17_25 
REMARK    8  A    between atoms: C17_25  and  C18_27 
REMARK    9  A    between atoms: C18_27  and  C19_28 
REMARK   10  A    between atoms: C19_28  and  N4_29 
REMARK   11  A    between atoms: C26_40  and  O5_41 
ROOT
HETATM    1  N2  UNL     1      19.676  12.080  27.139  1.00  0.00    -0.350 N 
HETATM    2  C9  UNL     1      19.119  12.029  28.468  1.00  0.00     0.153 C 
HETATM    3  C10 UNL     1      20.466  10.994  26.666  1.00  0.00     0.243 C 
HETATM    4  O2  UNL     1      20.651  10.067  27.483  1.00  0.00    -0.271 OA
ENDROOT
BRANCH   3   5
HETATM    5  C11 UNL     1      20.972  11.057  25.322  1.00  0.00     0.190 C 
HETATM    6  C12 UNL     1      21.770   9.760  24.960  1.00  0.00     0.111 C 
HETATM    7  S1  UNL     1      22.182  10.260  23.232  1.00  0.00    -0.141 SA
HETATM    8  C13 UNL     1      21.769  12.045  23.451  1.00  0.00     0.150 C 
HETATM    9  C14 UNL     1      22.651  12.954  22.720  1.00  0.00     0.039 C 
HETATM   10  N5  UNL     1      21.895  12.058  24.919  1.00  0.00    -0.323 N 
HETATM   11  C15 UNL     1      22.888  14.229  23.475  1.00  0.00     0.038 C 
HETATM   12  C16 UNL     1      23.710  13.836  24.712  1.00  0.00     0.176 C 
HETATM   13  C23 UNL     1      22.794  12.940  25.507  1.00  0.00     0.244 C 
HETATM   14  O4  UNL     1      22.939  13.087  26.761  1.00  0.00    -0.271 OA
BRANCH  12  15
HETATM   15  N3  UNL     1      24.908  13.112  24.335  1.00  0.00    -0.348 N 
HETATM   16  C17 UNL     1      26.087  13.836  23.972  1.00  0.00     0.219 C 
HETATM   17  O3  UNL     1      26.085  15.083  23.980  1.00  0.00    -0.274 OA
ATOM     18  H3  UNL     1      24.910  12.092  24.329  1.00  0.00     0.163 HD
BRANCH  16  19
HETATM   19  C18 UNL     1      27.297  13.100  23.586  1.00  0.00     0.130 C 
BRANCH  19  20
HETATM   20  C19 UNL     1      27.941  13.535  22.322  1.00  0.00     0.245 C 
BRANCH  20  21
HETATM   21  N4  UNL     1      28.365  12.530  21.411  1.00  0.00    -0.078 N 
HETATM   22  C20 UNL     1      27.229  12.087  20.617  1.00  0.00     0.271 C 
HETATM   23  C21 UNL     1      28.975  11.366  21.969  1.00  0.00     0.271 C 
HETATM   24  C22 UNL     1      29.354  13.134  20.483  1.00  0.00     0.271 C 
ENDBRANCH  20  21
ENDBRANCH  19  20
ENDBRANCH  16  19
ENDBRANCH  12  15
ENDBRANCH   3   5
BRANCH   1  25
HETATM   25  C8  UNL     1      19.416  13.239  26.322  1.00  0.00     0.165 C 
BRANCH  25  26
HETATM   26  C7  UNL     1      18.056  13.194  25.717  1.00  0.00    -0.019 A 
HETATM   27  C6  UNL     1      17.776  12.393  24.595  1.00  0.00     0.042 A 
HETATM   28  C5  UNL     1      16.540  12.325  24.009  1.00  0.00     0.070 A 
HETATM   29  C26 UNL     1      15.537  13.112  24.596  1.00  0.00     0.111 A 
HETATM   30  C25 UNL     1      15.825  13.908  25.714  1.00  0.00     0.064 A 
HETATM   31  C24 UNL     1      17.073  13.959  26.282  1.00  0.00     0.039 A 
HETATM   32 BR2  UNL     1      14.434  14.972  26.494  1.00  0.00    -0.047 Br
HETATM   33 BR1  UNL     1      17.388  15.062  27.803  1.00  0.00    -0.049 Br
BRANCH  28  34
HETATM   34  N1  UNL     1      16.236  11.529  22.885  1.00  0.00    -0.325 N 
HETATM   35  C4  UNL     1      15.397  10.423  22.846  1.00  0.00     0.222 C 
HETATM   36  O1  UNL     1      14.776   9.957  23.802  1.00  0.00    -0.273 OA
ATOM     37  H1  UNL     1      16.681  11.793  22.006  1.00  0.00     0.169 HD
BRANCH  35  38
HETATM   38  C3  UNL     1      15.206   9.702  21.535  1.00  0.00     0.103 C 
BRANCH  38  39
HETATM   39  C2  UNL     1      15.221   8.216  21.728  1.00  0.00     0.005 C 
HETATM   40  C1  UNL     1      16.017   7.537  20.646  1.00  0.00     0.005 C 
ENDBRANCH  38  39
ENDBRANCH  35  38
ENDBRANCH  28  34
BRANCH  29  41
HETATM   41  O5  UNL     1      14.280  13.121  24.097  1.00  0.00    -0.357 OA
ATOM     42  H5  UNL     1      13.876  12.322  23.779  1.00  0.00     0.217 HD
ENDBRANCH  29  41
ENDBRANCH  25  26
ENDBRANCH   1  25
TORSDOF 11
ENDMDL
MODEL 2
REMARK VINA RESULT: -8.033956667      5.750      9.037
REMARK  11 active torsions:
REMARK  status: ('A' for Active; 'I' for Inactive)
REMARK    1  A    between atoms: C2_2  and  C3_3 
REMARK    2  A    between atoms: C3_3  and  C4_4 
REMARK       I    between atoms: C4_4  and  N1_6 
REMARK    3  A    between atoms: N1_6  and  C5_8 
REMARK    4  A    between atoms: C7_10  and  C8_11 
REMARK    5  A    between atoms: C8_11  and  N2_12 
REMARK       I    between atoms: N2_12  and  C10_14 
REMARK    6  A    between atoms: C10_14  and  C11_16 
REMARK    7  A    between atoms: C16_22  and  N3_23 
REMARK       I    between atoms: N3_23  and  C17_25 
REMARK    8  A    between atoms: C17_25  and  C18_27 
REMARK    9  A    between atoms: C18_27  and  C19_28 
REMARK   10  A    between atoms: C19_28  and  N4_29 
REMARK   11  A    between atoms: C26_40  and  O5_41 
ROOT
HETATM    1  N2  UNL     1      28.197  13.426  22.523  1.00  0.00    -0.350 N 
HETATM    2  C9  UNL     1      28.674  12.070  22.635  1.00  0.00     0.153 C 
HETATM    3  C10 UNL     1      28.713  14.425  23.396  1.00  0.00     0.243 C 
HETATM    4  O2  UNL     1      29.539  14.027  24.244  1.00  0.00    -0.271 OA
ENDROOT
BRANCH   3   5
HETATM    5  C11 UNL     1      28.247  15.775  23.232  1.00  0.00     0.190 C 
HETATM    6  C12 UNL     1      29.389  16.704  22.698  1.00  0.00     0.111 C 
HETATM    7  S1  UNL     1      28.373  18.243  22.625  1.00  0.00    -0.141 SA
HETATM    8  C13 UNL     1      26.995  17.605  23.675  1.00  0.00     0.150 C 
HETATM    9  C14 UNL     1      26.407  18.611  24.558  1.00  0.00     0.039 C 
HETATM   10  N5  UNL     1      27.775  16.541  24.331  1.00  0.00    -0.323 N 
HETATM   11  C15 UNL     1      25.978  18.020  25.870  1.00  0.00     0.038 C 
HETATM   12  C16 UNL     1      27.273  17.613  26.588  1.00  0.00     0.176 C 
HETATM   13  C23 UNL     1      27.867  16.535  25.717  1.00  0.00     0.244 C 
HETATM   14  O4  UNL     1      28.453  15.632  26.394  1.00  0.00    -0.271 OA
BRANCH  12  15
HETATM   15  N3  UNL     1      28.189  18.731  26.688  1.00  0.00    -0.348 N 
HETATM   16  C17 UNL     1      28.044  19.671  27.757  1.00  0.00     0.219 C 
HETATM   17  O3  UNL     1      27.135  19.528  28.599  1.00  0.00    -0.274 OA
ATOM     18  H3  UNL     1      28.933  18.847  26.001  1.00  0.00     0.163 HD
BRANCH  16  19
HETATM   19  C18 UNL     1      28.971  20.806  27.853  1.00  0.00     0.130 C 
BRANCH  19  20
HETATM   20  C19 UNL     1      29.701  21.148  26.608  1.00  0.00     0.245 C 
BRANCH  20  21
HETATM   21  N4  UNL     1      31.114  20.985  26.599  1.00  0.00    -0.078 N 
HETATM   22  C20 UNL     1      31.472  19.921  25.673  1.00  0.00     0.271 C 
HETATM   23  C21 UNL     1      31.739  20.692  27.849  1.00  0.00     0.271 C 
HETATM   24  C22 UNL     1      31.721  22.242  26.096  1.00  0.00     0.271 C 
ENDBRANCH  20  21
ENDBRANCH  19  20
ENDBRANCH  16  19
ENDBRANCH  12  15
ENDBRANCH   3   5
BRANCH   1  25
HETATM   25  C8  UNL     1      27.204  13.732  21.524  1.00  0.00     0.165 C 
BRANCH  25  26
HETATM   26  C7  UNL     1      25.928  13.006  21.776  1.00  0.00    -0.019 A 
HETATM   27  C6  UNL     1      25.238  13.133  22.994  1.00  0.00     0.042 A 
HETATM   28  C5  UNL     1      24.064  12.483  23.266  1.00  0.00     0.070 A 
HETATM   29  C26 UNL     1      23.565  11.662  22.242  1.00  0.00     0.111 A 
HETATM   30  C25 UNL     1      24.260  11.541  21.030  1.00  0.00     0.064 A 
HETATM   31  C24 UNL     1      25.436  12.203  20.784  1.00  0.00     0.039 A 
HETATM   32 BR2  UNL     1      23.554  10.414  19.650  1.00  0.00    -0.047 Br
HETATM   33 BR1  UNL     1      26.322  11.993  19.111  1.00  0.00    -0.049 Br
BRANCH  28  34
HETATM   34  N1  UNL     1      23.354  12.596  24.479  1.00  0.00    -0.325 N 
HETATM   35  C4  UNL     1      22.060  13.071  24.651  1.00  0.00     0.222 C 
HETATM   36  O1  UNL     1      21.317  13.474  23.756  1.00  0.00    -0.273 OA
ATOM     37  H1  UNL     1      23.844  12.296  25.323  1.00  0.00     0.169 HD
BRANCH  35  38
HETATM   38  C3  UNL     1      21.481  13.113  26.043  1.00  0.00     0.103 C 
BRANCH  38  39
HETATM   39  C2  UNL     1      22.485  13.622  27.031  1.00  0.00     0.005 C 
HETATM   40  C1  UNL     1      22.414  12.850  28.321  1.00  0.00     0.005 C 
ENDBRANCH  38  39
ENDBRANCH  35  38
ENDBRANCH  28  34
BRANCH  29  41
HETATM   41  O5  UNL     1      22.412  10.974  22.402  1.00  0.00    -0.357 OA
ATOM     42  H5  UNL     1      21.749  11.269  23.015  1.00  0.00     0.217 HD
ENDBRANCH  29  41
ENDBRANCH  25  26
ENDBRANCH   1  25
TORSDOF 11
ENDMDL
MODEL 3
REMARK VINA RESULT: -8.009125227      5.741      9.244
REMARK  11 active torsions:
REMARK  status: ('A' for Active; 'I' for Inactive)
REMARK    1  A    between atoms: C2_2  and  C3_3 
REMARK    2  A    between atoms: C3_3  and  C4_4 
REMARK       I    between atoms: C4_4  and  N1_6 
REMARK    3  A    between atoms: N1_6  and  C5_8 
REMARK    4  A    between atoms: C7_10  and  C8_11 
REMARK    5  A    between atoms: C8_11  and  N2_12 
REMARK       I    between atoms: N2_12  and  C10_14 
REMARK    6  A    between atoms: C10_14  and  C11_16 
REMARK    7  A    between atoms: C16_22  and  N3_23 
REMARK       I    between atoms: N3_23  and  C17_25 
REMARK    8  A    between atoms: C17_25  and  C18_27 
REMARK    9  A    between atoms: C18_27  and  C19_28 
REMARK   10  A    between atoms: C19_28  and  N4_29 
REMARK   11  A    between atoms: C26_40  and  O5_41 
ROOT
HETATM    1  N2  UNL     1      28.548  12.266  20.853  1.00  0.00    -0.350 N 
HETATM    2  C9  UNL     1      28.533  10.829  20.732  1.00  0.00     0.153 C 
HETATM    3  C10 UNL     1      29.623  12.901  21.538  1.00  0.00     0.243 C 
HETATM    4  O2  UNL     1      30.477  12.133  22.029  1.00  0.00    -0.271 OA
ENDROOT
BRANCH   3   5
HETATM    5  C11 UNL     1      29.630  14.337  21.606  1.00  0.00     0.190 C 
HETATM    6  C12 UNL     1      31.083  14.883  21.815  1.00  0.00     0.111 C 
HETATM    7  S1  UNL     1      30.622  16.670  21.816  1.00  0.00    -0.141 SA
HETATM    8  C13 UNL     1      28.813  16.395  22.061  1.00  0.00     0.150 C 
HETATM    9  C14 UNL     1      28.170  17.394  22.915  1.00  0.00     0.039 C 
HETATM   10  N5  UNL     1      28.934  15.039  22.625  1.00  0.00    -0.323 N 
HETATM   11  C15 UNL     1      27.079  16.792  23.753  1.00  0.00     0.038 C 
HETATM   12  C16 UNL     1      27.782  15.857  24.747  1.00  0.00     0.176 C 
HETATM   13  C23 UNL     1      28.406  14.788  23.885  1.00  0.00     0.244 C 
HETATM   14  O4  UNL     1      28.391  13.645  24.443  1.00  0.00    -0.271 OA
BRANCH  12  15
HETATM   15  N3  UNL     1      28.810  16.559  25.489  1.00  0.00    -0.348 N 
HETATM   16  C17 UNL     1      28.437  17.436  26.556  1.00  0.00     0.219 C 
HETATM   17  O3  UNL     1      27.235  17.594  26.848  1.00  0.00    -0.274 OA
ATOM     18  H3  UNL     1      29.793  16.429  25.251  1.00  0.00     0.163 HD
BRANCH  16  19
HETATM   19  C18 UNL     1      29.481  18.150  27.303  1.00  0.00     0.130 C 
BRANCH  19  20
HETATM   20  C19 UNL     1      29.607  19.598  27.009  1.00  0.00     0.245 C 
BRANCH  20  21
HETATM   21  N4  UNL     1      30.823  20.058  26.435  1.00  0.00    -0.078 N 
HETATM   22  C20 UNL     1      30.546  21.178  25.548  1.00  0.00     0.271 C 
HETATM   23  C21 UNL     1      31.590  19.107  25.695  1.00  0.00     0.271 C 
HETATM   24  C22 UNL     1      31.692  20.556  27.530  1.00  0.00     0.271 C 
ENDBRANCH  20  21
ENDBRANCH  19  20
ENDBRANCH  16  19
ENDBRANCH  12  15
ENDBRANCH   3   5
BRANCH   1  25
HETATM   25  C8  UNL     1      27.467  13.023  20.274  1.00  0.00     0.165 C 
BRANCH  25  26
HETATM   26  C7  UNL     1      26.156  12.666  20.884  1.00  0.00    -0.019 A 
HETATM   27  C6  UNL     1      25.836  13.027  22.205  1.00  0.00     0.042 A 
HETATM   28  C5  UNL     1      24.644  12.717  22.803  1.00  0.00     0.070 A 
HETATM   29  C26 UNL     1      23.729  12.003  22.014  1.00  0.00     0.111 A 
HETATM   30  C25 UNL     1      24.055  11.646  20.698  1.00  0.00     0.064 A 
HETATM   31  C24 UNL     1      25.258  11.968  20.123  1.00  0.00     0.039 A 
HETATM   32 BR2  UNL     1      22.784  10.672  19.645  1.00  0.00    -0.047 Br
HETATM   33 BR1  UNL     1      25.631  11.452  18.328  1.00  0.00    -0.049 Br
BRANCH  28  34
HETATM   34  N1  UNL     1      24.302  13.071  24.125  1.00  0.00    -0.325 N 
HETATM   35  C4  UNL     1      23.969  14.336  24.593  1.00  0.00     0.222 C 
HETATM   36  O1  UNL     1      23.918  15.363  23.917  1.00  0.00    -0.273 OA
ATOM     37  H1  UNL     1      24.299  12.316  24.812  1.00  0.00     0.169 HD
BRANCH  35  38
HETATM   38  C3  UNL     1      23.634  14.504  26.055  1.00  0.00     0.103 C 
BRANCH  38  39
HETATM   39  C2  UNL     1      22.471  13.645  26.444  1.00  0.00     0.005 C 
HETATM   40  C1  UNL     1      22.560  13.237  27.891  1.00  0.00     0.005 C 
ENDBRANCH  38  39
ENDBRANCH  35  38
ENDBRANCH  28  34
BRANCH  29  41
HETATM   41  O5  UNL     1      22.520  11.646  22.505  1.00  0.00    -0.357 OA
ATOM     42  H5  UNL     1      21.814  11.390  21.923  1.00  0.00     0.217 HD
ENDBRANCH  29  41
ENDBRANCH  25  26
ENDBRANCH   1  25
TORSDOF 11
ENDMDL
MODEL 4
REMARK VINA RESULT: -7.743353721      5.040      9.363
REMARK  11 active torsions:
REMARK  status: ('A' for Active; 'I' for Inactive)
REMARK    1  A    between atoms: C2_2  and  C3_3 
REMARK    2  A    between atoms: C3_3  and  C4_4 
REMARK       I    between atoms: C4_4  and  N1_6 
REMARK    3  A    between atoms: N1_6  and  C5_8 
REMARK    4  A    between atoms: C7_10  and  C8_11 
REMARK    5  A    between atoms: C8_11  and  N2_12 
REMARK       I    between atoms: N2_12  and  C10_14 
REMARK    6  A    between atoms: C10_14  and  C11_16 
REMARK    7  A    between atoms: C16_22  and  N3_23 
REMARK       I    between atoms: N3_23  and  C17_25 
REMARK    8  A    between atoms: C17_25  and  C18_27 
REMARK    9  A    between atoms: C18_27  and  C19_28 
REMARK   10  A    between atoms: C19_28  and  N4_29 
REMARK   11  A    between atoms: C26_40  and  O5_41 
ROOT
HETATM    1  N2  UNL     1      18.379  13.369  28.784  1.00  0.00    -0.350 N 
HETATM    2  C9  UNL     1      18.679  12.317  29.724  1.00  0.00     0.153 C 
HETATM    3  C10 UNL     1      17.109  14.011  28.832  1.00  0.00     0.243 C 
HETATM    4  O2  UNL     1      16.315  13.572  29.691  1.00  0.00    -0.271 OA
ENDROOT
BRANCH   3   5
HETATM    5  C11 UNL     1      16.855  15.083  27.908  1.00  0.00     0.190 C 
HETATM    6  C12 UNL     1      15.849  16.120  28.512  1.00  0.00     0.111 C 
HETATM    7  S1  UNL     1      15.848  17.260  27.060  1.00  0.00    -0.141 SA
HETATM    8  C13 UNL     1      16.622  16.064  25.885  1.00  0.00     0.150 C 
HETATM    9  C14 UNL     1      16.104  16.153  24.521  1.00  0.00     0.039 C 
HETATM   10  N5  UNL     1      16.266  14.850  26.638  1.00  0.00    -0.323 N 
HETATM   11  C15 UNL     1      16.047  14.807  23.856  1.00  0.00     0.038 C 
HETATM   12  C16 UNL     1      14.968  14.015  24.609  1.00  0.00     0.176 C 
HETATM   13  C23 UNL     1      15.512  13.867  26.007  1.00  0.00     0.244 C 
HETATM   14  O4  UNL     1      15.204  12.751  26.532  1.00  0.00    -0.271 OA
BRANCH  12  15
HETATM   15  N3  UNL     1      13.713  14.739  24.638  1.00  0.00    -0.348 N 
HETATM   16  C17 UNL     1      12.769  14.562  23.578  1.00  0.00     0.219 C 
HETATM   17  O3  UNL     1      13.025  13.789  22.633  1.00  0.00    -0.274 OA
ATOM     18  H3  UNL     1      13.504  15.371  25.411  1.00  0.00     0.163 HD
BRANCH  16  19
HETATM   19  C18 UNL     1      11.500  15.301  23.608  1.00  0.00     0.130 C 
BRANCH  19  20
HETATM   20  C19 UNL     1      11.355  16.374  22.594  1.00  0.00     0.245 C 
BRANCH  20  21
HETATM   21  N4  UNL     1      10.264  16.289  21.687  1.00  0.00    -0.078 N 
HETATM   22  C20 UNL     1       9.032  16.640  22.379  1.00  0.00     0.271 C 
HETATM   23  C21 UNL     1      10.051  15.029  21.049  1.00  0.00     0.271 C 
HETATM   24  C22 UNL     1      10.477  17.289  20.612  1.00  0.00     0.271 C 
ENDBRANCH  20  21
ENDBRANCH  19  20
ENDBRANCH  16  19
ENDBRANCH  12  15
ENDBRANCH   3   5
BRANCH   1  25
HETATM   25  C8  UNL     1      19.379  13.740  27.815  1.00  0.00     0.165 C 
BRANCH  25  26
HETATM   26  C7  UNL     1      19.555  12.689  26.774  1.00  0.00    -0.019 A 
HETATM   27  C6  UNL     1      18.481  11.883  26.354  1.00  0.00     0.042 A 
HETATM   28  C5  UNL     1      18.601  10.906  25.402  1.00  0.00     0.070 A 
HETATM   29  C26 UNL     1      19.880  10.743  24.847  1.00  0.00     0.111 A 
HETATM   30  C25 UNL     1      20.945  11.551  25.272  1.00  0.00     0.064 A 
HETATM   31  C24 UNL     1      20.798  12.523  26.229  1.00  0.00     0.039 A 
HETATM   32 BR2  UNL     1      22.680  11.305  24.494  1.00  0.00    -0.047 Br
HETATM   33 BR1  UNL     1      22.290  13.584  26.753  1.00  0.00    -0.049 Br
BRANCH  28  34
HETATM   34  N1  UNL     1      17.540  10.087  24.965  1.00  0.00    -0.325 N 
HETATM   35  C4  UNL     1      16.686  10.324  23.895  1.00  0.00     0.222 C 
HETATM   36  O1  UNL     1      16.723  11.302  23.147  1.00  0.00    -0.273 OA
ATOM     37  H1  UNL     1      17.381   9.228  25.491  1.00  0.00     0.169 HD
BRANCH  35  38
HETATM   38  C3  UNL     1      15.604   9.317  23.592  1.00  0.00     0.103 C 
BRANCH  38  39
HETATM   39  C2  UNL     1      15.138   9.436  22.173  1.00  0.00     0.005 C 
HETATM   40  C1  UNL     1      15.435   8.179  21.400  1.00  0.00     0.005 C 
ENDBRANCH  38  39
ENDBRANCH  35  38
ENDBRANCH  28  34
BRANCH  29  41
HETATM   41  O5  UNL     1      20.111   9.808  23.897  1.00  0.00    -0.357 OA
ATOM     42  H5  UNL     1      19.398   9.446  23.386  1.00  0.00     0.217 HD
ENDBRANCH  29  41
ENDBRANCH  25  26
ENDBRANCH   1  25
TORSDOF 11
ENDMDL
MODEL 5
REMARK VINA RESULT: -7.679407731      3.864     10.056
REMARK  11 active torsions:
REMARK  status: ('A' for Active; 'I' for Inactive)
REMARK    1  A    between atoms: C2_2  and  C3_3 
REMARK    2  A    between atoms: C3_3  and  C4_4 
REMARK       I    between atoms: C4_4  and  N1_6 
REMARK    3  A    between atoms: N1_6  and  C5_8 
REMARK    4  A    between atoms: C7_10  and  C8_11 
REMARK    5  A    between atoms: C8_11  and  N2_12 
REMARK       I    between atoms: N2_12  and  C10_14 
REMARK    6  A    between atoms: C10_14  and  C11_16 
REMARK    7  A    between atoms: C16_22  and  N3_23 
REMARK       I    between atoms: N3_23  and  C17_25 
REMARK    8  A    between atoms: C17_25  and  C18_27 
REMARK    9  A    between atoms: C18_27  and  C19_28 
REMARK   10  A    between atoms: C19_28  and  N4_29 
REMARK   11  A    between atoms: C26_40  and  O5_41 
ROOT
HETATM    1  N2  UNL     1      20.789  11.181  25.709  1.00  0.00    -0.350 N 
HETATM    2  C9  UNL     1      21.463  10.044  25.136  1.00  0.00     0.153 C 
HETATM    3  C10 UNL     1      20.162  11.058  26.981  1.00  0.00     0.243 C 
HETATM    4  O2  UNL     1      20.217   9.924  27.502  1.00  0.00    -0.271 OA
ENDROOT
BRANCH   3   5
HETATM    5  C11 UNL     1      19.532  12.222  27.543  1.00  0.00     0.190 C 
HETATM    6  C12 UNL     1      19.111  11.972  29.030  1.00  0.00     0.111 C 
HETATM    7  S1  UNL     1      18.408  13.654  29.321  1.00  0.00    -0.141 SA
HETATM    8  C13 UNL     1      18.309  14.124  27.538  1.00  0.00     0.150 C 
HETATM    9  C14 UNL     1      17.137  14.930  27.201  1.00  0.00     0.039 C 
HETATM   10  N5  UNL     1      18.325  12.749  27.011  1.00  0.00    -0.323 N 
HETATM   11  C15 UNL     1      16.615  14.610  25.830  1.00  0.00     0.038 C 
HETATM   12  C16 UNL     1      16.064  13.179  25.916  1.00  0.00     0.176 C 
HETATM   13  C23 UNL     1      17.272  12.325  26.210  1.00  0.00     0.244 C 
HETATM   14  O4  UNL     1      17.211  11.188  25.645  1.00  0.00    -0.271 OA
BRANCH  12  15
HETATM   15  N3  UNL     1      15.096  13.055  26.986  1.00  0.00    -0.348 N 
HETATM   16  C17 UNL     1      13.731  13.412  26.750  1.00  0.00     0.219 C 
HETATM   17  O3  UNL     1      13.376  13.826  25.629  1.00  0.00    -0.274 OA
ATOM     18  H3  UNL     1      15.386  12.716  27.903  1.00  0.00     0.163 HD
BRANCH  16  19
HETATM   19  C18 UNL     1      12.752  13.289  27.839  1.00  0.00     0.130 C 
BRANCH  19  20
HETATM   20  C19 UNL     1      12.007  12.009  27.894  1.00  0.00     0.245 C 
BRANCH  20  21
HETATM   21  N4  UNL     1      11.400  11.644  29.126  1.00  0.00    -0.078 N 
HETATM   22  C20 UNL     1      12.318  11.929  30.219  1.00  0.00     0.271 C 
HETATM   23  C21 UNL     1      10.981  10.286  29.264  1.00  0.00     0.271 C 
HETATM   24  C22 UNL     1      10.196  12.490  29.318  1.00  0.00     0.271 C 
ENDBRANCH  20  21
ENDBRANCH  19  20
ENDBRANCH  16  19
ENDBRANCH  12  15
ENDBRANCH   3   5
BRANCH   1  25
HETATM   25  C8  UNL     1      20.765  12.418  24.970  1.00  0.00     0.165 C 
BRANCH  25  26
HETATM   26  C7  UNL     1      22.025  12.627  24.204  1.00  0.00    -0.019 A 
HETATM   27  C6  UNL     1      22.197  12.097  22.912  1.00  0.00     0.042 A 
HETATM   28  C5  UNL     1      23.339  12.264  22.176  1.00  0.00     0.070 A 
HETATM   29  C26 UNL     1      24.359  13.012  22.785  1.00  0.00     0.111 A 
HETATM   30  C25 UNL     1      24.180  13.536  24.073  1.00  0.00     0.064 A 
HETATM   31  C24 UNL     1      23.025  13.353  24.791  1.00  0.00     0.039 A 
HETATM   32 BR2  UNL     1      25.590  14.554  24.879  1.00  0.00    -0.047 Br
HETATM   33 BR1  UNL     1      22.852  14.099  26.535  1.00  0.00    -0.049 Br
BRANCH  28  34
HETATM   34  N1  UNL     1      23.533  11.744  20.880  1.00  0.00    -0.325 N 
HETATM   35  C4  UNL     1      23.728  10.413  20.533  1.00  0.00     0.222 C 
HETATM   36  O1  UNL     1      23.761   9.463  21.315  1.00  0.00    -0.273 OA
ATOM     37  H1  UNL     1      23.530  12.417  20.114  1.00  0.00     0.169 HD
BRANCH  35  38
HETATM   38  C3  UNL     1      23.920  10.062  19.078  1.00  0.00     0.103 C 
BRANCH  38  39
HETATM   39  C2  UNL     1      24.711  11.118  18.368  1.00  0.00     0.005 C 
HETATM   40  C1  UNL     1      26.172  11.029  18.721  1.00  0.00     0.005 C 
ENDBRANCH  38  39
ENDBRANCH  35  38
ENDBRANCH  28  34
BRANCH  29  41
HETATM   41  O5  UNL     1      25.530  13.240  22.147  1.00  0.00    -0.357 OA
ATOM     42  H5  UNL     1      25.891  12.598  21.547  1.00  0.00     0.217 HD
ENDBRANCH  29  41
ENDBRANCH  25  26
ENDBRANCH   1  25
TORSDOF 11
ENDMDL
