MODEL 1
REMARK VINA RESULT: -9.094507465      0.000      0.000
REMARK  13 active torsions:
REMARK  status: ('A' for Active; 'I' for Inactive)
REMARK    1  A    between atoms: C2_2  and  C3_3 
REMARK       I    between atoms: C3_3  and  N1_5 
REMARK    2  A    between atoms: N1_5  and  C4_7 
REMARK    3  A    between atoms: C6_9  and  C7_10 
REMARK    4  A    between atoms: C7_10  and  N3_20 
REMARK    5  A    between atoms: N2_11  and  S1_13 
REMARK    6  A    between atoms: S1_13  and  C8_16 
REMARK    7  A    between atoms: N3_20  and  C11_22 
REMARK    8  A    between atoms: C11_22  and  C12_23 
REMARK    9  A    between atoms: C11_22  and  C15_28 
REMARK   10  A    between atoms: C12_23  and  C13_24 
REMARK   11  A    between atoms: C13_24  and  C14_25 
REMARK       I    between atoms: C15_28  and  N4_30 
REMARK   12  A    between atoms: C22_37  and  C23_38 
REMARK       I    between atoms: C23_38  and  N5_40 
REMARK   13  A    between atoms: C24_42  and  C25_43 
ROOT
HETATM    1  C7  UNL     1      20.810  11.890  25.134  1.00  0.00     0.092 C 
HETATM    2  N2  UNL     1      21.626  12.181  26.019  1.00  0.00    -0.272 N 
ATOM      3  H2  UNL     1      22.491  11.686  25.802  1.00  0.00     0.180 HD
ENDROOT
BRANCH   1   4
HETATM    4  C6  UNL     1      21.264  10.973  24.088  1.00  0.00     0.071 C 
HETATM    5  C5  UNL     1      22.576  10.293  24.157  1.00  0.00     0.039 C 
HETATM    6  C4  UNL     1      22.545  10.327  22.614  1.00  0.00     0.099 C 
HETATM    7  C22 UNL     1      21.755  11.632  22.814  1.00  0.00     0.112 C 
BRANCH   6   8
HETATM    8  N1  UNL     1      23.786  10.424  21.950  1.00  0.00    -0.355 N 
HETATM    9  C3  UNL     1      23.805  10.470  20.520  1.00  0.00     0.226 C 
HETATM   10  O1  UNL     1      22.723  10.420  19.884  1.00  0.00    -0.273 OA
ATOM     11  H1  UNL     1      24.656  10.460  22.481  1.00  0.00     0.162 HD
BRANCH   9  12
HETATM   12  C2  UNL     1      25.056  10.574  19.722  1.00  0.00     0.037 A 
HETATM   13  C1  UNL     1      26.310  10.014  20.401  1.00  0.00     0.025 C 
HETATM   14  C26 UNL     1      25.239  11.850  18.937  1.00  0.00     0.020 A 
HETATM   15  C27 UNL     1      25.024  10.533  18.252  1.00  0.00     0.020 A 
ENDBRANCH   9  12
ENDBRANCH   6   8
BRANCH   7  16
HETATM   16  C23 UNL     1      22.576  12.828  22.883  1.00  0.00     0.228 C 
HETATM   17  O7  UNL     1      21.935  13.950  22.790  1.00  0.00    -0.273 OA
HETATM   18  N5  UNL     1      23.964  12.914  23.036  1.00  0.00    -0.340 N 
HETATM   19  C24 UNL     1      24.578  13.644  23.854  1.00  0.00     0.074 C 
ATOM     20  H5  UNL     1      24.533  12.327  22.425  1.00  0.00     0.167 HD
BRANCH  19  21
HETATM   21  C25 UNL     1      26.062  13.625  23.896  1.00  0.00     0.129 C 
HETATM   22 BR1  UNL     1      26.831  13.445  22.138  1.00  0.00    -0.091 Br
ENDBRANCH  19  21
ENDBRANCH   7  16
ENDBRANCH   1   4
BRANCH   1  23
HETATM   23  N3  UNL     1      19.503  12.411  25.114  1.00  0.00    -0.366 N 
ATOM     24  H3  UNL     1      19.403  13.425  25.064  1.00  0.00     0.161 HD
BRANCH  23  25
HETATM   25  C11 UNL     1      18.267  11.610  25.156  1.00  0.00     0.175 C 
BRANCH  25  26
HETATM   26  C12 UNL     1      17.740  11.468  23.736  1.00  0.00     0.045 C 
BRANCH  26  27
HETATM   27  C13 UNL     1      16.957  10.220  23.471  1.00  0.00     0.116 C 
BRANCH  27  28
HETATM   28  C14 UNL     1      15.516  10.509  23.491  1.00  0.00     0.172 C 
HETATM   29  O4  UNL     1      14.872  10.639  24.530  1.00  0.00    -0.648 OA
HETATM   30  O5  UNL     1      14.882  10.635  22.226  1.00  0.00    -0.648 OA
ENDBRANCH  27  28
ENDBRANCH  26  27
ENDBRANCH  25  26
BRANCH  25  31
HETATM   31  C15 UNL     1      17.311  12.418  25.971  1.00  0.00     0.243 C 
HETATM   32  O6  UNL     1      17.190  12.041  27.199  1.00  0.00    -0.271 OA
HETATM   33  N4  UNL     1      16.549  13.507  25.566  1.00  0.00    -0.341 N 
HETATM   34  C16 UNL     1      15.626  14.335  26.368  1.00  0.00     0.088 C 
HETATM   35  C19 UNL     1      16.389  14.150  24.291  1.00  0.00     0.088 C 
HETATM   36  C17 UNL     1      16.160  15.708  26.062  1.00  0.00     0.027 C 
HETATM   37  C21 UNL     1      14.361  14.123  25.573  1.00  0.00     0.027 C 
HETATM   38  C18 UNL     1      16.772  15.572  24.656  1.00  0.00     0.027 C 
HETATM   39  C20 UNL     1      14.880  14.159  24.144  1.00  0.00     0.027 C 
ENDBRANCH  25  31
ENDBRANCH  23  25
ENDBRANCH   1  23
BRANCH   2  40
HETATM   40  S1  UNL     1      21.894  13.029  27.388  1.00  0.00     0.253 S 
HETATM   41  O2  UNL     1      23.180  12.680  28.122  1.00  0.00    -0.204 OA
HETATM   42  O3  UNL     1      21.976  14.548  27.144  1.00  0.00    -0.204 OA
BRANCH  40  43
HETATM   43  C8  UNL     1      20.538  12.856  28.539  1.00  0.00     0.151 C 
HETATM   44  C9  UNL     1      19.500  13.911  28.292  1.00  0.00     0.051 C 
HETATM   45  C10 UNL     1      21.051  13.129  29.964  1.00  0.00     0.051 C 
HETATM   46 CL1  UNL     1      19.852  11.248  28.416  1.00  0.00    -0.101 Cl
ENDBRANCH  40  43
ENDBRANCH   2  40
TORSDOF 13
ENDMDL
MODEL 2
REMARK VINA RESULT: -9.061268507      0.948      1.515
REMARK  13 active torsions:
REMARK  status: ('A' for Active; 'I' for Inactive)
REMARK    1  A    between atoms: C2_2  and  C3_3 
REMARK       I    between atoms: C3_3  and  N1_5 
REMARK    2  A    between atoms: N1_5  and  C4_7 
REMARK    3  A    between atoms: C6_9  and  C7_10 
REMARK    4  A    between atoms: C7_10  and  N3_20 
REMARK    5  A    between atoms: N2_11  and  S1_13 
REMARK    6  A    between atoms: S1_13  and  C8_16 
REMARK    7  A    between atoms: N3_20  and  C11_22 
REMARK    8  A    between atoms: C11_22  and  C12_23 
REMARK    9  A    between atoms: C11_22  and  C15_28 
REMARK   10  A    between atoms: C12_23  and  C13_24 
REMARK   11  A    between atoms: C13_24  and  C14_25 
REMARK       I    between atoms: C15_28  and  N4_30 
REMARK   12  A    between atoms: C22_37  and  C23_38 
REMARK       I    between atoms: C23_38  and  N5_40 
REMARK   13  A    between atoms: C24_42  and  C25_43 
ROOT
HETATM    1  C7  UNL     1      20.760  12.109  25.166  1.00  0.00     0.092 C 
HETATM    2  N2  UNL     1      21.471  12.224  26.173  1.00  0.00    -0.272 N 
ATOM      3  H2  UNL     1      22.248  11.572  26.066  1.00  0.00     0.180 HD
ENDROOT
BRANCH   1   4
HETATM    4  C6  UNL     1      21.185  11.134  24.161  1.00  0.00     0.071 C 
HETATM    5  C5  UNL     1      22.468  10.405  24.270  1.00  0.00     0.039 C 
HETATM    6  C4  UNL     1      22.450  10.379  22.726  1.00  0.00     0.099 C 
HETATM    7  C22 UNL     1      21.713  11.721  22.867  1.00  0.00     0.112 C 
BRANCH   6   8
HETATM    8  N1  UNL     1      23.700  10.399  22.071  1.00  0.00    -0.355 N 
HETATM    9  C3  UNL     1      23.732  10.458  20.641  1.00  0.00     0.226 C 
HETATM   10  O1  UNL     1      22.653  10.486  19.998  1.00  0.00    -0.273 OA
ATOM     11  H1  UNL     1      24.567  10.373  22.608  1.00  0.00     0.162 HD
BRANCH   9  12
HETATM   12  C2  UNL     1      24.993  10.487  19.852  1.00  0.00     0.037 A 
HETATM   13  C1  UNL     1      26.202   9.842  20.535  1.00  0.00     0.025 C 
HETATM   14  C26 UNL     1      25.262  11.753  19.077  1.00  0.00     0.020 A 
HETATM   15  C27 UNL     1      24.967  10.457  18.382  1.00  0.00     0.020 A 
ENDBRANCH   9  12
ENDBRANCH   6   8
BRANCH   7  16
HETATM   16  C23 UNL     1      22.580  12.885  22.897  1.00  0.00     0.228 C 
HETATM   17  O7  UNL     1      21.983  14.028  22.777  1.00  0.00    -0.273 OA
HETATM   18  N5  UNL     1      23.972  12.920  23.037  1.00  0.00    -0.340 N 
HETATM   19  C24 UNL     1      24.620  13.649  23.830  1.00  0.00     0.074 C 
ATOM     20  H5  UNL     1      24.512  12.295  22.439  1.00  0.00     0.167 HD
BRANCH  19  21
HETATM   21  C25 UNL     1      26.102  13.572  23.863  1.00  0.00     0.129 C 
HETATM   22 BR1  UNL     1      26.859  13.483  22.092  1.00  0.00    -0.091 Br
ENDBRANCH  19  21
ENDBRANCH   7  16
ENDBRANCH   1   4
BRANCH   1  23
HETATM   23  N3  UNL     1      19.596  12.876  24.974  1.00  0.00    -0.366 N 
ATOM     24  H3  UNL     1      19.704  13.793  24.540  1.00  0.00     0.161 HD
BRANCH  23  25
HETATM   25  C11 UNL     1      18.232  12.460  25.347  1.00  0.00     0.175 C 
BRANCH  25  26
HETATM   26  C12 UNL     1      17.705  11.525  24.269  1.00  0.00     0.045 C 
BRANCH  26  27
HETATM   27  C13 UNL     1      17.125  10.239  24.770  1.00  0.00     0.116 C 
BRANCH  27  28
HETATM   28  C14 UNL     1      15.665  10.351  24.891  1.00  0.00     0.172 C 
HETATM   29  O4  UNL     1      14.964  10.920  24.056  1.00  0.00    -0.648 OA
HETATM   30  O5  UNL     1      15.081   9.759  26.043  1.00  0.00    -0.648 OA
ENDBRANCH  27  28
ENDBRANCH  26  27
ENDBRANCH  25  26
BRANCH  25  31
HETATM   31  C15 UNL     1      17.433  13.722  25.357  1.00  0.00     0.243 C 
HETATM   32  O6  UNL     1      17.834  14.625  24.527  1.00  0.00    -0.271 OA
HETATM   33  N4  UNL     1      16.330  14.031  26.143  1.00  0.00    -0.341 N 
HETATM   34  C16 UNL     1      15.510  15.260  26.140  1.00  0.00     0.088 C 
HETATM   35  C19 UNL     1      15.660  13.308  27.190  1.00  0.00     0.088 C 
HETATM   36  C17 UNL     1      14.136  14.667  25.986  1.00  0.00     0.027 C 
HETATM   37  C21 UNL     1      15.697  15.676  27.579  1.00  0.00     0.027 C 
HETATM   38  C18 UNL     1      14.249  13.275  26.633  1.00  0.00     0.027 C 
HETATM   39  C20 UNL     1      15.636  14.339  28.301  1.00  0.00     0.027 C 
ENDBRANCH  25  31
ENDBRANCH  23  25
ENDBRANCH   1  23
BRANCH   2  40
HETATM   40  S1  UNL     1      21.683  12.987  27.601  1.00  0.00     0.253 S 
HETATM   41  O2  UNL     1      22.901  12.541  28.395  1.00  0.00    -0.204 OA
HETATM   42  O3  UNL     1      21.845  14.511  27.446  1.00  0.00    -0.204 OA
BRANCH  40  43
HETATM   43  C8  UNL     1      20.247  12.817  28.652  1.00  0.00     0.151 C 
HETATM   44  C9  UNL     1      19.300  13.961  28.437  1.00  0.00     0.051 C 
HETATM   45  C10 UNL     1      20.685  12.933  30.122  1.00  0.00     0.051 C 
HETATM   46 CL1  UNL     1      19.465  11.279  28.348  1.00  0.00    -0.101 Cl
ENDBRANCH  40  43
ENDBRANCH   2  40
TORSDOF 13
ENDMDL
MODEL 3
REMARK VINA RESULT: -8.863855448      1.513      1.610
REMARK  13 active torsions:
REMARK  status: ('A' for Active; 'I' for Inactive)
REMARK    1  A    between atoms: C2_2  and  C3_3 
REMARK       I    between atoms: C3_3  and  N1_5 
REMARK    2  A    between atoms: N1_5  and  C4_7 
REMARK    3  A    between atoms: C6_9  and  C7_10 
REMARK    4  A    between atoms: C7_10  and  N3_20 
REMARK    5  A    between atoms: N2_11  and  S1_13 
REMARK    6  A    between atoms: S1_13  and  C8_16 
REMARK    7  A    between atoms: N3_20  and  C11_22 
REMARK    8  A    between atoms: C11_22  and  C12_23 
REMARK    9  A    between atoms: C11_22  and  C15_28 
REMARK   10  A    between atoms: C12_23  and  C13_24 
REMARK   11  A    between atoms: C13_24  and  C14_25 
REMARK       I    between atoms: C15_28  and  N4_30 
REMARK   12  A    between atoms: C22_37  and  C23_38 
REMARK       I    between atoms: C23_38  and  N5_40 
REMARK   13  A    between atoms: C24_42  and  C25_43 
ROOT
HETATM    1  C7  UNL     1      20.870  12.822  24.853  1.00  0.00     0.092 C 
HETATM    2  N2  UNL     1      21.677  13.040  25.767  1.00  0.00    -0.272 N 
ATOM      3  H2  UNL     1      22.604  12.814  25.406  1.00  0.00     0.180 HD
ENDROOT
BRANCH   1   4
HETATM    4  C6  UNL     1      21.416  12.327  23.589  1.00  0.00     0.071 C 
HETATM    5  C5  UNL     1      22.362  11.191  23.535  1.00  0.00     0.039 C 
HETATM    6  C4  UNL     1      22.929  11.874  22.271  1.00  0.00     0.099 C 
HETATM    7  C22 UNL     1      22.513  13.176  22.978  1.00  0.00     0.112 C 
BRANCH   6   8
HETATM    8  N1  UNL     1      24.304  11.698  22.009  1.00  0.00    -0.355 N 
HETATM    9  C3  UNL     1      24.769  11.783  20.658  1.00  0.00     0.226 C 
HETATM   10  O1  UNL     1      23.948  12.009  19.734  1.00  0.00    -0.273 OA
ATOM     11  H1  UNL     1      24.957  11.512  22.770  1.00  0.00     0.162 HD
BRANCH   9  12
HETATM   12  C2  UNL     1      26.195  11.616  20.272  1.00  0.00     0.037 A 
HETATM   13  C1  UNL     1      26.745  10.193  20.416  1.00  0.00     0.025 C 
HETATM   14  C26 UNL     1      27.127  12.733  20.671  1.00  0.00     0.020 A 
HETATM   15  C27 UNL     1      26.803  12.459  19.232  1.00  0.00     0.020 A 
ENDBRANCH   9  12
ENDBRANCH   6   8
BRANCH   7  16
HETATM   16  C23 UNL     1      23.541  13.756  23.823  1.00  0.00     0.228 C 
HETATM   17  O7  UNL     1      24.276  12.908  24.469  1.00  0.00    -0.273 OA
HETATM   18  N5  UNL     1      23.830  15.111  24.024  1.00  0.00    -0.340 N 
HETATM   19  C24 UNL     1      24.967  15.644  23.971  1.00  0.00     0.074 C 
ATOM     20  H5  UNL     1      23.042  15.725  24.232  1.00  0.00     0.167 HD
BRANCH  19  21
HETATM   21  C25 UNL     1      25.113  17.102  24.209  1.00  0.00     0.129 C 
HETATM   22 BR1  UNL     1      26.023  17.475  25.866  1.00  0.00    -0.091 Br
ENDBRANCH  19  21
ENDBRANCH   7  16
ENDBRANCH   1   4
BRANCH   1  23
HETATM   23  N3  UNL     1      19.488  13.040  25.001  1.00  0.00    -0.366 N 
ATOM     24  H3  UNL     1      19.165  14.008  25.021  1.00  0.00     0.161 HD
BRANCH  23  25
HETATM   25  C11 UNL     1      18.469  11.983  25.129  1.00  0.00     0.175 C 
BRANCH  25  26
HETATM   26  C12 UNL     1      17.980  11.619  23.735  1.00  0.00     0.045 C 
BRANCH  26  27
HETATM   27  C13 UNL     1      17.184  10.354  23.651  1.00  0.00     0.116 C 
BRANCH  27  28
HETATM   28  C14 UNL     1      15.841  10.631  23.125  1.00  0.00     0.172 C 
HETATM   29  O4  UNL     1      14.914  11.030  23.828  1.00  0.00    -0.648 OA
HETATM   30  O5  UNL     1      15.652  10.417  21.734  1.00  0.00    -0.648 OA
ENDBRANCH  27  28
ENDBRANCH  26  27
ENDBRANCH  25  26
BRANCH  25  31
HETATM   31  C15 UNL     1      17.357  12.611  25.905  1.00  0.00     0.243 C 
HETATM   32  O6  UNL     1      17.085  12.033  27.026  1.00  0.00    -0.271 OA
HETATM   33  N4  UNL     1      16.595  13.722  25.564  1.00  0.00    -0.341 N 
HETATM   34  C16 UNL     1      15.517  14.372  26.336  1.00  0.00     0.088 C 
HETATM   35  C19 UNL     1      16.581  14.557  24.395  1.00  0.00     0.088 C 
HETATM   36  C17 UNL     1      16.003  15.795  26.332  1.00  0.00     0.027 C 
HETATM   37  C21 UNL     1      14.395  14.244  25.334  1.00  0.00     0.027 C 
HETATM   38  C18 UNL     1      16.818  15.914  25.032  1.00  0.00     0.027 C 
HETATM   39  C20 UNL     1      15.111  14.533  24.024  1.00  0.00     0.027 C 
ENDBRANCH  25  31
ENDBRANCH  23  25
ENDBRANCH   1  23
BRANCH   2  40
HETATM   40  S1  UNL     1      21.875  13.539  27.308  1.00  0.00     0.253 S 
HETATM   41  O2  UNL     1      23.250  13.272  27.901  1.00  0.00    -0.204 OA
HETATM   42  O3  UNL     1      21.656  15.055  27.478  1.00  0.00    -0.204 OA
BRANCH  40  43
HETATM   43  C8  UNL     1      20.656  12.810  28.393  1.00  0.00     0.151 C 
HETATM   44  C9  UNL     1      19.419  13.659  28.440  1.00  0.00     0.051 C 
HETATM   45  C10 UNL     1      21.198  12.816  29.832  1.00  0.00     0.051 C 
HETATM   46 CL1  UNL     1      20.288  11.180  27.866  1.00  0.00    -0.101 Cl
ENDBRANCH  40  43
ENDBRANCH   2  40
TORSDOF 13
ENDMDL
MODEL 4
REMARK VINA RESULT: -8.718557014      5.930     10.300
REMARK  13 active torsions:
REMARK  status: ('A' for Active; 'I' for Inactive)
REMARK    1  A    between atoms: C2_2  and  C3_3 
REMARK       I    between atoms: C3_3  and  N1_5 
REMARK    2  A    between atoms: N1_5  and  C4_7 
REMARK    3  A    between atoms: C6_9  and  C7_10 
REMARK    4  A    between atoms: C7_10  and  N3_20 
REMARK    5  A    between atoms: N2_11  and  S1_13 
REMARK    6  A    between atoms: S1_13  and  C8_16 
REMARK    7  A    between atoms: N3_20  and  C11_22 
REMARK    8  A    between atoms: C11_22  and  C12_23 
REMARK    9  A    between atoms: C11_22  and  C15_28 
REMARK   10  A    between atoms: C12_23  and  C13_24 
REMARK   11  A    between atoms: C13_24  and  C14_25 
REMARK       I    between atoms: C15_28  and  N4_30 
REMARK   12  A    between atoms: C22_37  and  C23_38 
REMARK       I    between atoms: C23_38  and  N5_40 
REMARK   13  A    between atoms: C24_42  and  C25_43 
ROOT
HETATM    1  C7  UNL     1      28.013  15.089  22.968  1.00  0.00     0.092 C 
HETATM    2  N2  UNL     1      29.081  15.346  22.397  1.00  0.00    -0.272 N 
ATOM      3  H2  UNL     1      29.329  16.304  22.644  1.00  0.00     0.180 HD
ENDROOT
BRANCH   1   4
HETATM    4  C6  UNL     1      27.424  16.151  23.784  1.00  0.00     0.071 C 
HETATM    5  C5  UNL     1      27.943  17.537  23.759  1.00  0.00     0.039 C 
HETATM    6  C4  UNL     1      27.457  17.621  25.223  1.00  0.00     0.099 C 
HETATM    7  C22 UNL     1      27.789  16.120  25.255  1.00  0.00     0.112 C 
BRANCH   6   8
HETATM    8  N1  UNL     1      28.187  18.458  26.093  1.00  0.00    -0.355 N 
HETATM    9  C3  UNL     1      27.611  19.702  26.504  1.00  0.00     0.226 C 
HETATM   10  O1  UNL     1      26.473  20.027  26.082  1.00  0.00    -0.273 OA
ATOM     11  H1  UNL     1      29.112  18.182  26.424  1.00  0.00     0.162 HD
BRANCH   9  12
HETATM   12  C2  UNL     1      28.292  20.657  27.419  1.00  0.00     0.037 A 
HETATM   13  C1  UNL     1      27.495  21.040  28.669  1.00  0.00     0.025 C 
HETATM   14  C26 UNL     1      29.071  21.769  26.759  1.00  0.00     0.020 A 
HETATM   15  C27 UNL     1      29.758  20.682  27.533  1.00  0.00     0.020 A 
ENDBRANCH   9  12
ENDBRANCH   6   8
BRANCH   7  16
HETATM   16  C23 UNL     1      29.147  15.812  25.662  1.00  0.00     0.228 C 
HETATM   17  O7  UNL     1      29.305  14.677  26.266  1.00  0.00    -0.273 OA
HETATM   18  N5  UNL     1      30.299  16.587  25.482  1.00  0.00    -0.340 N 
HETATM   19  C24 UNL     1      31.399  16.187  25.025  1.00  0.00     0.074 C 
ATOM     20  H5  UNL     1      30.239  17.570  25.747  1.00  0.00     0.167 HD
BRANCH  19  21
HETATM   21  C25 UNL     1      32.535  17.135  24.894  1.00  0.00     0.129 C 
HETATM   22 BR1  UNL     1      31.953  18.971  24.973  1.00  0.00    -0.091 Br
ENDBRANCH  19  21
ENDBRANCH   7  16
ENDBRANCH   1   4
BRANCH   1  23
HETATM   23  N3  UNL     1      27.381  13.837  22.857  1.00  0.00    -0.366 N 
ATOM     24  H3  UNL     1      27.941  13.009  23.060  1.00  0.00     0.161 HD
BRANCH  23  25
HETATM   25  C11 UNL     1      25.974  13.626  22.472  1.00  0.00     0.175 C 
BRANCH  25  26
HETATM   26  C12 UNL     1      25.192  13.228  23.715  1.00  0.00     0.045 C 
BRANCH  26  27
HETATM   27  C13 UNL     1      24.073  14.151  24.084  1.00  0.00     0.116 C 
BRANCH  27  28
HETATM   28  C14 UNL     1      22.858  13.382  24.387  1.00  0.00     0.172 C 
HETATM   29  O4  UNL     1      22.790  12.568  25.306  1.00  0.00    -0.648 OA
HETATM   30  O5  UNL     1      21.734  13.625  23.552  1.00  0.00    -0.648 OA
ENDBRANCH  27  28
ENDBRANCH  26  27
ENDBRANCH  25  26
BRANCH  25  31
HETATM   31  C15 UNL     1      26.005  12.484  21.508  1.00  0.00     0.243 C 
HETATM   32  O6  UNL     1      27.186  12.076  21.188  1.00  0.00    -0.271 OA
HETATM   33  N4  UNL     1      24.929  11.826  20.926  1.00  0.00    -0.341 N 
HETATM   34  C16 UNL     1      24.944  10.676  19.999  1.00  0.00     0.088 C 
HETATM   35  C19 UNL     1      23.510  12.044  21.004  1.00  0.00     0.088 C 
HETATM   36  C17 UNL     1      24.002   9.744  20.711  1.00  0.00     0.027 C 
HETATM   37  C21 UNL     1      24.214  11.298  18.834  1.00  0.00     0.027 C 
HETATM   38  C18 UNL     1      23.055  10.679  21.484  1.00  0.00     0.027 C 
HETATM   39  C20 UNL     1      23.133  12.106  19.537  1.00  0.00     0.027 C 
ENDBRANCH  25  31
ENDBRANCH  23  25
ENDBRANCH   1  23
BRANCH   2  40
HETATM   40  S1  UNL     1      30.259  14.788  21.414  1.00  0.00     0.253 S 
HETATM   41  O2  UNL     1      31.665  15.247  21.768  1.00  0.00    -0.204 OA
HETATM   42  O3  UNL     1      30.337  13.250  21.388  1.00  0.00    -0.204 OA
BRANCH  40  43
HETATM   43  C8  UNL     1      29.948  15.226  19.709  1.00  0.00     0.151 C 
HETATM   44  C9  UNL     1      31.138  14.897  18.856  1.00  0.00     0.051 C 
HETATM   45  C10 UNL     1      29.794  16.753  19.604  1.00  0.00     0.051 C 
HETATM   46 CL1  UNL     1      28.509  14.408  19.135  1.00  0.00    -0.101 Cl
ENDBRANCH  40  43
ENDBRANCH   2  40
TORSDOF 13
ENDMDL
MODEL 5
REMARK VINA RESULT: -8.670254522      6.595     10.101
REMARK  13 active torsions:
REMARK  status: ('A' for Active; 'I' for Inactive)
REMARK    1  A    between atoms: C2_2  and  C3_3 
REMARK       I    between atoms: C3_3  and  N1_5 
REMARK    2  A    between atoms: N1_5  and  C4_7 
REMARK    3  A    between atoms: C6_9  and  C7_10 
REMARK    4  A    between atoms: C7_10  and  N3_20 
REMARK    5  A    between atoms: N2_11  and  S1_13 
REMARK    6  A    between atoms: S1_13  and  C8_16 
REMARK    7  A    between atoms: N3_20  and  C11_22 
REMARK    8  A    between atoms: C11_22  and  C12_23 
REMARK    9  A    between atoms: C11_22  and  C15_28 
REMARK   10  A    between atoms: C12_23  and  C13_24 
REMARK   11  A    between atoms: C13_24  and  C14_25 
REMARK       I    between atoms: C15_28  and  N4_30 
REMARK   12  A    between atoms: C22_37  and  C23_38 
REMARK       I    between atoms: C23_38  and  N5_40 
REMARK   13  A    between atoms: C24_42  and  C25_43 
ROOT
HETATM    1  C7  UNL     1      28.128  14.319  20.899  1.00  0.00     0.092 C 
HETATM    2  N2  UNL     1      28.065  14.661  22.087  1.00  0.00    -0.272 N 
ATOM      3  H2  UNL     1      28.772  15.383  22.228  1.00  0.00     0.180 HD
ENDROOT
BRANCH   1   4
HETATM    4  C6  UNL     1      29.131  14.985  20.068  1.00  0.00     0.071 C 
HETATM    5  C5  UNL     1      30.266  14.250  19.467  1.00  0.00     0.039 C 
HETATM    6  C4  UNL     1      31.039  15.582  19.580  1.00  0.00     0.099 C 
HETATM    7  C22 UNL     1      30.159  15.806  20.822  1.00  0.00     0.112 C 
BRANCH   6   8
HETATM    8  N1  UNL     1      32.432  15.498  19.788  1.00  0.00    -0.355 N 
HETATM    9  C3  UNL     1      33.313  16.082  18.823  1.00  0.00     0.226 C 
HETATM   10  O1  UNL     1      32.832  16.653  17.811  1.00  0.00    -0.273 OA
ATOM     11  H1  UNL     1      32.806  15.028  20.613  1.00  0.00     0.162 HD
BRANCH   9  12
HETATM   12  C2  UNL     1      34.795  16.053  18.945  1.00  0.00     0.037 A 
HETATM   13  C1  UNL     1      35.507  17.343  18.526  1.00  0.00     0.025 C 
HETATM   14  C26 UNL     1      35.469  14.762  18.551  1.00  0.00     0.020 A 
HETATM   15  C27 UNL     1      35.455  15.236  19.974  1.00  0.00     0.020 A 
ENDBRANCH   9  12
ENDBRANCH   6   8
BRANCH   7  16
HETATM   16  C23 UNL     1      30.725  15.304  22.060  1.00  0.00     0.228 C 
HETATM   17  O7  UNL     1      30.883  14.020  22.121  1.00  0.00    -0.273 OA
HETATM   18  N5  UNL     1      31.119  16.034  23.188  1.00  0.00    -0.340 N 
HETATM   19  C24 UNL     1      32.210  15.923  23.801  1.00  0.00     0.074 C 
ATOM     20  H5  UNL     1      30.456  16.721  23.547  1.00  0.00     0.167 HD
BRANCH  19  21
HETATM   21  C25 UNL     1      32.482  16.773  24.988  1.00  0.00     0.129 C 
HETATM   22 BR1  UNL     1      31.111  18.101  25.253  1.00  0.00    -0.091 Br
ENDBRANCH  19  21
ENDBRANCH   7  16
ENDBRANCH   1   4
BRANCH   1  23
HETATM   23  N3  UNL     1      27.279  13.340  20.350  1.00  0.00    -0.366 N 
ATOM     24  H3  UNL     1      26.661  13.627  19.591  1.00  0.00     0.161 HD
BRANCH  23  25
HETATM   25  C11 UNL     1      27.210  11.934  20.785  1.00  0.00     0.175 C 
BRANCH  25  26
HETATM   26  C12 UNL     1      28.542  11.270  20.470  1.00  0.00     0.045 C 
BRANCH  26  27
HETATM   27  C13 UNL     1      28.770   9.951  21.141  1.00  0.00     0.116 C 
BRANCH  27  28
HETATM   28  C14 UNL     1      29.393  10.150  22.457  1.00  0.00     0.172 C 
HETATM   29  O4  UNL     1      29.489  11.252  22.994  1.00  0.00    -0.648 OA
HETATM   30  O5  UNL     1      29.890   8.986  23.100  1.00  0.00    -0.648 OA
ENDBRANCH  27  28
ENDBRANCH  26  27
ENDBRANCH  25  26
BRANCH  25  31
HETATM   31  C15 UNL     1      26.132  11.324  19.950  1.00  0.00     0.243 C 
HETATM   32  O6  UNL     1      26.529  10.834  18.824  1.00  0.00    -0.271 OA
HETATM   33  N4  UNL     1      24.776  11.227  20.238  1.00  0.00    -0.341 N 
HETATM   34  C16 UNL     1      23.706  10.598  19.438  1.00  0.00     0.088 C 
HETATM   35  C19 UNL     1      23.991  11.703  21.344  1.00  0.00     0.088 C 
HETATM   36  C17 UNL     1      23.096   9.689  20.470  1.00  0.00     0.027 C 
HETATM   37  C21 UNL     1      22.805  11.796  19.259  1.00  0.00     0.027 C 
HETATM   38  C18 UNL     1      23.364  10.402  21.808  1.00  0.00     0.027 C 
HETATM   39  C20 UNL     1      22.885  12.454  20.628  1.00  0.00     0.027 C 
ENDBRANCH  25  31
ENDBRANCH  23  25
ENDBRANCH   1  23
BRANCH   2  40
HETATM   40  S1  UNL     1      27.320  14.438  23.522  1.00  0.00     0.253 S 
HETATM   41  O2  UNL     1      26.120  13.504  23.487  1.00  0.00    -0.204 OA
HETATM   42  O3  UNL     1      28.254  13.846  24.595  1.00  0.00    -0.204 OA
BRANCH  40  43
HETATM   43  C8  UNL     1      26.789  15.991  24.231  1.00  0.00     0.151 C 
HETATM   44  C9  UNL     1      27.664  17.113  23.754  1.00  0.00     0.051 C 
HETATM   45  C10 UNL     1      26.998  15.944  25.755  1.00  0.00     0.051 C 
HETATM   46 CL1  UNL     1      25.108  16.283  23.835  1.00  0.00    -0.101 Cl
ENDBRANCH  40  43
ENDBRANCH   2  40
TORSDOF 13
ENDMDL
