MODEL 1
REMARK VINA RESULT: -8.170026569      0.000      0.000
REMARK  10 active torsions:
REMARK  status: ('A' for Active; 'I' for Inactive)
REMARK    1  A    between atoms: C3_3  and  N1_4 
REMARK       I    between atoms: N1_4  and  C4_6 
REMARK    2  A    between atoms: C4_6  and  C5_8 
REMARK    3  A    between atoms: N2_15  and  C12_16 
REMARK    4  A    between atoms: C12_16  and  C13_17 
REMARK       I    between atoms: C13_17  and  N3_19 
REMARK    5  A    between atoms: C17_25  and  C19_27 
REMARK       I    between atoms: C19_27  and  N4_29 
REMARK    6  A    between atoms: N4_29  and  C20_31 
REMARK    7  A    between atoms: C20_31  and  C21_32 
REMARK       I    between atoms: C21_32  and  N5_34 
REMARK    8  A    between atoms: N5_34  and  C22_35 
REMARK    9  A    between atoms: C22_35  and  C23_36 
REMARK   10  A    between atoms: C23_36  and  N6_37 
ROOT
HETATM    1  C1  UNL     1      16.939  20.735  27.110  1.00  0.00     0.014 C 
HETATM    2  C2  UNL     1      17.477  19.666  26.930  1.00  0.00    -0.098 C 
HETATM    3  C3  UNL     1      18.183  18.377  26.715  1.00  0.00     0.216 C 
ENDROOT
BRANCH   3   4
HETATM    4  N1  UNL     1      17.198  17.303  26.715  1.00  0.00    -0.348 N 
HETATM    5  C4  UNL     1      16.779  16.691  25.492  1.00  0.00     0.257 C 
HETATM    6  O1  UNL     1      17.356  17.143  24.452  1.00  0.00    -0.271 OA
ATOM      7  H1  UNL     1      16.803  16.983  27.599  1.00  0.00     0.163 HD
BRANCH   5   8
HETATM    8  C5  UNL     1      15.770  15.649  25.425  1.00  0.00     0.237 C 
HETATM    9  C6  UNL     1      14.478  16.348  25.938  1.00  0.00     0.060 C 
HETATM   10  C7  UNL     1      15.444  15.164  24.050  1.00  0.00     0.054 C 
HETATM   11  C8  UNL     1      14.477  14.047  24.369  1.00  0.00     0.044 C 
HETATM   12  C9  UNL     1      14.927  13.590  25.740  1.00  0.00     0.155 C 
HETATM   13  C10 UNL     1      15.211  12.116  25.591  1.00  0.00     0.049 C 
HETATM   14  C11 UNL     1      13.834  13.695  26.727  1.00  0.00     0.049 C 
HETATM   15  N2  UNL     1      16.050  14.436  26.170  1.00  0.00     0.124 N 
BRANCH  15  16
HETATM   16  C12 UNL     1      17.295  13.843  25.664  1.00  0.00     0.377 C 
BRANCH  16  17
HETATM   17  C13 UNL     1      18.355  13.750  26.681  1.00  0.00     0.251 C 
HETATM   18  O2  UNL     1      18.286  14.567  27.626  1.00  0.00    -0.271 OA
HETATM   19  N3  UNL     1      19.423  12.807  26.655  1.00  0.00    -0.304 N 
HETATM   20  C14 UNL     1      19.813  11.885  25.619  1.00  0.00     0.152 C 
HETATM   21  C17 UNL     1      20.280  12.587  27.801  1.00  0.00     0.115 C 
HETATM   22 BR1  UNL     1      18.319  10.824  24.921  1.00  0.00    -0.049 Br
HETATM   23 BR2  UNL     1      20.680  12.633  24.122  1.00  0.00    -0.049 Br
HETATM   24  C15 UNL     1      20.671  10.844  26.350  1.00  0.00     0.058 C 
HETATM   25  C16 UNL     1      20.194  11.013  27.797  1.00  0.00     0.045 C 
HETATM   26  C18 UNL     1      19.742  13.070  29.096  1.00  0.00     0.049 C 
BRANCH  21  27
HETATM   27  C19 UNL     1      21.684  12.909  27.645  1.00  0.00     0.246 C 
HETATM   28  O3  UNL     1      22.582  12.288  28.227  1.00  0.00    -0.271 OA
HETATM   29  N4  UNL     1      22.125  13.998  26.808  1.00  0.00    -0.349 N 
ATOM     30  H4  UNL     1      21.451  14.509  26.237  1.00  0.00     0.163 HD
BRANCH  29  31
HETATM   31  C20 UNL     1      23.494  14.354  26.781  1.00  0.00     0.241 C 
BRANCH  31  32
HETATM   32  C21 UNL     1      24.125  14.828  25.558  1.00  0.00     0.308 C 
HETATM   33  O4  UNL     1      24.313  16.076  25.474  1.00  0.00    -0.255 OA
HETATM   34  N5  UNL     1      24.527  13.932  24.459  1.00  0.00    -0.381 NA
BRANCH  34  35
HETATM   35  C22 UNL     1      24.869  13.175  23.523  1.00  0.00     0.197 C 
BRANCH  35  36
HETATM   36  C23 UNL     1      23.927  12.595  22.535  1.00  0.00     0.091 C 
BRANCH  36  37
HETATM   37  N6  UNL     1      24.216  11.761  21.469  1.00  0.00    -0.290 NA
HETATM   38  C24 UNL     1      23.026  11.879  20.536  1.00  0.00     0.095 C 
HETATM   39  C25 UNL     1      22.950  10.691  19.636  1.00  0.00     0.015 C 
HETATM   40  C26 UNL     1      24.236  10.619  18.833  1.00  0.00     0.002 C 
HETATM   41  C27 UNL     1      25.449  10.723  19.700  1.00  0.00     0.015 C 
HETATM   42  C28 UNL     1      25.320  11.973  20.625  1.00  0.00     0.095 C 
ENDBRANCH  36  37
ENDBRANCH  35  36
ENDBRANCH  34  35
ENDBRANCH  31  32
ENDBRANCH  29  31
ENDBRANCH  21  27
ENDBRANCH  16  17
ENDBRANCH  15  16
ENDBRANCH   5   8
ENDBRANCH   3   4
TORSDOF 10
ENDMDL
MODEL 2
REMARK VINA RESULT: -7.857445415      5.286     11.581
REMARK  10 active torsions:
REMARK  status: ('A' for Active; 'I' for Inactive)
REMARK    1  A    between atoms: C3_3  and  N1_4 
REMARK       I    between atoms: N1_4  and  C4_6 
REMARK    2  A    between atoms: C4_6  and  C5_8 
REMARK    3  A    between atoms: N2_15  and  C12_16 
REMARK    4  A    between atoms: C12_16  and  C13_17 
REMARK       I    between atoms: C13_17  and  N3_19 
REMARK    5  A    between atoms: C17_25  and  C19_27 
REMARK       I    between atoms: C19_27  and  N4_29 
REMARK    6  A    between atoms: N4_29  and  C20_31 
REMARK    7  A    between atoms: C20_31  and  C21_32 
REMARK       I    between atoms: C21_32  and  N5_34 
REMARK    8  A    between atoms: N5_34  and  C22_35 
REMARK    9  A    between atoms: C22_35  and  C23_36 
REMARK   10  A    between atoms: C23_36  and  N6_37 
ROOT
HETATM    1  C1  UNL     1      25.040  16.765  23.740  1.00  0.00     0.014 C 
HETATM    2  C2  UNL     1      26.194  16.404  23.778  1.00  0.00    -0.098 C 
HETATM    3  C3  UNL     1      27.600  15.934  23.867  1.00  0.00     0.216 C 
ENDROOT
BRANCH   3   4
HETATM    4  N1  UNL     1      28.291  16.302  22.638  1.00  0.00    -0.348 N 
HETATM    5  C4  UNL     1      29.646  15.903  22.410  1.00  0.00     0.257 C 
HETATM    6  O1  UNL     1      30.151  15.197  23.340  1.00  0.00    -0.271 OA
ATOM      7  H1  UNL     1      27.802  16.850  21.930  1.00  0.00     0.163 HD
BRANCH   5   8
HETATM    8  C5  UNL     1      30.400  16.277  21.227  1.00  0.00     0.237 C 
HETATM    9  C6  UNL     1      30.483  17.828  21.313  1.00  0.00     0.060 C 
HETATM   10  C7  UNL     1      31.817  15.801  21.197  1.00  0.00     0.054 C 
HETATM   11  C8  UNL     1      32.237  16.262  19.820  1.00  0.00     0.044 C 
HETATM   12  C9  UNL     1      30.938  16.248  19.045  1.00  0.00     0.155 C 
HETATM   13  C10 UNL     1      31.194  15.349  17.861  1.00  0.00     0.049 C 
HETATM   14  C11 UNL     1      30.630  17.579  18.486  1.00  0.00     0.049 C 
HETATM   15  N2  UNL     1      29.855  15.843  19.954  1.00  0.00     0.124 N 
BRANCH  15  16
HETATM   16  C12 UNL     1      29.770  14.377  19.948  1.00  0.00     0.377 C 
BRANCH  16  17
HETATM   17  C13 UNL     1      28.458  13.869  19.515  1.00  0.00     0.251 C 
HETATM   18  O2  UNL     1      27.852  14.560  18.666  1.00  0.00    -0.271 OA
HETATM   19  N3  UNL     1      27.857  12.667  19.989  1.00  0.00    -0.304 N 
HETATM   20  C14 UNL     1      28.265  11.794  21.060  1.00  0.00     0.152 C 
HETATM   21  C17 UNL     1      26.700  12.082  19.345  1.00  0.00     0.115 C 
HETATM   22 BR1  UNL     1      30.159  11.295  20.977  1.00  0.00    -0.049 Br
HETATM   23 BR2  UNL     1      27.956  12.423  22.810  1.00  0.00    -0.049 Br
HETATM   24  C15 UNL     1      27.541  10.475  20.761  1.00  0.00     0.058 C 
HETATM   25  C16 UNL     1      27.258  10.611  19.260  1.00  0.00     0.045 C 
HETATM   26  C18 UNL     1      26.439  12.552  17.962  1.00  0.00     0.049 C 
BRANCH  21  27
HETATM   27  C19 UNL     1      25.482  12.000  20.127  1.00  0.00     0.246 C 
HETATM   28  O3  UNL     1      25.325  12.618  21.187  1.00  0.00    -0.271 OA
HETATM   29  N4  UNL     1      24.375  11.169  19.724  1.00  0.00    -0.349 N 
ATOM     30  H4  UNL     1      24.398  10.687  18.825  1.00  0.00     0.163 HD
BRANCH  29  31
HETATM   31  C20 UNL     1      23.257  11.023  20.579  1.00  0.00     0.241 C 
BRANCH  31  32
HETATM   32  C21 UNL     1      23.211   9.973  21.586  1.00  0.00     0.308 C 
HETATM   33  O4  UNL     1      23.904   8.942  21.348  1.00  0.00    -0.255 OA
HETATM   34  N5  UNL     1      22.410  10.072  22.819  1.00  0.00    -0.381 NA
BRANCH  34  35
HETATM   35  C22 UNL     1      21.731  10.151  23.867  1.00  0.00     0.197 C 
BRANCH  35  36
HETATM   36  C23 UNL     1      21.524  11.406  24.631  1.00  0.00     0.091 C 
BRANCH  36  37
HETATM   37  N6  UNL     1      21.330  11.553  25.993  1.00  0.00    -0.290 NA
HETATM   38  C24 UNL     1      21.896  12.918  26.333  1.00  0.00     0.095 C 
HETATM   39  C25 UNL     1      22.225  13.000  27.786  1.00  0.00     0.015 C 
HETATM   40  C26 UNL     1      20.952  12.752  28.576  1.00  0.00     0.002 C 
HETATM   41  C27 UNL     1      20.235  11.523  28.121  1.00  0.00     0.015 C 
HETATM   42  C28 UNL     1      20.049  11.573  26.573  1.00  0.00     0.095 C 
ENDBRANCH  36  37
ENDBRANCH  35  36
ENDBRANCH  34  35
ENDBRANCH  31  32
ENDBRANCH  29  31
ENDBRANCH  21  27
ENDBRANCH  16  17
ENDBRANCH  15  16
ENDBRANCH   5   8
ENDBRANCH   3   4
TORSDOF 10
ENDMDL
MODEL 3
REMARK VINA RESULT: -7.820204545      6.512     11.766
REMARK  10 active torsions:
REMARK  status: ('A' for Active; 'I' for Inactive)
REMARK    1  A    between atoms: C3_3  and  N1_4 
REMARK       I    between atoms: N1_4  and  C4_6 
REMARK    2  A    between atoms: C4_6  and  C5_8 
REMARK    3  A    between atoms: N2_15  and  C12_16 
REMARK    4  A    between atoms: C12_16  and  C13_17 
REMARK       I    between atoms: C13_17  and  N3_19 
REMARK    5  A    between atoms: C17_25  and  C19_27 
REMARK       I    between atoms: C19_27  and  N4_29 
REMARK    6  A    between atoms: N4_29  and  C20_31 
REMARK    7  A    between atoms: C20_31  and  C21_32 
REMARK       I    between atoms: C21_32  and  N5_34 
REMARK    8  A    between atoms: N5_34  and  C22_35 
REMARK    9  A    between atoms: C22_35  and  C23_36 
REMARK   10  A    between atoms: C23_36  and  N6_37 
ROOT
HETATM    1  C1  UNL     1      28.275  10.606  20.064  1.00  0.00     0.014 C 
HETATM    2  C2  UNL     1      28.072  11.799  20.036  1.00  0.00    -0.098 C 
HETATM    3  C3  UNL     1      27.772  13.252  20.002  1.00  0.00     0.216 C 
ENDROOT
BRANCH   3   4
HETATM    4  N1  UNL     1      29.014  13.988  20.201  1.00  0.00    -0.348 N 
HETATM    5  C4  UNL     1      29.356  15.093  19.359  1.00  0.00     0.257 C 
HETATM    6  O1  UNL     1      28.482  15.374  18.478  1.00  0.00    -0.271 OA
ATOM      7  H1  UNL     1      29.649  13.711  20.950  1.00  0.00     0.163 HD
BRANCH   5   8
HETATM    8  C5  UNL     1      30.598  15.834  19.479  1.00  0.00     0.237 C 
HETATM    9  C6  UNL     1      31.631  14.957  18.714  1.00  0.00     0.060 C 
HETATM   10  C7  UNL     1      30.617  17.163  18.796  1.00  0.00     0.054 C 
HETATM   11  C8  UNL     1      31.975  17.675  19.217  1.00  0.00     0.044 C 
HETATM   12  C9  UNL     1      32.196  16.995  20.551  1.00  0.00     0.155 C 
HETATM   13  C10 UNL     1      32.445  18.116  21.529  1.00  0.00     0.049 C 
HETATM   14  C11 UNL     1      33.428  16.182  20.542  1.00  0.00     0.049 C 
HETATM   15  N2  UNL     1      31.044  16.125  20.829  1.00  0.00     0.124 N 
BRANCH  15  16
HETATM   16  C12 UNL     1      30.015  16.924  21.509  1.00  0.00     0.377 C 
BRANCH  16  17
HETATM   17  C13 UNL     1      29.688  16.431  22.857  1.00  0.00     0.251 C 
HETATM   18  O2  UNL     1      29.832  15.203  23.045  1.00  0.00    -0.271 OA
HETATM   19  N3  UNL     1      29.234  17.250  23.930  1.00  0.00    -0.304 N 
HETATM   20  C14 UNL     1      28.841  18.637  23.929  1.00  0.00     0.152 C 
HETATM   21  C17 UNL     1      29.178  16.766  25.294  1.00  0.00     0.115 C 
HETATM   22 BR1  UNL     1      30.139  19.811  23.045  1.00  0.00    -0.049 Br
HETATM   23 BR2  UNL     1      27.163  19.026  23.165  1.00  0.00    -0.049 Br
HETATM   24  C15 UNL     1      28.939  19.052  25.403  1.00  0.00     0.058 C 
HETATM   25  C16 UNL     1      29.903  17.998  25.958  1.00  0.00     0.045 C 
HETATM   26  C18 UNL     1      29.989  15.555  25.569  1.00  0.00     0.049 C 
BRANCH  21  27
HETATM   27  C19 UNL     1      27.869  16.694  25.914  1.00  0.00     0.246 C 
HETATM   28  O3  UNL     1      27.639  17.138  27.044  1.00  0.00    -0.271 OA
HETATM   29  N4  UNL     1      26.749  16.074  25.251  1.00  0.00    -0.349 N 
ATOM     30  H4  UNL     1      26.839  15.750  24.287  1.00  0.00     0.163 HD
BRANCH  29  31
HETATM   31  C20 UNL     1      25.523  15.915  25.941  1.00  0.00     0.241 C 
BRANCH  31  32
HETATM   32  C21 UNL     1      24.716  14.715  25.775  1.00  0.00     0.308 C 
HETATM   33  O4  UNL     1      24.035  14.358  26.779  1.00  0.00    -0.255 OA
HETATM   34  N5  UNL     1      24.677  13.936  24.525  1.00  0.00    -0.381 NA
BRANCH  34  35
HETATM   35  C22 UNL     1      24.642  13.271  23.465  1.00  0.00     0.197 C 
BRANCH  35  36
HETATM   36  C23 UNL     1      23.484  12.449  23.038  1.00  0.00     0.091 C 
BRANCH  36  37
HETATM   37  N6  UNL     1      23.304  11.788  21.835  1.00  0.00    -0.290 NA
HETATM   38  C24 UNL     1      24.582  12.025  21.054  1.00  0.00     0.095 C 
HETATM   39  C25 UNL     1      24.345  11.829  19.594  1.00  0.00     0.015 C 
HETATM   40  C26 UNL     1      23.857  10.408  19.377  1.00  0.00     0.002 C 
HETATM   41  C27 UNL     1      22.730  10.052  20.291  1.00  0.00     0.015 C 
HETATM   42  C28 UNL     1      23.125  10.395  21.760  1.00  0.00     0.095 C 
ENDBRANCH  36  37
ENDBRANCH  35  36
ENDBRANCH  34  35
ENDBRANCH  31  32
ENDBRANCH  29  31
ENDBRANCH  21  27
ENDBRANCH  16  17
ENDBRANCH  15  16
ENDBRANCH   5   8
ENDBRANCH   3   4
TORSDOF 10
ENDMDL
MODEL 4
REMARK VINA RESULT: -7.770673011      7.934     11.415
REMARK  10 active torsions:
REMARK  status: ('A' for Active; 'I' for Inactive)
REMARK    1  A    between atoms: C3_3  and  N1_4 
REMARK       I    between atoms: N1_4  and  C4_6 
REMARK    2  A    between atoms: C4_6  and  C5_8 
REMARK    3  A    between atoms: N2_15  and  C12_16 
REMARK    4  A    between atoms: C12_16  and  C13_17 
REMARK       I    between atoms: C13_17  and  N3_19 
REMARK    5  A    between atoms: C17_25  and  C19_27 
REMARK       I    between atoms: C19_27  and  N4_29 
REMARK    6  A    between atoms: N4_29  and  C20_31 
REMARK    7  A    between atoms: C20_31  and  C21_32 
REMARK       I    between atoms: C21_32  and  N5_34 
REMARK    8  A    between atoms: N5_34  and  C22_35 
REMARK    9  A    between atoms: C22_35  and  C23_36 
REMARK   10  A    between atoms: C23_36  and  N6_37 
ROOT
HETATM    1  C1  UNL     1      25.301  15.556  24.481  1.00  0.00     0.014 C 
HETATM    2  C2  UNL     1      26.097  15.955  25.301  1.00  0.00    -0.098 C 
HETATM    3  C3  UNL     1      27.077  16.396  26.325  1.00  0.00     0.216 C 
ENDROOT
BRANCH   3   4
HETATM    4  N1  UNL     1      27.453  17.776  26.045  1.00  0.00    -0.348 N 
HETATM    5  C4  UNL     1      28.540  18.397  26.738  1.00  0.00     0.257 C 
HETATM    6  O1  UNL     1      29.137  17.638  27.567  1.00  0.00    -0.271 OA
ATOM      7  H1  UNL     1      26.935  18.306  25.345  1.00  0.00     0.163 HD
BRANCH   5   8
HETATM    8  C5  UNL     1      28.931  19.779  26.535  1.00  0.00     0.237 C 
HETATM    9  C6  UNL     1      27.736  20.593  27.111  1.00  0.00     0.060 C 
HETATM   10  C7  UNL     1      30.129  20.224  27.309  1.00  0.00     0.054 C 
HETATM   11  C8  UNL     1      30.300  21.628  26.778  1.00  0.00     0.044 C 
HETATM   12  C9  UNL     1      29.728  21.535  25.380  1.00  0.00     0.155 C 
HETATM   13  C10 UNL     1      30.836  21.997  24.467  1.00  0.00     0.049 C 
HETATM   14  C11 UNL     1      28.619  22.491  25.189  1.00  0.00     0.049 C 
HETATM   15  N2  UNL     1      29.229  20.168  25.169  1.00  0.00     0.124 N 
BRANCH  15  16
HETATM   16  C12 UNL     1      30.339  19.343  24.671  1.00  0.00     0.377 C 
BRANCH  16  17
HETATM   17  C13 UNL     1      30.031  18.646  23.412  1.00  0.00     0.251 C 
HETATM   18  O2  UNL     1      29.227  19.223  22.645  1.00  0.00    -0.271 OA
HETATM   19  N3  UNL     1      30.583  17.392  23.024  1.00  0.00    -0.304 N 
HETATM   20  C14 UNL     1      31.389  16.467  23.779  1.00  0.00     0.152 C 
HETATM   21  C17 UNL     1      30.454  16.881  21.675  1.00  0.00     0.115 C 
HETATM   22 BR1  UNL     1      32.909  17.317  24.680  1.00  0.00    -0.049 Br
HETATM   23 BR2  UNL     1      30.488  15.458  25.091  1.00  0.00    -0.049 Br
HETATM   24  C15 UNL     1      32.058  15.596  22.709  1.00  0.00     0.058 C 
HETATM   25  C16 UNL     1      31.969  16.501  21.474  1.00  0.00     0.045 C 
HETATM   26  C18 UNL     1      30.095  17.889  20.648  1.00  0.00     0.049 C 
BRANCH  21  27
HETATM   27  C19 UNL     1      29.709  15.649  21.507  1.00  0.00     0.246 C 
HETATM   28  O3  UNL     1      30.057  14.758  20.723  1.00  0.00    -0.271 OA
HETATM   29  N4  UNL     1      28.492  15.392  22.236  1.00  0.00    -0.349 N 
ATOM     30  H4  UNL     1      28.179  16.044  22.956  1.00  0.00     0.163 HD
BRANCH  29  31
HETATM   31  C20 UNL     1      27.732  14.232  21.950  1.00  0.00     0.241 C 
BRANCH  31  32
HETATM   32  C21 UNL     1      28.237  12.905  22.271  1.00  0.00     0.308 C 
HETATM   33  O4  UNL     1      28.816  12.783  23.388  1.00  0.00    -0.255 OA
HETATM   34  N5  UNL     1      28.101  11.750  21.365  1.00  0.00    -0.381 NA
BRANCH  34  35
HETATM   35  C22 UNL     1      27.988  10.767  20.599  1.00  0.00     0.197 C 
BRANCH  35  36
HETATM   36  C23 UNL     1      26.800  10.505  19.751  1.00  0.00     0.091 C 
BRANCH  36  37
HETATM   37  N6  UNL     1      25.519  11.008  19.899  1.00  0.00    -0.290 NA
HETATM   38  C24 UNL     1      25.027  11.269  18.488  1.00  0.00     0.095 C 
HETATM   39  C25 UNL     1      23.913  12.262  18.500  1.00  0.00     0.015 C 
HETATM   40  C26 UNL     1      22.786  11.702  19.349  1.00  0.00     0.002 C 
HETATM   41  C27 UNL     1      23.266  11.222  20.680  1.00  0.00     0.015 C 
HETATM   42  C28 UNL     1      24.478  10.260  20.478  1.00  0.00     0.095 C 
ENDBRANCH  36  37
ENDBRANCH  35  36
ENDBRANCH  34  35
ENDBRANCH  31  32
ENDBRANCH  29  31
ENDBRANCH  21  27
ENDBRANCH  16  17
ENDBRANCH  15  16
ENDBRANCH   5   8
ENDBRANCH   3   4
TORSDOF 10
ENDMDL
MODEL 5
REMARK VINA RESULT: -7.768929050      6.151     11.550
REMARK  10 active torsions:
REMARK  status: ('A' for Active; 'I' for Inactive)
REMARK    1  A    between atoms: C3_3  and  N1_4 
REMARK       I    between atoms: N1_4  and  C4_6 
REMARK    2  A    between atoms: C4_6  and  C5_8 
REMARK    3  A    between atoms: N2_15  and  C12_16 
REMARK    4  A    between atoms: C12_16  and  C13_17 
REMARK       I    between atoms: C13_17  and  N3_19 
REMARK    5  A    between atoms: C17_25  and  C19_27 
REMARK       I    between atoms: C19_27  and  N4_29 
REMARK    6  A    between atoms: N4_29  and  C20_31 
REMARK    7  A    between atoms: C20_31  and  C21_32 
REMARK       I    between atoms: C21_32  and  N5_34 
REMARK    8  A    between atoms: N5_34  and  C22_35 
REMARK    9  A    between atoms: C22_35  and  C23_36 
REMARK   10  A    between atoms: C23_36  and  N6_37 
ROOT
HETATM    1  C1  UNL     1      26.631  13.142  21.975  1.00  0.00     0.014 C 
HETATM    2  C2  UNL     1      27.293  13.367  20.988  1.00  0.00    -0.098 C 
HETATM    3  C3  UNL     1      28.065  13.633  19.747  1.00  0.00     0.216 C 
ENDROOT
BRANCH   3   4
HETATM    4  N1  UNL     1      29.334  14.248  20.113  1.00  0.00    -0.348 N 
HETATM    5  C4  UNL     1      29.728  15.506  19.556  1.00  0.00     0.257 C 
HETATM    6  O1  UNL     1      28.874  16.023  18.766  1.00  0.00    -0.271 OA
ATOM      7  H1  UNL     1      29.951  13.776  20.774  1.00  0.00     0.163 HD
BRANCH   5   8
HETATM    8  C5  UNL     1      30.998  16.145  19.846  1.00  0.00     0.237 C 
HETATM    9  C6  UNL     1      32.042  15.247  19.123  1.00  0.00     0.060 C 
HETATM   10  C7  UNL     1      31.173  17.510  19.263  1.00  0.00     0.054 C 
HETATM   11  C8  UNL     1      32.513  17.894  19.847  1.00  0.00     0.044 C 
HETATM   12  C9  UNL     1      32.553  17.117  21.145  1.00  0.00     0.155 C 
HETATM   13  C10 UNL     1      32.777  18.152  22.219  1.00  0.00     0.049 C 
HETATM   14  C11 UNL     1      33.724  16.218  21.196  1.00  0.00     0.049 C 
HETATM   15  N2  UNL     1      31.325  16.316  21.249  1.00  0.00     0.124 N 
BRANCH  15  16
HETATM   16  C12 UNL     1      30.288  17.142  21.882  1.00  0.00     0.377 C 
BRANCH  16  17
HETATM   17  C13 UNL     1      29.530  16.433  22.926  1.00  0.00     0.251 C 
HETATM   18  O2  UNL     1      29.556  15.183  22.873  1.00  0.00    -0.271 OA
HETATM   19  N3  UNL     1      28.793  17.068  23.966  1.00  0.00    -0.304 N 
HETATM   20  C14 UNL     1      28.478  18.462  24.153  1.00  0.00     0.152 C 
HETATM   21  C17 UNL     1      28.288  16.334  25.107  1.00  0.00     0.115 C 
HETATM   22 BR1  UNL     1      30.036  19.640  23.982  1.00  0.00    -0.049 Br
HETATM   23 BR2  UNL     1      27.146  19.172  23.025  1.00  0.00    -0.049 Br
HETATM   24  C15 UNL     1      28.120  18.566  25.641  1.00  0.00     0.058 C 
HETATM   25  C16 UNL     1      28.815  17.325  26.213  1.00  0.00     0.045 C 
HETATM   26  C18 UNL     1      28.920  15.012  25.340  1.00  0.00     0.049 C 
BRANCH  21  27
HETATM   27  C19 UNL     1      26.849  16.283  25.273  1.00  0.00     0.246 C 
HETATM   28  O3  UNL     1      26.291  16.512  26.352  1.00  0.00    -0.271 OA
HETATM   29  N4  UNL     1      25.971  15.937  24.182  1.00  0.00    -0.349 N 
ATOM     30  H4  UNL     1      26.349  15.807  23.243  1.00  0.00     0.163 HD
BRANCH  29  31
HETATM   31  C20 UNL     1      24.585  15.778  24.418  1.00  0.00     0.241 C 
BRANCH  31  32
HETATM   32  C21 UNL     1      24.006  14.462  24.643  1.00  0.00     0.308 C 
HETATM   33  O4  UNL     1      24.217  13.947  25.779  1.00  0.00    -0.255 OA
HETATM   34  N5  UNL     1      23.219  13.742  23.626  1.00  0.00    -0.381 NA
BRANCH  34  35
HETATM   35  C22 UNL     1      22.552  13.127  22.765  1.00  0.00     0.197 C 
BRANCH  35  36
HETATM   36  C23 UNL     1      23.045  11.944  22.018  1.00  0.00     0.091 C 
BRANCH  36  37
HETATM   37  N6  UNL     1      23.670  11.914  20.784  1.00  0.00    -0.290 NA
HETATM   38  C24 UNL     1      24.251  10.518  20.663  1.00  0.00     0.095 C 
HETATM   39  C25 UNL     1      25.357  10.498  19.662  1.00  0.00     0.015 C 
HETATM   40  C26 UNL     1      24.796  10.946  18.324  1.00  0.00     0.002 C 
HETATM   41  C27 UNL     1      24.018  12.217  18.435  1.00  0.00     0.015 C 
HETATM   42  C28 UNL     1      22.965  12.083  19.579  1.00  0.00     0.095 C 
ENDBRANCH  36  37
ENDBRANCH  35  36
ENDBRANCH  34  35
ENDBRANCH  31  32
ENDBRANCH  29  31
ENDBRANCH  21  27
ENDBRANCH  16  17
ENDBRANCH  15  16
ENDBRANCH   5   8
ENDBRANCH   3   4
TORSDOF 10
ENDMDL
