MODEL 1
REMARK VINA RESULT: -8.898823793      0.000      0.000
REMARK  14 active torsions:
REMARK  status: ('A' for Active; 'I' for Inactive)
REMARK    1  A    between atoms: C2_2  and  C4_4 
REMARK    2  A    between atoms: C4_4  and  N1_5 
REMARK    3  A    between atoms: C4_4  and  C25_31 
REMARK    4  A    between atoms: N1_5  and  C5_7 
REMARK    5  A    between atoms: C5_7  and  O1_8 
REMARK       I    between atoms: N2_18  and  C14_19 
REMARK    6  A    between atoms: C14_19  and  C15_21 
REMARK       I    between atoms: C25_31  and  N3_33 
REMARK    7  A    between atoms: C27_35  and  O4_36 
REMARK    8  A    between atoms: C28_38  and  O5_39 
REMARK    9  A    between atoms: C29_41  and  C30_42 
REMARK   10  A    between atoms: C30_42  and  O6_43 
REMARK   11  A    between atoms: N4_45  and  C31_46 
REMARK   12  A    between atoms: N4_45  and  C33_49 
REMARK   13  A    between atoms: C31_46  and  C32_47 
REMARK   14  A    between atoms: C33_49  and  C34_50 
ROOT
HETATM    1  N1  UNL     1      26.953  13.632  22.069  1.00  0.00    -0.331 N 
ATOM      2  H1  UNL     1      26.956  14.407  21.407  1.00  0.00     0.168 HD
ENDROOT
BRANCH   1   3
HETATM    3  C4  UNL     1      28.220  13.047  22.446  1.00  0.00     0.104 C 
BRANCH   3   4
HETATM    4  C2  UNL     1      28.581  11.784  21.711  1.00  0.00    -0.055 C 
HETATM    5  C1  UNL     1      29.031  11.832  20.327  1.00  0.00     0.045 C 
HETATM    6  C3  UNL     1      29.161  10.772  22.618  1.00  0.00     0.045 C 
ENDBRANCH   3   4
BRANCH   3   7
HETATM    7  C25 UNL     1      29.299  13.966  22.774  1.00  0.00     0.271 C 
HETATM    8  O3  UNL     1      30.411  13.861  22.125  1.00  0.00    -0.266 OA
HETATM    9  N3  UNL     1      29.306  14.977  23.735  1.00  0.00    -0.329 N 
HETATM   10  C26 UNL     1      28.332  15.097  24.837  1.00  0.00     0.161 C 
HETATM   11  C29 UNL     1      30.160  16.133  23.891  1.00  0.00     0.193 C 
HETATM   12  C27 UNL     1      29.360  15.352  25.981  1.00  0.00     0.167 C 
HETATM   13  C28 UNL     1      30.007  16.578  25.299  1.00  0.00     0.179 C 
BRANCH  12  14
HETATM   14  O4  UNL     1      28.760  15.601  27.153  1.00  0.00    -0.391 OA
ATOM     15  H4  UNL     1      29.082  15.038  27.847  1.00  0.00     0.210 HD
ENDBRANCH  12  14
BRANCH  13  16
HETATM   16  O5  UNL     1      29.031  17.583  25.480  1.00  0.00    -0.390 OA
ATOM     17  H5  UNL     1      29.370  18.298  24.956  1.00  0.00     0.210 HD
ENDBRANCH  13  16
BRANCH  11  18
HETATM   18  C30 UNL     1      29.932  17.178  22.898  1.00  0.00     0.140 C 
HETATM   19  N4  UNL     1      30.576  18.115  22.158  1.00  0.00    -0.362 N 
BRANCH  18  20
HETATM   20  O6  UNL     1      28.583  17.203  22.644  1.00  0.00    -0.348 OA
ATOM     21  H6  UNL     1      28.247  18.012  23.013  1.00  0.00     0.219 HD
ENDBRANCH  18  20
BRANCH  19  22
HETATM   22  C31 UNL     1      29.750  18.945  21.245  1.00  0.00     0.139 C 
BRANCH  22  23
HETATM   23  C32 UNL     1      30.122  18.797  19.814  1.00  0.00     0.134 C 
HETATM   24 CL1  UNL     1      29.587  17.191  19.215  1.00  0.00    -0.129 Cl
ENDBRANCH  22  23
ENDBRANCH  19  22
BRANCH  19  25
HETATM   25  C33 UNL     1      31.970  18.390  22.093  1.00  0.00     0.139 C 
BRANCH  25  26
HETATM   26  C34 UNL     1      32.951  17.286  22.140  1.00  0.00     0.134 C 
HETATM   27 CL2  UNL     1      32.656  16.284  20.662  1.00  0.00    -0.129 Cl
ENDBRANCH  25  26
ENDBRANCH  19  25
ENDBRANCH  11  18
ENDBRANCH   3   7
ENDBRANCH   1   3
BRANCH   1  28
HETATM   28  C5  UNL     1      25.706  13.184  22.573  1.00  0.00     0.164 C 
HETATM   29  C6  UNL     1      24.728  12.333  21.989  1.00  0.00     0.070 C 
HETATM   30  C7  UNL     1      24.488  11.989  20.602  1.00  0.00     0.046 C 
HETATM   31  N2  UNL     1      23.422  12.237  22.640  1.00  0.00    -0.316 N 
HETATM   32  C8  UNL     1      25.653  11.317  19.863  1.00  0.00     0.011 C 
HETATM   33  C12 UNL     1      23.552  10.749  20.817  1.00  0.00     0.014 C 
HETATM   34  C9  UNL     1      25.160  10.778  18.552  1.00  0.00     0.001 C 
HETATM   35  C10 UNL     1      23.882  10.014  18.562  1.00  0.00     0.000 C 
HETATM   36  C11 UNL     1      22.830  10.607  19.525  1.00  0.00     0.007 C 
HETATM   37  C13 UNL     1      22.759  11.076  22.012  1.00  0.00     0.137 C 
HETATM   38  C14 UNL     1      22.741  13.069  23.538  1.00  0.00     0.228 C 
HETATM   39  O2  UNL     1      23.067  14.318  23.547  1.00  0.00    -0.273 OA
BRANCH  28  40
HETATM   40  O1  UNL     1      25.474  13.644  23.788  1.00  0.00    -0.345 OA
ATOM     41  H1  UNL     1      25.193  12.955  24.379  1.00  0.00     0.219 HD
ENDBRANCH  28  40
BRANCH  38  42
HETATM   42  C15 UNL     1      21.709  12.721  24.502  1.00  0.00     0.083 C 
HETATM   43  C16 UNL     1      22.341  12.137  25.781  1.00  0.00     0.019 C 
HETATM   44  C17 UNL     1      21.265  12.039  26.805  1.00  0.00    -0.009 C 
HETATM   45  C18 UNL     1      20.352  13.225  26.895  1.00  0.00     0.010 C 
HETATM   46  C21 UNL     1      20.379  10.840  26.431  1.00  0.00    -0.010 C 
HETATM   47  C19 UNL     1      19.140  12.779  26.145  1.00  0.00    -0.013 C 
HETATM   48  C20 UNL     1      18.981  11.364  26.724  1.00  0.00     0.009 C 
HETATM   49  C24 UNL     1      19.263  12.670  24.669  1.00  0.00     0.010 C 
HETATM   50  C23 UNL     1      20.519  11.915  24.201  1.00  0.00    -0.001 C 
HETATM   51  C22 UNL     1      20.483  10.571  24.954  1.00  0.00     0.010 C 
ENDBRANCH  38  42
ENDBRANCH   1  28
TORSDOF 14
ENDMDL
MODEL 2
REMARK VINA RESULT: -8.880415418      2.248      2.843
REMARK  14 active torsions:
REMARK  status: ('A' for Active; 'I' for Inactive)
REMARK    1  A    between atoms: C2_2  and  C4_4 
REMARK    2  A    between atoms: C4_4  and  N1_5 
REMARK    3  A    between atoms: C4_4  and  C25_31 
REMARK    4  A    between atoms: N1_5  and  C5_7 
REMARK    5  A    between atoms: C5_7  and  O1_8 
REMARK       I    between atoms: N2_18  and  C14_19 
REMARK    6  A    between atoms: C14_19  and  C15_21 
REMARK       I    between atoms: C25_31  and  N3_33 
REMARK    7  A    between atoms: C27_35  and  O4_36 
REMARK    8  A    between atoms: C28_38  and  O5_39 
REMARK    9  A    between atoms: C29_41  and  C30_42 
REMARK   10  A    between atoms: C30_42  and  O6_43 
REMARK   11  A    between atoms: N4_45  and  C31_46 
REMARK   12  A    between atoms: N4_45  and  C33_49 
REMARK   13  A    between atoms: C31_46  and  C32_47 
REMARK   14  A    between atoms: C33_49  and  C34_50 
ROOT
HETATM    1  N1  UNL     1      26.765  13.830  21.793  1.00  0.00    -0.331 N 
ATOM      2  H1  UNL     1      26.716  14.266  20.872  1.00  0.00     0.168 HD
ENDROOT
BRANCH   1   3
HETATM    3  C4  UNL     1      28.052  13.754  22.447  1.00  0.00     0.104 C 
BRANCH   3   4
HETATM    4  C2  UNL     1      28.964  12.671  21.935  1.00  0.00    -0.055 C 
HETATM    5  C1  UNL     1      28.977  11.355  22.560  1.00  0.00     0.045 C 
HETATM    6  C3  UNL     1      29.167  12.773  20.476  1.00  0.00     0.045 C 
ENDBRANCH   3   4
BRANCH   3   7
HETATM    7  C25 UNL     1      28.663  15.012  22.850  1.00  0.00     0.271 C 
HETATM    8  O3  UNL     1      29.411  15.630  21.998  1.00  0.00    -0.266 OA
HETATM    9  N3  UNL     1      28.557  15.664  24.080  1.00  0.00    -0.329 N 
HETATM   10  C26 UNL     1      28.074  15.039  25.325  1.00  0.00     0.161 C 
HETATM   11  C29 UNL     1      28.818  17.036  24.452  1.00  0.00     0.193 C 
HETATM   12  C27 UNL     1      29.210  15.554  26.259  1.00  0.00     0.167 C 
HETATM   13  C28 UNL     1      28.981  17.046  25.926  1.00  0.00     0.179 C 
BRANCH  12  14
HETATM   14  O4  UNL     1      29.004  15.216  27.539  1.00  0.00    -0.391 OA
ATOM     15  H4  UNL     1      29.550  14.487  27.809  1.00  0.00     0.210 HD
ENDBRANCH  12  14
BRANCH  13  16
HETATM   16  O5  UNL     1      27.793  17.339  26.632  1.00  0.00    -0.390 OA
ATOM     17  H5  UNL     1      27.297  17.848  26.001  1.00  0.00     0.210 HD
ENDBRANCH  13  16
BRANCH  11  18
HETATM   18  C30 UNL     1      27.833  17.986  23.945  1.00  0.00     0.140 C 
HETATM   19  N4  UNL     1      26.498  18.166  23.781  1.00  0.00    -0.362 N 
BRANCH  18  20
HETATM   20  O6  UNL     1      28.529  19.069  23.467  1.00  0.00    -0.348 OA
ATOM     21  H6  UNL     1      27.960  19.825  23.555  1.00  0.00     0.219 HD
ENDBRANCH  18  20
BRANCH  19  22
HETATM   22  C31 UNL     1      26.055  19.439  23.161  1.00  0.00     0.139 C 
BRANCH  22  23
HETATM   23  C32 UNL     1      24.703  19.359  22.550  1.00  0.00     0.134 C 
HETATM   24 CL1  UNL     1      24.714  20.180  20.953  1.00  0.00    -0.129 Cl
ENDBRANCH  22  23
ENDBRANCH  19  22
BRANCH  19  25
HETATM   25  C33 UNL     1      25.434  17.307  24.173  1.00  0.00     0.139 C 
BRANCH  25  26
HETATM   26  C34 UNL     1      24.883  17.378  25.542  1.00  0.00     0.134 C 
HETATM   27 CL2  UNL     1      24.484  15.678  26.017  1.00  0.00    -0.129 Cl
ENDBRANCH  25  26
ENDBRANCH  19  25
ENDBRANCH  11  18
ENDBRANCH   3   7
ENDBRANCH   1   3
BRANCH   1  28
HETATM   28  C5  UNL     1      25.569  13.330  22.364  1.00  0.00     0.164 C 
HETATM   29  C6  UNL     1      24.631  12.386  21.862  1.00  0.00     0.070 C 
HETATM   30  C7  UNL     1      24.370  11.951  20.504  1.00  0.00     0.046 C 
HETATM   31  N2  UNL     1      23.356  12.241  22.564  1.00  0.00    -0.316 N 
HETATM   32  C8  UNL     1      25.553  11.317  19.760  1.00  0.00     0.011 C 
HETATM   33  C12 UNL     1      23.527  10.667  20.818  1.00  0.00     0.014 C 
HETATM   34  C9  UNL     1      25.055  10.676  18.497  1.00  0.00     0.001 C 
HETATM   35  C10 UNL     1      23.832   9.832  18.594  1.00  0.00     0.000 C 
HETATM   36  C11 UNL     1      22.774  10.408  19.561  1.00  0.00     0.007 C 
HETATM   37  C13 UNL     1      22.753  11.007  22.022  1.00  0.00     0.137 C 
HETATM   38  C14 UNL     1      22.651  13.075  23.440  1.00  0.00     0.228 C 
HETATM   39  O2  UNL     1      22.893  14.341  23.371  1.00  0.00    -0.273 OA
BRANCH  28  40
HETATM   40  O1  UNL     1      25.346  13.840  23.560  1.00  0.00    -0.345 OA
ATOM     41  H1  UNL     1      24.903  14.679  23.511  1.00  0.00     0.219 HD
ENDBRANCH  28  40
BRANCH  38  42
HETATM   42  C15 UNL     1      21.677  12.714  24.458  1.00  0.00     0.083 C 
HETATM   43  C16 UNL     1      22.379  12.090  25.679  1.00  0.00     0.019 C 
HETATM   44  C17 UNL     1      21.368  11.978  26.766  1.00  0.00    -0.009 C 
HETATM   45  C18 UNL     1      20.478  13.172  26.943  1.00  0.00     0.010 C 
HETATM   46  C21 UNL     1      20.444  10.800  26.418  1.00  0.00    -0.010 C 
HETATM   47  C19 UNL     1      19.215  12.760  26.260  1.00  0.00    -0.013 C 
HETATM   48  C20 UNL     1      19.075  11.332  26.811  1.00  0.00     0.009 C 
HETATM   49  C24 UNL     1      19.245  12.688  24.776  1.00  0.00     0.010 C 
HETATM   50  C23 UNL     1      20.459  11.931  24.211  1.00  0.00    -0.001 C 
HETATM   51  C22 UNL     1      20.452  10.568  24.931  1.00  0.00     0.010 C 
ENDBRANCH  38  42
ENDBRANCH   1  28
TORSDOF 14
ENDMDL
MODEL 3
REMARK VINA RESULT: -8.851331883      1.104      1.177
REMARK  14 active torsions:
REMARK  status: ('A' for Active; 'I' for Inactive)
REMARK    1  A    between atoms: C2_2  and  C4_4 
REMARK    2  A    between atoms: C4_4  and  N1_5 
REMARK    3  A    between atoms: C4_4  and  C25_31 
REMARK    4  A    between atoms: N1_5  and  C5_7 
REMARK    5  A    between atoms: C5_7  and  O1_8 
REMARK       I    between atoms: N2_18  and  C14_19 
REMARK    6  A    between atoms: C14_19  and  C15_21 
REMARK       I    between atoms: C25_31  and  N3_33 
REMARK    7  A    between atoms: C27_35  and  O4_36 
REMARK    8  A    between atoms: C28_38  and  O5_39 
REMARK    9  A    between atoms: C29_41  and  C30_42 
REMARK   10  A    between atoms: C30_42  and  O6_43 
REMARK   11  A    between atoms: N4_45  and  C31_46 
REMARK   12  A    between atoms: N4_45  and  C33_49 
REMARK   13  A    between atoms: C31_46  and  C32_47 
REMARK   14  A    between atoms: C33_49  and  C34_50 
ROOT
HETATM    1  N1  UNL     1      26.951  13.651  22.048  1.00  0.00    -0.331 N 
ATOM      2  H1  UNL     1      26.950  14.421  21.381  1.00  0.00     0.168 HD
ENDROOT
BRANCH   1   3
HETATM    3  C4  UNL     1      28.222  13.077  22.432  1.00  0.00     0.104 C 
BRANCH   3   4
HETATM    4  C2  UNL     1      28.595  11.813  21.703  1.00  0.00    -0.055 C 
HETATM    5  C1  UNL     1      29.066  11.862  20.326  1.00  0.00     0.045 C 
HETATM    6  C3  UNL     1      29.162  10.802  22.619  1.00  0.00     0.045 C 
ENDBRANCH   3   4
BRANCH   3   7
HETATM    7  C25 UNL     1      29.293  14.005  22.760  1.00  0.00     0.271 C 
HETATM    8  O3  UNL     1      30.375  13.964  22.057  1.00  0.00    -0.266 OA
HETATM    9  N3  UNL     1      29.319  14.963  23.774  1.00  0.00    -0.329 N 
HETATM   10  C26 UNL     1      28.396  14.998  24.923  1.00  0.00     0.161 C 
HETATM   11  C29 UNL     1      30.152  16.132  23.954  1.00  0.00     0.193 C 
HETATM   12  C27 UNL     1      29.469  15.219  26.032  1.00  0.00     0.167 C 
HETATM   13  C28 UNL     1      30.054  16.496  25.389  1.00  0.00     0.179 C 
BRANCH  12  14
HETATM   14  O4  UNL     1      28.918  15.389  27.242  1.00  0.00    -0.391 OA
ATOM     15  H4  UNL     1      29.514  15.152  27.943  1.00  0.00     0.210 HD
ENDBRANCH  12  14
BRANCH  13  16
HETATM   16  O5  UNL     1      29.063  17.464  25.669  1.00  0.00    -0.390 OA
ATOM     17  H5  UNL     1      29.166  18.078  24.952  1.00  0.00     0.210 HD
ENDBRANCH  13  16
BRANCH  11  18
HETATM   18  C30 UNL     1      29.853  17.221  23.031  1.00  0.00     0.140 C 
HETATM   19  N4  UNL     1      30.409  18.302  22.427  1.00  0.00    -0.362 N 
BRANCH  18  20
HETATM   20  O6  UNL     1      28.538  17.084  22.660  1.00  0.00    -0.348 OA
ATOM     21  H6  UNL     1      28.336  17.810  22.080  1.00  0.00     0.219 HD
ENDBRANCH  18  20
BRANCH  19  22
HETATM   22  C31 UNL     1      29.545  19.090  21.514  1.00  0.00     0.139 C 
BRANCH  22  23
HETATM   23  C32 UNL     1      29.372  20.504  21.938  1.00  0.00     0.134 C 
HETATM   24 CL1  UNL     1      28.662  20.554  23.586  1.00  0.00    -0.129 Cl
ENDBRANCH  22  23
ENDBRANCH  19  22
BRANCH  19  25
HETATM   25  C33 UNL     1      31.750  18.771  22.510  1.00  0.00     0.139 C 
BRANCH  25  26
HETATM   26  C34 UNL     1      32.312  19.199  23.808  1.00  0.00     0.134 C 
HETATM   27 CL2  UNL     1      33.365  17.842  24.377  1.00  0.00    -0.129 Cl
ENDBRANCH  25  26
ENDBRANCH  19  25
ENDBRANCH  11  18
ENDBRANCH   3   7
ENDBRANCH   1   3
BRANCH   1  28
HETATM   28  C5  UNL     1      25.706  13.197  22.552  1.00  0.00     0.164 C 
HETATM   29  C6  UNL     1      24.733  12.340  21.969  1.00  0.00     0.070 C 
HETATM   30  C7  UNL     1      24.496  11.992  20.582  1.00  0.00     0.046 C 
HETATM   31  N2  UNL     1      23.427  12.238  22.619  1.00  0.00    -0.316 N 
HETATM   32  C8  UNL     1      25.665  11.325  19.845  1.00  0.00     0.011 C 
HETATM   33  C12 UNL     1      23.566  10.747  20.799  1.00  0.00     0.014 C 
HETATM   34  C9  UNL     1      25.176  10.781  18.534  1.00  0.00     0.001 C 
HETATM   35  C10 UNL     1      23.902  10.010  18.546  1.00  0.00     0.000 C 
HETATM   36  C11 UNL     1      22.846  10.600  19.506  1.00  0.00     0.007 C 
HETATM   37  C13 UNL     1      22.771  11.072  21.993  1.00  0.00     0.137 C 
HETATM   38  C14 UNL     1      22.741  13.068  23.515  1.00  0.00     0.228 C 
HETATM   39  O2  UNL     1      23.061  14.318  23.522  1.00  0.00    -0.273 OA
BRANCH  28  40
HETATM   40  O1  UNL     1      25.471  13.657  23.766  1.00  0.00    -0.345 OA
ATOM     41  H1  UNL     1      25.443  14.607  23.785  1.00  0.00     0.219 HD
ENDBRANCH  28  40
BRANCH  38  42
HETATM   42  C15 UNL     1      21.711  12.716  24.479  1.00  0.00     0.083 C 
HETATM   43  C16 UNL     1      22.344  12.133  25.757  1.00  0.00     0.019 C 
HETATM   44  C17 UNL     1      21.269  12.031  26.781  1.00  0.00    -0.009 C 
HETATM   45  C18 UNL     1      20.352  13.214  26.873  1.00  0.00     0.010 C 
HETATM   46  C21 UNL     1      20.386  10.830  26.407  1.00  0.00    -0.010 C 
HETATM   47  C19 UNL     1      19.141  12.766  26.123  1.00  0.00    -0.013 C 
HETATM   48  C20 UNL     1      18.987  11.349  26.700  1.00  0.00     0.009 C 
HETATM   49  C24 UNL     1      19.265  12.658  24.646  1.00  0.00     0.010 C 
HETATM   50  C23 UNL     1      20.522  11.907  24.177  1.00  0.00    -0.001 C 
HETATM   51  C22 UNL     1      20.490  10.563  24.929  1.00  0.00     0.010 C 
ENDBRANCH  38  42
ENDBRANCH   1  28
TORSDOF 14
ENDMDL
MODEL 4
REMARK VINA RESULT: -8.844726384      1.505      2.364
REMARK  14 active torsions:
REMARK  status: ('A' for Active; 'I' for Inactive)
REMARK    1  A    between atoms: C2_2  and  C4_4 
REMARK    2  A    between atoms: C4_4  and  N1_5 
REMARK    3  A    between atoms: C4_4  and  C25_31 
REMARK    4  A    between atoms: N1_5  and  C5_7 
REMARK    5  A    between atoms: C5_7  and  O1_8 
REMARK       I    between atoms: N2_18  and  C14_19 
REMARK    6  A    between atoms: C14_19  and  C15_21 
REMARK       I    between atoms: C25_31  and  N3_33 
REMARK    7  A    between atoms: C27_35  and  O4_36 
REMARK    8  A    between atoms: C28_38  and  O5_39 
REMARK    9  A    between atoms: C29_41  and  C30_42 
REMARK   10  A    between atoms: C30_42  and  O6_43 
REMARK   11  A    between atoms: N4_45  and  C31_46 
REMARK   12  A    between atoms: N4_45  and  C33_49 
REMARK   13  A    between atoms: C31_46  and  C32_47 
REMARK   14  A    between atoms: C33_49  and  C34_50 
ROOT
HETATM    1  N1  UNL     1      26.542  13.895  22.754  1.00  0.00    -0.331 N 
ATOM      2  H1  UNL     1      26.600  14.473  21.916  1.00  0.00     0.168 HD
ENDROOT
BRANCH   1   3
HETATM    3  C4  UNL     1      27.758  13.634  23.492  1.00  0.00     0.104 C 
BRANCH   3   4
HETATM    4  C2  UNL     1      28.866  13.004  22.691  1.00  0.00    -0.055 C 
HETATM    5  C1  UNL     1      28.803  11.598  22.313  1.00  0.00     0.045 C 
HETATM    6  C3  UNL     1      29.482  13.969  21.757  1.00  0.00     0.045 C 
ENDBRANCH   3   4
BRANCH   3   7
HETATM    7  C25 UNL     1      28.133  14.603  24.510  1.00  0.00     0.271 C 
HETATM    8  O3  UNL     1      28.835  14.196  25.514  1.00  0.00    -0.266 OA
HETATM    9  N3  UNL     1      27.819  15.962  24.561  1.00  0.00    -0.329 N 
HETATM   10  C26 UNL     1      26.764  16.612  23.761  1.00  0.00     0.161 C 
HETATM   11  C29 UNL     1      28.415  17.047  25.308  1.00  0.00     0.193 C 
HETATM   12  C27 UNL     1      26.108  17.421  24.920  1.00  0.00     0.167 C 
HETATM   13  C28 UNL     1      27.413  18.140  25.328  1.00  0.00     0.179 C 
BRANCH  12  14
HETATM   14  O4  UNL     1      25.126  18.222  24.484  1.00  0.00    -0.391 OA
ATOM     15  H4  UNL     1      24.295  18.032  24.903  1.00  0.00     0.210 HD
ENDBRANCH  12  14
BRANCH  13  16
HETATM   16  O5  UNL     1      27.578  19.089  24.295  1.00  0.00    -0.390 OA
ATOM     17  H5  UNL     1      28.178  19.715  24.683  1.00  0.00     0.210 HD
ENDBRANCH  13  16
BRANCH  11  18
HETATM   18  C30 UNL     1      29.734  17.443  24.827  1.00  0.00     0.140 C 
HETATM   19  N4  UNL     1      30.458  17.617  23.693  1.00  0.00    -0.362 N 
BRANCH  18  20
HETATM   20  O6  UNL     1      30.494  17.734  25.934  1.00  0.00    -0.348 OA
ATOM     21  H6  UNL     1      31.313  17.261  25.840  1.00  0.00     0.219 HD
ENDBRANCH  18  20
BRANCH  19  22
HETATM   22  C31 UNL     1      31.860  18.079  23.844  1.00  0.00     0.139 C 
BRANCH  22  23
HETATM   23  C32 UNL     1      32.864  17.063  23.434  1.00  0.00     0.134 C 
HETATM   24 CL1  UNL     1      33.297  16.041  24.845  1.00  0.00    -0.129 Cl
ENDBRANCH  22  23
ENDBRANCH  19  22
BRANCH  19  25
HETATM   25  C33 UNL     1      30.038  17.462  22.342  1.00  0.00     0.139 C 
BRANCH  25  26
HETATM   26  C34 UNL     1      29.692  18.646  21.528  1.00  0.00     0.134 C 
HETATM   27 CL2  UNL     1      29.595  18.071  19.814  1.00  0.00    -0.129 Cl
ENDBRANCH  25  26
ENDBRANCH  19  25
ENDBRANCH  11  18
ENDBRANCH   3   7
ENDBRANCH   1   3
BRANCH   1  28
HETATM   28  C5  UNL     1      25.275  13.389  23.135  1.00  0.00     0.164 C 
HETATM   29  C6  UNL     1      24.396  12.498  22.458  1.00  0.00     0.070 C 
HETATM   30  C7  UNL     1      24.307  12.152  21.054  1.00  0.00     0.046 C 
HETATM   31  N2  UNL     1      23.039  12.341  22.981  1.00  0.00    -0.316 N 
HETATM   32  C8  UNL     1      25.565  11.537  20.429  1.00  0.00     0.011 C 
HETATM   33  C12 UNL     1      23.410  10.871  21.176  1.00  0.00     0.014 C 
HETATM   34  C9  UNL     1      25.225  10.985  19.076  1.00  0.00     0.001 C 
HETATM   35  C10 UNL     1      23.988  10.165  18.962  1.00  0.00     0.000 C 
HETATM   36  C11 UNL     1      22.823  10.705  19.820  1.00  0.00     0.007 C 
HETATM   37  C13 UNL     1      22.492  11.155  22.290  1.00  0.00     0.137 C 
HETATM   38  C14 UNL     1      22.239  13.136  23.810  1.00  0.00     0.228 C 
HETATM   39  O2  UNL     1      22.507  14.398  23.853  1.00  0.00    -0.273 OA
BRANCH  28  40
HETATM   40  O1  UNL     1      24.907  13.830  24.322  1.00  0.00    -0.345 OA
ATOM     41  H1  UNL     1      24.273  14.535  24.257  1.00  0.00     0.219 HD
ENDBRANCH  28  40
BRANCH  38  42
HETATM   42  C15 UNL     1      21.136  12.736  24.671  1.00  0.00     0.083 C 
HETATM   43  C16 UNL     1      21.641  11.824  25.805  1.00  0.00     0.019 C 
HETATM   44  C17 UNL     1      20.524  11.661  26.776  1.00  0.00    -0.009 C 
HETATM   45  C18 UNL     1      19.766  12.913  27.103  1.00  0.00     0.010 C 
HETATM   46  C21 UNL     1      19.506  10.692  26.151  1.00  0.00    -0.010 C 
HETATM   47  C19 UNL     1      18.536  12.795  26.264  1.00  0.00    -0.013 C 
HETATM   48  C20 UNL     1      18.177  11.324  26.533  1.00  0.00     0.009 C 
HETATM   49  C24 UNL     1      18.699  12.976  24.799  1.00  0.00     0.010 C 
HETATM   50  C23 UNL     1      19.865  12.175  24.196  1.00  0.00    -0.001 C 
HETATM   51  C22 UNL     1      19.630  10.721  24.651  1.00  0.00     0.010 C 
ENDBRANCH  38  42
ENDBRANCH   1  28
TORSDOF 14
ENDMDL
MODEL 5
REMARK VINA RESULT: -8.759995496      1.668      2.121
REMARK  14 active torsions:
REMARK  status: ('A' for Active; 'I' for Inactive)
REMARK    1  A    between atoms: C2_2  and  C4_4 
REMARK    2  A    between atoms: C4_4  and  N1_5 
REMARK    3  A    between atoms: C4_4  and  C25_31 
REMARK    4  A    between atoms: N1_5  and  C5_7 
REMARK    5  A    between atoms: C5_7  and  O1_8 
REMARK       I    between atoms: N2_18  and  C14_19 
REMARK    6  A    between atoms: C14_19  and  C15_21 
REMARK       I    between atoms: C25_31  and  N3_33 
REMARK    7  A    between atoms: C27_35  and  O4_36 
REMARK    8  A    between atoms: C28_38  and  O5_39 
REMARK    9  A    between atoms: C29_41  and  C30_42 
REMARK   10  A    between atoms: C30_42  and  O6_43 
REMARK   11  A    between atoms: N4_45  and  C31_46 
REMARK   12  A    between atoms: N4_45  and  C33_49 
REMARK   13  A    between atoms: C31_46  and  C32_47 
REMARK   14  A    between atoms: C33_49  and  C34_50 
ROOT
HETATM    1  N1  UNL     1      26.602  13.947  22.491  1.00  0.00    -0.331 N 
ATOM      2  H1  UNL     1      26.604  14.632  21.735  1.00  0.00     0.168 HD
ENDROOT
BRANCH   1   3
HETATM    3  C4  UNL     1      27.870  13.559  23.068  1.00  0.00     0.104 C 
BRANCH   3   4
HETATM    4  C2  UNL     1      28.758  12.748  22.163  1.00  0.00    -0.055 C 
HETATM    5  C1  UNL     1      28.882  11.307  22.339  1.00  0.00     0.045 C 
HETATM    6  C3  UNL     1      28.804  13.309  20.797  1.00  0.00     0.045 C 
ENDBRANCH   3   4
BRANCH   3   7
HETATM    7  C25 UNL     1      28.509  14.514  23.959  1.00  0.00     0.271 C 
HETATM    8  O3  UNL     1      29.441  14.088  24.745  1.00  0.00    -0.266 OA
HETATM    9  N3  UNL     1      28.240  15.877  24.095  1.00  0.00    -0.329 N 
HETATM   10  C26 UNL     1      27.026  16.548  23.597  1.00  0.00     0.161 C 
HETATM   11  C29 UNL     1      29.027  16.947  24.667  1.00  0.00     0.193 C 
HETATM   12  C27 UNL     1      26.703  17.357  24.889  1.00  0.00     0.167 C 
HETATM   13  C28 UNL     1      28.081  18.054  24.950  1.00  0.00     0.179 C 
BRANCH  12  14
HETATM   14  O4  UNL     1      25.655  18.175  24.725  1.00  0.00    -0.391 OA
ATOM     15  H4  UNL     1      25.280  18.448  25.555  1.00  0.00     0.210 HD
ENDBRANCH  12  14
BRANCH  13  16
HETATM   16  O5  UNL     1      27.988  19.009  23.913  1.00  0.00    -0.390 OA
ATOM     17  H5  UNL     1      27.975  19.831  24.389  1.00  0.00     0.210 HD
ENDBRANCH  13  16
BRANCH  11  18
HETATM   18  C30 UNL     1      30.183  17.329  23.863  1.00  0.00     0.140 C 
HETATM   19  N4  UNL     1      31.510  17.598  23.948  1.00  0.00    -0.362 N 
BRANCH  18  20
HETATM   20  O6  UNL     1      29.746  17.460  22.568  1.00  0.00    -0.348 OA
ATOM     21  H6  UNL     1      30.485  17.265  22.004  1.00  0.00     0.219 HD
ENDBRANCH  18  20
BRANCH  19  22
HETATM   22  C31 UNL     1      32.214  17.952  22.691  1.00  0.00     0.139 C 
BRANCH  22  23
HETATM   23  C32 UNL     1      33.290  16.995  22.326  1.00  0.00     0.134 C 
HETATM   24 CL1  UNL     1      32.603  15.342  22.186  1.00  0.00    -0.129 Cl
ENDBRANCH  22  23
ENDBRANCH  19  22
BRANCH  19  25
HETATM   25  C33 UNL     1      32.354  17.539  25.092  1.00  0.00     0.139 C 
BRANCH  25  26
HETATM   26  C34 UNL     1      33.090  18.740  25.539  1.00  0.00     0.134 C 
HETATM   27 CL2  UNL     1      34.682  18.152  26.170  1.00  0.00    -0.129 Cl
ENDBRANCH  25  26
ENDBRANCH  19  25
ENDBRANCH  11  18
ENDBRANCH   3   7
ENDBRANCH   1   3
BRANCH   1  28
HETATM   28  C5  UNL     1      25.356  13.426  22.921  1.00  0.00     0.164 C 
HETATM   29  C6  UNL     1      24.481  12.495  22.297  1.00  0.00     0.070 C 
HETATM   30  C7  UNL     1      24.363  12.102  20.906  1.00  0.00     0.046 C 
HETATM   31  N2  UNL     1      23.142  12.324  22.860  1.00  0.00    -0.316 N 
HETATM   32  C8  UNL     1      25.620  11.495  20.268  1.00  0.00     0.011 C 
HETATM   33  C12 UNL     1      23.500  10.805  21.093  1.00  0.00     0.014 C 
HETATM   34  C9  UNL     1      25.257  10.892  18.942  1.00  0.00     0.001 C 
HETATM   35  C10 UNL     1      24.037  10.041  18.888  1.00  0.00     0.000 C 
HETATM   36  C11 UNL     1      22.882  10.583  19.759  1.00  0.00     0.007 C 
HETATM   37  C13 UNL     1      22.605  11.104  22.221  1.00  0.00     0.137 C 
HETATM   38  C14 UNL     1      22.345  13.127  23.684  1.00  0.00     0.228 C 
HETATM   39  O2  UNL     1      22.585  14.395  23.680  1.00  0.00    -0.273 OA
BRANCH  28  40
HETATM   40  O1  UNL     1      25.009  13.897  24.103  1.00  0.00    -0.345 OA
ATOM     41  H1  UNL     1      24.216  14.417  24.058  1.00  0.00     0.219 HD
ENDBRANCH  28  40
BRANCH  38  42
HETATM   42  C15 UNL     1      21.275  12.731  24.586  1.00  0.00     0.083 C 
HETATM   43  C16 UNL     1      21.825  11.846  25.720  1.00  0.00     0.019 C 
HETATM   44  C17 UNL     1      20.741  11.688  26.728  1.00  0.00    -0.009 C 
HETATM   45  C18 UNL     1      19.979  12.937  27.056  1.00  0.00     0.010 C 
HETATM   46  C21 UNL     1      19.716  10.697  26.153  1.00  0.00    -0.010 C 
HETATM   47  C19 UNL     1      18.724  12.790  26.259  1.00  0.00    -0.013 C 
HETATM   48  C20 UNL     1      18.392  11.321  26.565  1.00  0.00     0.009 C 
HETATM   49  C24 UNL     1      18.840  12.946  24.786  1.00  0.00     0.010 C 
HETATM   50  C23 UNL     1      19.996  12.147  24.161  1.00  0.00    -0.001 C 
HETATM   51  C22 UNL     1      19.793  10.700  24.650  1.00  0.00     0.010 C 
ENDBRANCH  38  42
ENDBRANCH   1  28
TORSDOF 14
ENDMDL
