MODEL 1
REMARK VINA RESULT: -8.150543734      0.000      0.000
REMARK  15 active torsions:
REMARK  status: ('A' for Active; 'I' for Inactive)
REMARK    1  A    between atoms: N1_2  and  C2_5 
REMARK    2  A    between atoms: C2_5  and  C4_7 
REMARK       I    between atoms: C4_7  and  N2_9 
REMARK    3  A    between atoms: N2_9  and  C5_10 
REMARK    4  A    between atoms: C5_10  and  C6_11 
REMARK    5  A    between atoms: C5_10  and  C10_15 
REMARK    6  A    between atoms: C10_15  and  O2_16 
REMARK    7  A    between atoms: C10_15  and  N3_18 
REMARK    8  A    between atoms: N4_21  and  C13_22 
REMARK    9  A    between atoms: C13_22  and  C15_24 
REMARK   10  A    between atoms: C15_24  and  O3_25 
REMARK   11  A    between atoms: C15_24  and  N5_27 
REMARK   12  A    between atoms: N5_27  and  C17_29 
REMARK   13  A    between atoms: C17_29  and  C18_30 
REMARK   14  A    between atoms: C25_40  and  C27_42 
REMARK       I    between atoms: C27_42  and  N6_44 
REMARK   15  A    between atoms: N6_44  and  C28_46 
ROOT
HETATM    1  N3  UNL     1      28.640  14.580  21.996  1.00  0.00    -0.337 N 
HETATM    2  C11 UNL     1      27.870  13.412  21.738  1.00  0.00     0.118 C 
HETATM    3  C12 UNL     1      27.361  13.182  20.360  1.00  0.00     0.152 C 
HETATM    4  N4  UNL     1      27.213  11.758  20.269  1.00  0.00    -0.338 N 
HETATM    5  C22 UNL     1      28.237  11.221  21.126  1.00  0.00     0.227 C 
HETATM    6  O5  UNL     1      28.460   9.997  21.285  1.00  0.00    -0.273 OA
HETATM    7  C23 UNL     1      28.972  12.307  21.777  1.00  0.00     0.105 C 
HETATM    8  C24 UNL     1      29.966  12.979  20.858  1.00  0.00     0.057 C 
HETATM    9  C25 UNL     1      29.892  14.410  21.235  1.00  0.00     0.113 C 
HETATM   10  C26 UNL     1      31.087  14.654  22.173  1.00  0.00     0.049 C 
ENDROOT
BRANCH   1  11
HETATM   11  C10 UNL     1      28.352  15.675  22.776  1.00  0.00     0.156 C 
BRANCH  11  12
HETATM   12  C5  UNL     1      27.945  15.751  24.220  1.00  0.00     0.264 C 
BRANCH  12  13
HETATM   13  N2  UNL     1      26.876  15.024  24.433  1.00  0.00    -0.396 NA
HETATM   14  C4  UNL     1      25.708  14.224  24.661  1.00  0.00     0.318 C 
HETATM   15  O1  UNL     1      25.483  13.150  24.073  1.00  0.00    -0.255 OA
BRANCH  14  16
HETATM   16  C2  UNL     1      24.665  14.645  25.628  1.00  0.00     0.287 C 
HETATM   17  C3  UNL     1      24.457  16.111  25.766  1.00  0.00     0.051 C 
BRANCH  16  18
HETATM   18  N1  UNL     1      23.408  13.986  25.311  1.00  0.00    -0.065 N 
HETATM   19  C1  UNL     1      22.610  13.824  26.498  1.00  0.00     0.267 C 
ATOM     20  H12 UNL     1      23.555  13.099  24.829  1.00  0.00     0.277 HD
ATOM     21  H11 UNL     1      22.898  14.475  24.575  1.00  0.00     0.277 HD
ENDBRANCH  16  18
ENDBRANCH  14  16
ENDBRANCH  12  13
BRANCH  12  22
HETATM   22  C6  UNL     1      29.249  15.570  24.975  1.00  0.00     0.022 C 
HETATM   23  C7  UNL     1      29.751  16.503  25.947  1.00  0.00    -0.088 C 
HETATM   24  C8  UNL     1      28.867  16.775  27.131  1.00  0.00     0.042 C 
HETATM   25  C9  UNL     1      30.431  17.754  25.427  1.00  0.00     0.042 C 
ENDBRANCH  12  22
ENDBRANCH  11  12
BRANCH  11  26
HETATM   26  O2  UNL     1      28.430  16.853  22.207  1.00  0.00    -0.347 OA
ATOM     27  H2  UNL     1      29.272  17.008  21.795  1.00  0.00     0.219 HD
ENDBRANCH  11  26
ENDBRANCH   1  11
BRANCH   9  28
HETATM   28  C27 UNL     1      30.026  15.393  20.163  1.00  0.00     0.247 C 
HETATM   29  O6  UNL     1      30.601  16.485  20.404  1.00  0.00    -0.271 OA
HETATM   30  N6  UNL     1      29.548  15.205  18.845  1.00  0.00    -0.342 N 
ATOM     31  H6  UNL     1      29.057  14.340  18.618  1.00  0.00     0.164 HD
BRANCH  30  32
HETATM   32  C28 UNL     1      29.733  16.195  17.810  1.00  0.00     0.177 C 
HETATM   33  C29 UNL     1      28.720  15.960  16.671  1.00  0.00     0.049 C 
HETATM   34 CL1  UNL     1      31.341  16.055  17.097  1.00  0.00    -0.103 Cl
ENDBRANCH  30  32
ENDBRANCH   9  28
BRANCH   4  35
HETATM   35  C13 UNL     1      26.260  10.959  19.505  1.00  0.00     0.157 C 
HETATM   36  C14 UNL     1      25.856  11.727  18.245  1.00  0.00     0.041 C 
BRANCH  35  37
HETATM   37  C15 UNL     1      25.114  10.551  20.316  1.00  0.00     0.136 C 
BRANCH  37  38
HETATM   38  O3  UNL     1      25.275   9.445  21.005  1.00  0.00    -0.348 OA
ATOM     39  H3  UNL     1      24.825   9.415  21.841  1.00  0.00     0.219 HD
ENDBRANCH  37  38
BRANCH  37  40
HETATM   40  N5  UNL     1      23.860  11.141  20.497  1.00  0.00    -0.362 N 
HETATM   41  C16 UNL     1      22.692  10.886  19.652  1.00  0.00     0.152 C 
BRANCH  40  42
HETATM   42  C17 UNL     1      23.673  12.098  21.584  1.00  0.00     0.189 C 
BRANCH  42  43
HETATM   43  C18 UNL     1      22.661  11.594  22.557  1.00  0.00     0.072 A 
HETATM   44  C19 UNL     1      22.578  10.275  22.929  1.00  0.00     0.038 A 
HETATM   45  C20 UNL     1      21.527  10.167  23.851  1.00  0.00     0.048 A 
HETATM   46  C21 UNL     1      21.027  11.477  23.979  1.00  0.00     0.121 A 
HETATM   47 BR1  UNL     1      19.567  11.882  25.146  1.00  0.00    -0.023 Br
HETATM   48  O4  UNL     1      21.728  12.243  23.203  1.00  0.00    -0.306 OA
ENDBRANCH  42  43
ENDBRANCH  40  42
ENDBRANCH  37  40
ENDBRANCH  35  37
ENDBRANCH   4  35
TORSDOF 15
ENDMDL
MODEL 2
REMARK VINA RESULT: -7.938608574      6.683     11.853
REMARK  15 active torsions:
REMARK  status: ('A' for Active; 'I' for Inactive)
REMARK    1  A    between atoms: N1_2  and  C2_5 
REMARK    2  A    between atoms: C2_5  and  C4_7 
REMARK       I    between atoms: C4_7  and  N2_9 
REMARK    3  A    between atoms: N2_9  and  C5_10 
REMARK    4  A    between atoms: C5_10  and  C6_11 
REMARK    5  A    between atoms: C5_10  and  C10_15 
REMARK    6  A    between atoms: C10_15  and  O2_16 
REMARK    7  A    between atoms: C10_15  and  N3_18 
REMARK    8  A    between atoms: N4_21  and  C13_22 
REMARK    9  A    between atoms: C13_22  and  C15_24 
REMARK   10  A    between atoms: C15_24  and  O3_25 
REMARK   11  A    between atoms: C15_24  and  N5_27 
REMARK   12  A    between atoms: N5_27  and  C17_29 
REMARK   13  A    between atoms: C17_29  and  C18_30 
REMARK   14  A    between atoms: C25_40  and  C27_42 
REMARK       I    between atoms: C27_42  and  N6_44 
REMARK   15  A    between atoms: N6_44  and  C28_46 
ROOT
HETATM    1  N3  UNL     1      16.336  14.022  26.935  1.00  0.00    -0.337 N 
HETATM    2  C11 UNL     1      17.415  13.230  27.419  1.00  0.00     0.118 C 
HETATM    3  C12 UNL     1      18.674  13.180  26.630  1.00  0.00     0.152 C 
HETATM    4  N4  UNL     1      19.689  12.879  27.599  1.00  0.00    -0.338 N 
HETATM    5  C22 UNL     1      19.225  13.479  28.823  1.00  0.00     0.227 C 
HETATM    6  O5  UNL     1      19.861  13.467  29.903  1.00  0.00    -0.273 OA
HETATM    7  C23 UNL     1      17.913  14.095  28.618  1.00  0.00     0.105 C 
HETATM    8  C24 UNL     1      17.993  15.420  27.893  1.00  0.00     0.057 C 
HETATM    9  C25 UNL     1      16.799  15.420  27.015  1.00  0.00     0.113 C 
HETATM   10  C26 UNL     1      15.741  16.258  27.755  1.00  0.00     0.049 C 
ENDROOT
BRANCH   1  11
HETATM   11  C10 UNL     1      15.097  13.642  26.476  1.00  0.00     0.156 C 
BRANCH  11  12
HETATM   12  C5  UNL     1      14.499  13.757  25.104  1.00  0.00     0.264 C 
BRANCH  12  13
HETATM   13  N2  UNL     1      14.790  12.700  24.387  1.00  0.00    -0.396 NA
HETATM   14  C4  UNL     1      15.104  11.543  23.599  1.00  0.00     0.318 C 
HETATM   15  O1  UNL     1      14.550  11.276  22.517  1.00  0.00    -0.255 OA
BRANCH  14  16
HETATM   16  C2  UNL     1      16.127  10.565  24.044  1.00  0.00     0.287 C 
HETATM   17  C3  UNL     1      16.181  10.298  25.506  1.00  0.00     0.051 C 
BRANCH  16  18
HETATM   18  N1  UNL     1      15.965   9.320  23.310  1.00  0.00    -0.065 N 
HETATM   19  C1  UNL     1      15.520   8.271  24.189  1.00  0.00     0.267 C 
ATOM     20  H12 UNL     1      16.816   9.061  22.811  1.00  0.00     0.277 HD
ATOM     21  H11 UNL     1      15.346   9.431  22.508  1.00  0.00     0.277 HD
ENDBRANCH  16  18
ENDBRANCH  14  16
ENDBRANCH  12  13
BRANCH  12  22
HETATM   22  C6  UNL     1      13.080  14.231  25.365  1.00  0.00     0.022 C 
HETATM   23  C7  UNL     1      12.468  15.344  24.692  1.00  0.00    -0.088 C 
HETATM   24  C8  UNL     1      12.381  15.255  23.195  1.00  0.00     0.042 C 
HETATM   25  C9  UNL     1      12.832  16.735  25.173  1.00  0.00     0.042 C 
ENDBRANCH  12  22
ENDBRANCH  11  12
BRANCH  11  26
HETATM   26  O2  UNL     1      14.281  13.093  27.343  1.00  0.00    -0.347 OA
ATOM     27  H2  UNL     1      14.232  13.575  28.161  1.00  0.00     0.219 HD
ENDBRANCH  11  26
ENDBRANCH   1  11
BRANCH   9  28
HETATM   28  C27 UNL     1      16.937  16.033  25.697  1.00  0.00     0.247 C 
HETATM   29  O6  UNL     1      17.558  15.413  24.796  1.00  0.00    -0.271 OA
HETATM   30  N6  UNL     1      16.410  17.299  25.348  1.00  0.00    -0.342 N 
ATOM     31  H6  UNL     1      15.919  17.841  26.059  1.00  0.00     0.164 HD
BRANCH  30  32
HETATM   32  C28 UNL     1      16.545  17.850  24.020  1.00  0.00     0.177 C 
HETATM   33  C29 UNL     1      15.970  19.281  23.983  1.00  0.00     0.049 C 
HETATM   34 CL1  UNL     1      15.619  16.899  22.857  1.00  0.00    -0.103 Cl
ENDBRANCH  30  32
ENDBRANCH   9  28
BRANCH   4  35
HETATM   35  C13 UNL     1      20.935  12.134  27.454  1.00  0.00     0.157 C 
HETATM   36  C14 UNL     1      21.995  13.043  26.828  1.00  0.00     0.041 C 
BRANCH  35  37
HETATM   37  C15 UNL     1      20.744  10.887  26.714  1.00  0.00     0.136 C 
BRANCH  37  38
HETATM   38  O3  UNL     1      20.467   9.833  27.447  1.00  0.00    -0.348 OA
ATOM     39  H3  UNL     1      20.903   9.030  27.189  1.00  0.00     0.219 HD
ENDBRANCH  37  38
BRANCH  37  40
HETATM   40  N5  UNL     1      20.799  10.614  25.345  1.00  0.00    -0.362 N 
HETATM   41  C16 UNL     1      19.742  10.949  24.389  1.00  0.00     0.152 C 
BRANCH  40  42
HETATM   42  C17 UNL     1      21.970   9.933  24.800  1.00  0.00     0.189 C 
BRANCH  42  43
HETATM   43  C18 UNL     1      22.436  10.607  23.555  1.00  0.00     0.072 A 
HETATM   44  C19 UNL     1      23.007  11.856  23.553  1.00  0.00     0.038 A 
HETATM   45  C20 UNL     1      23.324  12.168  22.223  1.00  0.00     0.048 A 
HETATM   46  C21 UNL     1      22.908  11.045  21.482  1.00  0.00     0.121 A 
HETATM   47 BR1  UNL     1      23.128  10.959  19.585  1.00  0.00    -0.023 Br
HETATM   48  O4  UNL     1      22.405  10.189  22.315  1.00  0.00    -0.306 OA
ENDBRANCH  42  43
ENDBRANCH  40  42
ENDBRANCH  37  40
ENDBRANCH  35  37
ENDBRANCH   4  35
TORSDOF 15
ENDMDL
MODEL 3
REMARK VINA RESULT: -7.897783479      1.306      3.226
REMARK  15 active torsions:
REMARK  status: ('A' for Active; 'I' for Inactive)
REMARK    1  A    between atoms: N1_2  and  C2_5 
REMARK    2  A    between atoms: C2_5  and  C4_7 
REMARK       I    between atoms: C4_7  and  N2_9 
REMARK    3  A    between atoms: N2_9  and  C5_10 
REMARK    4  A    between atoms: C5_10  and  C6_11 
REMARK    5  A    between atoms: C5_10  and  C10_15 
REMARK    6  A    between atoms: C10_15  and  O2_16 
REMARK    7  A    between atoms: C10_15  and  N3_18 
REMARK    8  A    between atoms: N4_21  and  C13_22 
REMARK    9  A    between atoms: C13_22  and  C15_24 
REMARK   10  A    between atoms: C15_24  and  O3_25 
REMARK   11  A    between atoms: C15_24  and  N5_27 
REMARK   12  A    between atoms: N5_27  and  C17_29 
REMARK   13  A    between atoms: C17_29  and  C18_30 
REMARK   14  A    between atoms: C25_40  and  C27_42 
REMARK       I    between atoms: C27_42  and  N6_44 
REMARK   15  A    between atoms: N6_44  and  C28_46 
ROOT
HETATM    1  N3  UNL     1      28.563  14.600  21.878  1.00  0.00    -0.337 N 
HETATM    2  C11 UNL     1      27.808  13.417  21.645  1.00  0.00     0.118 C 
HETATM    3  C12 UNL     1      27.281  13.164  20.277  1.00  0.00     0.152 C 
HETATM    4  N4  UNL     1      27.154  11.736  20.204  1.00  0.00    -0.338 N 
HETATM    5  C22 UNL     1      28.199  11.225  21.052  1.00  0.00     0.227 C 
HETATM    6  O5  UNL     1      28.441  10.007  21.222  1.00  0.00    -0.273 OA
HETATM    7  C23 UNL     1      28.926  12.330  21.681  1.00  0.00     0.105 C 
HETATM    8  C24 UNL     1      29.897  13.006  20.739  1.00  0.00     0.057 C 
HETATM    9  C25 UNL     1      29.806  14.440  21.101  1.00  0.00     0.113 C 
HETATM   10  C26 UNL     1      31.011  14.712  22.018  1.00  0.00     0.049 C 
ENDROOT
BRANCH   1  11
HETATM   11  C10 UNL     1      28.270  15.700  22.650  1.00  0.00     0.156 C 
BRANCH  11  12
HETATM   12  C5  UNL     1      27.700  15.781  24.037  1.00  0.00     0.264 C 
BRANCH  12  13
HETATM   13  N2  UNL     1      28.566  16.325  24.856  1.00  0.00    -0.396 NA
HETATM   14  C4  UNL     1      29.509  16.920  25.758  1.00  0.00     0.318 C 
HETATM   15  O1  UNL     1      29.337  16.988  26.989  1.00  0.00    -0.255 OA
BRANCH  14  16
HETATM   16  C2  UNL     1      30.774  17.516  25.263  1.00  0.00     0.287 C 
HETATM   17  C3  UNL     1      31.891  16.565  25.019  1.00  0.00     0.051 C 
BRANCH  16  18
HETATM   18  N1  UNL     1      30.510  18.300  24.066  1.00  0.00    -0.065 N 
HETATM   19  C1  UNL     1      31.633  18.243  23.169  1.00  0.00     0.267 C 
ATOM     20  H12 UNL     1      30.253  19.261  24.292  1.00  0.00     0.277 HD
ATOM     21  H11 UNL     1      29.644  18.015  23.609  1.00  0.00     0.277 HD
ENDBRANCH  16  18
ENDBRANCH  14  16
ENDBRANCH  12  13
BRANCH  12  22
HETATM   22  C6  UNL     1      26.295  16.316  23.822  1.00  0.00     0.022 C 
HETATM   23  C7  UNL     1      25.141  15.855  24.543  1.00  0.00    -0.088 C 
HETATM   24  C8  UNL     1      25.186  15.999  26.039  1.00  0.00     0.042 C 
HETATM   25  C9  UNL     1      24.519  14.545  24.102  1.00  0.00     0.042 C 
ENDBRANCH  12  22
ENDBRANCH  11  12
BRANCH  11  26
HETATM   26  O2  UNL     1      28.507  16.878  22.127  1.00  0.00    -0.347 OA
ATOM     27  H2  UNL     1      28.862  16.827  21.247  1.00  0.00     0.219 HD
ENDBRANCH  11  26
ENDBRANCH   1  11
BRANCH   9  28
HETATM   28  C27 UNL     1      29.909  15.412  20.016  1.00  0.00     0.247 C 
HETATM   29  O6  UNL     1      30.508  16.499  20.224  1.00  0.00    -0.271 OA
HETATM   30  N6  UNL     1      29.377  15.219  18.719  1.00  0.00    -0.342 N 
ATOM     31  H6  UNL     1      28.866  14.360  18.519  1.00  0.00     0.164 HD
BRANCH  30  32
HETATM   32  C28 UNL     1      29.532  16.198  17.669  1.00  0.00     0.177 C 
HETATM   33  C29 UNL     1      28.513  15.929  16.543  1.00  0.00     0.049 C 
HETATM   34 CL1  UNL     1      31.136  16.079  16.942  1.00  0.00    -0.103 Cl
ENDBRANCH  30  32
ENDBRANCH   9  28
BRANCH   4  35
HETATM   35  C13 UNL     1      26.201  10.915  19.464  1.00  0.00     0.157 C 
HETATM   36  C14 UNL     1      25.759  11.667  18.208  1.00  0.00     0.041 C 
BRANCH  35  37
HETATM   37  C15 UNL     1      25.080  10.490  20.300  1.00  0.00     0.136 C 
BRANCH  37  38
HETATM   38  O3  UNL     1      25.259   9.367  20.956  1.00  0.00    -0.348 OA
ATOM     39  H3  UNL     1      24.757   8.625  20.642  1.00  0.00     0.219 HD
ENDBRANCH  37  38
BRANCH  37  40
HETATM   40  N5  UNL     1      23.834  11.078  20.533  1.00  0.00    -0.362 N 
HETATM   41  C16 UNL     1      22.646  10.863  19.706  1.00  0.00     0.152 C 
BRANCH  40  42
HETATM   42  C17 UNL     1      23.678  11.991  21.662  1.00  0.00     0.189 C 
BRANCH  42  43
HETATM   43  C18 UNL     1      22.657  11.472  22.617  1.00  0.00     0.072 A 
HETATM   44  C19 UNL     1      22.626  10.165  23.037  1.00  0.00     0.038 A 
HETATM   45  C20 UNL     1      21.548  10.038  23.926  1.00  0.00     0.048 A 
HETATM   46  C21 UNL     1      20.978  11.324  23.985  1.00  0.00     0.121 A 
HETATM   47 BR1  UNL     1      19.458  11.696  25.083  1.00  0.00    -0.023 Br
HETATM   48  O4  UNL     1      21.668  12.096  23.205  1.00  0.00    -0.306 OA
ENDBRANCH  42  43
ENDBRANCH  40  42
ENDBRANCH  37  40
ENDBRANCH  35  37
ENDBRANCH   4  35
TORSDOF 15
ENDMDL
MODEL 4
REMARK VINA RESULT: -7.823584775      3.192      6.139
REMARK  15 active torsions:
REMARK  status: ('A' for Active; 'I' for Inactive)
REMARK    1  A    between atoms: N1_2  and  C2_5 
REMARK    2  A    between atoms: C2_5  and  C4_7 
REMARK       I    between atoms: C4_7  and  N2_9 
REMARK    3  A    between atoms: N2_9  and  C5_10 
REMARK    4  A    between atoms: C5_10  and  C6_11 
REMARK    5  A    between atoms: C5_10  and  C10_15 
REMARK    6  A    between atoms: C10_15  and  O2_16 
REMARK    7  A    between atoms: C10_15  and  N3_18 
REMARK    8  A    between atoms: N4_21  and  C13_22 
REMARK    9  A    between atoms: C13_22  and  C15_24 
REMARK   10  A    between atoms: C15_24  and  O3_25 
REMARK   11  A    between atoms: C15_24  and  N5_27 
REMARK   12  A    between atoms: N5_27  and  C17_29 
REMARK   13  A    between atoms: C17_29  and  C18_30 
REMARK   14  A    between atoms: C25_40  and  C27_42 
REMARK       I    between atoms: C27_42  and  N6_44 
REMARK   15  A    between atoms: N6_44  and  C28_46 
ROOT
HETATM    1  N3  UNL     1      26.561  15.582  25.192  1.00  0.00    -0.337 N 
HETATM    2  C11 UNL     1      25.561  14.573  25.111  1.00  0.00     0.118 C 
HETATM    3  C12 UNL     1      24.392  14.651  26.028  1.00  0.00     0.152 C 
HETATM    4  N4  UNL     1      23.347  13.956  25.331  1.00  0.00    -0.338 N 
HETATM    5  C22 UNL     1      23.619  14.178  23.935  1.00  0.00     0.227 C 
HETATM    6  O5  UNL     1      22.900  13.760  22.998  1.00  0.00    -0.273 OA
HETATM    7  C23 UNL     1      24.849  14.957  23.777  1.00  0.00     0.105 C 
HETATM    8  C24 UNL     1      24.655  16.429  24.066  1.00  0.00     0.057 C 
HETATM    9  C25 UNL     1      25.909  16.828  24.747  1.00  0.00     0.113 C 
HETATM   10  C26 UNL     1      26.777  17.489  23.661  1.00  0.00     0.049 C 
ENDROOT
BRANCH   1  11
HETATM   11  C10 UNL     1      27.875  15.495  25.587  1.00  0.00     0.156 C 
BRANCH  11  12
HETATM   12  C5  UNL     1      29.080  15.013  24.832  1.00  0.00     0.264 C 
BRANCH  12  13
HETATM   13  N2  UNL     1      28.737  14.100  23.957  1.00  0.00    -0.396 NA
HETATM   14  C4  UNL     1      28.365  13.097  23.001  1.00  0.00     0.318 C 
HETATM   15  O1  UNL     1      28.811  11.935  23.014  1.00  0.00    -0.255 OA
BRANCH  14  16
HETATM   16  C2  UNL     1      27.412  13.397  21.905  1.00  0.00     0.287 C 
HETATM   17  C3  UNL     1      28.013  13.658  20.571  1.00  0.00     0.051 C 
BRANCH  16  18
HETATM   18  N1  UNL     1      26.423  12.335  21.812  1.00  0.00    -0.065 N 
HETATM   19  C1  UNL     1      26.191  11.980  20.437  1.00  0.00     0.267 C 
ATOM     20  H12 UNL     1      25.557  12.580  22.291  1.00  0.00     0.277 HD
ATOM     21  H11 UNL     1      26.683  11.524  22.374  1.00  0.00     0.277 HD
ENDBRANCH  16  18
ENDBRANCH  14  16
ENDBRANCH  12  13
BRANCH  12  22
HETATM   22  C6  UNL     1      29.817  16.290  24.470  1.00  0.00     0.022 C 
HETATM   23  C7  UNL     1      31.152  16.324  23.938  1.00  0.00    -0.088 C 
HETATM   24  C8  UNL     1      31.377  15.586  22.648  1.00  0.00     0.042 C 
HETATM   25  C9  UNL     1      32.297  16.150  24.916  1.00  0.00     0.042 C 
ENDBRANCH  12  22
ENDBRANCH  11  12
BRANCH  11  26
HETATM   26  O2  UNL     1      28.159  15.881  26.807  1.00  0.00    -0.347 OA
ATOM     27  H2  UNL     1      29.050  16.200  26.896  1.00  0.00     0.219 HD
ENDBRANCH  11  26
ENDBRANCH   1  11
BRANCH   9  28
HETATM   28  C27 UNL     1      25.804  17.812  25.821  1.00  0.00     0.247 C 
HETATM   29  O6  UNL     1      24.784  17.808  26.556  1.00  0.00    -0.271 OA
HETATM   30  N6  UNL     1      26.788  18.789  26.105  1.00  0.00    -0.342 N 
ATOM     31  H6  UNL     1      27.619  18.837  25.517  1.00  0.00     0.164 HD
BRANCH  30  32
HETATM   32  C28 UNL     1      26.653  19.721  27.199  1.00  0.00     0.177 C 
HETATM   33  C29 UNL     1      25.995  21.025  26.702  1.00  0.00     0.049 C 
HETATM   34 CL1  UNL     1      28.239  20.163  27.836  1.00  0.00    -0.103 Cl
ENDBRANCH  30  32
ENDBRANCH   9  28
BRANCH   4  35
HETATM   35  C13 UNL     1      22.230  13.175  25.851  1.00  0.00     0.157 C 
HETATM   36  C14 UNL     1      22.294  13.161  27.379  1.00  0.00     0.041 C 
BRANCH  35  37
HETATM   37  C15 UNL     1      22.182  11.834  25.270  1.00  0.00     0.136 C 
BRANCH  37  38
HETATM   38  O3  UNL     1      23.336  11.351  24.871  1.00  0.00    -0.348 OA
ATOM     39  H3  UNL     1      23.453  10.417  24.997  1.00  0.00     0.219 HD
ENDBRANCH  37  38
BRANCH  37  40
HETATM   40  N5  UNL     1      21.111  10.960  25.066  1.00  0.00    -0.362 N 
HETATM   41  C16 UNL     1      21.103   9.871  24.087  1.00  0.00     0.152 C 
BRANCH  40  42
HETATM   42  C17 UNL     1      19.895  11.127  25.855  1.00  0.00     0.189 C 
BRANCH  42  43
HETATM   43  C18 UNL     1      18.710  11.284  24.964  1.00  0.00     0.072 A 
HETATM   44  C19 UNL     1      18.279  12.505  24.506  1.00  0.00     0.038 A 
HETATM   45  C20 UNL     1      17.156  12.275  23.697  1.00  0.00     0.048 A 
HETATM   46  C21 UNL     1      16.977  10.878  23.722  1.00  0.00     0.121 A 
HETATM   47 BR1  UNL     1      15.561  10.033  22.754  1.00  0.00    -0.023 Br
HETATM   48  O4  UNL     1      17.907  10.376  24.472  1.00  0.00    -0.306 OA
ENDBRANCH  42  43
ENDBRANCH  40  42
ENDBRANCH  37  40
ENDBRANCH  35  37
ENDBRANCH   4  35
TORSDOF 15
ENDMDL
MODEL 5
REMARK VINA RESULT: -7.788313762      3.156      5.958
REMARK  15 active torsions:
REMARK  status: ('A' for Active; 'I' for Inactive)
REMARK    1  A    between atoms: N1_2  and  C2_5 
REMARK    2  A    between atoms: C2_5  and  C4_7 
REMARK       I    between atoms: C4_7  and  N2_9 
REMARK    3  A    between atoms: N2_9  and  C5_10 
REMARK    4  A    between atoms: C5_10  and  C6_11 
REMARK    5  A    between atoms: C5_10  and  C10_15 
REMARK    6  A    between atoms: C10_15  and  O2_16 
REMARK    7  A    between atoms: C10_15  and  N3_18 
REMARK    8  A    between atoms: N4_21  and  C13_22 
REMARK    9  A    between atoms: C13_22  and  C15_24 
REMARK   10  A    between atoms: C15_24  and  O3_25 
REMARK   11  A    between atoms: C15_24  and  N5_27 
REMARK   12  A    between atoms: N5_27  and  C17_29 
REMARK   13  A    between atoms: C17_29  and  C18_30 
REMARK   14  A    between atoms: C25_40  and  C27_42 
REMARK       I    between atoms: C27_42  and  N6_44 
REMARK   15  A    between atoms: N6_44  and  C28_46 
ROOT
HETATM    1  N3  UNL     1      25.591  15.489  24.942  1.00  0.00    -0.337 N 
HETATM    2  C11 UNL     1      26.520  14.583  24.360  1.00  0.00     0.118 C 
HETATM    3  C12 UNL     1      26.725  14.618  22.887  1.00  0.00     0.152 C 
HETATM    4  N4  UNL     1      28.056  14.114  22.701  1.00  0.00    -0.338 N 
HETATM    5  C22 UNL     1      28.774  14.512  23.884  1.00  0.00     0.227 C 
HETATM    6  O5  UNL     1      29.991  14.289  24.083  1.00  0.00    -0.273 OA
HETATM    7  C23 UNL     1      27.877  15.207  24.809  1.00  0.00     0.105 C 
HETATM    8  C24 UNL     1      27.592  16.633  24.393  1.00  0.00     0.057 C 
HETATM    9  C25 UNL     1      26.168  16.832  24.750  1.00  0.00     0.113 C 
HETATM   10  C26 UNL     1      26.179  17.573  26.099  1.00  0.00     0.049 C 
ENDROOT
BRANCH   1  11
HETATM   11  C10 UNL     1      24.392  15.244  25.571  1.00  0.00     0.156 C 
BRANCH  11  12
HETATM   12  C5  UNL     1      23.481  14.054  25.482  1.00  0.00     0.264 C 
BRANCH  12  13
HETATM   13  N2  UNL     1      22.663  14.026  26.506  1.00  0.00    -0.396 NA
HETATM   14  C4  UNL     1      21.768  14.002  27.626  1.00  0.00     0.318 C 
HETATM   15  O1  UNL     1      21.109  14.988  28.003  1.00  0.00    -0.255 OA
BRANCH  14  16
HETATM   16  C2  UNL     1      21.579  12.770  28.431  1.00  0.00     0.287 C 
HETATM   17  C3  UNL     1      20.405  12.760  29.343  1.00  0.00     0.051 C 
BRANCH  16  18
HETATM   18  N1  UNL     1      21.543  11.612  27.552  1.00  0.00    -0.065 N 
HETATM   19  C1  UNL     1      20.211  11.072  27.483  1.00  0.00     0.267 C 
ATOM     20  H12 UNL     1      22.225  10.905  27.828  1.00  0.00     0.277 HD
ATOM     21  H11 UNL     1      21.914  11.827  26.626  1.00  0.00     0.277 HD
ENDBRANCH  16  18
ENDBRANCH  14  16
ENDBRANCH  12  13
BRANCH  12  22
HETATM   22  C6  UNL     1      23.017  14.060  24.036  1.00  0.00     0.022 C 
HETATM   23  C7  UNL     1      22.313  12.972  23.414  1.00  0.00    -0.088 C 
HETATM   24  C8  UNL     1      21.009  12.572  24.045  1.00  0.00     0.042 C 
HETATM   25  C9  UNL     1      23.131  11.778  22.962  1.00  0.00     0.042 C 
ENDBRANCH  12  22
ENDBRANCH  11  12
BRANCH  11  26
HETATM   26  O2  UNL     1      23.941  16.172  26.379  1.00  0.00    -0.347 OA
ATOM     27  H2  UNL     1      24.003  17.046  26.010  1.00  0.00     0.219 HD
ENDBRANCH  11  26
ENDBRANCH   1  11
BRANCH   9  28
HETATM   28  C27 UNL     1      25.362  17.657  23.854  1.00  0.00     0.247 C 
HETATM   29  O6  UNL     1      24.177  17.314  23.607  1.00  0.00    -0.271 OA
HETATM   30  N6  UNL     1      25.822  18.841  23.231  1.00  0.00    -0.342 N 
ATOM     31  H6  UNL     1      26.784  19.140  23.390  1.00  0.00     0.164 HD
BRANCH  30  32
HETATM   32  C28 UNL     1      24.976  19.641  22.377  1.00  0.00     0.177 C 
HETATM   33  C29 UNL     1      25.842  20.504  21.437  1.00  0.00     0.049 C 
HETATM   34 CL1  UNL     1      24.003  20.757  23.338  1.00  0.00    -0.103 Cl
ENDBRANCH  30  32
ENDBRANCH   9  28
BRANCH   4  35
HETATM   35  C13 UNL     1      28.626  13.355  21.593  1.00  0.00     0.157 C 
HETATM   36  C14 UNL     1      28.584  14.208  20.325  1.00  0.00     0.041 C 
BRANCH  35  37
HETATM   37  C15 UNL     1      27.978  12.055  21.429  1.00  0.00     0.136 C 
BRANCH  37  38
HETATM   38  O3  UNL     1      26.729  11.992  21.829  1.00  0.00    -0.348 OA
ATOM     39  H3  UNL     1      26.539  11.318  22.470  1.00  0.00     0.219 HD
ENDBRANCH  37  38
BRANCH  37  40
HETATM   40  N5  UNL     1      28.457  10.850  20.908  1.00  0.00    -0.362 N 
HETATM   41  C16 UNL     1      29.275   9.890  21.651  1.00  0.00     0.152 C 
BRANCH  40  42
HETATM   42  C17 UNL     1      28.154  10.502  19.523  1.00  0.00     0.189 C 
BRANCH  42  43
HETATM   43  C18 UNL     1      26.745  10.859  19.190  1.00  0.00     0.072 A 
HETATM   44  C19 UNL     1      26.417  11.767  18.213  1.00  0.00     0.038 A 
HETATM   45  C20 UNL     1      25.018  11.849  18.172  1.00  0.00     0.048 A 
HETATM   46  C21 UNL     1      24.577  10.952  19.164  1.00  0.00     0.121 A 
HETATM   47 BR1  UNL     1      22.716  10.679  19.511  1.00  0.00    -0.023 Br
HETATM   48  O4  UNL     1      25.626  10.421  19.708  1.00  0.00    -0.306 OA
ENDBRANCH  42  43
ENDBRANCH  40  42
ENDBRANCH  37  40
ENDBRANCH  35  37
ENDBRANCH   4  35
TORSDOF 15
ENDMDL
