MODEL 1
REMARK VINA RESULT: -5.711883614      0.000      0.000
REMARK  4 active torsions:
REMARK  status: ('A' for Active; 'I' for Inactive)
REMARK    1  A    between atoms: N1_1  and  C1_4 
REMARK    2  A    between atoms: C4_9  and  N3_10 
REMARK    3  A    between atoms: N3_10  and  C5_12 
REMARK    4  A    between atoms: C7_16  and  C8_17 
ROOT
HETATM    1  C1  UNL     1      15.468 -67.695  -0.310  1.00  0.00     0.116 A 
HETATM    2  C2  UNL     1      16.356 -68.497  -0.983  1.00  0.00     0.136 A 
HETATM    3  N2  UNL     1      17.673 -68.286  -0.909  1.00  0.00    -0.368 N 
ATOM      4  H2  UNL     1      18.331 -68.883  -1.410  1.00  0.00     0.164 HD
HETATM    5  C3  UNL     1      18.109 -67.246  -0.143  1.00  0.00     0.136 A 
HETATM    6  C4  UNL     1      17.280 -66.413   0.548  1.00  0.00     0.119 A 
HETATM    7  N6  UNL     1      15.945 -66.688   0.427  1.00  0.00    -0.327 N 
ATOM      8  H6  UNL     1      15.281 -66.095   0.925  1.00  0.00     0.169 HD
ENDROOT
BRANCH   6   9
HETATM    9  N3  UNL     1      17.709 -65.329   1.341  1.00  0.00    -0.355 N 
ATOM     10  H3  UNL     1      18.020 -65.488   2.299  1.00  0.00     0.163 HD
BRANCH   9  11
HETATM   11  C5  UNL     1      17.707 -64.010   0.801  1.00  0.00     0.205 C 
HETATM   12  N4  UNL     1      16.980 -63.947  -0.455  1.00  0.00    -0.122 NA
HETATM   13  N5  UNL     1      16.788 -62.592  -0.676  1.00  0.00    -0.146 NA
HETATM   14  C6  UNL     1      16.610 -61.966   0.600  1.00  0.00     0.145 C 
HETATM   15  C7  UNL     1      16.887 -63.040   1.632  1.00  0.00     0.103 C 
BRANCH  15  16
HETATM   16  C8  UNL     1      15.619 -63.691   1.982  1.00  0.00     0.240 C 
HETATM   17  O1  UNL     1      15.561 -64.446   2.959  1.00  0.00    -0.306 OA
ENDBRANCH  15  16
ENDBRANCH   9  11
ENDBRANCH   6   9
BRANCH   1  18
HETATM   18  N1  UNL     1      14.217 -67.962  -0.432  1.00  0.00    -0.384 N 
ATOM     19  H12 UNL     1      13.704 -67.892  -1.311  1.00  0.00     0.157 HD
ATOM     20  H11 UNL     1      13.716 -68.263   0.405  1.00  0.00     0.157 HD
ENDBRANCH   1  18
TORSDOF 4
ENDMDL
MODEL 2
REMARK VINA RESULT: -5.652284963      0.875      1.737
REMARK  4 active torsions:
REMARK  status: ('A' for Active; 'I' for Inactive)
REMARK    1  A    between atoms: N1_1  and  C1_4 
REMARK    2  A    between atoms: C4_9  and  N3_10 
REMARK    3  A    between atoms: N3_10  and  C5_12 
REMARK    4  A    between atoms: C7_16  and  C8_17 
ROOT
HETATM    1  C1  UNL     1      17.832 -67.833  -1.393  1.00  0.00     0.116 A 
HETATM    2  C2  UNL     1      16.619 -68.473  -1.322  1.00  0.00     0.136 A 
HETATM    3  N2  UNL     1      15.705 -68.123  -0.414  1.00  0.00    -0.368 N 
ATOM      4  H2  UNL     1      14.805 -68.600  -0.363  1.00  0.00     0.164 HD
HETATM    5  C3  UNL     1      16.013 -67.108   0.442  1.00  0.00     0.136 A 
HETATM    6  C4  UNL     1      17.198 -66.434   0.423  1.00  0.00     0.119 A 
HETATM    7  N6  UNL     1      18.087 -66.845  -0.532  1.00  0.00    -0.327 N 
ATOM      8  H6  UNL     1      18.990 -66.372  -0.589  1.00  0.00     0.169 HD
ENDROOT
BRANCH   6   9
HETATM    9  N3  UNL     1      17.540 -65.386   1.303  1.00  0.00    -0.355 N 
ATOM     10  H3  UNL     1      17.742 -65.586   2.282  1.00  0.00     0.163 HD
BRANCH   9  11
HETATM   11  C5  UNL     1      17.603 -64.047   0.820  1.00  0.00     0.205 C 
HETATM   12  N4  UNL     1      17.022 -63.928  -0.506  1.00  0.00    -0.122 NA
HETATM   13  N5  UNL     1      16.860 -62.564  -0.692  1.00  0.00    -0.146 NA
HETATM   14  C6  UNL     1      16.542 -61.988   0.580  1.00  0.00     0.145 C 
HETATM   15  C7  UNL     1      16.698 -63.104   1.592  1.00  0.00     0.103 C 
BRANCH  15  16
HETATM   16  C8  UNL     1      15.396 -63.759   1.772  1.00  0.00     0.240 C 
HETATM   17  O1  UNL     1      15.047 -64.141   2.894  1.00  0.00    -0.306 OA
ENDBRANCH  15  16
ENDBRANCH   9  11
ENDBRANCH   6   9
BRANCH   1  18
HETATM   18  N1  UNL     1      18.659 -68.228  -2.294  1.00  0.00    -0.384 N 
ATOM     19  H12 UNL     1      18.390 -68.775  -3.112  1.00  0.00     0.157 HD
ATOM     20  H11 UNL     1      19.641 -67.974  -2.176  1.00  0.00     0.157 HD
ENDBRANCH   1  18
TORSDOF 4
ENDMDL
MODEL 3
REMARK VINA RESULT: -5.639880992      7.280      8.006
REMARK  4 active torsions:
REMARK  status: ('A' for Active; 'I' for Inactive)
REMARK    1  A    between atoms: N1_1  and  C1_4 
REMARK    2  A    between atoms: C4_9  and  N3_10 
REMARK    3  A    between atoms: N3_10  and  C5_12 
REMARK    4  A    between atoms: C7_16  and  C8_17 
ROOT
HETATM    1  C1  UNL     1      24.679 -68.120  -2.063  1.00  0.00     0.116 A 
HETATM    2  C2  UNL     1      24.939 -68.203  -3.408  1.00  0.00     0.136 A 
HETATM    3  N2  UNL     1      24.722 -67.165  -4.221  1.00  0.00    -0.368 N 
ATOM      4  H2  UNL     1      24.915 -67.229  -5.220  1.00  0.00     0.164 HD
HETATM    5  C3  UNL     1      24.232 -66.018  -3.671  1.00  0.00     0.136 A 
HETATM    6  C4  UNL     1      23.952 -65.872  -2.345  1.00  0.00     0.119 A 
HETATM    7  N6  UNL     1      24.199 -66.974  -1.572  1.00  0.00    -0.327 N 
ATOM      8  H6  UNL     1      24.008 -66.917  -0.572  1.00  0.00     0.169 HD
ENDROOT
BRANCH   6   9
HETATM    9  N3  UNL     1      23.440 -64.697  -1.756  1.00  0.00    -0.355 N 
ATOM     10  H3  UNL     1      22.524 -64.708  -1.308  1.00  0.00     0.163 HD
BRANCH   9  11
HETATM   11  C5  UNL     1      24.205 -63.496  -1.788  1.00  0.00     0.205 C 
HETATM   12  N4  UNL     1      23.545 -62.462  -2.569  1.00  0.00    -0.122 NA
HETATM   13  N5  UNL     1      24.220 -61.297  -2.241  1.00  0.00    -0.146 NA
HETATM   14  C6  UNL     1      24.614 -61.397  -0.867  1.00  0.00     0.145 C 
HETATM   15  C7  UNL     1      24.269 -62.807  -0.437  1.00  0.00     0.103 C 
BRANCH  15  16
HETATM   16  C8  UNL     1      22.920 -62.804   0.142  1.00  0.00     0.240 C 
HETATM   17  O1  UNL     1      22.610 -63.647   0.992  1.00  0.00    -0.306 OA
ENDBRANCH  15  16
ENDBRANCH   9  11
ENDBRANCH   6   9
BRANCH   1  18
HETATM   18  N1  UNL     1      24.914 -69.161  -1.348  1.00  0.00    -0.384 N 
ATOM     19  H12 UNL     1      25.380 -69.998  -1.699  1.00  0.00     0.157 HD
ATOM     20  H11 UNL     1      24.615 -69.140  -0.372  1.00  0.00     0.157 HD
ENDBRANCH   1  18
TORSDOF 4
ENDMDL
MODEL 4
REMARK VINA RESULT: -5.639846782      3.747      5.590
REMARK  4 active torsions:
REMARK  status: ('A' for Active; 'I' for Inactive)
REMARK    1  A    between atoms: N1_1  and  C1_4 
REMARK    2  A    between atoms: C4_9  and  N3_10 
REMARK    3  A    between atoms: N3_10  and  C5_12 
REMARK    4  A    between atoms: C7_16  and  C8_17 
ROOT
HETATM    1  C1  UNL     1      22.842 -62.800   0.297  1.00  0.00     0.116 A 
HETATM    2  C2  UNL     1      23.338 -63.351   1.452  1.00  0.00     0.136 A 
HETATM    3  N2  UNL     1      22.633 -64.244   2.152  1.00  0.00    -0.368 N 
ATOM      4  H2  UNL     1      23.003 -64.652   3.010  1.00  0.00     0.164 HD
HETATM    5  C3  UNL     1      21.401 -64.592   1.682  1.00  0.00     0.136 A 
HETATM    6  C4  UNL     1      20.852 -64.080   0.544  1.00  0.00     0.119 A 
HETATM    7  N6  UNL     1      21.629 -63.173  -0.122  1.00  0.00    -0.327 N 
ATOM      8  H6  UNL     1      21.266 -62.760  -0.981  1.00  0.00     0.169 HD
ENDROOT
BRANCH   6   9
HETATM    9  N3  UNL     1      19.579 -64.421   0.043  1.00  0.00    -0.355 N 
ATOM     10  H3  UNL     1      19.495 -65.050  -0.756  1.00  0.00     0.163 HD
BRANCH   9  11
HETATM   11  C5  UNL     1      18.408 -63.885   0.654  1.00  0.00     0.205 C 
HETATM   12  N4  UNL     1      17.401 -63.537  -0.333  1.00  0.00    -0.122 NA
HETATM   13  N5  UNL     1      16.242 -63.351   0.405  1.00  0.00    -0.146 NA
HETATM   14  C6  UNL     1      16.274 -64.274   1.500  1.00  0.00     0.145 C 
HETATM   15  C7  UNL     1      17.644 -64.919   1.460  1.00  0.00     0.103 C 
BRANCH  15  16
HETATM   16  C8  UNL     1      17.559 -66.151   0.665  1.00  0.00     0.240 C 
HETATM   17  O1  UNL     1      18.400 -67.044   0.818  1.00  0.00    -0.306 OA
ENDBRANCH  15  16
ENDBRANCH   9  11
ENDBRANCH   6   9
BRANCH   1  18
HETATM   18  N1  UNL     1      23.581 -61.948  -0.319  1.00  0.00    -0.384 N 
ATOM     19  H12 UNL     1      24.589 -61.869  -0.184  1.00  0.00     0.157 HD
ATOM     20  H11 UNL     1      23.124 -61.318  -0.979  1.00  0.00     0.157 HD
ENDBRANCH   1  18
TORSDOF 4
ENDMDL
MODEL 5
REMARK VINA RESULT: -5.634393850      3.798      5.634
REMARK  4 active torsions:
REMARK  status: ('A' for Active; 'I' for Inactive)
REMARK    1  A    between atoms: N1_1  and  C1_4 
REMARK    2  A    between atoms: C4_9  and  N3_10 
REMARK    3  A    between atoms: N3_10  and  C5_12 
REMARK    4  A    between atoms: C7_16  and  C8_17 
ROOT
HETATM    1  C1  UNL     1      22.918 -63.786   1.988  1.00  0.00     0.116 A 
HETATM    2  C2  UNL     1      23.499 -63.000   1.024  1.00  0.00     0.136 A 
HETATM    3  N2  UNL     1      22.901 -62.791  -0.152  1.00  0.00    -0.368 N 
ATOM      4  H2  UNL     1      23.335 -62.207  -0.866  1.00  0.00     0.164 HD
HETATM    5  C3  UNL     1      21.693 -63.385  -0.366  1.00  0.00     0.136 A 
HETATM    6  C4  UNL     1      21.064 -64.176   0.549  1.00  0.00     0.119 A 
HETATM    7  N6  UNL     1      21.733 -64.346   1.731  1.00  0.00    -0.327 N 
ATOM      8  H6  UNL     1      21.306 -64.929   2.451  1.00  0.00     0.169 HD
ENDROOT
BRANCH   6   9
HETATM    9  N3  UNL     1      19.818 -64.804   0.347  1.00  0.00    -0.355 N 
ATOM     10  H3  UNL     1      19.773 -65.719  -0.102  1.00  0.00     0.163 HD
BRANCH   9  11
HETATM   11  C5  UNL     1      18.621 -64.159   0.772  1.00  0.00     0.205 C 
HETATM   12  N4  UNL     1      17.845 -63.674  -0.357  1.00  0.00    -0.122 NA
HETATM   13  N5  UNL     1      16.600 -63.382   0.178  1.00  0.00    -0.146 NA
HETATM   14  C6  UNL     1      16.342 -64.333   1.218  1.00  0.00     0.145 C 
HETATM   15  C7  UNL     1      17.623 -65.125   1.385  1.00  0.00     0.103 C 
BRANCH  15  16
HETATM   16  C8  UNL     1      17.551 -66.317   0.531  1.00  0.00     0.240 C 
HETATM   17  O1  UNL     1      18.320 -67.264   0.728  1.00  0.00    -0.306 OA
ENDBRANCH  15  16
ENDBRANCH   9  11
ENDBRANCH   6   9
BRANCH   1  18
HETATM   18  N1  UNL     1      23.556 -63.938   3.093  1.00  0.00    -0.384 N 
ATOM     19  H12 UNL     1      24.457 -64.412   3.169  1.00  0.00     0.157 HD
ATOM     20  H11 UNL     1      23.130 -63.559   3.940  1.00  0.00     0.157 HD
ENDBRANCH   1  18
TORSDOF 4
ENDMDL
