MODEL 1
REMARK VINA RESULT: -7.182546502      0.000      0.000
REMARK  5 active torsions:
REMARK  status: ('A' for Active; 'I' for Inactive)
REMARK    1  A    between atoms: N1_1  and  C1_4 
REMARK    2  A    between atoms: C2_7  and  N3_8 
REMARK    3  A    between atoms: N3_8  and  N4_10 
REMARK    4  A    between atoms: N5_12  and  N6_14 
REMARK    5  A    between atoms: C3_16  and  C4_17 
ROOT
HETATM    1  N4  UNL     1      20.065 -65.242   1.150  1.00  0.00    -0.214 N 
ATOM      2  H4  UNL     1      20.586 -66.002   1.587  1.00  0.00     0.210 HD
HETATM    3  N5  UNL     1      18.794 -65.251   1.189  1.00  0.00    -0.228 N 
ATOM      4  H5  UNL     1      18.334 -66.028   1.664  1.00  0.00     0.210 HD
ENDROOT
BRANCH   1   5
HETATM    5  N3  UNL     1      20.757 -64.216   0.521  1.00  0.00    -0.115 N 
ATOM      6  H3  UNL     1      20.436 -63.871  -0.383  1.00  0.00     0.207 HD
BRANCH   5   7
HETATM    7  C2  UNL     1      21.907 -63.642   1.123  1.00  0.00     0.727 A 
HETATM    8  N2  UNL     1      22.522 -64.037   2.252  1.00  0.00    -0.019 N 
HETATM    9  C1  UNL     1      23.556 -63.238   2.468  1.00  0.00     0.705 A 
ATOM     10  H2  UNL     1      22.239 -64.820   2.841  1.00  0.00     0.203 HD
HETATM   11  N11 UNL     1      23.589 -62.343   1.474  1.00  0.00    -0.117 N 
HETATM   12  N10 UNL     1      22.588 -62.582   0.651  1.00  0.00    -0.116 N 
ATOM     13  H11 UNL     1      24.277 -61.597   1.370  1.00  0.00     0.206 HD
ATOM     14  H10 UNL     1      22.367 -62.056  -0.194  1.00  0.00     0.206 HD
BRANCH   9  15
HETATM   15  N1  UNL     1      24.412 -63.283   3.459  1.00  0.00    -0.233 N 
ATOM     16  H12 UNL     1      24.160 -63.429   4.437  1.00  0.00     0.174 HD
ATOM     17  H11 UNL     1      25.426 -63.184   3.415  1.00  0.00     0.174 HD
ENDBRANCH   9  15
ENDBRANCH   5   7
ENDBRANCH   1   5
BRANCH   3  18
HETATM   18  N6  UNL     1      17.997 -64.269   0.626  1.00  0.00    -0.293 N 
HETATM   19  C3  UNL     1      16.735 -64.373   0.415  1.00  0.00     0.158 C 
ATOM     20  H6  UNL     1      18.447 -63.394   0.358  1.00  0.00     0.187 HD
BRANCH  19  21
HETATM   21  C4  UNL     1      15.991 -65.592   0.766  1.00  0.00     0.138 A 
HETATM   22  N7  UNL     1      15.670 -66.552  -0.099  1.00  0.00    -0.335 N 
HETATM   23  C5  UNL     1      14.990 -67.502   0.599  1.00  0.00     0.199 A 
ATOM     24  H7  UNL     1      15.892 -66.571  -1.095  1.00  0.00     0.168 HD
HETATM   25  N8  UNL     1      14.899 -67.117   1.890  1.00  0.00    -0.295 N 
HETATM   26  N9  UNL     1      15.515 -65.953   1.961  1.00  0.00    -0.283 N 
ATOM     27  H8  UNL     1      14.446 -67.621   2.653  1.00  0.00     0.187 HD
ATOM     28  H9  UNL     1      15.615 -65.402   2.814  1.00  0.00     0.188 HD
ENDBRANCH  19  21
ENDBRANCH   3  18
TORSDOF 5
ENDMDL
MODEL 2
REMARK VINA RESULT: -6.997935609      0.986      1.180
REMARK  5 active torsions:
REMARK  status: ('A' for Active; 'I' for Inactive)
REMARK    1  A    between atoms: N1_1  and  C1_4 
REMARK    2  A    between atoms: C2_7  and  N3_8 
REMARK    3  A    between atoms: N3_8  and  N4_10 
REMARK    4  A    between atoms: N5_12  and  N6_14 
REMARK    5  A    between atoms: C3_16  and  C4_17 
ROOT
HETATM    1  N4  UNL     1      19.545 -64.047   0.709  1.00  0.00    -0.214 N 
ATOM      2  H4  UNL     1      19.310 -63.083   0.944  1.00  0.00     0.210 HD
HETATM    3  N5  UNL     1      18.634 -64.934   0.730  1.00  0.00    -0.228 N 
ATOM      4  H5  UNL     1      17.689 -64.646   0.983  1.00  0.00     0.210 HD
ENDROOT
BRANCH   1   5
HETATM    5  N3  UNL     1      20.852 -64.367   0.373  1.00  0.00    -0.115 N 
ATOM      6  H3  UNL     1      21.031 -65.063  -0.351  1.00  0.00     0.207 HD
BRANCH   5   7
HETATM    7  C2  UNL     1      21.945 -63.737   1.025  1.00  0.00     0.727 A 
HETATM    8  N2  UNL     1      22.516 -64.094   2.189  1.00  0.00    -0.019 N 
HETATM    9  C1  UNL     1      23.503 -63.249   2.448  1.00  0.00     0.705 A 
ATOM     10  H2  UNL     1      22.237 -64.881   2.774  1.00  0.00     0.203 HD
HETATM   11  N11 UNL     1      23.550 -62.363   1.445  1.00  0.00    -0.117 N 
HETATM   12  N10 UNL     1      22.603 -62.654   0.575  1.00  0.00    -0.116 N 
ATOM     13  H11 UNL     1      24.209 -61.590   1.367  1.00  0.00     0.206 HD
ATOM     14  H10 UNL     1      22.404 -62.147  -0.287  1.00  0.00     0.206 HD
BRANCH   9  15
HETATM   15  N1  UNL     1      24.307 -63.246   3.482  1.00  0.00    -0.233 N 
ATOM     16  H12 UNL     1      24.064 -63.600   4.407  1.00  0.00     0.174 HD
ATOM     17  H11 UNL     1      25.267 -62.904   3.527  1.00  0.00     0.174 HD
ENDBRANCH   9  15
ENDBRANCH   5   7
ENDBRANCH   1   5
BRANCH   3  18
HETATM   18  N6  UNL     1      18.849 -66.269   0.429  1.00  0.00    -0.293 N 
HETATM   19  C3  UNL     1      17.933 -67.164   0.348  1.00  0.00     0.158 C 
ATOM     20  H6  UNL     1      19.810 -66.564   0.258  1.00  0.00     0.187 HD
BRANCH  19  21
HETATM   21  C4  UNL     1      16.516 -66.843   0.575  1.00  0.00     0.138 A 
HETATM   22  N7  UNL     1      15.707 -66.320  -0.346  1.00  0.00    -0.335 N 
HETATM   23  C5  UNL     1      14.488 -66.170   0.240  1.00  0.00     0.199 A 
ATOM     24  H7  UNL     1      15.955 -66.078  -1.305  1.00  0.00     0.168 HD
HETATM   25  N8  UNL     1      14.558 -66.602   1.517  1.00  0.00    -0.295 N 
HETATM   26  N9  UNL     1      15.802 -67.005   1.692  1.00  0.00    -0.283 N 
ATOM     27  H8  UNL     1      13.804 -66.615   2.205  1.00  0.00     0.187 HD
ATOM     28  H9  UNL     1      16.169 -67.389   2.563  1.00  0.00     0.188 HD
ENDBRANCH  19  21
ENDBRANCH   3  18
TORSDOF 5
ENDMDL
MODEL 3
REMARK VINA RESULT: -6.966109681      0.786      1.278
REMARK  5 active torsions:
REMARK  status: ('A' for Active; 'I' for Inactive)
REMARK    1  A    between atoms: N1_1  and  C1_4 
REMARK    2  A    between atoms: C2_7  and  N3_8 
REMARK    3  A    between atoms: N3_8  and  N4_10 
REMARK    4  A    between atoms: N5_12  and  N6_14 
REMARK    5  A    between atoms: C3_16  and  C4_17 
ROOT
HETATM    1  N4  UNL     1      19.736 -65.242   1.436  1.00  0.00    -0.214 N 
ATOM      2  H4  UNL     1      20.260 -65.950   1.949  1.00  0.00     0.210 HD
HETATM    3  N5  UNL     1      18.472 -65.178   1.573  1.00  0.00    -0.228 N 
ATOM      4  H5  UNL     1      18.023 -65.847   2.199  1.00  0.00     0.210 HD
ENDROOT
BRANCH   1   5
HETATM    5  N3  UNL     1      20.413 -64.364   0.602  1.00  0.00    -0.115 N 
ATOM      6  H3  UNL     1      19.964 -64.029  -0.250  1.00  0.00     0.207 HD
BRANCH   5   7
HETATM    7  C2  UNL     1      21.726 -63.927   0.921  1.00  0.00     0.727 A 
HETATM    8  N2  UNL     1      22.511 -63.107   0.201  1.00  0.00    -0.019 N 
HETATM    9  C1  UNL     1      23.657 -62.949   0.846  1.00  0.00     0.705 A 
ATOM     10  H2  UNL     1      22.265 -62.679  -0.692  1.00  0.00     0.203 HD
HETATM   11  N11 UNL     1      23.589 -63.671   1.971  1.00  0.00    -0.117 N 
HETATM   12  N10 UNL     1      22.416 -64.270   2.023  1.00  0.00    -0.116 N 
ATOM     13  H11 UNL     1      24.324 -63.746   2.674  1.00  0.00     0.206 HD
ATOM     14  H10 UNL     1      22.088 -64.885   2.769  1.00  0.00     0.206 HD
BRANCH   9  15
HETATM   15  N1  UNL     1      24.690 -62.230   0.484  1.00  0.00    -0.233 N 
ATOM     16  H12 UNL     1      25.385 -62.517  -0.205  1.00  0.00     0.174 HD
ATOM     17  H11 UNL     1      24.955 -61.303   0.819  1.00  0.00     0.174 HD
ENDBRANCH   9  15
ENDBRANCH   5   7
ENDBRANCH   1   5
BRANCH   3  18
HETATM   18  N6  UNL     1      17.671 -64.256   0.922  1.00  0.00    -0.293 N 
HETATM   19  C3  UNL     1      16.461 -64.463   0.547  1.00  0.00     0.158 C 
ATOM     20  H6  UNL     1      18.073 -63.339   0.724  1.00  0.00     0.187 HD
BRANCH  19  21
HETATM   21  C4  UNL     1      15.788 -65.749   0.784  1.00  0.00     0.138 A 
HETATM   22  N7  UNL     1      15.410 -66.588  -0.178  1.00  0.00    -0.335 N 
HETATM   23  C5  UNL     1      14.828 -67.655   0.434  1.00  0.00     0.199 A 
ATOM     24  H7  UNL     1      15.534 -66.456  -1.182  1.00  0.00     0.168 HD
HETATM   25  N8  UNL     1      14.852 -67.461   1.770  1.00  0.00    -0.295 N 
HETATM   26  N9  UNL     1      15.441 -66.295   1.953  1.00  0.00    -0.283 N 
ATOM     27  H8  UNL     1      14.490 -68.087   2.490  1.00  0.00     0.187 HD
ATOM     28  H9  UNL     1      15.609 -65.867   2.864  1.00  0.00     0.188 HD
ENDBRANCH  19  21
ENDBRANCH   3  18
TORSDOF 5
ENDMDL
MODEL 4
REMARK VINA RESULT: -6.772132882      1.066      1.717
REMARK  5 active torsions:
REMARK  status: ('A' for Active; 'I' for Inactive)
REMARK    1  A    between atoms: N1_1  and  C1_4 
REMARK    2  A    between atoms: C2_7  and  N3_8 
REMARK    3  A    between atoms: N3_8  and  N4_10 
REMARK    4  A    between atoms: N5_12  and  N6_14 
REMARK    5  A    between atoms: C3_16  and  C4_17 
ROOT
HETATM    1  N4  UNL     1      19.254 -64.707   0.145  1.00  0.00    -0.214 N 
ATOM      2  H4  UNL     1      19.582 -64.848  -0.810  1.00  0.00     0.210 HD
HETATM    3  N5  UNL     1      18.080 -64.258   0.342  1.00  0.00    -0.228 N 
ATOM      4  H5  UNL     1      17.502 -64.052  -0.473  1.00  0.00     0.210 HD
ENDROOT
BRANCH   1   5
HETATM    5  N3  UNL     1      20.095 -65.009   1.206  1.00  0.00    -0.115 N 
ATOM      6  H3  UNL     1      19.836 -65.746   1.861  1.00  0.00     0.207 HD
BRANCH   5   7
HETATM    7  C2  UNL     1      21.313 -64.302   1.390  1.00  0.00     0.727 A 
HETATM    8  N2  UNL     1      21.688 -63.155   0.798  1.00  0.00    -0.019 N 
HETATM    9  C1  UNL     1      22.894 -62.829   1.241  1.00  0.00     0.705 A 
ATOM     10  H2  UNL     1      21.138 -62.626   0.122  1.00  0.00     0.203 HD
HETATM   11  N11 UNL     1      23.272 -63.773   2.111  1.00  0.00    -0.117 N 
HETATM   12  N10 UNL     1      22.315 -64.674   2.206  1.00  0.00    -0.116 N 
ATOM     13  H11 UNL     1      24.157 -63.792   2.618  1.00  0.00     0.206 HD
ATOM     14  H10 UNL     1      22.330 -65.507   2.796  1.00  0.00     0.206 HD
BRANCH   9  15
HETATM   15  N1  UNL     1      23.614 -61.786   0.913  1.00  0.00    -0.233 N 
ATOM     16  H12 UNL     1      24.216 -61.270   1.556  1.00  0.00     0.174 HD
ATOM     17  H11 UNL     1      23.688 -61.338  -0.001  1.00  0.00     0.174 HD
ENDBRANCH   9  15
ENDBRANCH   5   7
ENDBRANCH   1   5
BRANCH   3  18
HETATM   18  N6  UNL     1      17.541 -64.030   1.597  1.00  0.00    -0.293 N 
HETATM   19  C3  UNL     1      16.498 -64.611   2.069  1.00  0.00     0.158 C 
ATOM     20  H6  UNL     1      18.010 -63.348   2.194  1.00  0.00     0.187 HD
BRANCH  19  21
HETATM   21  C4  UNL     1      15.751 -65.610   1.290  1.00  0.00     0.138 A 
HETATM   22  N7  UNL     1      15.674 -66.902   1.604  1.00  0.00    -0.335 N 
HETATM   23  C5  UNL     1      14.901 -67.494   0.652  1.00  0.00     0.199 A 
ATOM     24  H7  UNL     1      16.111 -67.360   2.403  1.00  0.00     0.168 HD
HETATM   25  N8  UNL     1      14.509 -66.558  -0.239  1.00  0.00    -0.295 N 
HETATM   26  N9  UNL     1      15.041 -65.424   0.174  1.00  0.00    -0.283 N 
ATOM     27  H8  UNL     1      13.923 -66.699  -1.063  1.00  0.00     0.187 HD
ATOM     28  H9  UNL     1      14.925 -64.525  -0.295  1.00  0.00     0.188 HD
ENDBRANCH  19  21
ENDBRANCH   3  18
TORSDOF 5
ENDMDL
MODEL 5
REMARK VINA RESULT: -6.749945710      1.274      1.683
REMARK  5 active torsions:
REMARK  status: ('A' for Active; 'I' for Inactive)
REMARK    1  A    between atoms: N1_1  and  C1_4 
REMARK    2  A    between atoms: C2_7  and  N3_8 
REMARK    3  A    between atoms: N3_8  and  N4_10 
REMARK    4  A    between atoms: N5_12  and  N6_14 
REMARK    5  A    between atoms: C3_16  and  C4_17 
ROOT
HETATM    1  N4  UNL     1      19.148 -64.063   0.720  1.00  0.00    -0.214 N 
ATOM      2  H4  UNL     1      18.854 -63.142   1.044  1.00  0.00     0.210 HD
HETATM    3  N5  UNL     1      18.402 -65.070   0.939  1.00  0.00    -0.228 N 
ATOM      4  H5  UNL     1      17.524 -64.917   1.436  1.00  0.00     0.210 HD
ENDROOT
BRANCH   1   5
HETATM    5  N3  UNL     1      20.356 -64.195   0.050  1.00  0.00    -0.115 N 
ATOM      6  H3  UNL     1      20.359 -64.431  -0.942  1.00  0.00     0.207 HD
BRANCH   5   7
HETATM    7  C2  UNL     1      21.588 -64.007   0.730  1.00  0.00     0.727 A 
HETATM    8  N2  UNL     1      22.650 -63.297   0.312  1.00  0.00    -0.019 N 
HETATM    9  C1  UNL     1      23.595 -63.372   1.238  1.00  0.00     0.705 A 
ATOM     10  H2  UNL     1      22.717 -62.787  -0.569  1.00  0.00     0.203 HD
HETATM   11  N11 UNL     1      23.123 -64.129   2.235  1.00  0.00    -0.117 N 
HETATM   12  N10 UNL     1      21.901 -64.520   1.933  1.00  0.00    -0.116 N 
ATOM     13  H11 UNL     1      23.627 -64.365   3.090  1.00  0.00     0.206 HD
ATOM     14  H10 UNL     1      21.299 -65.108   2.509  1.00  0.00     0.206 HD
BRANCH   9  15
HETATM   15  N1  UNL     1      24.784 -62.822   1.218  1.00  0.00    -0.233 N 
ATOM     16  H12 UNL     1      24.960 -61.818   1.270  1.00  0.00     0.174 HD
ATOM     17  H11 UNL     1      25.688 -63.289   1.149  1.00  0.00     0.174 HD
ENDBRANCH   9  15
ENDBRANCH   5   7
ENDBRANCH   1   5
BRANCH   3  18
HETATM   18  N6  UNL     1      18.710 -66.360   0.542  1.00  0.00    -0.293 N 
HETATM   19  C3  UNL     1      17.854 -67.294   0.338  1.00  0.00     0.158 C 
ATOM     20  H6  UNL     1      19.695 -66.586   0.401  1.00  0.00     0.187 HD
BRANCH  19  21
HETATM   21  C4  UNL     1      16.411 -67.072   0.513  1.00  0.00     0.138 A 
HETATM   22  N7  UNL     1      15.574 -66.762  -0.476  1.00  0.00    -0.335 N 
HETATM   23  C5  UNL     1      14.337 -66.638   0.079  1.00  0.00     0.199 A 
ATOM     24  H7  UNL     1      15.814 -66.641  -1.460  1.00  0.00     0.168 HD
HETATM   25  N8  UNL     1      14.425 -66.874   1.405  1.00  0.00    -0.295 N 
HETATM   26  N9  UNL     1      15.697 -67.134   1.640  1.00  0.00    -0.283 N 
ATOM     27  H8  UNL     1      13.665 -66.854   2.086  1.00  0.00     0.187 HD
ATOM     28  H9  UNL     1      16.083 -67.353   2.558  1.00  0.00     0.188 HD
ENDBRANCH  19  21
ENDBRANCH   3  18
TORSDOF 5
ENDMDL
