MODEL 1
REMARK VINA RESULT: -6.188478799      0.000      0.000
REMARK  11 active torsions:
REMARK  status: ('A' for Active; 'I' for Inactive)
REMARK    1  A    between atoms: C1_4  and  C2_5 
REMARK    2  A    between atoms: C2_5  and  C3_6 
REMARK    3  A    between atoms: C3_6  and  N2_7 
REMARK    4  A    between atoms: N2_7  and  C4_10 
REMARK    5  A    between atoms: C4_10  and  C5_11 
REMARK    6  A    between atoms: C5_11  and  N3_12 
REMARK    7  A    between atoms: C8_15  and  N4_16 
REMARK    8  A    between atoms: C10_24  and  C11_25 
REMARK    9  A    between atoms: C11_25  and  C12_26 
REMARK   10  A    between atoms: C12_26  and  C13_27 
REMARK   11  A    between atoms: C13_27  and  N6_28 
ROOT
HETATM    1  N3  UNL     1      -3.982  31.704 -18.283  1.00  0.00    -0.349 N 
HETATM    2  C6  UNL     1      -4.559  32.409 -17.190  1.00  0.00     0.128 C 
HETATM    3  C7  UNL     1      -5.927  32.926 -17.577  1.00  0.00     0.062 C 
HETATM    4  C8  UNL     1      -6.811  31.933 -18.248  1.00  0.00     0.276 C 
HETATM    5  C9  UNL     1      -6.894  30.615 -17.594  1.00  0.00     0.249 C 
HETATM    6  O1  UNL     1      -7.803  30.531 -16.749  1.00  0.00    -0.271 OA
HETATM    7  N5  UNL     1      -6.162  29.422 -17.719  1.00  0.00    -0.346 N 
ATOM      8  H5  UNL     1      -6.646  28.605 -17.346  1.00  0.00     0.163 HD
HETATM    9  C10 UNL     1      -4.819  29.112 -18.288  1.00  0.00     0.176 C 
HETATM   10  C14 UNL     1      -4.271  30.404 -18.850  1.00  0.00     0.242 C 
HETATM   11  O2  UNL     1      -3.996  30.377 -20.080  1.00  0.00    -0.271 OA
ENDROOT
BRANCH   1  12
HETATM   12  C5  UNL     1      -2.918  32.307 -19.036  1.00  0.00     0.153 C 
BRANCH  12  13
HETATM   13  C4  UNL     1      -1.562  32.256 -18.433  1.00  0.00     0.252 C 
BRANCH  13  14
HETATM   14  N2  UNL     1      -1.214  33.650 -18.102  1.00  0.00    -0.073 N 
ATOM     15  H22 UNL     1      -0.519  33.696 -17.356  1.00  0.00     0.277 HD
ATOM     16  H21 UNL     1      -1.984  34.125 -17.630  1.00  0.00     0.277 HD
BRANCH  14  17
HETATM   17  C3  UNL     1      -0.778  34.383 -19.284  1.00  0.00     0.237 C 
BRANCH  17  18
HETATM   18  C2  UNL     1       0.650  34.816 -19.064  1.00  0.00     0.071 C 
BRANCH  18  19
HETATM   19  C1  UNL     1       1.244  34.339 -17.806  1.00  0.00     0.054 C 
HETATM   20  N1  UNL     1       1.531  35.178 -16.874  1.00  0.00    -0.411 N 
ATOM     21  H12 UNL     1       1.340  36.169 -17.023  1.00  0.00     0.155 HD
ATOM     22  H11 UNL     1       1.942  34.847 -16.002  1.00  0.00     0.155 HD
ENDBRANCH  18  19
ENDBRANCH  17  18
ENDBRANCH  14  17
ENDBRANCH  13  14
ENDBRANCH  12  13
ENDBRANCH   1  12
BRANCH   9  23
HETATM   23  C11 UNL     1      -4.031  28.658 -17.099  1.00  0.00     0.036 C 
BRANCH  23  24
HETATM   24  C12 UNL     1      -2.579  28.488 -17.236  1.00  0.00     0.030 C 
BRANCH  24  25
HETATM   25  C13 UNL     1      -1.678  29.177 -16.287  1.00  0.00     0.230 C 
BRANCH  25  26
HETATM   26  N6  UNL     1      -2.303  30.192 -15.519  1.00  0.00    -0.079 N 
ATOM     27  H63 UNL     1      -2.647  30.937 -16.125  1.00  0.00     0.274 HD
ATOM     28  H62 UNL     1      -3.187  29.856 -15.137  1.00  0.00     0.274 HD
ATOM     29  H61 UNL     1      -1.719  30.579 -14.778  1.00  0.00     0.274 HD
ENDBRANCH  25  26
ENDBRANCH  24  25
ENDBRANCH  23  24
ENDBRANCH   9  23
BRANCH   4  30
HETATM   30  N4  UNL     1      -8.136  32.538 -18.398  1.00  0.00    -0.066 N 
ATOM     31  H43 UNL     1      -8.276  32.959 -19.317  1.00  0.00     0.275 HD
ATOM     32  H42 UNL     1      -8.882  31.846 -18.450  1.00  0.00     0.275 HD
ATOM     33  H41 UNL     1      -8.266  33.203 -17.635  1.00  0.00     0.275 HD
ENDBRANCH   4  30
TORSDOF 11
ENDMDL
MODEL 2
REMARK VINA RESULT: -6.018982665      0.949      1.334
REMARK  11 active torsions:
REMARK  status: ('A' for Active; 'I' for Inactive)
REMARK    1  A    between atoms: C1_4  and  C2_5 
REMARK    2  A    between atoms: C2_5  and  C3_6 
REMARK    3  A    between atoms: C3_6  and  N2_7 
REMARK    4  A    between atoms: N2_7  and  C4_10 
REMARK    5  A    between atoms: C4_10  and  C5_11 
REMARK    6  A    between atoms: C5_11  and  N3_12 
REMARK    7  A    between atoms: C8_15  and  N4_16 
REMARK    8  A    between atoms: C10_24  and  C11_25 
REMARK    9  A    between atoms: C11_25  and  C12_26 
REMARK   10  A    between atoms: C12_26  and  C13_27 
REMARK   11  A    between atoms: C13_27  and  N6_28 
ROOT
HETATM    1  N3  UNL     1      -3.962  31.718 -18.267  1.00  0.00    -0.349 N 
HETATM    2  C6  UNL     1      -4.539  32.422 -17.172  1.00  0.00     0.128 C 
HETATM    3  C7  UNL     1      -5.907  32.938 -17.557  1.00  0.00     0.062 C 
HETATM    4  C8  UNL     1      -6.791  31.945 -18.228  1.00  0.00     0.276 C 
HETATM    5  C9  UNL     1      -6.872  30.626 -17.575  1.00  0.00     0.249 C 
HETATM    6  O1  UNL     1      -7.780  30.540 -16.729  1.00  0.00    -0.271 OA
HETATM    7  N5  UNL     1      -6.139  29.433 -17.702  1.00  0.00    -0.346 N 
ATOM      8  H5  UNL     1      -6.622  28.615 -17.330  1.00  0.00     0.163 HD
HETATM    9  C10 UNL     1      -4.797  29.125 -18.274  1.00  0.00     0.176 C 
HETATM   10  C14 UNL     1      -4.250  30.418 -18.835  1.00  0.00     0.242 C 
HETATM   11  O2  UNL     1      -3.977  30.393 -20.065  1.00  0.00    -0.271 OA
ENDROOT
BRANCH   1  12
HETATM   12  C5  UNL     1      -2.899  32.322 -19.020  1.00  0.00     0.153 C 
BRANCH  12  13
HETATM   13  C4  UNL     1      -1.540  32.262 -18.424  1.00  0.00     0.252 C 
BRANCH  13  14
HETATM   14  N2  UNL     1      -1.191  33.650 -18.072  1.00  0.00    -0.073 N 
ATOM     15  H22 UNL     1      -1.448  33.867 -17.108  1.00  0.00     0.277 HD
ATOM     16  H21 UNL     1      -1.794  34.320 -18.550  1.00  0.00     0.277 HD
BRANCH  14  17
HETATM   17  C3  UNL     1       0.218  33.924 -18.323  1.00  0.00     0.237 C 
BRANCH  17  18
HETATM   18  C2  UNL     1       0.307  34.880 -19.486  1.00  0.00     0.071 C 
BRANCH  18  19
HETATM   19  C1  UNL     1       0.636  34.246 -20.772  1.00  0.00     0.054 C 
HETATM   20  N1  UNL     1      -0.197  34.314 -21.750  1.00  0.00    -0.411 N 
ATOM     21  H12 UNL     1      -1.078  34.810 -21.618  1.00  0.00     0.155 HD
ATOM     22  H11 UNL     1       0.031  33.874 -22.642  1.00  0.00     0.155 HD
ENDBRANCH  18  19
ENDBRANCH  17  18
ENDBRANCH  14  17
ENDBRANCH  13  14
ENDBRANCH  12  13
ENDBRANCH   1  12
BRANCH   9  23
HETATM   23  C11 UNL     1      -4.007  28.671 -17.085  1.00  0.00     0.036 C 
BRANCH  23  24
HETATM   24  C12 UNL     1      -2.556  28.490 -17.228  1.00  0.00     0.030 C 
BRANCH  24  25
HETATM   25  C13 UNL     1      -1.647  29.178 -16.286  1.00  0.00     0.230 C 
BRANCH  25  26
HETATM   26  N6  UNL     1      -2.264  30.196 -15.515  1.00  0.00    -0.079 N 
ATOM     27  H63 UNL     1      -3.220  29.933 -15.278  1.00  0.00     0.274 HD
ATOM     28  H62 UNL     1      -1.856  30.233 -14.581  1.00  0.00     0.274 HD
ATOM     29  H61 UNL     1      -2.247  31.120 -15.948  1.00  0.00     0.274 HD
ENDBRANCH  25  26
ENDBRANCH  24  25
ENDBRANCH  23  24
ENDBRANCH   9  23
BRANCH   4  30
HETATM   30  N4  UNL     1      -8.117  32.549 -18.376  1.00  0.00    -0.066 N 
ATOM     31  H43 UNL     1      -8.621  32.200 -19.192  1.00  0.00     0.275 HD
ATOM     32  H42 UNL     1      -8.775  32.234 -17.664  1.00  0.00     0.275 HD
ATOM     33  H41 UNL     1      -8.001  33.562 -18.387  1.00  0.00     0.275 HD
ENDBRANCH   4  30
TORSDOF 11
ENDMDL
MODEL 3
REMARK VINA RESULT: -5.932361911      1.969      2.749
REMARK  11 active torsions:
REMARK  status: ('A' for Active; 'I' for Inactive)
REMARK    1  A    between atoms: C1_4  and  C2_5 
REMARK    2  A    between atoms: C2_5  and  C3_6 
REMARK    3  A    between atoms: C3_6  and  N2_7 
REMARK    4  A    between atoms: N2_7  and  C4_10 
REMARK    5  A    between atoms: C4_10  and  C5_11 
REMARK    6  A    between atoms: C5_11  and  N3_12 
REMARK    7  A    between atoms: C8_15  and  N4_16 
REMARK    8  A    between atoms: C10_24  and  C11_25 
REMARK    9  A    between atoms: C11_25  and  C12_26 
REMARK   10  A    between atoms: C12_26  and  C13_27 
REMARK   11  A    between atoms: C13_27  and  N6_28 
ROOT
HETATM    1  N3  UNL     1      -2.954  30.782 -17.194  1.00  0.00    -0.349 N 
HETATM    2  C6  UNL     1      -4.201  31.355 -16.814  1.00  0.00     0.128 C 
HETATM    3  C7  UNL     1      -5.333  30.623 -17.500  1.00  0.00     0.062 C 
HETATM    4  C8  UNL     1      -5.255  29.137 -17.437  1.00  0.00     0.276 C 
HETATM    5  C9  UNL     1      -4.973  28.574 -16.105  1.00  0.00     0.249 C 
HETATM    6  O1  UNL     1      -5.994  28.333 -15.436  1.00  0.00    -0.271 OA
HETATM    7  N5  UNL     1      -3.790  28.247 -15.420  1.00  0.00    -0.346 N 
ATOM      8  H5  UNL     1      -3.934  27.606 -14.639  1.00  0.00     0.163 HD
HETATM    9  C10 UNL     1      -2.367  28.648 -15.608  1.00  0.00     0.176 C 
HETATM   10  C14 UNL     1      -2.317  29.535 -16.831  1.00  0.00     0.242 C 
HETATM   11  O2  UNL     1      -1.567  29.125 -17.758  1.00  0.00    -0.271 OA
ENDROOT
BRANCH   1  12
HETATM   12  C5  UNL     1      -2.099  31.485 -18.111  1.00  0.00     0.153 C 
BRANCH  12  13
HETATM   13  C4  UNL     1      -2.509  32.862 -18.483  1.00  0.00     0.252 C 
BRANCH  13  14
HETATM   14  N2  UNL     1      -1.378  33.734 -18.115  1.00  0.00    -0.073 N 
ATOM     15  H22 UNL     1      -0.650  33.214 -17.625  1.00  0.00     0.277 HD
ATOM     16  H21 UNL     1      -1.635  34.385 -17.373  1.00  0.00     0.277 HD
BRANCH  14  17
HETATM   17  C3  UNL     1      -0.846  34.432 -19.279  1.00  0.00     0.237 C 
BRANCH  17  18
HETATM   18  C2  UNL     1       0.604  34.747 -19.011  1.00  0.00     0.071 C 
BRANCH  18  19
HETATM   19  C1  UNL     1       1.114  34.227 -17.733  1.00  0.00     0.054 C 
HETATM   20  N1  UNL     1       1.769  35.003 -16.942  1.00  0.00    -0.411 N 
ATOM     21  H12 UNL     1       1.925  35.973 -17.215  1.00  0.00     0.155 HD
ATOM     22  H11 UNL     1       2.122  34.643 -16.055  1.00  0.00     0.155 HD
ENDBRANCH  18  19
ENDBRANCH  17  18
ENDBRANCH  14  17
ENDBRANCH  13  14
ENDBRANCH  12  13
ENDBRANCH   1  12
BRANCH   9  23
HETATM   23  C11 UNL     1      -2.053  29.420 -14.363  1.00  0.00     0.036 C 
BRANCH  23  24
HETATM   24  C12 UNL     1      -2.863  29.184 -13.162  1.00  0.00     0.030 C 
BRANCH  24  25
HETATM   25  C13 UNL     1      -3.720  30.271 -12.643  1.00  0.00     0.230 C 
BRANCH  25  26
HETATM   26  N6  UNL     1      -3.512  31.528 -13.267  1.00  0.00    -0.079 N 
ATOM     27  H63 UNL     1      -2.768  31.462 -13.961  1.00  0.00     0.274 HD
ATOM     28  H62 UNL     1      -4.299  31.758 -13.874  1.00  0.00     0.274 HD
ATOM     29  H61 UNL     1      -3.327  32.293 -12.619  1.00  0.00     0.274 HD
ENDBRANCH  25  26
ENDBRANCH  24  25
ENDBRANCH  23  24
ENDBRANCH   9  23
BRANCH   4  30
HETATM   30  N4  UNL     1      -6.497  28.597 -17.993  1.00  0.00    -0.066 N 
ATOM     31  H43 UNL     1      -6.474  28.520 -19.010  1.00  0.00     0.275 HD
ATOM     32  H42 UNL     1      -6.625  27.607 -17.783  1.00  0.00     0.275 HD
ATOM     33  H41 UNL     1      -7.269  29.175 -17.658  1.00  0.00     0.275 HD
ENDBRANCH   4  30
TORSDOF 11
ENDMDL
MODEL 4
REMARK VINA RESULT: -5.913018836      2.450      5.224
REMARK  11 active torsions:
REMARK  status: ('A' for Active; 'I' for Inactive)
REMARK    1  A    between atoms: C1_4  and  C2_5 
REMARK    2  A    between atoms: C2_5  and  C3_6 
REMARK    3  A    between atoms: C3_6  and  N2_7 
REMARK    4  A    between atoms: N2_7  and  C4_10 
REMARK    5  A    between atoms: C4_10  and  C5_11 
REMARK    6  A    between atoms: C5_11  and  N3_12 
REMARK    7  A    between atoms: C8_15  and  N4_16 
REMARK    8  A    between atoms: C10_24  and  C11_25 
REMARK    9  A    between atoms: C11_25  and  C12_26 
REMARK   10  A    between atoms: C12_26  and  C13_27 
REMARK   11  A    between atoms: C13_27  and  N6_28 
ROOT
HETATM    1  N3  UNL     1      -2.707  30.108 -17.595  1.00  0.00    -0.349 N 
HETATM    2  C6  UNL     1      -1.574  30.797 -17.078  1.00  0.00     0.128 C 
HETATM    3  C7  UNL     1      -0.692  31.262 -18.216  1.00  0.00     0.062 C 
HETATM    4  C8  UNL     1      -1.408  31.937 -19.334  1.00  0.00     0.276 C 
HETATM    5  C9  UNL     1      -2.371  32.978 -18.933  1.00  0.00     0.249 C 
HETATM    6  O1  UNL     1      -1.874  34.115 -18.851  1.00  0.00    -0.271 OA
HETATM    7  N5  UNL     1      -3.741  32.964 -18.621  1.00  0.00    -0.346 N 
ATOM      8  H5  UNL     1      -4.181  33.883 -18.669  1.00  0.00     0.163 HD
HETATM    9  C10 UNL     1      -4.681  31.873 -18.233  1.00  0.00     0.176 C 
HETATM   10  C14 UNL     1      -3.896  30.581 -18.271  1.00  0.00     0.242 C 
HETATM   11  O2  UNL     1      -4.348  29.704 -19.056  1.00  0.00    -0.271 OA
ENDROOT
BRANCH   1  12
HETATM   12  C5  UNL     1      -2.780  28.677 -17.486  1.00  0.00     0.153 C 
BRANCH  12  13
HETATM   13  C4  UNL     1      -2.099  28.061 -16.319  1.00  0.00     0.252 C 
BRANCH  13  14
HETATM   14  N2  UNL     1      -0.844  27.489 -16.839  1.00  0.00    -0.073 N 
ATOM     15  H22 UNL     1      -0.662  27.794 -17.796  1.00  0.00     0.277 HD
ATOM     16  H21 UNL     1      -0.932  26.487 -17.006  1.00  0.00     0.277 HD
BRANCH  14  17
HETATM   17  C3  UNL     1       0.280  27.789 -15.960  1.00  0.00     0.237 C 
BRANCH  17  18
HETATM   18  C2  UNL     1       1.406  28.323 -16.808  1.00  0.00     0.071 C 
BRANCH  18  19
HETATM   19  C1  UNL     1       2.247  29.329 -16.141  1.00  0.00     0.054 C 
HETATM   20  N1  UNL     1       1.716  30.414 -15.698  1.00  0.00    -0.411 N 
ATOM     21  H12 UNL     1       0.714  30.560 -15.816  1.00  0.00     0.155 HD
ATOM     22  H11 UNL     1       2.299  31.111 -15.235  1.00  0.00     0.155 HD
ENDBRANCH  18  19
ENDBRANCH  17  18
ENDBRANCH  14  17
ENDBRANCH  13  14
ENDBRANCH  12  13
ENDBRANCH   1  12
BRANCH   9  23
HETATM   23  C11 UNL     1      -5.073  32.230 -16.833  1.00  0.00     0.036 C 
BRANCH  23  24
HETATM   24  C12 UNL     1      -6.486  32.128 -16.446  1.00  0.00     0.030 C 
BRANCH  24  25
HETATM   25  C13 UNL     1      -6.843  32.111 -15.011  1.00  0.00     0.230 C 
BRANCH  25  26
HETATM   26  N6  UNL     1      -7.376  33.332 -14.526  1.00  0.00    -0.079 N 
ATOM     27  H63 UNL     1      -7.369  33.344 -13.507  1.00  0.00     0.274 HD
ATOM     28  H62 UNL     1      -6.733  34.101 -14.714  1.00  0.00     0.274 HD
ATOM     29  H61 UNL     1      -8.308  33.554 -14.877  1.00  0.00     0.274 HD
ENDBRANCH  25  26
ENDBRANCH  24  25
ENDBRANCH  23  24
ENDBRANCH   9  23
BRANCH   4  30
HETATM   30  N4  UNL     1      -0.403  32.467 -20.257  1.00  0.00    -0.066 N 
ATOM     31  H43 UNL     1       0.358  32.949 -19.778  1.00  0.00     0.275 HD
ATOM     32  H42 UNL     1       0.154  31.736 -20.697  1.00  0.00     0.275 HD
ATOM     33  H41 UNL     1      -0.881  33.061 -20.935  1.00  0.00     0.275 HD
ENDBRANCH   4  30
TORSDOF 11
ENDMDL
MODEL 5
REMARK VINA RESULT: -5.903733157      2.000      5.923
REMARK  11 active torsions:
REMARK  status: ('A' for Active; 'I' for Inactive)
REMARK    1  A    between atoms: C1_4  and  C2_5 
REMARK    2  A    between atoms: C2_5  and  C3_6 
REMARK    3  A    between atoms: C3_6  and  N2_7 
REMARK    4  A    between atoms: N2_7  and  C4_10 
REMARK    5  A    between atoms: C4_10  and  C5_11 
REMARK    6  A    between atoms: C5_11  and  N3_12 
REMARK    7  A    between atoms: C8_15  and  N4_16 
REMARK    8  A    between atoms: C10_24  and  C11_25 
REMARK    9  A    between atoms: C11_25  and  C12_26 
REMARK   10  A    between atoms: C12_26  and  C13_27 
REMARK   11  A    between atoms: C13_27  and  N6_28 
ROOT
HETATM    1  N3  UNL     1      -4.516  31.452 -17.917  1.00  0.00    -0.349 N 
HETATM    2  C6  UNL     1      -4.403  31.531 -16.500  1.00  0.00     0.128 C 
HETATM    3  C7  UNL     1      -4.117  30.159 -15.930  1.00  0.00     0.062 C 
HETATM    4  C8  UNL     1      -3.043  29.397 -16.626  1.00  0.00     0.276 C 
HETATM    5  C9  UNL     1      -1.801  30.147 -16.885  1.00  0.00     0.249 C 
HETATM    6  O1  UNL     1      -0.966  30.065 -15.966  1.00  0.00    -0.271 OA
HETATM    7  N5  UNL     1      -1.351  30.941 -17.954  1.00  0.00    -0.346 N 
ATOM      8  H5  UNL     1      -0.340  31.077 -17.964  1.00  0.00     0.163 HD
HETATM    9  C10 UNL     1      -2.057  31.623 -19.076  1.00  0.00     0.176 C 
HETATM   10  C14 UNL     1      -3.522  31.271 -18.953  1.00  0.00     0.242 C 
HETATM   11  O2  UNL     1      -4.018  30.689 -19.955  1.00  0.00    -0.271 OA
ENDROOT
BRANCH   1  12
HETATM   12  C5  UNL     1      -5.810  31.549 -18.533  1.00  0.00     0.153 C 
BRANCH  12  13
HETATM   13  C4  UNL     1      -6.514  32.850 -18.405  1.00  0.00     0.252 C 
BRANCH  13  14
HETATM   14  N2  UNL     1      -7.941  32.522 -18.236  1.00  0.00    -0.073 N 
ATOM     15  H22 UNL     1      -8.405  32.395 -19.137  1.00  0.00     0.277 HD
ATOM     16  H21 UNL     1      -8.471  33.326 -17.898  1.00  0.00     0.277 HD
BRANCH  14  17
HETATM   17  C3  UNL     1      -8.122  31.361 -17.374  1.00  0.00     0.237 C 
BRANCH  17  18
HETATM   18  C2  UNL     1      -8.692  31.838 -16.062  1.00  0.00     0.071 C 
BRANCH  18  19
HETATM   19  C1  UNL     1      -7.698  32.004 -14.990  1.00  0.00     0.054 C 
HETATM   20  N1  UNL     1      -7.155  33.153 -14.793  1.00  0.00    -0.411 N 
ATOM     21  H12 UNL     1      -7.424  33.937 -15.387  1.00  0.00     0.155 HD
ATOM     22  H11 UNL     1      -6.466  33.268 -14.050  1.00  0.00     0.155 HD
ENDBRANCH  18  19
ENDBRANCH  17  18
ENDBRANCH  14  17
ENDBRANCH  13  14
ENDBRANCH  12  13
ENDBRANCH   1  12
BRANCH   9  23
HETATM   23  C11 UNL     1      -1.822  33.077 -18.805  1.00  0.00     0.036 C 
BRANCH  23  24
HETATM   24  C12 UNL     1      -0.883  33.813 -19.660  1.00  0.00     0.030 C 
BRANCH  24  25
HETATM   25  C13 UNL     1       0.215  34.581 -19.033  1.00  0.00     0.230 C 
BRANCH  25  26
HETATM   26  N6  UNL     1       0.478  34.230 -17.684  1.00  0.00    -0.079 N 
ATOM     27  H63 UNL     1       1.126  34.896 -17.263  1.00  0.00     0.274 HD
ATOM     28  H62 UNL     1      -0.346  34.398 -17.106  1.00  0.00     0.274 HD
ATOM     29  H61 UNL     1       0.815  33.276 -17.555  1.00  0.00     0.274 HD
ENDBRANCH  25  26
ENDBRANCH  24  25
ENDBRANCH  23  24
ENDBRANCH   9  23
BRANCH   4  30
HETATM   30  N4  UNL     1      -2.781  28.181 -15.854  1.00  0.00    -0.066 N 
ATOM     31  H43 UNL     1      -2.657  28.364 -14.858  1.00  0.00     0.275 HD
ATOM     32  H42 UNL     1      -3.599  27.577 -15.780  1.00  0.00     0.275 HD
ATOM     33  H41 UNL     1      -1.979  27.710 -16.272  1.00  0.00     0.275 HD
ENDBRANCH   4  30
TORSDOF 11
ENDMDL
