MODEL 1
REMARK VINA RESULT: -6.533130511      0.000      0.000
REMARK  10 active torsions:
REMARK  status: ('A' for Active; 'I' for Inactive)
REMARK    1  A    between atoms: N3_4  and  C2_6 
REMARK    2  A    between atoms: C2_6  and  C3_7 
REMARK    3  A    between atoms: C3_7  and  C4_8 
REMARK    4  A    between atoms: C4_8  and  C5_9 
REMARK    5  A    between atoms: C5_9  and  N4_10 
REMARK    6  A    between atoms: C5_9  and  C6_14 
REMARK    7  A    between atoms: C5_9  and  C12_24 
REMARK    8  A    between atoms: C6_14  and  C7_15 
REMARK    9  A    between atoms: C7_15  and  N5_16 
REMARK   10  A    between atoms: C12_24  and  N7_25 
ROOT
HETATM    1  C5  UNL     1      -0.969  32.530 -18.599  1.00  0.00     0.141 C 
ENDROOT
BRANCH   1   2
HETATM    2  C4  UNL     1      -0.369  31.661 -17.570  1.00  0.00     0.042 C 
BRANCH   2   3
HETATM    3  C3  UNL     1      -0.593  30.200 -17.652  1.00  0.00     0.022 C 
BRANCH   3   4
HETATM    4  C2  UNL     1      -0.418  29.405 -16.393  1.00  0.00     0.122 C 
BRANCH   4   5
HETATM    5  N3  UNL     1      -1.046  30.153 -15.325  1.00  0.00    -0.367 N 
HETATM    6  C1  UNL     1      -1.813  29.629 -14.444  1.00  0.00     0.196 C 
HETATM    7  N1  UNL     1      -2.389  30.423 -13.433  1.00  0.00    -0.067 NA
HETATM    8  N2  UNL     1      -2.082  28.245 -14.492  1.00  0.00    -0.067 NA
ATOM      9  H3  UNL     1      -0.867  31.155 -15.270  1.00  0.00     0.161 HD
ENDBRANCH   4   5
ENDBRANCH   3   4
ENDBRANCH   2   3
ENDBRANCH   1   2
BRANCH   1  10
HETATM   10  N4  UNL     1      -1.306  33.814 -18.033  1.00  0.00    -0.069 N 
ATOM     11  H43 UNL     1      -0.992  33.898 -17.066  1.00  0.00     0.275 HD
ATOM     12  H42 UNL     1      -0.750  34.567 -18.438  1.00  0.00     0.275 HD
ATOM     13  H41 UNL     1      -2.307  33.989 -18.125  1.00  0.00     0.275 HD
ENDBRANCH   1  10
BRANCH   1  14
HETATM   14  C6  UNL     1      -2.157  31.930 -19.306  1.00  0.00     0.070 C 
BRANCH  14  15
HETATM   15  C7  UNL     1      -3.469  32.445 -18.776  1.00  0.00     0.275 C 
BRANCH  15  16
HETATM   16  N5  UNL     1      -4.271  31.341 -18.285  1.00  0.00     0.091 N 
HETATM   17  C8  UNL     1      -4.191  31.185 -16.861  1.00  0.00     0.300 C 
HETATM   18  C9  UNL     1      -4.870  29.892 -16.465  1.00  0.00     0.262 C 
HETATM   19  N6  UNL     1      -4.053  28.813 -17.002  1.00  0.00    -0.072 N 
HETATM   20  C10 UNL     1      -4.198  28.865 -18.431  1.00  0.00     0.262 C 
ATOM     21  H62 UNL     1      -3.083  28.849 -16.693  1.00  0.00     0.277 HD
ATOM     22  H61 UNL     1      -4.278  27.901 -16.607  1.00  0.00     0.277 HD
HETATM   23  C11 UNL     1      -3.923  30.185 -19.049  1.00  0.00     0.300 C 
ENDBRANCH  15  16
ENDBRANCH  14  15
ENDBRANCH   1  14
BRANCH   1  24
HETATM   24  C12 UNL     1       0.036  32.859 -19.721  1.00  0.00     0.160 C 
BRANCH  24  25
HETATM   25  N7  UNL     1      -0.720  33.325 -20.866  1.00  0.00    -0.364 N 
HETATM   26  C13 UNL     1      -0.338  34.284 -21.618  1.00  0.00     0.197 C 
HETATM   27  N8  UNL     1       0.861  35.019 -21.447  1.00  0.00    -0.067 NA
HETATM   28  N9  UNL     1      -1.163  34.671 -22.728  1.00  0.00    -0.067 NA
ATOM     29  H7  UNL     1      -1.604  32.864 -21.082  1.00  0.00     0.161 HD
ENDBRANCH  24  25
ENDBRANCH   1  24
TORSDOF 10
ENDMDL
MODEL 2
REMARK VINA RESULT: -6.531502427      1.426      2.034
REMARK  10 active torsions:
REMARK  status: ('A' for Active; 'I' for Inactive)
REMARK    1  A    between atoms: N3_4  and  C2_6 
REMARK    2  A    between atoms: C2_6  and  C3_7 
REMARK    3  A    between atoms: C3_7  and  C4_8 
REMARK    4  A    between atoms: C4_8  and  C5_9 
REMARK    5  A    between atoms: C5_9  and  N4_10 
REMARK    6  A    between atoms: C5_9  and  C6_14 
REMARK    7  A    between atoms: C5_9  and  C12_24 
REMARK    8  A    between atoms: C6_14  and  C7_15 
REMARK    9  A    between atoms: C7_15  and  N5_16 
REMARK   10  A    between atoms: C12_24  and  N7_25 
ROOT
HETATM    1  C5  UNL     1      -1.414  32.196 -18.517  1.00  0.00     0.141 C 
ENDROOT
BRANCH   1   2
HETATM    2  C4  UNL     1      -0.294  31.617 -17.751  1.00  0.00     0.042 C 
BRANCH   2   3
HETATM    3  C3  UNL     1      -0.253  30.151 -17.547  1.00  0.00     0.022 C 
BRANCH   3   4
HETATM    4  C2  UNL     1      -0.044  29.658 -16.146  1.00  0.00     0.122 C 
BRANCH   4   5
HETATM    5  N3  UNL     1      -1.070  30.259 -15.323  1.00  0.00    -0.367 N 
HETATM    6  C1  UNL     1      -1.925  29.589 -14.645  1.00  0.00     0.196 C 
HETATM    7  N1  UNL     1      -2.896  30.246 -13.866  1.00  0.00    -0.067 NA
HETATM    8  N2  UNL     1      -1.889  28.179 -14.684  1.00  0.00    -0.067 NA
ATOM      9  H3  UNL     1      -1.116  31.277 -15.280  1.00  0.00     0.161 HD
ENDBRANCH   4   5
ENDBRANCH   3   4
ENDBRANCH   2   3
ENDBRANCH   1   2
BRANCH   1  10
HETATM   10  N4  UNL     1      -1.663  33.551 -18.088  1.00  0.00    -0.069 N 
ATOM     11  H43 UNL     1      -1.381  33.702 -17.120  1.00  0.00     0.275 HD
ATOM     12  H42 UNL     1      -1.030  34.214 -18.535  1.00  0.00     0.275 HD
ATOM     13  H41 UNL     1      -2.642  33.796 -18.243  1.00  0.00     0.275 HD
ENDBRANCH   1  10
BRANCH   1  14
HETATM   14  C6  UNL     1      -2.682  31.382 -18.477  1.00  0.00     0.070 C 
BRANCH  14  15
HETATM   15  C7  UNL     1      -3.900  32.185 -18.853  1.00  0.00     0.275 C 
BRANCH  15  16
HETATM   16  N5  UNL     1      -5.036  31.760 -18.057  1.00  0.00     0.091 N 
HETATM   17  C8  UNL     1      -6.246  32.447 -18.403  1.00  0.00     0.300 C 
HETATM   18  C9  UNL     1      -7.316  32.109 -17.388  1.00  0.00     0.262 C 
HETATM   19  N6  UNL     1      -6.897  32.707 -16.129  1.00  0.00    -0.072 N 
HETATM   20  C10 UNL     1      -5.746  31.968 -15.689  1.00  0.00     0.262 C 
ATOM     21  H62 UNL     1      -6.732  33.711 -16.194  1.00  0.00     0.277 HD
ATOM     22  H61 UNL     1      -7.641  32.746 -15.433  1.00  0.00     0.277 HD
HETATM   23  C11 UNL     1      -4.652  31.845 -16.684  1.00  0.00     0.300 C 
ENDBRANCH  15  16
ENDBRANCH  14  15
ENDBRANCH   1  14
BRANCH   1  24
HETATM   24  C12 UNL     1      -1.072  32.325 -20.015  1.00  0.00     0.160 C 
BRANCH  24  25
HETATM   25  N7  UNL     1      -0.072  33.365 -20.150  1.00  0.00    -0.364 N 
HETATM   26  C13 UNL     1      -0.003  34.147 -21.157  1.00  0.00     0.197 C 
HETATM   27  N8  UNL     1      -0.878  34.113 -22.270  1.00  0.00    -0.067 NA
HETATM   28  N9  UNL     1       1.028  35.146 -21.195  1.00  0.00    -0.067 NA
ATOM     29  H7  UNL     1       0.612  33.479 -19.401  1.00  0.00     0.161 HD
ENDBRANCH  24  25
ENDBRANCH   1  24
TORSDOF 10
ENDMDL
MODEL 3
REMARK VINA RESULT: -6.480376012      1.882      6.109
REMARK  10 active torsions:
REMARK  status: ('A' for Active; 'I' for Inactive)
REMARK    1  A    between atoms: N3_4  and  C2_6 
REMARK    2  A    between atoms: C2_6  and  C3_7 
REMARK    3  A    between atoms: C3_7  and  C4_8 
REMARK    4  A    between atoms: C4_8  and  C5_9 
REMARK    5  A    between atoms: C5_9  and  N4_10 
REMARK    6  A    between atoms: C5_9  and  C6_14 
REMARK    7  A    between atoms: C5_9  and  C12_24 
REMARK    8  A    between atoms: C6_14  and  C7_15 
REMARK    9  A    between atoms: C7_15  and  N5_16 
REMARK   10  A    between atoms: C12_24  and  N7_25 
ROOT
HETATM    1  C5  UNL     1      -2.701  32.523 -18.320  1.00  0.00     0.141 C 
ENDROOT
BRANCH   1   2
HETATM    2  C4  UNL     1      -1.460  32.574 -19.114  1.00  0.00     0.042 C 
BRANCH   2   3
HETATM    3  C3  UNL     1      -0.387  33.506 -18.699  1.00  0.00     0.022 C 
BRANCH   3   4
HETATM    4  C2  UNL     1       0.233  34.359 -19.765  1.00  0.00     0.122 C 
BRANCH   4   5
HETATM    5  N3  UNL     1      -0.582  34.219 -20.952  1.00  0.00    -0.367 N 
HETATM    6  C1  UNL     1      -0.364  34.851 -22.045  1.00  0.00     0.196 C 
HETATM    7  N1  UNL     1      -1.203  34.662 -23.160  1.00  0.00    -0.067 NA
HETATM    8  N2  UNL     1       0.726  35.743 -22.126  1.00  0.00    -0.067 NA
ATOM      9  H3  UNL     1      -1.376  33.580 -20.917  1.00  0.00     0.161 HD
ENDBRANCH   4   5
ENDBRANCH   3   4
ENDBRANCH   2   3
ENDBRANCH   1   2
BRANCH   1  10
HETATM   10  N4  UNL     1      -2.960  33.807 -17.713  1.00  0.00    -0.069 N 
ATOM     11  H43 UNL     1      -2.939  33.758 -16.695  1.00  0.00     0.275 HD
ATOM     12  H42 UNL     1      -2.184  34.455 -17.849  1.00  0.00     0.275 HD
ATOM     13  H41 UNL     1      -3.841  34.190 -18.058  1.00  0.00     0.275 HD
ENDBRANCH   1  10
BRANCH   1  14
HETATM   14  C6  UNL     1      -2.734  31.428 -17.285  1.00  0.00     0.070 C 
BRANCH  14  15
HETATM   15  C7  UNL     1      -1.949  30.212 -17.700  1.00  0.00     0.275 C 
BRANCH  15  16
HETATM   16  N5  UNL     1      -0.984  29.871 -16.672  1.00  0.00     0.091 N 
HETATM   17  C8  UNL     1       0.352  30.266 -17.010  1.00  0.00     0.300 C 
HETATM   18  C9  UNL     1       1.313  29.681 -15.997  1.00  0.00     0.262 C 
HETATM   19  N6  UNL     1       1.292  28.238 -16.190  1.00  0.00    -0.072 N 
HETATM   20  C10 UNL     1      -0.001  27.787 -15.753  1.00  0.00     0.262 C 
ATOM     21  H62 UNL     1       1.517  27.955 -17.143  1.00  0.00     0.277 HD
ATOM     22  H61 UNL     1       2.064  27.757 -15.729  1.00  0.00     0.277 HD
HETATM   23  C11 UNL     1      -1.157  28.487 -16.364  1.00  0.00     0.300 C 
ENDBRANCH  15  16
ENDBRANCH  14  15
ENDBRANCH   1  14
BRANCH   1  24
HETATM   24  C12 UNL     1      -3.935  32.265 -19.209  1.00  0.00     0.160 C 
BRANCH  24  25
HETATM   25  N7  UNL     1      -5.107  32.684 -18.467  1.00  0.00    -0.364 N 
HETATM   26  C13 UNL     1      -6.279  32.230 -18.691  1.00  0.00     0.197 C 
HETATM   27  N8  UNL     1      -6.599  31.266 -19.678  1.00  0.00    -0.067 NA
HETATM   28  N9  UNL     1      -7.377  32.712 -17.900  1.00  0.00    -0.067 NA
ATOM     29  H7  UNL     1      -4.990  33.378 -17.729  1.00  0.00     0.161 HD
ENDBRANCH  24  25
ENDBRANCH   1  24
TORSDOF 10
ENDMDL
MODEL 4
REMARK VINA RESULT: -6.454328555      0.882      1.157
REMARK  10 active torsions:
REMARK  status: ('A' for Active; 'I' for Inactive)
REMARK    1  A    between atoms: N3_4  and  C2_6 
REMARK    2  A    between atoms: C2_6  and  C3_7 
REMARK    3  A    between atoms: C3_7  and  C4_8 
REMARK    4  A    between atoms: C4_8  and  C5_9 
REMARK    5  A    between atoms: C5_9  and  N4_10 
REMARK    6  A    between atoms: C5_9  and  C6_14 
REMARK    7  A    between atoms: C5_9  and  C12_24 
REMARK    8  A    between atoms: C6_14  and  C7_15 
REMARK    9  A    between atoms: C7_15  and  N5_16 
REMARK   10  A    between atoms: C12_24  and  N7_25 
ROOT
HETATM    1  C5  UNL     1      -1.111  31.964 -18.399  1.00  0.00     0.141 C 
ENDROOT
BRANCH   1   2
HETATM    2  C4  UNL     1      -0.607  30.616 -18.080  1.00  0.00     0.042 C 
BRANCH   2   3
HETATM    3  C3  UNL     1       0.413  30.469 -17.017  1.00  0.00     0.022 C 
BRANCH   3   4
HETATM    4  C2  UNL     1       0.098  29.536 -15.886  1.00  0.00     0.122 C 
BRANCH   4   5
HETATM    5  N3  UNL     1      -1.051  30.076 -15.193  1.00  0.00    -0.367 N 
HETATM    6  C1  UNL     1      -2.099  29.396 -14.911  1.00  0.00     0.196 C 
HETATM    7  N1  UNL     1      -3.179  29.992 -14.233  1.00  0.00    -0.067 NA
HETATM    8  N2  UNL     1      -2.166  28.037 -15.287  1.00  0.00    -0.067 NA
ATOM      9  H3  UNL     1      -1.026  31.056 -14.912  1.00  0.00     0.161 HD
ENDBRANCH   4   5
ENDBRANCH   3   4
ENDBRANCH   2   3
ENDBRANCH   1   2
BRANCH   1  10
HETATM   10  N4  UNL     1      -0.271  32.968 -17.791  1.00  0.00    -0.069 N 
ATOM     11  H43 UNL     1       0.713  32.829 -18.018  1.00  0.00     0.275 HD
ATOM     12  H42 UNL     1      -0.397  33.883 -18.225  1.00  0.00     0.275 HD
ATOM     13  H41 UNL     1      -0.430  32.999 -16.784  1.00  0.00     0.275 HD
ENDBRANCH   1  10
BRANCH   1  14
HETATM   14  C6  UNL     1      -2.557  32.190 -18.041  1.00  0.00     0.070 C 
BRANCH  14  15
HETATM   15  C7  UNL     1      -3.499  31.800 -19.149  1.00  0.00     0.275 C 
BRANCH  15  16
HETATM   16  N5  UNL     1      -4.518  30.902 -18.639  1.00  0.00     0.091 N 
HETATM   17  C8  UNL     1      -4.908  31.210 -17.294  1.00  0.00     0.300 C 
HETATM   18  C9  UNL     1      -5.799  30.104 -16.771  1.00  0.00     0.262 C 
HETATM   19  N6  UNL     1      -4.962  28.918 -16.653  1.00  0.00    -0.072 N 
HETATM   20  C10 UNL     1      -4.641  28.510 -17.992  1.00  0.00     0.262 C 
ATOM     21  H62 UNL     1      -4.141  29.061 -16.066  1.00  0.00     0.277 HD
ATOM     22  H61 UNL     1      -5.388  28.177 -16.096  1.00  0.00     0.277 HD
HETATM   23  C11 UNL     1      -4.059  29.567 -18.856  1.00  0.00     0.300 C 
ENDBRANCH  15  16
ENDBRANCH  14  15
ENDBRANCH   1  14
BRANCH   1  24
HETATM   24  C12 UNL     1      -1.027  32.259 -19.911  1.00  0.00     0.160 C 
BRANCH  24  25
HETATM   25  N7  UNL     1      -0.049  33.312 -20.100  1.00  0.00    -0.364 N 
HETATM   26  C13 UNL     1      -0.012  34.059 -21.134  1.00  0.00     0.197 C 
HETATM   27  N8  UNL     1      -0.907  33.972 -22.228  1.00  0.00    -0.067 NA
HETATM   28  N9  UNL     1       0.999  35.075 -21.225  1.00  0.00    -0.067 NA
ATOM     29  H7  UNL     1       0.646  33.463 -19.369  1.00  0.00     0.161 HD
ENDBRANCH  24  25
ENDBRANCH   1  24
TORSDOF 10
ENDMDL
MODEL 5
REMARK VINA RESULT: -6.342865326      1.580      5.688
REMARK  10 active torsions:
REMARK  status: ('A' for Active; 'I' for Inactive)
REMARK    1  A    between atoms: N3_4  and  C2_6 
REMARK    2  A    between atoms: C2_6  and  C3_7 
REMARK    3  A    between atoms: C3_7  and  C4_8 
REMARK    4  A    between atoms: C4_8  and  C5_9 
REMARK    5  A    between atoms: C5_9  and  N4_10 
REMARK    6  A    between atoms: C5_9  and  C6_14 
REMARK    7  A    between atoms: C5_9  and  C12_24 
REMARK    8  A    between atoms: C6_14  and  C7_15 
REMARK    9  A    between atoms: C7_15  and  N5_16 
REMARK   10  A    between atoms: C12_24  and  N7_25 
ROOT
HETATM    1  C5  UNL     1      -2.267  31.540 -18.104  1.00  0.00     0.141 C 
ENDROOT
BRANCH   1   2
HETATM    2  C4  UNL     1      -1.120  31.906 -18.955  1.00  0.00     0.042 C 
BRANCH   2   3
HETATM    3  C3  UNL     1      -0.118  32.860 -18.429  1.00  0.00     0.022 C 
BRANCH   3   4
HETATM    4  C2  UNL     1       0.037  34.164 -19.153  1.00  0.00     0.122 C 
BRANCH   4   5
HETATM    5  N3  UNL     1      -0.698  34.053 -20.395  1.00  0.00    -0.367 N 
HETATM    6  C1  UNL     1      -0.281  34.514 -21.514  1.00  0.00     0.196 C 
HETATM    7  N1  UNL     1      -1.054  34.368 -22.682  1.00  0.00    -0.067 NA
HETATM    8  N2  UNL     1       0.965  35.174 -21.572  1.00  0.00    -0.067 NA
ATOM      9  H3  UNL     1      -1.601  33.581 -20.377  1.00  0.00     0.161 HD
ENDBRANCH   4   5
ENDBRANCH   3   4
ENDBRANCH   2   3
ENDBRANCH   1   2
BRANCH   1  10
HETATM   10  N4  UNL     1      -2.888  32.726 -17.565  1.00  0.00    -0.069 N 
ATOM     11  H43 UNL     1      -2.422  33.047 -16.716  1.00  0.00     0.275 HD
ATOM     12  H42 UNL     1      -2.716  33.545 -18.149  1.00  0.00     0.275 HD
ATOM     13  H41 UNL     1      -3.884  32.567 -17.416  1.00  0.00     0.275 HD
ENDBRANCH   1  10
BRANCH   1  14
HETATM   14  C6  UNL     1      -1.940  30.563 -17.005  1.00  0.00     0.070 C 
BRANCH  14  15
HETATM   15  C7  UNL     1      -3.051  29.577 -16.753  1.00  0.00     0.275 C 
BRANCH  15  16
HETATM   16  N5  UNL     1      -3.524  29.703 -15.388  1.00  0.00     0.091 N 
HETATM   17  C8  UNL     1      -4.508  30.734 -15.232  1.00  0.00     0.300 C 
HETATM   18  C9  UNL     1      -4.778  30.944 -13.758  1.00  0.00     0.262 C 
HETATM   19  N6  UNL     1      -3.561  31.503 -13.189  1.00  0.00    -0.072 N 
HETATM   20  C10 UNL     1      -2.576  30.457 -13.223  1.00  0.00     0.262 C 
ATOM     21  H62 UNL     1      -3.256  32.360 -13.650  1.00  0.00     0.277 HD
ATOM     22  H61 UNL     1      -3.695  31.901 -12.259  1.00  0.00     0.277 HD
HETATM   23  C11 UNL     1      -2.376  29.817 -14.546  1.00  0.00     0.300 C 
ENDBRANCH  15  16
ENDBRANCH  14  15
ENDBRANCH   1  14
BRANCH   1  24
HETATM   24  C12 UNL     1      -3.386  30.860 -18.920  1.00  0.00     0.160 C 
BRANCH  24  25
HETATM   25  N7  UNL     1      -4.520  31.763 -18.948  1.00  0.00    -0.364 N 
HETATM   26  C13 UNL     1      -5.725  31.381 -18.772  1.00  0.00     0.197 C 
HETATM   27  N8  UNL     1      -6.124  30.045 -18.526  1.00  0.00    -0.067 NA
HETATM   28  N9  UNL     1      -6.779  32.356 -18.821  1.00  0.00    -0.067 NA
ATOM     29  H7  UNL     1      -4.345  32.753 -19.118  1.00  0.00     0.161 HD
ENDBRANCH  24  25
ENDBRANCH   1  24
TORSDOF 10
ENDMDL
