MODEL 1
REMARK VINA RESULT: -6.570283847      0.000      0.000
REMARK  13 active torsions:
REMARK  status: ('A' for Active; 'I' for Inactive)
REMARK    1  A    between atoms: C1_2  and  C2_4 
REMARK    2  A    between atoms: C2_4  and  N3_6 
REMARK    3  A    between atoms: N3_6  and  C3_7 
REMARK    4  A    between atoms: C3_7  and  C4_8 
REMARK    5  A    between atoms: C4_8  and  C5_9 
REMARK    6  A    between atoms: C5_9  and  C6_10 
REMARK    7  A    between atoms: C6_10  and  C7_11 
REMARK    8  A    between atoms: C7_11  and  C8_12 
REMARK    9  A    between atoms: C8_12  and  N4_13 
REMARK   10  A    between atoms: C10_20  and  N7_21 
REMARK   11  A    between atoms: N7_21  and  C11_23 
REMARK   12  A    between atoms: C11_23  and  C12_24 
REMARK   13  A    between atoms: C12_24  and  O2_25 
ROOT
HETATM    1  N4  UNL     1      -0.671  31.578 -17.339  1.00  0.00    -0.224 N 
ATOM      2  H4  UNL     1      -0.967  31.832 -16.397  1.00  0.00     0.177 HD
HETATM    3  C9  UNL     1      -0.708  32.490 -18.259  1.00  0.00     0.707 A 
HETATM    4  N5  UNL     1      -1.124  33.733 -17.990  1.00  0.00    -0.117 N 
ATOM      5  H5  UNL     1      -1.440  34.082 -17.085  1.00  0.00     0.206 HD
HETATM    6  N6  UNL     1      -1.049  34.429 -19.125  1.00  0.00    -0.117 N 
ATOM      7  H6  UNL     1      -1.303  35.413 -19.219  1.00  0.00     0.206 HD
HETATM    8  C10 UNL     1      -0.594  33.662 -20.129  1.00  0.00     0.711 A 
HETATM    9  N8  UNL     1      -0.389  32.432 -19.529  1.00  0.00    -0.020 N 
ATOM     10  H8  UNL     1      -0.041  31.601 -20.005  1.00  0.00     0.203 HD
ENDROOT
BRANCH   1  11
HETATM   11  C8  UNL     1      -0.233  30.225 -17.575  1.00  0.00     0.138 C 
BRANCH  11  12
HETATM   12  C7  UNL     1       0.168  29.650 -16.235  1.00  0.00     0.020 C 
BRANCH  12  13
HETATM   13  C6  UNL     1      -0.741  28.498 -15.905  1.00  0.00     0.002 C 
BRANCH  13  14
HETATM   14  C5  UNL     1      -1.811  28.256 -16.908  1.00  0.00     0.006 C 
BRANCH  14  15
HETATM   15  C4  UNL     1      -3.216  28.236 -16.369  1.00  0.00     0.059 C 
BRANCH  15  16
HETATM   16  C3  UNL     1      -3.551  29.680 -15.946  1.00  0.00     0.157 C 
BRANCH  16  17
HETATM   17  N3  UNL     1      -3.769  30.574 -16.899  1.00  0.00    -0.402 NA
BRANCH  17  18
HETATM   18  C2  UNL     1      -4.187  31.401 -17.617  1.00  0.00     0.253 C 
HETATM   19  N2  UNL     1      -4.974  32.500 -17.047  1.00  0.00    -0.062 NA
BRANCH  18  20
HETATM   20  C1  UNL     1      -4.013  31.477 -19.066  1.00  0.00     0.309 C 
HETATM   21  N1  UNL     1      -4.195  30.365 -19.934  1.00  0.00    -0.054 NA
HETATM   22  O1  UNL     1      -3.681  32.597 -19.600  1.00  0.00    -0.267 OA
ENDBRANCH  18  20
ENDBRANCH  17  18
ENDBRANCH  16  17
ENDBRANCH  15  16
ENDBRANCH  14  15
ENDBRANCH  13  14
ENDBRANCH  12  13
ENDBRANCH  11  12
ENDBRANCH   1  11
BRANCH   8  23
HETATM   23  N7  UNL     1      -0.356  33.856 -21.352  1.00  0.00    -0.202 N 
ATOM     24  H7  UNL     1      -0.149  32.986 -21.843  1.00  0.00     0.183 HD
BRANCH  23  25
HETATM   25  C11 UNL     1      -0.304  34.950 -22.196  1.00  0.00     0.105 C 
BRANCH  25  26
HETATM   26  C12 UNL     1      -1.441  35.113 -23.152  1.00  0.00     0.209 C 
BRANCH  26  27
HETATM   27  O2  UNL     1      -1.334  34.080 -24.120  1.00  0.00    -0.396 OA
ATOM     28  H2  UNL     1      -0.731  34.380 -24.790  1.00  0.00     0.209 HD
ENDBRANCH  26  27
ENDBRANCH  25  26
ENDBRANCH  23  25
ENDBRANCH   8  23
TORSDOF 13
ENDMDL
MODEL 2
REMARK VINA RESULT: -6.515453484      1.812      1.992
REMARK  13 active torsions:
REMARK  status: ('A' for Active; 'I' for Inactive)
REMARK    1  A    between atoms: C1_2  and  C2_4 
REMARK    2  A    between atoms: C2_4  and  N3_6 
REMARK    3  A    between atoms: N3_6  and  C3_7 
REMARK    4  A    between atoms: C3_7  and  C4_8 
REMARK    5  A    between atoms: C4_8  and  C5_9 
REMARK    6  A    between atoms: C5_9  and  C6_10 
REMARK    7  A    between atoms: C6_10  and  C7_11 
REMARK    8  A    between atoms: C7_11  and  C8_12 
REMARK    9  A    between atoms: C8_12  and  N4_13 
REMARK   10  A    between atoms: C10_20  and  N7_21 
REMARK   11  A    between atoms: N7_21  and  C11_23 
REMARK   12  A    between atoms: C11_23  and  C12_24 
REMARK   13  A    between atoms: C12_24  and  O2_25 
ROOT
HETATM    1  N4  UNL     1      -0.952  31.329 -17.271  1.00  0.00    -0.224 N 
ATOM      2  H4  UNL     1      -1.563  31.326 -16.454  1.00  0.00     0.177 HD
HETATM    3  C9  UNL     1      -0.985  32.358 -18.058  1.00  0.00     0.707 A 
HETATM    4  N5  UNL     1      -1.798  33.393 -17.815  1.00  0.00    -0.117 N 
ATOM      5  H5  UNL     1      -2.443  33.483 -17.031  1.00  0.00     0.206 HD
HETATM    6  N6  UNL     1      -1.605  34.283 -18.789  1.00  0.00    -0.117 N 
ATOM      7  H6  UNL     1      -2.092  35.177 -18.861  1.00  0.00     0.206 HD
HETATM    8  C10 UNL     1      -0.685  33.846 -19.663  1.00  0.00     0.711 A 
HETATM    9  N8  UNL     1      -0.317  32.613 -19.155  1.00  0.00    -0.020 N 
ATOM     10  H8  UNL     1       0.375  31.992 -19.574  1.00  0.00     0.203 HD
ENDROOT
BRANCH   1  11
HETATM   11  C8  UNL     1      -0.098  30.187 -17.486  1.00  0.00     0.138 C 
BRANCH  11  12
HETATM   12  C7  UNL     1       0.207  29.600 -16.126  1.00  0.00     0.020 C 
BRANCH  12  13
HETATM   13  C6  UNL     1      -0.696  28.421 -15.889  1.00  0.00     0.002 C 
BRANCH  13  14
HETATM   14  C5  UNL     1      -1.873  28.715 -15.030  1.00  0.00     0.006 C 
BRANCH  14  15
HETATM   15  C4  UNL     1      -3.177  28.121 -15.487  1.00  0.00     0.059 C 
BRANCH  15  16
HETATM   16  C3  UNL     1      -3.208  28.243 -17.023  1.00  0.00     0.157 C 
BRANCH  16  17
HETATM   17  N3  UNL     1      -3.701  29.354 -17.550  1.00  0.00    -0.402 NA
BRANCH  17  18
HETATM   18  C2  UNL     1      -3.980  30.455 -17.845  1.00  0.00     0.253 C 
HETATM   19  N2  UNL     1      -4.240  31.427 -16.778  1.00  0.00    -0.062 NA
BRANCH  18  20
HETATM   20  C1  UNL     1      -4.105  30.998 -19.195  1.00  0.00     0.309 C 
HETATM   21  N1  UNL     1      -4.195  32.390 -19.472  1.00  0.00    -0.054 NA
HETATM   22  O1  UNL     1      -4.136  30.192 -20.194  1.00  0.00    -0.267 OA
ENDBRANCH  18  20
ENDBRANCH  17  18
ENDBRANCH  16  17
ENDBRANCH  15  16
ENDBRANCH  14  15
ENDBRANCH  13  14
ENDBRANCH  12  13
ENDBRANCH  11  12
ENDBRANCH   1  11
BRANCH   8  23
HETATM   23  N7  UNL     1      -0.175  34.313 -20.718  1.00  0.00    -0.202 N 
ATOM     24  H7  UNL     1      -0.735  34.093 -21.542  1.00  0.00     0.183 HD
BRANCH  23  25
HETATM   25  C11 UNL     1       0.951  35.045 -21.041  1.00  0.00     0.105 C 
BRANCH  25  26
HETATM   26  C12 UNL     1       1.892  35.355 -19.922  1.00  0.00     0.209 C 
BRANCH  26  27
HETATM   27  O2  UNL     1       1.642  36.692 -19.513  1.00  0.00    -0.396 OA
ATOM     28  H2  UNL     1       2.044  36.808 -18.661  1.00  0.00     0.209 HD
ENDBRANCH  26  27
ENDBRANCH  25  26
ENDBRANCH  23  25
ENDBRANCH   8  23
TORSDOF 13
ENDMDL
MODEL 3
REMARK VINA RESULT: -6.397652510      3.052      5.162
REMARK  13 active torsions:
REMARK  status: ('A' for Active; 'I' for Inactive)
REMARK    1  A    between atoms: C1_2  and  C2_4 
REMARK    2  A    between atoms: C2_4  and  N3_6 
REMARK    3  A    between atoms: N3_6  and  C3_7 
REMARK    4  A    between atoms: C3_7  and  C4_8 
REMARK    5  A    between atoms: C4_8  and  C5_9 
REMARK    6  A    between atoms: C5_9  and  C6_10 
REMARK    7  A    between atoms: C6_10  and  C7_11 
REMARK    8  A    between atoms: C7_11  and  C8_12 
REMARK    9  A    between atoms: C8_12  and  N4_13 
REMARK   10  A    between atoms: C10_20  and  N7_21 
REMARK   11  A    between atoms: N7_21  and  C11_23 
REMARK   12  A    between atoms: C11_23  and  C12_24 
REMARK   13  A    between atoms: C12_24  and  O2_25 
ROOT
HETATM    1  N4  UNL     1      -4.328  31.528 -14.934  1.00  0.00    -0.224 N 
ATOM      2  H4  UNL     1      -3.424  31.900 -14.642  1.00  0.00     0.177 HD
HETATM    3  C9  UNL     1      -4.948  32.119 -15.906  1.00  0.00     0.707 A 
HETATM    4  N5  UNL     1      -4.426  33.189 -16.516  1.00  0.00    -0.117 N 
ATOM      5  H5  UNL     1      -3.535  33.635 -16.297  1.00  0.00     0.206 HD
HETATM    6  N6  UNL     1      -5.288  33.565 -17.462  1.00  0.00    -0.117 N 
ATOM      7  H6  UNL     1      -5.150  34.357 -18.090  1.00  0.00     0.206 HD
HETATM    8  C10 UNL     1      -6.363  32.761 -17.478  1.00  0.00     0.711 A 
HETATM    9  N8  UNL     1      -6.101  31.852 -16.467  1.00  0.00    -0.020 N 
ATOM     10  H8  UNL     1      -6.717  31.085 -16.199  1.00  0.00     0.203 HD
ENDROOT
BRANCH   1  11
HETATM   11  C8  UNL     1      -4.845  30.374 -14.242  1.00  0.00     0.138 C 
BRANCH  11  12
HETATM   12  C7  UNL     1      -3.692  29.762 -13.479  1.00  0.00     0.020 C 
BRANCH  12  13
HETATM   13  C6  UNL     1      -2.411  30.053 -14.212  1.00  0.00     0.002 C 
BRANCH  13  14
HETATM   14  C5  UNL     1      -1.872  28.902 -14.982  1.00  0.00     0.006 C 
BRANCH  14  15
HETATM   15  C4  UNL     1      -2.103  28.946 -16.467  1.00  0.00     0.059 C 
BRANCH  15  16
HETATM   16  C3  UNL     1      -1.535  30.290 -16.966  1.00  0.00     0.157 C 
BRANCH  16  17
HETATM   17  N3  UNL     1      -2.177  30.914 -17.942  1.00  0.00    -0.402 NA
BRANCH  17  18
HETATM   18  C2  UNL     1      -2.916  31.272 -18.779  1.00  0.00     0.253 C 
HETATM   19  N2  UNL     1      -2.760  32.622 -19.330  1.00  0.00    -0.062 NA
BRANCH  18  20
HETATM   20  C1  UNL     1      -4.016  30.509 -19.366  1.00  0.00     0.309 C 
HETATM   21  N1  UNL     1      -5.280  31.078 -19.682  1.00  0.00    -0.054 NA
HETATM   22  O1  UNL     1      -3.850  29.260 -19.615  1.00  0.00    -0.267 OA
ENDBRANCH  18  20
ENDBRANCH  17  18
ENDBRANCH  16  17
ENDBRANCH  15  16
ENDBRANCH  14  15
ENDBRANCH  13  14
ENDBRANCH  12  13
ENDBRANCH  11  12
ENDBRANCH   1  11
BRANCH   8  23
HETATM   23  N7  UNL     1      -7.418  32.708 -18.167  1.00  0.00    -0.202 N 
ATOM     24  H7  UNL     1      -7.404  33.375 -18.939  1.00  0.00     0.183 HD
BRANCH  23  25
HETATM   25  C11 UNL     1      -8.589  31.975 -18.140  1.00  0.00     0.105 C 
BRANCH  25  26
HETATM   26  C12 UNL     1      -8.573  30.659 -18.848  1.00  0.00     0.209 C 
BRANCH  26  27
HETATM   27  O2  UNL     1      -8.441  30.925 -20.236  1.00  0.00    -0.396 OA
ATOM     28  H2  UNL     1      -9.279  30.739 -20.642  1.00  0.00     0.209 HD
ENDBRANCH  26  27
ENDBRANCH  25  26
ENDBRANCH  23  25
ENDBRANCH   8  23
TORSDOF 13
ENDMDL
MODEL 4
REMARK VINA RESULT: -6.332810881      2.306      4.021
REMARK  13 active torsions:
REMARK  status: ('A' for Active; 'I' for Inactive)
REMARK    1  A    between atoms: C1_2  and  C2_4 
REMARK    2  A    between atoms: C2_4  and  N3_6 
REMARK    3  A    between atoms: N3_6  and  C3_7 
REMARK    4  A    between atoms: C3_7  and  C4_8 
REMARK    5  A    between atoms: C4_8  and  C5_9 
REMARK    6  A    between atoms: C5_9  and  C6_10 
REMARK    7  A    between atoms: C6_10  and  C7_11 
REMARK    8  A    between atoms: C7_11  and  C8_12 
REMARK    9  A    between atoms: C8_12  and  N4_13 
REMARK   10  A    between atoms: C10_20  and  N7_21 
REMARK   11  A    between atoms: N7_21  and  C11_23 
REMARK   12  A    between atoms: C11_23  and  C12_24 
REMARK   13  A    between atoms: C12_24  and  O2_25 
ROOT
HETATM    1  N4  UNL     1      -5.665  32.983 -15.883  1.00  0.00    -0.224 N 
ATOM      2  H4  UNL     1      -5.964  33.808 -15.363  1.00  0.00     0.177 HD
HETATM    3  C9  UNL     1      -4.654  33.097 -16.685  1.00  0.00     0.707 A 
HETATM    4  N5  UNL     1      -4.014  34.263 -16.835  1.00  0.00    -0.117 N 
ATOM      5  H5  UNL     1      -4.237  35.140 -16.365  1.00  0.00     0.206 HD
HETATM    6  N6  UNL     1      -3.032  34.064 -17.716  1.00  0.00    -0.117 N 
ATOM      7  H6  UNL     1      -2.376  34.782 -18.023  1.00  0.00     0.206 HD
HETATM    8  C10 UNL     1      -3.021  32.791 -18.143  1.00  0.00     0.711 A 
HETATM    9  N8  UNL     1      -4.075  32.212 -17.458  1.00  0.00    -0.020 N 
ATOM     10  H8  UNL     1      -4.359  31.236 -17.541  1.00  0.00     0.203 HD
ENDROOT
BRANCH   1  11
HETATM   11  C8  UNL     1      -6.391  31.753 -15.685  1.00  0.00     0.138 C 
BRANCH  11  12
HETATM   12  C7  UNL     1      -6.046  31.254 -14.299  1.00  0.00     0.020 C 
BRANCH  12  13
HETATM   13  C6  UNL     1      -5.006  30.173 -14.413  1.00  0.00     0.002 C 
BRANCH  13  14
HETATM   14  C5  UNL     1      -3.650  30.579 -13.961  1.00  0.00     0.006 C 
BRANCH  14  15
HETATM   15  C4  UNL     1      -2.540  29.619 -14.290  1.00  0.00     0.059 C 
BRANCH  15  16
HETATM   16  C3  UNL     1      -1.964  30.054 -15.653  1.00  0.00     0.157 C 
BRANCH  16  17
HETATM   17  N3  UNL     1      -2.438  29.471 -16.743  1.00  0.00    -0.402 NA
BRANCH  17  18
HETATM   18  C2  UNL     1      -2.874  28.745 -17.555  1.00  0.00     0.253 C 
HETATM   19  N2  UNL     1      -2.228  27.444 -17.760  1.00  0.00    -0.062 NA
BRANCH  18  20
HETATM   20  C1  UNL     1      -4.027  28.985 -18.421  1.00  0.00     0.309 C 
HETATM   21  N1  UNL     1      -5.336  28.516 -18.126  1.00  0.00    -0.054 NA
HETATM   22  O1  UNL     1      -3.867  29.652 -19.506  1.00  0.00    -0.267 OA
ENDBRANCH  18  20
ENDBRANCH  17  18
ENDBRANCH  16  17
ENDBRANCH  15  16
ENDBRANCH  14  15
ENDBRANCH  13  14
ENDBRANCH  12  13
ENDBRANCH  11  12
ENDBRANCH   1  11
BRANCH   8  23
HETATM   23  N7  UNL     1      -2.309  32.135 -18.950  1.00  0.00    -0.202 N 
ATOM     24  H7  UNL     1      -2.871  31.543 -19.562  1.00  0.00     0.183 HD
BRANCH  23  25
HETATM   25  C11 UNL     1      -0.958  32.014 -19.214  1.00  0.00     0.105 C 
BRANCH  25  26
HETATM   26  C12 UNL     1      -0.306  33.162 -19.915  1.00  0.00     0.209 C 
BRANCH  26  27
HETATM   27  O2  UNL     1      -1.129  33.507 -21.020  1.00  0.00    -0.396 OA
ATOM     28  H2  UNL     1      -1.745  32.795 -21.149  1.00  0.00     0.209 HD
ENDBRANCH  26  27
ENDBRANCH  25  26
ENDBRANCH  23  25
ENDBRANCH   8  23
TORSDOF 13
ENDMDL
MODEL 5
REMARK VINA RESULT: -6.331746164      3.117      5.191
REMARK  13 active torsions:
REMARK  status: ('A' for Active; 'I' for Inactive)
REMARK    1  A    between atoms: C1_2  and  C2_4 
REMARK    2  A    between atoms: C2_4  and  N3_6 
REMARK    3  A    between atoms: N3_6  and  C3_7 
REMARK    4  A    between atoms: C3_7  and  C4_8 
REMARK    5  A    between atoms: C4_8  and  C5_9 
REMARK    6  A    between atoms: C5_9  and  C6_10 
REMARK    7  A    between atoms: C6_10  and  C7_11 
REMARK    8  A    between atoms: C7_11  and  C8_12 
REMARK    9  A    between atoms: C8_12  and  N4_13 
REMARK   10  A    between atoms: C10_20  and  N7_21 
REMARK   11  A    between atoms: N7_21  and  C11_23 
REMARK   12  A    between atoms: C11_23  and  C12_24 
REMARK   13  A    between atoms: C12_24  and  O2_25 
ROOT
HETATM    1  N4  UNL     1      -4.442  31.621 -14.843  1.00  0.00    -0.224 N 
ATOM      2  H4  UNL     1      -3.575  32.029 -14.493  1.00  0.00     0.177 HD
HETATM    3  C9  UNL     1      -5.009  32.172 -15.869  1.00  0.00     0.707 A 
HETATM    4  N5  UNL     1      -4.480  33.250 -16.460  1.00  0.00    -0.117 N 
ATOM      5  H5  UNL     1      -3.623  33.730 -16.186  1.00  0.00     0.206 HD
HETATM    6  N6  UNL     1      -5.282  33.579 -17.474  1.00  0.00    -0.117 N 
ATOM      7  H6  UNL     1      -5.125  34.365 -18.105  1.00  0.00     0.206 HD
HETATM    8  C10 UNL     1      -6.326  32.737 -17.552  1.00  0.00     0.711 A 
HETATM    9  N8  UNL     1      -6.109  31.856 -16.507  1.00  0.00    -0.020 N 
ATOM     10  H8  UNL     1      -6.716  31.073 -16.269  1.00  0.00     0.203 HD
ENDROOT
BRANCH   1  11
HETATM   11  C8  UNL     1      -4.970  30.461 -14.168  1.00  0.00     0.138 C 
BRANCH  11  12
HETATM   12  C7  UNL     1      -3.845  29.882 -13.339  1.00  0.00     0.020 C 
BRANCH  12  13
HETATM   13  C6  UNL     1      -3.083  28.889 -14.174  1.00  0.00     0.002 C 
BRANCH  13  14
HETATM   14  C5  UNL     1      -1.784  29.393 -14.688  1.00  0.00     0.006 C 
BRANCH  14  15
HETATM   15  C4  UNL     1      -1.158  28.578 -15.787  1.00  0.00     0.059 C 
BRANCH  15  16
HETATM   16  C3  UNL     1      -1.033  29.505 -17.013  1.00  0.00     0.157 C 
BRANCH  16  17
HETATM   17  N3  UNL     1      -2.122  29.744 -17.727  1.00  0.00    -0.402 NA
BRANCH  17  18
HETATM   18  C2  UNL     1      -3.195  29.998 -18.127  1.00  0.00     0.253 C 
HETATM   19  N2  UNL     1      -4.354  29.353 -17.500  1.00  0.00    -0.062 NA
BRANCH  18  20
HETATM   20  C1  UNL     1      -3.534  30.915 -19.213  1.00  0.00     0.309 C 
HETATM   21  N1  UNL     1      -3.135  32.279 -19.237  1.00  0.00    -0.054 NA
HETATM   22  O1  UNL     1      -4.226  30.482 -20.205  1.00  0.00    -0.267 OA
ENDBRANCH  18  20
ENDBRANCH  17  18
ENDBRANCH  16  17
ENDBRANCH  15  16
ENDBRANCH  14  15
ENDBRANCH  13  14
ENDBRANCH  12  13
ENDBRANCH  11  12
ENDBRANCH   1  11
BRANCH   8  23
HETATM   23  N7  UNL     1      -7.325  32.636 -18.314  1.00  0.00    -0.202 N 
ATOM     24  H7  UNL     1      -7.232  33.220 -19.145  1.00  0.00     0.183 HD
BRANCH  23  25
HETATM   25  C11 UNL     1      -8.514  31.932 -18.309  1.00  0.00     0.105 C 
BRANCH  25  26
HETATM   26  C12 UNL     1      -8.498  30.581 -18.946  1.00  0.00     0.209 C 
BRANCH  26  27
HETATM   27  O2  UNL     1      -8.530  30.774 -20.352  1.00  0.00    -0.396 OA
ATOM     28  H2  UNL     1      -7.653  30.615 -20.681  1.00  0.00     0.209 HD
ENDBRANCH  26  27
ENDBRANCH  25  26
ENDBRANCH  23  25
ENDBRANCH   8  23
TORSDOF 13
ENDMDL
