MODEL 1
REMARK VINA RESULT: -6.114433076      0.000      0.000
REMARK  12 active torsions:
REMARK  status: ('A' for Active; 'I' for Inactive)
REMARK    1  A    between atoms: N3_4  and  C2_6 
REMARK    2  A    between atoms: C3_7  and  O1_8 
REMARK    3  A    between atoms: C4_10  and  C5_11 
REMARK    4  A    between atoms: C5_11  and  O2_12 
REMARK    5  A    between atoms: N4_14  and  C6_15 
REMARK    6  A    between atoms: C6_15  and  C7_16 
REMARK    7  A    between atoms: C7_16  and  C8_17 
REMARK    8  A    between atoms: C8_17  and  C9_18 
REMARK    9  A    between atoms: C9_18  and  C10_19 
REMARK   10  A    between atoms: C10_19  and  C11_20 
REMARK   11  A    between atoms: C11_20  and  O3_21 
REMARK   12  A    between atoms: C12_23  and  C13_24 
ROOT
HETATM    1  C2  UNL     1      -1.130  31.895 -18.243  1.00  0.00     0.144 C 
HETATM    2  C3  UNL     1      -2.577  32.243 -18.390  1.00  0.00     0.168 C 
HETATM    3  C4  UNL     1      -3.343  30.999 -18.032  1.00  0.00     0.138 C 
HETATM    4  N4  UNL     1      -2.494  30.297 -17.112  1.00  0.00    -0.371 N 
HETATM    5  C12 UNL     1      -1.161  30.702 -17.280  1.00  0.00     0.170 C 
ENDROOT
BRANCH   4   6
HETATM    6  C6  UNL     1      -2.818  28.947 -16.926  1.00  0.00     0.060 C 
BRANCH   6   7
HETATM    7  C7  UNL     1      -3.390  28.610 -15.617  1.00  0.00     0.044 C 
BRANCH   7   8
HETATM    8  C8  UNL     1      -2.590  28.694 -14.382  1.00  0.00     0.005 C 
BRANCH   8   9
HETATM    9  C9  UNL     1      -3.196  28.506 -13.047  1.00  0.00     0.002 C 
BRANCH   9  10
HETATM   10  C10 UNL     1      -3.286  29.718 -12.177  1.00  0.00     0.026 C 
BRANCH  10  11
HETATM   11  C11 UNL     1      -4.317  30.707 -12.774  1.00  0.00     0.164 C 
BRANCH  11  12
HETATM   12  O3  UNL     1      -3.665  31.843 -13.225  1.00  0.00    -0.401 OA
ATOM     13  H3  UNL     1      -4.222  32.308 -13.838  1.00  0.00     0.209 HD
ENDBRANCH  11  12
ENDBRANCH  10  11
ENDBRANCH   9  10
ENDBRANCH   8   9
ENDBRANCH   7   8
ENDBRANCH   6   7
ENDBRANCH   4   6
BRANCH   3  14
HETATM   14  C5  UNL     1      -3.825  30.302 -19.226  1.00  0.00     0.192 C 
BRANCH  14  15
HETATM   15  O2  UNL     1      -5.048  30.913 -19.612  1.00  0.00    -0.399 OA
ATOM     16  H2  UNL     1      -5.416  30.393 -20.316  1.00  0.00     0.209 HD
ENDBRANCH  14  15
ENDBRANCH   3  14
BRANCH   5  17
HETATM   17  C13 UNL     1      -0.163  29.717 -17.712  1.00  0.00     0.258 C 
HETATM   18  O4  UNL     1       0.738  29.389 -16.934  1.00  0.00    -0.305 OA
ENDBRANCH   5  17
BRANCH   2  19
HETATM   19  O1  UNL     1      -2.781  32.639 -19.718  1.00  0.00    -0.391 OA
ATOM     20  H1  UNL     1      -3.475  32.097 -20.074  1.00  0.00     0.210 HD
ENDBRANCH   2  19
BRANCH   1  21
HETATM   21  N3  UNL     1      -0.308  32.954 -17.740  1.00  0.00    -0.357 N 
HETATM   22  C1  UNL     1       0.327  33.752 -18.552  1.00  0.00     0.197 C 
HETATM   23  N1  UNL     1       0.196  33.563 -19.945  1.00  0.00    -0.067 NA
HETATM   24  N2  UNL     1       1.136  34.802 -18.067  1.00  0.00    -0.067 NA
ATOM     25  H3  UNL     1      -0.218  33.086 -16.733  1.00  0.00     0.162 HD
ENDBRANCH   1  21
TORSDOF 12
ENDMDL
MODEL 2
REMARK VINA RESULT: -6.096361801      1.234      1.438
REMARK  12 active torsions:
REMARK  status: ('A' for Active; 'I' for Inactive)
REMARK    1  A    between atoms: N3_4  and  C2_6 
REMARK    2  A    between atoms: C3_7  and  O1_8 
REMARK    3  A    between atoms: C4_10  and  C5_11 
REMARK    4  A    between atoms: C5_11  and  O2_12 
REMARK    5  A    between atoms: N4_14  and  C6_15 
REMARK    6  A    between atoms: C6_15  and  C7_16 
REMARK    7  A    between atoms: C7_16  and  C8_17 
REMARK    8  A    between atoms: C8_17  and  C9_18 
REMARK    9  A    between atoms: C9_18  and  C10_19 
REMARK   10  A    between atoms: C10_19  and  C11_20 
REMARK   11  A    between atoms: C11_20  and  O3_21 
REMARK   12  A    between atoms: C12_23  and  C13_24 
ROOT
HETATM    1  C2  UNL     1      -2.073  31.183 -18.102  1.00  0.00     0.144 C 
HETATM    2  C3  UNL     1      -3.557  31.089 -18.265  1.00  0.00     0.168 C 
HETATM    3  C4  UNL     1      -3.989  29.885 -17.475  1.00  0.00     0.138 C 
HETATM    4  N4  UNL     1      -3.012  29.761 -16.430  1.00  0.00    -0.371 N 
HETATM    5  C12 UNL     1      -1.823  30.408 -16.803  1.00  0.00     0.170 C 
ENDROOT
BRANCH   4   6
HETATM    6  C6  UNL     1      -2.985  28.513 -15.795  1.00  0.00     0.060 C 
BRANCH   6   7
HETATM    7  C7  UNL     1      -3.779  28.414 -14.565  1.00  0.00     0.044 C 
BRANCH   7   8
HETATM    8  C8  UNL     1      -3.142  28.389 -13.236  1.00  0.00     0.005 C 
BRANCH   8   9
HETATM    9  C9  UNL     1      -3.208  29.546 -12.320  1.00  0.00     0.002 C 
BRANCH   9  10
HETATM   10  C10 UNL     1      -4.569  29.962 -11.865  1.00  0.00     0.026 C 
BRANCH  10  11
HETATM   11  C11 UNL     1      -4.955  31.299 -12.543  1.00  0.00     0.164 C 
BRANCH  11  12
HETATM   12  O3  UNL     1      -3.834  31.867 -13.125  1.00  0.00    -0.401 OA
ATOM     13  H3  UNL     1      -3.924  32.813 -13.137  1.00  0.00     0.209 HD
ENDBRANCH  11  12
ENDBRANCH  10  11
ENDBRANCH   9  10
ENDBRANCH   8   9
ENDBRANCH   7   8
ENDBRANCH   6   7
ENDBRANCH   4   6
BRANCH   3  14
HETATM   14  C5  UNL     1      -4.245  28.735 -18.345  1.00  0.00     0.192 C 
BRANCH  14  15
HETATM   15  O2  UNL     1      -5.646  28.678 -18.573  1.00  0.00    -0.399 OA
ATOM     16  H2  UNL     1      -5.795  28.059 -19.278  1.00  0.00     0.209 HD
ENDBRANCH  14  15
ENDBRANCH   3  14
BRANCH   5  17
HETATM   17  C13 UNL     1      -0.596  29.618 -16.951  1.00  0.00     0.258 C 
HETATM   18  O4  UNL     1      -0.032  29.576 -18.049  1.00  0.00    -0.305 OA
ENDBRANCH   5  17
BRANCH   2  19
HETATM   19  O1  UNL     1      -3.821  30.960 -19.635  1.00  0.00    -0.391 OA
ATOM     20  H1  UNL     1      -4.764  30.906 -19.739  1.00  0.00     0.210 HD
ENDBRANCH   2  19
BRANCH   1  21
HETATM   21  N3  UNL     1      -1.563  32.518 -18.023  1.00  0.00    -0.357 N 
HETATM   22  C1  UNL     1      -1.010  33.085 -19.057  1.00  0.00     0.197 C 
HETATM   23  N1  UNL     1      -0.917  32.367 -20.269  1.00  0.00    -0.067 NA
HETATM   24  N2  UNL     1      -0.507  34.404 -18.992  1.00  0.00    -0.067 NA
ATOM     25  H3  UNL     1      -1.633  33.033 -17.145  1.00  0.00     0.162 HD
ENDBRANCH   1  21
TORSDOF 12
ENDMDL
MODEL 3
REMARK VINA RESULT: -5.998028130      2.728      4.035
REMARK  12 active torsions:
REMARK  status: ('A' for Active; 'I' for Inactive)
REMARK    1  A    between atoms: N3_4  and  C2_6 
REMARK    2  A    between atoms: C3_7  and  O1_8 
REMARK    3  A    between atoms: C4_10  and  C5_11 
REMARK    4  A    between atoms: C5_11  and  O2_12 
REMARK    5  A    between atoms: N4_14  and  C6_15 
REMARK    6  A    between atoms: C6_15  and  C7_16 
REMARK    7  A    between atoms: C7_16  and  C8_17 
REMARK    8  A    between atoms: C8_17  and  C9_18 
REMARK    9  A    between atoms: C9_18  and  C10_19 
REMARK   10  A    between atoms: C10_19  and  C11_20 
REMARK   11  A    between atoms: C11_20  and  O3_21 
REMARK   12  A    between atoms: C12_23  and  C13_24 
ROOT
HETATM    1  C2  UNL     1      -4.629  31.105 -17.262  1.00  0.00     0.144 C 
HETATM    2  C3  UNL     1      -4.846  32.225 -16.293  1.00  0.00     0.168 C 
HETATM    3  C4  UNL     1      -5.777  31.692 -15.240  1.00  0.00     0.138 C 
HETATM    4  N4  UNL     1      -5.527  30.278 -15.211  1.00  0.00    -0.371 N 
HETATM    5  C12 UNL     1      -4.962  29.864 -16.426  1.00  0.00     0.170 C 
ENDROOT
BRANCH   4   6
HETATM    6  C6  UNL     1      -6.521  29.518 -14.582  1.00  0.00     0.060 C 
BRANCH   6   7
HETATM    7  C7  UNL     1      -6.086  28.758 -13.405  1.00  0.00     0.044 C 
BRANCH   7   8
HETATM    8  C8  UNL     1      -5.803  29.424 -12.120  1.00  0.00     0.005 C 
BRANCH   8   9
HETATM    9  C9  UNL     1      -4.442  29.870 -11.758  1.00  0.00     0.002 C 
BRANCH   9  10
HETATM   10  C10 UNL     1      -3.315  29.295 -12.554  1.00  0.00     0.026 C 
BRANCH  10  11
HETATM   11  C11 UNL     1      -2.572  30.434 -13.295  1.00  0.00     0.164 C 
BRANCH  11  12
HETATM   12  O3  UNL     1      -3.200  31.642 -13.042  1.00  0.00    -0.401 OA
ATOM     13  H3  UNL     1      -2.786  32.330 -13.549  1.00  0.00     0.209 HD
ENDBRANCH  11  12
ENDBRANCH  10  11
ENDBRANCH   9  10
ENDBRANCH   8   9
ENDBRANCH   7   8
ENDBRANCH   6   7
ENDBRANCH   4   6
BRANCH   3  14
HETATM   14  C5  UNL     1      -7.147  32.165 -15.444  1.00  0.00     0.192 C 
BRANCH  14  15
HETATM   15  O2  UNL     1      -7.293  33.375 -14.713  1.00  0.00    -0.399 OA
ATOM     16  H2  UNL     1      -6.963  34.079 -15.259  1.00  0.00     0.209 HD
ENDBRANCH  14  15
ENDBRANCH   3  14
BRANCH   5  17
HETATM   17  C13 UNL     1      -5.693  28.909 -17.266  1.00  0.00     0.258 C 
HETATM   18  O4  UNL     1      -5.391  28.797 -18.459  1.00  0.00    -0.305 OA
ENDBRANCH   5  17
BRANCH   2  19
HETATM   19  O1  UNL     1      -5.396  33.297 -17.009  1.00  0.00    -0.391 OA
ATOM     20  H1  UNL     1      -5.349  34.065 -16.451  1.00  0.00     0.210 HD
ENDBRANCH   2  19
BRANCH   1  21
HETATM   21  N3  UNL     1      -3.308  31.033 -17.807  1.00  0.00    -0.357 N 
HETATM   22  C1  UNL     1      -3.017  31.612 -18.937  1.00  0.00     0.197 C 
HETATM   23  N1  UNL     1      -4.026  32.320 -19.627  1.00  0.00    -0.067 NA
HETATM   24  N2  UNL     1      -1.716  31.551 -19.482  1.00  0.00    -0.067 NA
ATOM     25  H3  UNL     1      -2.583  30.521 -17.304  1.00  0.00     0.162 HD
ENDBRANCH   1  21
TORSDOF 12
ENDMDL
MODEL 4
REMARK VINA RESULT: -5.935809669      1.204      1.279
REMARK  12 active torsions:
REMARK  status: ('A' for Active; 'I' for Inactive)
REMARK    1  A    between atoms: N3_4  and  C2_6 
REMARK    2  A    between atoms: C3_7  and  O1_8 
REMARK    3  A    between atoms: C4_10  and  C5_11 
REMARK    4  A    between atoms: C5_11  and  O2_12 
REMARK    5  A    between atoms: N4_14  and  C6_15 
REMARK    6  A    between atoms: C6_15  and  C7_16 
REMARK    7  A    between atoms: C7_16  and  C8_17 
REMARK    8  A    between atoms: C8_17  and  C9_18 
REMARK    9  A    between atoms: C9_18  and  C10_19 
REMARK   10  A    between atoms: C10_19  and  C11_20 
REMARK   11  A    between atoms: C11_20  and  O3_21 
REMARK   12  A    between atoms: C12_23  and  C13_24 
ROOT
HETATM    1  C2  UNL     1      -2.110  31.770 -18.101  1.00  0.00     0.144 C 
HETATM    2  C3  UNL     1      -3.482  32.337 -18.278  1.00  0.00     0.168 C 
HETATM    3  C4  UNL     1      -4.436  31.285 -17.784  1.00  0.00     0.138 C 
HETATM    4  N4  UNL     1      -3.695  30.552 -16.797  1.00  0.00    -0.371 N 
HETATM    5  C12 UNL     1      -2.317  30.709 -17.014  1.00  0.00     0.170 C 
ENDROOT
BRANCH   4   6
HETATM    6  C6  UNL     1      -4.235  29.303 -16.463  1.00  0.00     0.060 C 
BRANCH   6   7
HETATM    7  C7  UNL     1      -5.257  29.318 -15.411  1.00  0.00     0.044 C 
BRANCH   7   8
HETATM    8  C8  UNL     1      -5.087  28.555 -14.161  1.00  0.00     0.005 C 
BRANCH   8   9
HETATM    9  C9  UNL     1      -3.755  28.324 -13.565  1.00  0.00     0.002 C 
BRANCH   9  10
HETATM   10  C10 UNL     1      -3.295  29.320 -12.550  1.00  0.00     0.026 C 
BRANCH  10  11
HETATM   11  C11 UNL     1      -2.575  30.490 -13.262  1.00  0.00     0.164 C 
BRANCH  11  12
HETATM   12  O3  UNL     1      -3.380  31.617 -13.238  1.00  0.00    -0.401 OA
ATOM     13  H3  UNL     1      -4.259  31.388 -13.518  1.00  0.00     0.209 HD
ENDBRANCH  11  12
ENDBRANCH  10  11
ENDBRANCH   9  10
ENDBRANCH   8   9
ENDBRANCH   7   8
ENDBRANCH   6   7
ENDBRANCH   4   6
BRANCH   3  14
HETATM   14  C5  UNL     1      -5.053  30.556 -18.893  1.00  0.00     0.192 C 
BRANCH  14  15
HETATM   15  O2  UNL     1      -6.073  31.385 -19.433  1.00  0.00    -0.399 OA
ATOM     16  H2  UNL     1      -5.867  32.281 -19.195  1.00  0.00     0.209 HD
ENDBRANCH  14  15
ENDBRANCH   3  14
BRANCH   5  17
HETATM   17  C13 UNL     1      -1.507  29.530 -17.340  1.00  0.00     0.258 C 
HETATM   18  O4  UNL     1      -0.443  29.678 -17.951  1.00  0.00    -0.305 OA
ENDBRANCH   5  17
BRANCH   2  19
HETATM   19  O1  UNL     1      -3.647  32.619 -19.641  1.00  0.00    -0.391 OA
ATOM     20  H1  UNL     1      -3.549  33.558 -19.751  1.00  0.00     0.210 HD
ENDBRANCH   2  19
BRANCH   1  21
HETATM   21  N3  UNL     1      -1.112  32.723 -17.719  1.00  0.00    -0.357 N 
HETATM   22  C1  UNL     1      -0.308  33.240 -18.604  1.00  0.00     0.197 C 
HETATM   23  N1  UNL     1      -0.428  32.850 -19.956  1.00  0.00    -0.067 NA
HETATM   24  N2  UNL     1       0.677  34.185 -18.240  1.00  0.00    -0.067 NA
ATOM     25  H3  UNL     1      -1.030  33.002 -16.741  1.00  0.00     0.162 HD
ENDBRANCH   1  21
TORSDOF 12
ENDMDL
MODEL 5
REMARK VINA RESULT: -5.914817874      3.889      5.080
REMARK  12 active torsions:
REMARK  status: ('A' for Active; 'I' for Inactive)
REMARK    1  A    between atoms: N3_4  and  C2_6 
REMARK    2  A    between atoms: C3_7  and  O1_8 
REMARK    3  A    between atoms: C4_10  and  C5_11 
REMARK    4  A    between atoms: C5_11  and  O2_12 
REMARK    5  A    between atoms: N4_14  and  C6_15 
REMARK    6  A    between atoms: C6_15  and  C7_16 
REMARK    7  A    between atoms: C7_16  and  C8_17 
REMARK    8  A    between atoms: C8_17  and  C9_18 
REMARK    9  A    between atoms: C9_18  and  C10_19 
REMARK   10  A    between atoms: C10_19  and  C11_20 
REMARK   11  A    between atoms: C11_20  and  O3_21 
REMARK   12  A    between atoms: C12_23  and  C13_24 
ROOT
HETATM    1  C2  UNL     1      -5.520  29.864 -17.423  1.00  0.00     0.144 C 
HETATM    2  C3  UNL     1      -5.024  28.519 -17.848  1.00  0.00     0.168 C 
HETATM    3  C4  UNL     1      -3.988  28.116 -16.836  1.00  0.00     0.138 C 
HETATM    4  N4  UNL     1      -4.378  28.785 -15.626  1.00  0.00    -0.371 N 
HETATM    5  C12 UNL     1      -5.183  29.894 -15.927  1.00  0.00     0.170 C 
ENDROOT
BRANCH   4   6
HETATM    6  C6  UNL     1      -3.376  28.865 -14.650  1.00  0.00     0.060 C 
BRANCH   6   7
HETATM    7  C7  UNL     1      -3.766  28.418 -13.308  1.00  0.00     0.044 C 
BRANCH   7   8
HETATM    8  C8  UNL     1      -3.994  29.377 -12.212  1.00  0.00     0.005 C 
BRANCH   8   9
HETATM    9  C9  UNL     1      -5.336  29.921 -11.918  1.00  0.00     0.002 C 
BRANCH   9  10
HETATM   10  C10 UNL     1      -5.488  31.405 -11.995  1.00  0.00     0.026 C 
BRANCH  10  11
HETATM   11  C11 UNL     1      -6.945  31.757 -12.382  1.00  0.00     0.164 C 
BRANCH  11  12
HETATM   12  O3  UNL     1      -6.952  32.866 -13.212  1.00  0.00    -0.401 OA
ATOM     13  H3  UNL     1      -7.848  33.106 -13.417  1.00  0.00     0.209 HD
ENDBRANCH  11  12
ENDBRANCH  10  11
ENDBRANCH   9  10
ENDBRANCH   8   9
ENDBRANCH   7   8
ENDBRANCH   6   7
ENDBRANCH   4   6
BRANCH   3  14
HETATM   14  C5  UNL     1      -2.631  28.311 -17.348  1.00  0.00     0.192 C 
BRANCH  14  15
HETATM   15  O2  UNL     1      -2.247  27.112 -18.006  1.00  0.00    -0.399 OA
ATOM     16  H2  UNL     1      -1.430  27.284 -18.459  1.00  0.00     0.209 HD
ENDBRANCH  14  15
ENDBRANCH   3  14
BRANCH   5  17
HETATM   17  C13 UNL     1      -4.712  31.237 -15.574  1.00  0.00     0.258 C 
HETATM   18  O4  UNL     1      -5.476  32.200 -15.701  1.00  0.00    -0.305 OA
ENDBRANCH   5  17
BRANCH   2  19
HETATM   19  O1  UNL     1      -4.493  28.657 -19.138  1.00  0.00    -0.391 OA
ATOM     20  H1  UNL     1      -3.916  27.918 -19.289  1.00  0.00     0.210 HD
ENDBRANCH   2  19
BRANCH   1  21
HETATM   21  N3  UNL     1      -6.916  30.087 -17.651  1.00  0.00    -0.357 N 
HETATM   22  C1  UNL     1      -7.323  30.816 -18.651  1.00  0.00     0.197 C 
HETATM   23  N1  UNL     1      -6.367  31.391 -19.517  1.00  0.00    -0.067 NA
HETATM   24  N2  UNL     1      -8.697  31.038 -18.888  1.00  0.00    -0.067 NA
ATOM     25  H3  UNL     1      -7.602  29.669 -17.022  1.00  0.00     0.162 HD
ENDBRANCH   1  21
TORSDOF 12
ENDMDL
