MODEL 1
REMARK VINA RESULT: -7.775568331      0.000      0.000
REMARK  3 active torsions:
REMARK  status: ('A' for Active; 'I' for Inactive)
REMARK    1  A    between atoms: C2_5  and  N2_6 
REMARK    2  A    between atoms: C8_13  and  N3_14 
REMARK    3  A    between atoms: N4_17  and  C11_18 
ROOT
HETATM    1  O1  UNL     1     -17.446  36.569  39.468  1.00  0.00    -0.247 OA
HETATM    2  C1  UNL     1     -17.534  36.365  40.724  1.00  0.00     0.327 A 
HETATM    3  N1  UNL     1     -16.638  35.619  41.386  1.00  0.00    -0.294 N 
ATOM      4  H1  UNL     1     -15.861  35.200  40.874  1.00  0.00     0.172 HD
HETATM    5  C2  UNL     1     -16.742  35.408  42.731  1.00  0.00     0.110 A 
HETATM    6  C7  UNL     1     -17.797  35.987  43.375  1.00  0.00     0.097 A 
HETATM    7  C8  UNL     1     -18.728  36.761  42.685  1.00  0.00     0.110 A 
HETATM    8  N7  UNL     1     -18.570  36.931  41.370  1.00  0.00    -0.294 N 
ATOM      9  H7  UNL     1     -19.241  37.496  40.850  1.00  0.00     0.172 HD
ENDROOT
BRANCH   7  10
HETATM   10  N3  UNL     1     -19.832  37.358  43.391  1.00  0.00    -0.364 N 
HETATM   11  C9  UNL     1     -21.110  37.505  42.724  1.00  0.00     0.145 C 
HETATM   12  C10 UNL     1     -22.144  36.803  43.574  1.00  0.00     0.161 C 
HETATM   13  N4  UNL     1     -21.962  37.238  44.943  1.00  0.00    -0.214 N 
HETATM   14  C15 UNL     1     -20.967  38.234  45.288  1.00  0.00     0.161 C 
HETATM   15  C16 UNL     1     -19.625  37.787  44.746  1.00  0.00     0.145 C 
BRANCH  13  16
HETATM   16  C11 UNL     1     -22.774  36.675  45.947  1.00  0.00     0.679 A 
HETATM   17  N5  UNL     1     -23.458  37.512  46.759  1.00  0.00    -0.202 N 
HETATM   18  C12 UNL     1     -24.241  37.039  47.724  1.00  0.00     0.107 A 
ATOM     19  H5  UNL     1     -23.373  38.520  46.629  1.00  0.00     0.183 HD
HETATM   20  C13 UNL     1     -24.348  35.674  47.888  1.00  0.00     0.035 A 
HETATM   21  C14 UNL     1     -23.636  34.830  47.042  1.00  0.00     0.107 A 
HETATM   22  N6  UNL     1     -22.856  35.334  46.081  1.00  0.00    -0.202 N 
ATOM     23  H6  UNL     1     -22.332  34.717  45.459  1.00  0.00     0.183 HD
ENDBRANCH  13  16
ENDBRANCH   7  10
BRANCH   5  24
HETATM   24  N2  UNL     1     -15.794  34.629  43.426  1.00  0.00    -0.363 N 
HETATM   25  C3  UNL     1     -14.672  34.054  42.759  1.00  0.00     0.150 C 
HETATM   26  C4  UNL     1     -13.452  34.254  43.671  1.00  0.00     0.187 C 
HETATM   27  O2  UNL     1     -13.655  33.787  44.943  1.00  0.00    -0.388 OA
HETATM   28  C5  UNL     1     -14.700  34.430  45.600  1.00  0.00     0.187 C 
HETATM   29  C6  UNL     1     -15.978  34.406  44.836  1.00  0.00     0.150 C 
ENDBRANCH   5  24
TORSDOF 3
ENDMDL
MODEL 2
REMARK VINA RESULT: -7.704254733      2.465      3.270
REMARK  3 active torsions:
REMARK  status: ('A' for Active; 'I' for Inactive)
REMARK    1  A    between atoms: C2_5  and  N2_6 
REMARK    2  A    between atoms: C8_13  and  N3_14 
REMARK    3  A    between atoms: N4_17  and  C11_18 
ROOT
HETATM    1  O1  UNL     1     -16.388  33.454  40.171  1.00  0.00    -0.247 OA
HETATM    2  C1  UNL     1     -16.320  34.016  41.315  1.00  0.00     0.327 A 
HETATM    3  N1  UNL     1     -15.201  33.987  42.054  1.00  0.00    -0.294 N 
ATOM      4  H1  UNL     1     -14.379  33.502  41.695  1.00  0.00     0.172 HD
HETATM    5  C2  UNL     1     -15.141  34.592  43.276  1.00  0.00     0.110 A 
HETATM    6  C7  UNL     1     -16.266  35.229  43.716  1.00  0.00     0.097 A 
HETATM    7  C8  UNL     1     -17.426  35.257  42.946  1.00  0.00     0.110 A 
HETATM    8  N7  UNL     1     -17.423  34.647  41.758  1.00  0.00    -0.294 N 
ATOM      9  H7  UNL     1     -18.263  34.659  41.181  1.00  0.00     0.172 HD
ENDROOT
BRANCH   7  10
HETATM   10  N3  UNL     1     -18.599  35.935  43.437  1.00  0.00    -0.364 N 
HETATM   11  C9  UNL     1     -19.494  35.246  44.345  1.00  0.00     0.145 C 
HETATM   12  C10 UNL     1     -19.610  36.095  45.591  1.00  0.00     0.161 C 
HETATM   13  N4  UNL     1     -19.871  37.458  45.175  1.00  0.00    -0.214 N 
HETATM   14  C15 UNL     1     -20.038  37.797  43.776  1.00  0.00     0.161 C 
HETATM   15  C16 UNL     1     -18.839  37.283  43.006  1.00  0.00     0.145 C 
BRANCH  13  16
HETATM   16  C11 UNL     1     -19.962  38.461  46.159  1.00  0.00     0.679 A 
HETATM   17  N5  UNL     1     -20.827  38.276  47.181  1.00  0.00    -0.202 N 
HETATM   18  C12 UNL     1     -20.957  39.188  48.140  1.00  0.00     0.107 A 
ATOM     19  H5  UNL     1     -21.388  37.424  47.218  1.00  0.00     0.183 HD
HETATM   20  C13 UNL     1     -20.192  40.334  48.080  1.00  0.00     0.035 A 
HETATM   21  C14 UNL     1     -19.307  40.505  47.019  1.00  0.00     0.107 A 
HETATM   22  N6  UNL     1     -19.199  39.571  46.070  1.00  0.00    -0.202 N 
ATOM     23  H6  UNL     1     -18.552  39.695  45.290  1.00  0.00     0.183 HD
ENDBRANCH  13  16
ENDBRANCH   7  10
BRANCH   5  24
HETATM   24  N2  UNL     1     -13.961  34.567  44.048  1.00  0.00    -0.363 N 
HETATM   25  C3  UNL     1     -13.052  33.470  43.981  1.00  0.00     0.150 C 
HETATM   26  C4  UNL     1     -11.634  34.059  43.950  1.00  0.00     0.187 C 
HETATM   27  O2  UNL     1     -11.395  34.930  44.981  1.00  0.00    -0.388 OA
HETATM   28  C5  UNL     1     -12.240  36.035  44.968  1.00  0.00     0.187 C 
HETATM   29  C6  UNL     1     -13.683  35.672  44.929  1.00  0.00     0.150 C 
ENDBRANCH   5  24
TORSDOF 3
ENDMDL
MODEL 3
REMARK VINA RESULT: -7.671751764      3.675      5.434
REMARK  3 active torsions:
REMARK  status: ('A' for Active; 'I' for Inactive)
REMARK    1  A    between atoms: C2_5  and  N2_6 
REMARK    2  A    between atoms: C8_13  and  N3_14 
REMARK    3  A    between atoms: N4_17  and  C11_18 
ROOT
HETATM    1  O1  UNL     1     -12.758  33.371  43.982  1.00  0.00    -0.247 OA
HETATM    2  C1  UNL     1     -13.908  33.924  43.994  1.00  0.00     0.327 A 
HETATM    3  N1  UNL     1     -14.591  34.167  42.866  1.00  0.00    -0.294 N 
ATOM      4  H1  UNL     1     -14.182  33.903  41.970  1.00  0.00     0.172 HD
HETATM    5  C2  UNL     1     -15.821  34.758  42.892  1.00  0.00     0.110 A 
HETATM    6  C7  UNL     1     -16.328  35.094  44.114  1.00  0.00     0.097 A 
HETATM    7  C8  UNL     1     -15.617  34.842  45.285  1.00  0.00     0.110 A 
HETATM    8  N7  UNL     1     -14.418  34.260  45.194  1.00  0.00    -0.294 N 
ATOM      9  H7  UNL     1     -13.885  34.067  46.041  1.00  0.00     0.172 HD
ENDROOT
BRANCH   7  10
HETATM   10  N3  UNL     1     -16.176  35.210  46.560  1.00  0.00    -0.364 N 
HETATM   11  C9  UNL     1     -17.301  36.122  46.611  1.00  0.00     0.145 C 
HETATM   12  C10 UNL     1     -18.411  35.423  47.362  1.00  0.00     0.161 C 
HETATM   13  N4  UNL     1     -17.844  34.868  48.574  1.00  0.00    -0.214 N 
HETATM   14  C15 UNL     1     -16.453  35.082  48.918  1.00  0.00     0.161 C 
HETATM   15  C16 UNL     1     -15.593  34.652  47.748  1.00  0.00     0.145 C 
BRANCH  13  16
HETATM   16  C11 UNL     1     -18.673  34.111  49.425  1.00  0.00     0.679 A 
HETATM   17  N5  UNL     1     -18.819  34.520  50.705  1.00  0.00    -0.202 N 
HETATM   18  C12 UNL     1     -19.588  33.846  51.555  1.00  0.00     0.107 A 
ATOM     19  H5  UNL     1     -18.332  35.358  51.024  1.00  0.00     0.183 HD
HETATM   20  C13 UNL     1     -20.242  32.715  51.110  1.00  0.00     0.035 A 
HETATM   21  C14 UNL     1     -20.079  32.311  49.789  1.00  0.00     0.107 A 
HETATM   22  N6  UNL     1     -19.298  33.009  48.958  1.00  0.00    -0.202 N 
ATOM     23  H6  UNL     1     -19.177  32.714  47.989  1.00  0.00     0.183 HD
ENDBRANCH  13  16
ENDBRANCH   7  10
BRANCH   5  24
HETATM   24  N2  UNL     1     -16.540  35.004  41.704  1.00  0.00    -0.363 N 
HETATM   25  C3  UNL     1     -17.593  35.965  41.658  1.00  0.00     0.150 C 
HETATM   26  C4  UNL     1     -17.433  36.749  40.347  1.00  0.00     0.187 C 
HETATM   27  O2  UNL     1     -17.359  35.937  39.246  1.00  0.00    -0.388 OA
HETATM   28  C5  UNL     1     -16.271  35.071  39.278  1.00  0.00     0.187 C 
HETATM   29  C6  UNL     1     -16.206  34.254  40.521  1.00  0.00     0.150 C 
ENDBRANCH   5  24
TORSDOF 3
ENDMDL
MODEL 4
REMARK VINA RESULT: -7.625998423      1.401      1.875
REMARK  3 active torsions:
REMARK  status: ('A' for Active; 'I' for Inactive)
REMARK    1  A    between atoms: C2_5  and  N2_6 
REMARK    2  A    between atoms: C8_13  and  N3_14 
REMARK    3  A    between atoms: N4_17  and  C11_18 
ROOT
HETATM    1  O1  UNL     1     -17.031  33.871  40.507  1.00  0.00    -0.247 OA
HETATM    2  C1  UNL     1     -16.843  34.500  41.601  1.00  0.00     0.327 A 
HETATM    3  N1  UNL     1     -15.700  34.391  42.295  1.00  0.00    -0.294 N 
ATOM      4  H1  UNL     1     -14.958  33.788  41.941  1.00  0.00     0.172 HD
HETATM    5  C2  UNL     1     -15.510  35.069  43.464  1.00  0.00     0.110 A 
HETATM    6  C7  UNL     1     -16.532  35.864  43.899  1.00  0.00     0.097 A 
HETATM    7  C8  UNL     1     -17.718  35.975  43.178  1.00  0.00     0.110 A 
HETATM    8  N7  UNL     1     -17.843  35.287  42.040  1.00  0.00    -0.294 N 
ATOM      9  H7  UNL     1     -18.704  35.358  41.498  1.00  0.00     0.172 HD
ENDROOT
BRANCH   7  10
HETATM   10  N3  UNL     1     -18.779  36.819  43.663  1.00  0.00    -0.364 N 
HETATM   11  C9  UNL     1     -19.861  37.190  42.773  1.00  0.00     0.145 C 
HETATM   12  C10 UNL     1     -21.151  36.756  43.430  1.00  0.00     0.161 C 
HETATM   13  N4  UNL     1     -21.124  37.214  44.804  1.00  0.00    -0.214 N 
HETATM   14  C15 UNL     1     -20.020  38.003  45.310  1.00  0.00     0.161 C 
HETATM   15  C16 UNL     1     -18.727  37.265  45.027  1.00  0.00     0.145 C 
BRANCH  13  16
HETATM   16  C11 UNL     1     -22.199  36.880  45.650  1.00  0.00     0.679 A 
HETATM   17  N5  UNL     1     -22.586  35.587  45.712  1.00  0.00    -0.202 N 
HETATM   18  C12 UNL     1     -23.595  35.211  46.493  1.00  0.00     0.107 A 
ATOM     19  H5  UNL     1     -22.098  34.888  45.151  1.00  0.00     0.183 HD
HETATM   20  C13 UNL     1     -24.246  36.165  47.247  1.00  0.00     0.035 A 
HETATM   21  C14 UNL     1     -23.832  37.492  47.170  1.00  0.00     0.107 A 
HETATM   22  N6  UNL     1     -22.816  37.839  46.375  1.00  0.00    -0.202 N 
ATOM     23  H6  UNL     1     -22.511  38.811  46.316  1.00  0.00     0.183 HD
ENDBRANCH  13  16
ENDBRANCH   7  10
BRANCH   5  24
HETATM   24  N2  UNL     1     -14.305  34.959  44.187  1.00  0.00    -0.363 N 
HETATM   25  C3  UNL     1     -13.440  33.836  44.023  1.00  0.00     0.150 C 
HETATM   26  C4  UNL     1     -12.003  34.377  43.972  1.00  0.00     0.187 C 
HETATM   27  O2  UNL     1     -11.695  35.178  45.040  1.00  0.00    -0.388 OA
HETATM   28  C5  UNL     1     -12.499  36.310  45.122  1.00  0.00     0.187 C 
HETATM   29  C6  UNL     1     -13.955  36.000  45.118  1.00  0.00     0.150 C 
ENDBRANCH   5  24
TORSDOF 3
ENDMDL
MODEL 5
REMARK VINA RESULT: -7.496248186      3.922      6.150
REMARK  3 active torsions:
REMARK  status: ('A' for Active; 'I' for Inactive)
REMARK    1  A    between atoms: C2_5  and  N2_6 
REMARK    2  A    between atoms: C8_13  and  N3_14 
REMARK    3  A    between atoms: N4_17  and  C11_18 
ROOT
HETATM    1  O1  UNL     1     -12.695  33.558  43.996  1.00  0.00    -0.247 OA
HETATM    2  C1  UNL     1     -13.887  34.013  44.014  1.00  0.00     0.327 A 
HETATM    3  N1  UNL     1     -14.571  34.258  42.886  1.00  0.00    -0.294 N 
ATOM      4  H1  UNL     1     -14.127  34.077  41.986  1.00  0.00     0.172 HD
HETATM    5  C2  UNL     1     -15.846  34.743  42.919  1.00  0.00     0.110 A 
HETATM    6  C7  UNL     1     -16.398  34.971  44.146  1.00  0.00     0.097 A 
HETATM    7  C8  UNL     1     -15.686  34.716  45.316  1.00  0.00     0.110 A 
HETATM    8  N7  UNL     1     -14.442  34.240  45.219  1.00  0.00    -0.294 N 
ATOM      9  H7  UNL     1     -13.907  34.047  46.065  1.00  0.00     0.172 HD
ENDROOT
BRANCH   7  10
HETATM   10  N3  UNL     1     -16.293  34.968  46.598  1.00  0.00    -0.364 N 
HETATM   11  C9  UNL     1     -15.617  34.540  47.805  1.00  0.00     0.145 C 
HETATM   12  C10 UNL     1     -15.443  35.760  48.680  1.00  0.00     0.161 C 
HETATM   13  N4  UNL     1     -16.718  36.447  48.741  1.00  0.00    -0.214 N 
HETATM   14  C15 UNL     1     -17.892  35.907  48.086  1.00  0.00     0.161 C 
HETATM   15  C16 UNL     1     -17.560  35.645  46.632  1.00  0.00     0.145 C 
BRANCH  13  16
HETATM   16  C11 UNL     1     -16.801  37.658  49.454  1.00  0.00     0.679 A 
HETATM   17  N5  UNL     1     -17.582  38.641  48.953  1.00  0.00    -0.202 N 
HETATM   18  C12 UNL     1     -17.700  39.807  49.582  1.00  0.00     0.107 A 
ATOM     19  H5  UNL     1     -18.088  38.487  48.081  1.00  0.00     0.183 HD
HETATM   20  C13 UNL     1     -17.012  40.002  50.762  1.00  0.00     0.035 A 
HETATM   21  C14 UNL     1     -16.214  38.977  51.261  1.00  0.00     0.107 A 
HETATM   22  N6  UNL     1     -16.114  37.817  50.606  1.00  0.00    -0.202 N 
ATOM     23  H6  UNL     1     -15.529  37.064  50.969  1.00  0.00     0.183 HD
ENDBRANCH  13  16
ENDBRANCH   7  10
BRANCH   5  24
HETATM   24  N2  UNL     1     -16.565  34.992  41.731  1.00  0.00    -0.363 N 
HETATM   25  C3  UNL     1     -17.615  35.956  41.687  1.00  0.00     0.150 C 
HETATM   26  C4  UNL     1     -17.454  36.740  40.376  1.00  0.00     0.187 C 
HETATM   27  O2  UNL     1     -17.382  35.929  39.274  1.00  0.00    -0.388 OA
HETATM   28  C5  UNL     1     -16.296  35.061  39.305  1.00  0.00     0.187 C 
HETATM   29  C6  UNL     1     -16.233  34.243  40.548  1.00  0.00     0.150 C 
ENDBRANCH   5  24
TORSDOF 3
ENDMDL
