MODEL 1
REMARK VINA RESULT: -7.937368623      0.000      0.000
REMARK  5 active torsions:
REMARK  status: ('A' for Active; 'I' for Inactive)
REMARK    1  A    between atoms: C3_4  and  S1_5 
REMARK    2  A    between atoms: S1_5  and  C4_6 
REMARK    3  A    between atoms: N3_13  and  O1_14 
REMARK    4  A    between atoms: C11_19  and  N4_20 
REMARK    5  A    between atoms: N5_25  and  O4_26 
ROOT
HETATM    1  N1  UNL     1     -19.578  39.022  45.476  1.00  0.00    -0.190 NA
HETATM    2  C1  UNL     1     -19.180  38.037  45.027  1.00  0.00     0.123 C 
HETATM    3  C2  UNL     1     -18.700  36.794  44.442  1.00  0.00     0.178 A 
HETATM    4  C3  UNL     1     -18.824  35.580  45.081  1.00  0.00     0.140 A 
HETATM    5  N3  UNL     1     -18.365  34.461  44.478  1.00  0.00    -0.213 N 
HETATM    6  C8  UNL     1     -17.787  34.485  43.267  1.00  0.00     0.093 A 
HETATM    7  C9  UNL     1     -17.313  33.361  42.638  1.00  0.00     0.037 A 
HETATM    8  C10 UNL     1     -16.730  33.466  41.393  1.00  0.00     0.038 A 
HETATM    9  C11 UNL     1     -16.606  34.691  40.751  1.00  0.00     0.105 A 
HETATM   10  C12 UNL     1     -17.080  35.819  41.381  1.00  0.00     0.070 A 
HETATM   11  C13 UNL     1     -17.661  35.697  42.627  1.00  0.00     0.095 A 
HETATM   12  N5  UNL     1     -18.116  36.799  43.228  1.00  0.00    -0.209 N 
ENDROOT
BRANCH   4  13
HETATM   13  S1  UNL     1     -19.569  35.495  46.688  1.00  0.00    -0.100 SA
BRANCH  13  14
HETATM   14  C4  UNL     1     -21.200  34.745  46.649  1.00  0.00     0.081 C 
HETATM   15  C5  UNL     1     -22.049  35.385  45.591  1.00  0.00     0.044 C 
HETATM   16  C6  UNL     1     -23.480  35.234  46.122  1.00  0.00     0.233 C 
HETATM   17  N2  UNL     1     -23.351  34.642  47.445  1.00  0.00    -0.074 N 
HETATM   18  C7  UNL     1     -22.016  34.995  47.896  1.00  0.00     0.247 C 
ATOM     19  H22 UNL     1     -24.089  34.918  48.092  1.00  0.00     0.277 HD
ATOM     20  H21 UNL     1     -23.540  33.640  47.466  1.00  0.00     0.277 HD
ENDBRANCH  13  14
ENDBRANCH   4  13
BRANCH  12  21
HETATM   21  O4  UNL     1     -17.995  38.024  42.590  1.00  0.00    -0.281 OA
ATOM     22  H4  UNL     1     -17.118  38.377  42.493  1.00  0.00     0.245 HD
ENDBRANCH  12  21
BRANCH   5  23
HETATM   23  O1  UNL     1     -18.474  33.233  45.089  1.00  0.00    -0.281 OA
ATOM     24  H1  UNL     1     -19.321  32.896  45.356  1.00  0.00     0.245 HD
ENDBRANCH   5  23
BRANCH   9  25
HETATM   25  N4  UNL     1     -16.004  34.784  39.473  1.00  0.00    -0.116 N 
HETATM   26  O2  UNL     1     -15.427  33.782  39.014  1.00  0.00    -0.532 OA
HETATM   27  O3  UNL     1     -16.028  35.917  38.726  1.00  0.00    -0.532 OA
ENDBRANCH   9  25
TORSDOF 5
ENDMDL
MODEL 2
REMARK VINA RESULT: -7.771677949      1.940      2.623
REMARK  5 active torsions:
REMARK  status: ('A' for Active; 'I' for Inactive)
REMARK    1  A    between atoms: C3_4  and  S1_5 
REMARK    2  A    between atoms: S1_5  and  C4_6 
REMARK    3  A    between atoms: N3_13  and  O1_14 
REMARK    4  A    between atoms: C11_19  and  N4_20 
REMARK    5  A    between atoms: N5_25  and  O4_26 
ROOT
HETATM    1  N1  UNL     1     -19.686  38.965  45.437  1.00  0.00    -0.190 NA
HETATM    2  C1  UNL     1     -19.278  37.985  44.984  1.00  0.00     0.123 C 
HETATM    3  C2  UNL     1     -18.785  36.749  44.393  1.00  0.00     0.178 A 
HETATM    4  C3  UNL     1     -18.923  35.528  45.014  1.00  0.00     0.140 A 
HETATM    5  N3  UNL     1     -18.451  34.416  44.407  1.00  0.00    -0.213 N 
HETATM    6  C8  UNL     1     -17.847  34.455  43.209  1.00  0.00     0.093 A 
HETATM    7  C9  UNL     1     -17.360  33.340  42.576  1.00  0.00     0.037 A 
HETATM    8  C10 UNL     1     -16.750  33.461  41.345  1.00  0.00     0.038 A 
HETATM    9  C11 UNL     1     -16.612  34.694  40.721  1.00  0.00     0.105 A 
HETATM   10  C12 UNL     1     -17.100  35.814  41.355  1.00  0.00     0.070 A 
HETATM   11  C13 UNL     1     -17.707  35.676  42.587  1.00  0.00     0.095 A 
HETATM   12  N5  UNL     1     -18.176  36.770  43.193  1.00  0.00    -0.209 N 
ENDROOT
BRANCH   4  13
HETATM   13  S1  UNL     1     -19.702  35.422  46.603  1.00  0.00    -0.100 SA
BRANCH  13  14
HETATM   14  C4  UNL     1     -18.520  35.493  47.954  1.00  0.00     0.081 C 
HETATM   15  C5  UNL     1     -17.269  36.200  47.521  1.00  0.00     0.044 C 
HETATM   16  C6  UNL     1     -16.171  35.574  48.390  1.00  0.00     0.233 C 
HETATM   17  N2  UNL     1     -16.822  34.519  49.151  1.00  0.00    -0.074 N 
HETATM   18  C7  UNL     1     -17.987  34.142  48.370  1.00  0.00     0.247 C 
ATOM     19  H22 UNL     1     -16.207  33.736  49.376  1.00  0.00     0.277 HD
ATOM     20  H21 UNL     1     -17.039  34.780  50.113  1.00  0.00     0.277 HD
ENDBRANCH  13  14
ENDBRANCH   4  13
BRANCH  12  21
HETATM   21  O4  UNL     1     -18.041  38.003  42.573  1.00  0.00    -0.281 OA
ATOM     22  H4  UNL     1     -17.279  38.130  42.021  1.00  0.00     0.245 HD
ENDBRANCH  12  21
BRANCH   5  23
HETATM   23  O1  UNL     1     -18.573  33.181  45.000  1.00  0.00    -0.281 OA
ATOM     24  H1  UNL     1     -18.922  32.441  44.517  1.00  0.00     0.245 HD
ENDBRANCH   5  23
BRANCH   9  25
HETATM   25  N4  UNL     1     -15.983  34.803  39.458  1.00  0.00    -0.116 N 
HETATM   26  O2  UNL     1     -15.380  33.813  39.007  1.00  0.00    -0.532 OA
HETATM   27  O3  UNL     1     -16.008  35.940  38.717  1.00  0.00    -0.532 OA
ENDBRANCH   9  25
TORSDOF 5
ENDMDL
MODEL 3
REMARK VINA RESULT: -7.438970566      3.479      4.645
REMARK  5 active torsions:
REMARK  status: ('A' for Active; 'I' for Inactive)
REMARK    1  A    between atoms: C3_4  and  S1_5 
REMARK    2  A    between atoms: S1_5  and  C4_6 
REMARK    3  A    between atoms: N3_13  and  O1_14 
REMARK    4  A    between atoms: C11_19  and  N4_20 
REMARK    5  A    between atoms: N5_25  and  O4_26 
ROOT
HETATM    1  N1  UNL     1     -18.406  35.346  39.254  1.00  0.00    -0.190 NA
HETATM    2  C1  UNL     1     -17.809  35.479  40.233  1.00  0.00     0.123 C 
HETATM    3  C2  UNL     1     -17.067  35.620  41.477  1.00  0.00     0.178 A 
HETATM    4  C3  UNL     1     -17.456  36.488  42.474  1.00  0.00     0.140 A 
HETATM    5  N3  UNL     1     -16.726  36.564  43.610  1.00  0.00    -0.213 N 
HETATM    6  C8  UNL     1     -15.627  35.821  43.807  1.00  0.00     0.093 A 
HETATM    7  C9  UNL     1     -14.872  35.884  44.951  1.00  0.00     0.037 A 
HETATM    8  C10 UNL     1     -13.754  35.088  45.081  1.00  0.00     0.038 A 
HETATM    9  C11 UNL     1     -13.364  34.214  44.074  1.00  0.00     0.105 A 
HETATM   10  C12 UNL     1     -14.120  34.150  42.925  1.00  0.00     0.070 A 
HETATM   11  C13 UNL     1     -15.237  34.954  42.811  1.00  0.00     0.095 A 
HETATM   12  N5  UNL     1     -15.961  34.883  41.692  1.00  0.00    -0.209 N 
ENDROOT
BRANCH   4  13
HETATM   13  S1  UNL     1     -18.893  37.502  42.259  1.00  0.00    -0.100 SA
BRANCH  13  14
HETATM   14  C4  UNL     1     -20.377  36.742  42.927  1.00  0.00     0.081 C 
HETATM   15  C5  UNL     1     -21.498  37.737  42.985  1.00  0.00     0.044 C 
HETATM   16  C6  UNL     1     -22.358  37.258  44.161  1.00  0.00     0.233 C 
HETATM   17  N2  UNL     1     -21.642  36.133  44.742  1.00  0.00    -0.074 N 
HETATM   18  C7  UNL     1     -20.251  36.330  44.376  1.00  0.00     0.247 C 
ATOM     19  H22 UNL     1     -21.791  36.026  45.746  1.00  0.00     0.277 HD
ATOM     20  H21 UNL     1     -22.015  35.224  44.468  1.00  0.00     0.277 HD
ENDBRANCH  13  14
ENDBRANCH   4  13
BRANCH  12  21
HETATM   21  O4  UNL     1     -15.576  34.012  40.684  1.00  0.00    -0.281 OA
ATOM     22  H4  UNL     1     -15.498  33.093  40.912  1.00  0.00     0.245 HD
ENDBRANCH  12  21
BRANCH   5  23
HETATM   23  O1  UNL     1     -17.087  37.420  44.625  1.00  0.00    -0.281 OA
ATOM     24  H1  UNL     1     -17.387  38.301  44.436  1.00  0.00     0.245 HD
ENDBRANCH   5  23
BRANCH   9  25
HETATM   25  N4  UNL     1     -12.214  33.404  44.220  1.00  0.00    -0.116 N 
HETATM   26  O2  UNL     1     -12.358  32.231  44.609  1.00  0.00    -0.532 OA
HETATM   27  O3  UNL     1     -10.958  33.848  43.954  1.00  0.00    -0.532 OA
ENDBRANCH   9  25
TORSDOF 5
ENDMDL
MODEL 4
REMARK VINA RESULT: -7.432459185      3.380      3.714
REMARK  5 active torsions:
REMARK  status: ('A' for Active; 'I' for Inactive)
REMARK    1  A    between atoms: C3_4  and  S1_5 
REMARK    2  A    between atoms: S1_5  and  C4_6 
REMARK    3  A    between atoms: N3_13  and  O1_14 
REMARK    4  A    between atoms: C11_19  and  N4_20 
REMARK    5  A    between atoms: N5_25  and  O4_26 
ROOT
HETATM    1  N1  UNL     1     -17.142  38.528  47.268  1.00  0.00    -0.190 NA
HETATM    2  C1  UNL     1     -16.739  37.736  46.533  1.00  0.00     0.123 C 
HETATM    3  C2  UNL     1     -16.254  36.721  45.609  1.00  0.00     0.178 A 
HETATM    4  C3  UNL     1     -15.309  35.786  45.969  1.00  0.00     0.140 A 
HETATM    5  N3  UNL     1     -14.908  34.864  45.064  1.00  0.00    -0.213 N 
HETATM    6  C8  UNL     1     -15.400  34.823  43.817  1.00  0.00     0.093 A 
HETATM    7  C9  UNL     1     -15.006  33.897  42.884  1.00  0.00     0.037 A 
HETATM    8  C10 UNL     1     -15.557  33.919  41.620  1.00  0.00     0.038 A 
HETATM    9  C11 UNL     1     -16.510  34.864  41.260  1.00  0.00     0.105 A 
HETATM   10  C12 UNL     1     -16.906  35.793  42.195  1.00  0.00     0.070 A 
HETATM   11  C13 UNL     1     -16.344  35.758  43.455  1.00  0.00     0.095 A 
HETATM   12  N5  UNL     1     -16.735  36.665  44.353  1.00  0.00    -0.209 N 
ENDROOT
BRANCH   4  13
HETATM   13  S1  UNL     1     -14.617  35.803  47.601  1.00  0.00    -0.100 SA
BRANCH  13  14
HETATM   14  C4  UNL     1     -15.664  34.969  48.799  1.00  0.00     0.081 C 
HETATM   15  C5  UNL     1     -16.805  34.280  48.112  1.00  0.00     0.044 C 
HETATM   16  C6  UNL     1     -17.924  34.281  49.160  1.00  0.00     0.233 C 
HETATM   17  N2  UNL     1     -17.407  35.037  50.290  1.00  0.00    -0.074 N 
HETATM   18  C7  UNL     1     -16.386  35.909  49.736  1.00  0.00     0.247 C 
ATOM     19  H22 UNL     1     -18.127  35.531  50.818  1.00  0.00     0.277 HD
ATOM     20  H21 UNL     1     -17.076  34.453  51.058  1.00  0.00     0.277 HD
ENDBRANCH  13  14
ENDBRANCH   4  13
BRANCH  12  21
HETATM   21  O4  UNL     1     -17.687  37.610  43.998  1.00  0.00    -0.281 OA
ATOM     22  H4  UNL     1     -17.418  38.287  43.389  1.00  0.00     0.245 HD
ENDBRANCH  12  21
BRANCH   5  23
HETATM   23  O1  UNL     1     -13.967  33.916  45.392  1.00  0.00    -0.281 OA
ATOM     24  H1  UNL     1     -13.062  34.160  45.547  1.00  0.00     0.245 HD
ENDBRANCH   5  23
BRANCH   9  25
HETATM   25  N4  UNL     1     -17.067  34.875  39.959  1.00  0.00    -0.116 N 
HETATM   26  O2  UNL     1     -17.061  33.819  39.301  1.00  0.00    -0.532 OA
HETATM   27  O3  UNL     1     -17.606  35.987  39.396  1.00  0.00    -0.532 OA
ENDBRANCH   9  25
TORSDOF 5
ENDMDL
MODEL 5
REMARK VINA RESULT: -7.351592381      3.741      5.004
REMARK  5 active torsions:
REMARK  status: ('A' for Active; 'I' for Inactive)
REMARK    1  A    between atoms: C3_4  and  S1_5 
REMARK    2  A    between atoms: S1_5  and  C4_6 
REMARK    3  A    between atoms: N3_13  and  O1_14 
REMARK    4  A    between atoms: C11_19  and  N4_20 
REMARK    5  A    between atoms: N5_25  and  O4_26 
ROOT
HETATM    1  N1  UNL     1     -12.212  32.771  44.603  1.00  0.00    -0.190 NA
HETATM    2  C1  UNL     1     -13.098  33.404  44.220  1.00  0.00     0.123 C 
HETATM    3  C2  UNL     1     -14.197  34.215  43.717  1.00  0.00     0.178 A 
HETATM    4  C3  UNL     1     -14.680  35.309  44.400  1.00  0.00     0.140 A 
HETATM    5  N3  UNL     1     -15.698  36.025  43.873  1.00  0.00    -0.213 N 
HETATM    6  C8  UNL     1     -16.263  35.710  42.697  1.00  0.00     0.093 A 
HETATM    7  C9  UNL     1     -17.297  36.423  42.144  1.00  0.00     0.037 A 
HETATM    8  C10 UNL     1     -17.826  36.036  40.931  1.00  0.00     0.038 A 
HETATM    9  C11 UNL     1     -17.337  34.932  40.245  1.00  0.00     0.105 A 
HETATM   10  C12 UNL     1     -16.300  34.216  40.798  1.00  0.00     0.070 A 
HETATM   11  C13 UNL     1     -15.781  34.616  42.013  1.00  0.00     0.095 A 
HETATM   12  N5  UNL     1     -14.776  33.913  42.540  1.00  0.00    -0.209 N 
ENDROOT
BRANCH   4  13
HETATM   13  S1  UNL     1     -13.978  35.761  45.964  1.00  0.00    -0.100 SA
BRANCH  13  14
HETATM   14  C4  UNL     1     -15.013  35.272  47.348  1.00  0.00     0.081 C 
HETATM   15  C5  UNL     1     -16.109  34.356  46.888  1.00  0.00     0.044 C 
HETATM   16  C6  UNL     1     -17.249  34.615  47.881  1.00  0.00     0.233 C 
HETATM   17  N2  UNL     1     -16.789  35.696  48.738  1.00  0.00    -0.074 N 
HETATM   18  C7  UNL     1     -15.795  36.412  47.958  1.00  0.00     0.247 C 
ATOM     19  H22 UNL     1     -17.541  36.290  49.090  1.00  0.00     0.277 HD
ATOM     20  H21 UNL     1     -16.449  35.382  49.648  1.00  0.00     0.277 HD
ENDBRANCH  13  14
ENDBRANCH   4  13
BRANCH  12  21
HETATM   21  O4  UNL     1     -14.284  32.810  41.857  1.00  0.00    -0.281 OA
ATOM     22  H4  UNL     1     -14.918  32.174  41.547  1.00  0.00     0.245 HD
ENDBRANCH  12  21
BRANCH   5  23
HETATM   23  O1  UNL     1     -16.203  37.123  44.529  1.00  0.00    -0.281 OA
ATOM     24  H1  UNL     1     -17.090  37.422  44.367  1.00  0.00     0.245 HD
ENDBRANCH   5  23
BRANCH   9  25
HETATM   25  N4  UNL     1     -17.890  34.547  39.001  1.00  0.00    -0.116 N 
HETATM   26  O2  UNL     1     -17.627  33.414  38.559  1.00  0.00    -0.532 OA
HETATM   27  O3  UNL     1     -18.695  35.358  38.267  1.00  0.00    -0.532 OA
ENDBRANCH   9  25
TORSDOF 5
ENDMDL
