MODEL 1
REMARK VINA RESULT: -7.575011304      0.000      0.000
REMARK  0 active torsions:
REMARK  status: ('A' for Active; 'I' for Inactive)
ROOT
HETATM    1  C1  UNL     1      35.331  -7.274 -31.434  1.00  0.00     0.018 C 
HETATM    2  C2  UNL     1      36.199  -7.946 -30.936  1.00  0.00    -0.077 C 
HETATM    3  C3  UNL     1      37.225  -8.761 -30.320  1.00  0.00     0.029 A 
HETATM    4  C4  UNL     1      38.420  -8.275 -29.892  1.00  0.00     0.021 A 
HETATM    5  C5  UNL     1      39.349  -9.112 -29.314  1.00  0.00     0.004 A 
HETATM    6  C6  UNL     1      39.110 -10.451 -29.148  1.00  0.00     0.030 A 
HETATM    7  C7  UNL     1      37.884 -10.970 -29.584  1.00  0.00     0.043 A 
HETATM    8  N1  UNL     1      37.631 -12.295 -29.426  1.00  0.00    -0.365 N 
ATOM      9  H1  UNL     1      38.326 -12.906 -28.996  1.00  0.00     0.165 HD
HETATM   10  C8  UNL     1      36.448 -12.794 -29.846  1.00  0.00     0.088 A 
HETATM   11  C9  UNL     1      35.490 -11.993 -30.430  1.00  0.00     0.018 A 
HETATM   12  C10 UNL     1      35.741 -10.651 -30.590  1.00  0.00     0.016 A 
HETATM   13  C11 UNL     1      36.959 -10.127 -30.160  1.00  0.00     0.009 A 
ENDROOT
TORSDOF 0
ENDMDL
MODEL 2
REMARK VINA RESULT: -7.446205727      0.921      3.061
REMARK  0 active torsions:
REMARK  status: ('A' for Active; 'I' for Inactive)
ROOT
HETATM    1  C1  UNL     1      35.291  -7.466 -31.383  1.00  0.00     0.018 C 
HETATM    2  C2  UNL     1      35.712  -8.535 -31.017  1.00  0.00    -0.077 C 
HETATM    3  C3  UNL     1      36.235  -9.816 -30.593  1.00  0.00     0.029 A 
HETATM    4  C4  UNL     1      35.524 -10.973 -30.633  1.00  0.00     0.021 A 
HETATM    5  C5  UNL     1      36.089 -12.158 -30.213  1.00  0.00     0.004 A 
HETATM    6  C6  UNL     1      37.375 -12.216 -29.742  1.00  0.00     0.030 A 
HETATM    7  C7  UNL     1      38.124 -11.033 -29.693  1.00  0.00     0.043 A 
HETATM    8  N1  UNL     1      39.400 -11.074 -29.230  1.00  0.00    -0.365 N 
ATOM      9  H1  UNL     1      39.810 -11.956 -28.921  1.00  0.00     0.165 HD
HETATM   10  C8  UNL     1      40.121  -9.932 -29.183  1.00  0.00     0.088 A 
HETATM   11  C9  UNL     1      39.595  -8.726 -29.594  1.00  0.00     0.018 A 
HETATM   12  C10 UNL     1      38.304  -8.680 -30.064  1.00  0.00     0.016 A 
HETATM   13  C11 UNL     1      37.552  -9.853 -30.116  1.00  0.00     0.009 A 
ENDROOT
TORSDOF 0
ENDMDL
MODEL 3
REMARK VINA RESULT: -6.879482505      1.442      4.162
REMARK  0 active torsions:
REMARK  status: ('A' for Active; 'I' for Inactive)
ROOT
HETATM    1  C1  UNL     1      40.673 -10.710 -29.227  1.00  0.00     0.018 C 
HETATM    2  C2  UNL     1      39.522 -10.929 -29.512  1.00  0.00    -0.077 C 
HETATM    3  C3  UNL     1      38.133 -11.174 -29.838  1.00  0.00     0.029 A 
HETATM    4  C4  UNL     1      37.535 -12.389 -29.732  1.00  0.00     0.021 A 
HETATM    5  C5  UNL     1      36.206 -12.547 -30.060  1.00  0.00     0.004 A 
HETATM    6  C6  UNL     1      35.443 -11.498 -30.502  1.00  0.00     0.030 A 
HETATM    7  C7  UNL     1      36.042 -10.237 -30.619  1.00  0.00     0.043 A 
HETATM    8  N1  UNL     1      35.299  -9.187 -31.054  1.00  0.00    -0.365 N 
ATOM      9  H1  UNL     1      34.316  -9.314 -31.295  1.00  0.00     0.165 HD
HETATM   10  C8  UNL     1      35.879  -7.971 -31.166  1.00  0.00     0.088 A 
HETATM   11  C9  UNL     1      37.204  -7.769 -30.848  1.00  0.00     0.018 A 
HETATM   12  C10 UNL     1      37.960  -8.829 -30.406  1.00  0.00     0.016 A 
HETATM   13  C11 UNL     1      37.371 -10.087 -30.288  1.00  0.00     0.009 A 
ENDROOT
TORSDOF 0
ENDMDL
MODEL 4
REMARK VINA RESULT: -6.829870500      1.762      2.193
REMARK  0 active torsions:
REMARK  status: ('A' for Active; 'I' for Inactive)
ROOT
HETATM    1  C1  UNL     1      37.870  -7.449 -28.062  1.00  0.00     0.018 C 
HETATM    2  C2  UNL     1      38.199  -8.511 -28.529  1.00  0.00    -0.077 C 
HETATM    3  C3  UNL     1      38.581  -9.796 -29.073  1.00  0.00     0.029 A 
HETATM    4  C4  UNL     1      39.870 -10.182 -29.264  1.00  0.00     0.021 A 
HETATM    5  C5  UNL     1      40.159 -11.424 -29.787  1.00  0.00     0.004 A 
HETATM    6  C6  UNL     1      39.171 -12.309 -30.131  1.00  0.00     0.030 A 
HETATM    7  C7  UNL     1      37.836 -11.929 -29.942  1.00  0.00     0.043 A 
HETATM    8  N1  UNL     1      36.844 -12.795 -30.278  1.00  0.00    -0.365 N 
ATOM      9  H1  UNL     1      37.069 -13.712 -30.664  1.00  0.00     0.165 HD
HETATM   10  C8  UNL     1      35.558 -12.426 -30.094  1.00  0.00     0.088 A 
HETATM   11  C9  UNL     1      35.225 -11.194 -29.574  1.00  0.00     0.018 A 
HETATM   12  C10 UNL     1      36.224 -10.315 -29.232  1.00  0.00     0.016 A 
HETATM   13  C11 UNL     1      37.555 -10.686 -29.418  1.00  0.00     0.009 A 
ENDROOT
TORSDOF 0
ENDMDL
MODEL 5
REMARK VINA RESULT: -6.554074087      1.451      3.873
REMARK  0 active torsions:
REMARK  status: ('A' for Active; 'I' for Inactive)
ROOT
HETATM    1  C1  UNL     1      35.793 -13.028 -30.187  1.00  0.00     0.018 C 
HETATM    2  C2  UNL     1      36.041 -11.862 -30.363  1.00  0.00    -0.077 C 
HETATM    3  C3  UNL     1      36.344 -10.459 -30.550  1.00  0.00     0.029 A 
HETATM    4  C4  UNL     1      35.478  -9.566 -31.096  1.00  0.00     0.021 A 
HETATM    5  C5  UNL     1      35.836  -8.243 -31.243  1.00  0.00     0.004 A 
HETATM    6  C6  UNL     1      37.064  -7.780 -30.850  1.00  0.00     0.030 A 
HETATM    7  C7  UNL     1      37.971  -8.687 -30.285  1.00  0.00     0.043 A 
HETATM    8  N1  UNL     1      39.193  -8.244 -29.889  1.00  0.00    -0.365 N 
ATOM      9  H1  UNL     1      39.448  -7.263 -30.002  1.00  0.00     0.165 HD
HETATM   10  C8  UNL     1      40.066  -9.120 -29.344  1.00  0.00     0.088 A 
HETATM   11  C9  UNL     1      39.748 -10.451 -29.179  1.00  0.00     0.018 A 
HETATM   12  C10 UNL     1      38.513 -10.903 -29.577  1.00  0.00     0.016 A 
HETATM   13  C11 UNL     1      37.605 -10.007 -30.141  1.00  0.00     0.009 A 
ENDROOT
TORSDOF 0
ENDMDL
