MODEL 1
REMARK VINA RESULT: -5.905785086      0.000      0.000
REMARK  0 active torsions:
REMARK  status: ('A' for Active; 'I' for Inactive)
ROOT
HETATM    1  C1  UNL     1      34.577  -6.827 -31.359  1.00  0.00     0.018 C 
HETATM    2  C2  UNL     1      35.464  -7.623 -31.164  1.00  0.00    -0.078 C 
HETATM    3  C3  UNL     1      36.517  -8.571 -30.910  1.00  0.00     0.019 A 
HETATM    4  C4  UNL     1      37.843  -8.194 -30.829  1.00  0.00     0.021 A 
HETATM    5  C5  UNL     1      38.847  -9.109 -30.584  1.00  0.00     0.015 A 
HETATM    6  C6  UNL     1      38.563 -10.448 -30.409  1.00  0.00    -0.009 A 
HETATM    7  C7  UNL     1      39.548 -11.394 -30.161  1.00  0.00     0.015 A 
HETATM    8  C8  UNL     1      39.241 -12.728 -29.989  1.00  0.00     0.018 A 
HETATM    9  C9  UNL     1      37.916 -13.081 -30.073  1.00  0.00     0.088 A 
HETATM   10  N1  UNL     1      36.974 -12.152 -30.313  1.00  0.00    -0.365 N 
ATOM     11  H1  UNL     1      36.002 -12.456 -30.367  1.00  0.00     0.165 HD
HETATM   12  C10 UNL     1      37.242 -10.845 -30.485  1.00  0.00     0.043 A 
HETATM   13  C11 UNL     1      36.245  -9.913 -30.732  1.00  0.00     0.051 A 
ENDROOT
TORSDOF 0
ENDMDL
MODEL 2
REMARK VINA RESULT: -5.524089268      1.269      2.070
REMARK  0 active torsions:
REMARK  status: ('A' for Active; 'I' for Inactive)
ROOT
HETATM    1  C1  UNL     1      34.706  -6.759 -31.398  1.00  0.00     0.018 C 
HETATM    2  C2  UNL     1      35.386  -7.731 -31.169  1.00  0.00    -0.078 C 
HETATM    3  C3  UNL     1      36.207  -8.886 -30.914  1.00  0.00     0.019 A 
HETATM    4  C4  UNL     1      35.793 -10.166 -31.225  1.00  0.00     0.021 A 
HETATM    5  C5  UNL     1      36.588 -11.268 -30.977  1.00  0.00     0.015 A 
HETATM    6  C6  UNL     1      37.836 -11.132 -30.406  1.00  0.00    -0.009 A 
HETATM    7  C7  UNL     1      38.660 -12.219 -30.144  1.00  0.00     0.015 A 
HETATM    8  C8  UNL     1      39.905 -12.060 -29.572  1.00  0.00     0.018 A 
HETATM    9  C9  UNL     1      40.296 -10.778 -29.271  1.00  0.00     0.088 A 
HETATM   10  N1  UNL     1      39.487  -9.736 -29.531  1.00  0.00    -0.365 N 
ATOM     11  H1  UNL     1      39.815  -8.800 -29.293  1.00  0.00     0.165 HD
HETATM   12  C10 UNL     1      38.268  -9.859 -30.088  1.00  0.00     0.043 A 
HETATM   13  C11 UNL     1      37.458  -8.762 -30.343  1.00  0.00     0.051 A 
ENDROOT
TORSDOF 0
ENDMDL
MODEL 3
REMARK VINA RESULT: -4.633040179      1.641      4.871
REMARK  0 active torsions:
REMARK  status: ('A' for Active; 'I' for Inactive)
ROOT
HETATM    1  C1  UNL     1      39.429 -13.406 -30.248  1.00  0.00     0.018 C 
HETATM    2  C2  UNL     1      38.659 -12.488 -30.091  1.00  0.00    -0.078 C 
HETATM    3  C3  UNL     1      37.759 -11.381 -29.901  1.00  0.00     0.019 A 
HETATM    4  C4  UNL     1      37.222 -11.071 -28.667  1.00  0.00     0.021 A 
HETATM    5  C5  UNL     1      36.360 -10.007 -28.494  1.00  0.00     0.015 A 
HETATM    6  C6  UNL     1      35.997  -9.205 -29.556  1.00  0.00    -0.009 A 
HETATM    7  C7  UNL     1      35.132  -8.127 -29.417  1.00  0.00     0.015 A 
HETATM    8  C8  UNL     1      34.784  -7.338 -30.493  1.00  0.00     0.018 A 
HETATM    9  C9  UNL     1      35.329  -7.664 -31.711  1.00  0.00     0.088 A 
HETATM   10  N1  UNL     1      36.165  -8.710 -31.829  1.00  0.00    -0.365 N 
ATOM     11  H1  UNL     1      36.548  -8.918 -32.751  1.00  0.00     0.165 HD
HETATM   12  C10 UNL     1      36.524  -9.498 -30.799  1.00  0.00     0.043 A 
HETATM   13  C11 UNL     1      37.389 -10.571 -30.956  1.00  0.00     0.051 A 
ENDROOT
TORSDOF 0
ENDMDL
MODEL 4
REMARK VINA RESULT: -4.471897575      1.368      4.638
REMARK  0 active torsions:
REMARK  status: ('A' for Active; 'I' for Inactive)
ROOT
HETATM    1  C1  UNL     1      39.669 -13.636 -30.109  1.00  0.00     0.018 C 
HETATM    2  C2  UNL     1      39.141 -12.550 -30.087  1.00  0.00    -0.078 C 
HETATM    3  C3  UNL     1      38.525 -11.250 -30.077  1.00  0.00     0.019 A 
HETATM    4  C4  UNL     1      38.882 -10.272 -29.169  1.00  0.00     0.021 A 
HETATM    5  C5  UNL     1      38.286  -9.027 -29.167  1.00  0.00     0.015 A 
HETATM    6  C6  UNL     1      37.302  -8.707 -30.080  1.00  0.00    -0.009 A 
HETATM    7  C7  UNL     1      36.683  -7.465 -30.105  1.00  0.00     0.015 A 
HETATM    8  C8  UNL     1      35.701  -7.166 -31.026  1.00  0.00     0.018 A 
HETATM    9  C9  UNL     1      35.360  -8.153 -31.920  1.00  0.00     0.088 A 
HETATM   10  N1  UNL     1      35.970  -9.351 -31.882  1.00  0.00    -0.365 N 
ATOM     11  H1  UNL     1      35.688 -10.056 -32.563  1.00  0.00     0.165 HD
HETATM   12  C10 UNL     1      36.931  -9.671 -30.996  1.00  0.00     0.043 A 
HETATM   13  C11 UNL     1      37.539 -10.918 -30.985  1.00  0.00     0.051 A 
ENDROOT
TORSDOF 0
ENDMDL
MODEL 5
REMARK VINA RESULT: -4.360472569      2.007      4.954
REMARK  0 active torsions:
REMARK  status: ('A' for Active; 'I' for Inactive)
ROOT
HETATM    1  C1  UNL     1      40.964 -10.999 -29.154  1.00  0.00     0.018 C 
HETATM    2  C2  UNL     1      39.838 -10.570 -29.248  1.00  0.00    -0.078 C 
HETATM    3  C3  UNL     1      38.504 -10.042 -29.349  1.00  0.00     0.019 A 
HETATM    4  C4  UNL     1      37.493 -10.425 -28.489  1.00  0.00     0.021 A 
HETATM    5  C5  UNL     1      36.215  -9.912 -28.592  1.00  0.00     0.015 A 
HETATM    6  C6  UNL     1      35.895  -8.990 -29.567  1.00  0.00    -0.009 A 
HETATM    7  C7  UNL     1      34.620  -8.455 -29.699  1.00  0.00     0.015 A 
HETATM    8  C8  UNL     1      34.322  -7.534 -30.681  1.00  0.00     0.018 A 
HETATM    9  C9  UNL     1      35.341  -7.167 -31.526  1.00  0.00     0.088 A 
HETATM   10  N1  UNL     1      36.570  -7.694 -31.385  1.00  0.00    -0.365 N 
ATOM     11  H1  UNL     1      37.300  -7.396 -32.032  1.00  0.00     0.165 HD
HETATM   12  C10 UNL     1      36.892  -8.594 -30.437  1.00  0.00     0.043 A 
HETATM   13  C11 UNL     1      38.171  -9.118 -30.320  1.00  0.00     0.051 A 
ENDROOT
TORSDOF 0
ENDMDL
