MODEL 1
REMARK VINA RESULT: -6.808209575      0.000      0.000
REMARK  0 active torsions:
REMARK  status: ('A' for Active; 'I' for Inactive)
ROOT
HETATM    1  C1  UNL     1      35.149  -7.552 -31.265  1.00  0.00     0.051 C 
HETATM    2  C2  UNL     1      36.118  -8.420 -31.024  1.00  0.00     0.066 A 
HETATM    3  C3  UNL     1      37.515  -7.963 -31.009  1.00  0.00     0.037 A 
HETATM    4  C4  UNL     1      38.512  -8.797 -30.772  1.00  0.00     0.017 A 
HETATM    5  C5  UNL     1      38.251 -10.216 -30.515  1.00  0.00    -0.002 A 
HETATM    6  C6  UNL     1      39.280 -11.102 -30.266  1.00  0.00     0.014 A 
HETATM    7  C7  UNL     1      38.987 -12.433 -30.028  1.00  0.00     0.001 A 
HETATM    8  C8  UNL     1      37.693 -12.860 -30.041  1.00  0.00     0.003 A 
HETATM    9  C9  UNL     1      36.694 -11.959 -30.291  1.00  0.00     0.038 A 
HETATM   10  C10 UNL     1      36.930 -10.608 -30.537  1.00  0.00     0.086 A 
HETATM   11  O1  UNL     1      35.867  -9.753 -30.783  1.00  0.00    -0.311 OA
ENDROOT
TORSDOF 0
ENDMDL
MODEL 2
REMARK VINA RESULT: -6.805553418      1.276      2.219
REMARK  0 active torsions:
REMARK  status: ('A' for Active; 'I' for Inactive)
ROOT
HETATM    1  C1  UNL     1      35.266  -7.149 -31.345  1.00  0.00     0.051 C 
HETATM    2  C2  UNL     1      36.091  -8.160 -31.134  1.00  0.00     0.066 A 
HETATM    3  C3  UNL     1      35.809  -9.468 -31.745  1.00  0.00     0.037 A 
HETATM    4  C4  UNL     1      36.608 -10.504 -31.558  1.00  0.00     0.017 A 
HETATM    5  C5  UNL     1      37.809 -10.378 -30.729  1.00  0.00    -0.002 A 
HETATM    6  C6  UNL     1      38.655 -11.450 -30.523  1.00  0.00     0.014 A 
HETATM    7  C7  UNL     1      39.779 -11.286 -29.733  1.00  0.00     0.001 A 
HETATM    8  C8  UNL     1      40.043 -10.075 -29.165  1.00  0.00     0.003 A 
HETATM    9  C9  UNL     1      39.187  -9.031 -29.387  1.00  0.00     0.038 A 
HETATM   10  C10 UNL     1      38.041  -9.139 -30.173  1.00  0.00     0.086 A 
HETATM   11  O1  UNL     1      37.219  -8.037 -30.353  1.00  0.00    -0.311 OA
ENDROOT
TORSDOF 0
ENDMDL
MODEL 3
REMARK VINA RESULT: -6.411036749      1.335      3.970
REMARK  0 active torsions:
REMARK  status: ('A' for Active; 'I' for Inactive)
ROOT
HETATM    1  C1  UNL     1      39.376 -12.957 -30.123  1.00  0.00     0.051 C 
HETATM    2  C2  UNL     1      38.858 -11.741 -30.127  1.00  0.00     0.066 A 
HETATM    3  C3  UNL     1      39.447 -10.697 -29.275  1.00  0.00     0.037 A 
HETATM    4  C4  UNL     1      38.959  -9.469 -29.250  1.00  0.00     0.017 A 
HETATM    5  C5  UNL     1      37.806  -9.109 -30.079  1.00  0.00    -0.002 A 
HETATM    6  C6  UNL     1      37.283  -7.831 -30.065  1.00  0.00     0.014 A 
HETATM    7  C7  UNL     1      36.193  -7.535 -30.863  1.00  0.00     0.001 A 
HETATM    8  C8  UNL     1      35.643  -8.500 -31.654  1.00  0.00     0.003 A 
HETATM    9  C9  UNL     1      36.183  -9.758 -31.647  1.00  0.00     0.038 A 
HETATM   10  C10 UNL     1      37.280 -10.112 -30.863  1.00  0.00     0.086 A 
HETATM   11  O1  UNL     1      37.773 -11.407 -30.908  1.00  0.00    -0.311 OA
ENDROOT
TORSDOF 0
ENDMDL
MODEL 4
REMARK VINA RESULT: -6.343767680      1.748      2.981
REMARK  0 active torsions:
REMARK  status: ('A' for Active; 'I' for Inactive)
ROOT
HETATM    1  C1  UNL     1      39.936  -7.788 -29.394  1.00  0.00     0.051 C 
HETATM    2  C2  UNL     1      39.280  -8.929 -29.519  1.00  0.00     0.066 A 
HETATM    3  C3  UNL     1      40.013 -10.201 -29.438  1.00  0.00     0.037 A 
HETATM    4  C4  UNL     1      39.395 -11.363 -29.559  1.00  0.00     0.017 A 
HETATM    5  C5  UNL     1      37.947 -11.417 -29.779  1.00  0.00    -0.002 A 
HETATM    6  C6  UNL     1      37.285 -12.622 -29.907  1.00  0.00     0.014 A 
HETATM    7  C7  UNL     1      35.918 -12.626 -30.115  1.00  0.00     0.001 A 
HETATM    8  C8  UNL     1      35.235 -11.449 -30.191  1.00  0.00     0.003 A 
HETATM    9  C9  UNL     1      35.918 -10.270 -30.060  1.00  0.00     0.038 A 
HETATM   10  C10 UNL     1      37.295 -10.206 -29.850  1.00  0.00     0.086 A 
HETATM   11  O1  UNL     1      37.919  -8.975 -29.727  1.00  0.00    -0.311 OA
ENDROOT
TORSDOF 0
ENDMDL
MODEL 5
REMARK VINA RESULT: -6.157288285      1.824      2.845
REMARK  0 active torsions:
REMARK  status: ('A' for Active; 'I' for Inactive)
ROOT
HETATM    1  C1  UNL     1      40.085  -7.901 -29.457  1.00  0.00     0.051 C 
HETATM    2  C2  UNL     1      39.033  -8.637 -29.776  1.00  0.00     0.066 A 
HETATM    3  C3  UNL     1      38.215  -8.268 -30.941  1.00  0.00     0.037 A 
HETATM    4  C4  UNL     1      37.156  -8.977 -31.293  1.00  0.00     0.017 A 
HETATM    5  C5  UNL     1      36.763 -10.160 -30.524  1.00  0.00    -0.002 A 
HETATM    6  C6  UNL     1      35.660 -10.912 -30.877  1.00  0.00     0.014 A 
HETATM    7  C7  UNL     1      35.325 -12.021 -30.122  1.00  0.00     0.001 A 
HETATM    8  C8  UNL     1      36.080 -12.365 -29.041  1.00  0.00     0.003 A 
HETATM    9  C9  UNL     1      37.168 -11.602 -28.715  1.00  0.00     0.038 A 
HETATM   10  C10 UNL     1      37.552 -10.474 -29.439  1.00  0.00     0.086 A 
HETATM   11  O1  UNL     1      38.667  -9.748 -29.049  1.00  0.00    -0.311 OA
ENDROOT
TORSDOF 0
ENDMDL
