MODEL 1
REMARK VINA RESULT: -7.678210119      0.000      0.000
REMARK  0 active torsions:
REMARK  status: ('A' for Active; 'I' for Inactive)
ROOT
HETATM    1  C1  UNL     1      35.288  -7.315 -31.455  1.00  0.00     0.018 C 
HETATM    2  C2  UNL     1      36.161  -7.975 -30.947  1.00  0.00    -0.077 C 
HETATM    3  C3  UNL     1      37.191  -8.767 -30.336  1.00  0.00     0.028 A 
HETATM    4  C4  UNL     1      38.384  -8.195 -29.940  1.00  0.00     0.021 A 
HETATM    5  C5  UNL     1      39.374  -8.972 -29.349  1.00  0.00     0.002 A 
HETATM    6  C6  UNL     1      39.169 -10.317 -29.157  1.00  0.00     0.014 A 
HETATM    7  C7  UNL     1      37.992 -10.915 -29.541  1.00  0.00    -0.009 A 
HETATM    8  C8  UNL     1      37.776 -12.264 -29.353  1.00  0.00     0.100 A 
HETATM    9  N1  UNL     1      36.599 -12.795 -29.752  1.00  0.00    -0.374 N 
ATOM     10  H1  UNL     1      36.428 -13.792 -29.618  1.00  0.00     0.164 HD
HETATM   11  C9  UNL     1      35.657 -12.041 -30.317  1.00  0.00     0.088 A 
HETATM   12  C10 UNL     1      35.829 -10.684 -30.526  1.00  0.00     0.030 A 
HETATM   13  C11 UNL     1      37.011 -10.107 -30.134  1.00  0.00    -0.005 A 
ENDROOT
TORSDOF 0
ENDMDL
MODEL 2
REMARK VINA RESULT: -7.493690421      1.464      3.038
REMARK  0 active torsions:
REMARK  status: ('A' for Active; 'I' for Inactive)
ROOT
HETATM    1  C1  UNL     1      35.273  -7.471 -31.392  1.00  0.00     0.018 C 
HETATM    2  C2  UNL     1      35.745  -8.521 -31.030  1.00  0.00    -0.077 C 
HETATM    3  C3  UNL     1      36.317  -9.767 -30.605  1.00  0.00     0.028 A 
HETATM    4  C4  UNL     1      35.592 -10.940 -30.674  1.00  0.00     0.021 A 
HETATM    5  C5  UNL     1      36.157 -12.141 -30.260  1.00  0.00     0.002 A 
HETATM    6  C6  UNL     1      37.444 -12.166 -29.779  1.00  0.00     0.014 A 
HETATM    7  C7  UNL     1      38.190 -11.013 -29.699  1.00  0.00    -0.009 A 
HETATM    8  C8  UNL     1      39.483 -11.028 -29.217  1.00  0.00     0.100 A 
HETATM    9  N1  UNL     1      40.167  -9.863 -29.161  1.00  0.00    -0.374 N 
ATOM     10  H1  UNL     1      41.124  -9.860 -28.807  1.00  0.00     0.164 HD
HETATM   11  C9  UNL     1      39.616  -8.717 -29.561  1.00  0.00     0.088 A 
HETATM   12  C10 UNL     1      38.323  -8.656 -30.051  1.00  0.00     0.030 A 
HETATM   13  C11 UNL     1      37.595  -9.817 -30.123  1.00  0.00    -0.005 A 
ENDROOT
TORSDOF 0
ENDMDL
MODEL 3
REMARK VINA RESULT: -7.039478921      1.873      3.237
REMARK  0 active torsions:
REMARK  status: ('A' for Active; 'I' for Inactive)
ROOT
HETATM    1  C1  UNL     1      37.828  -7.359 -27.935  1.00  0.00     0.018 C 
HETATM    2  C2  UNL     1      37.463  -8.406 -28.413  1.00  0.00    -0.077 C 
HETATM    3  C3  UNL     1      37.038  -9.649 -28.990  1.00  0.00     0.028 A 
HETATM    4  C4  UNL     1      35.696  -9.939 -29.140  1.00  0.00     0.021 A 
HETATM    5  C5  UNL     1      35.296 -11.147 -29.700  1.00  0.00     0.002 A 
HETATM    6  C6  UNL     1      36.237 -12.061 -30.108  1.00  0.00     0.014 A 
HETATM    7  C7  UNL     1      37.581 -11.800 -29.972  1.00  0.00    -0.009 A 
HETATM    8  C8  UNL     1      38.534 -12.711 -30.379  1.00  0.00     0.100 A 
HETATM    9  N1  UNL     1      39.840 -12.399 -30.218  1.00  0.00    -0.374 N 
ATOM     10  H1  UNL     1      40.553 -13.064 -30.515  1.00  0.00     0.164 HD
HETATM   11  C9  UNL     1      40.212 -11.238 -29.680  1.00  0.00     0.088 A 
HETATM   12  C10 UNL     1      39.291 -10.294 -29.258  1.00  0.00     0.030 A 
HETATM   13  C11 UNL     1      37.955 -10.575 -29.404  1.00  0.00    -0.005 A 
ENDROOT
TORSDOF 0
ENDMDL
MODEL 4
REMARK VINA RESULT: -6.732408552      1.732      2.312
REMARK  0 active torsions:
REMARK  status: ('A' for Active; 'I' for Inactive)
ROOT
HETATM    1  C1  UNL     1      35.283  -7.234 -31.668  1.00  0.00     0.018 C 
HETATM    2  C2  UNL     1      35.669  -8.092 -30.911  1.00  0.00    -0.077 C 
HETATM    3  C3  UNL     1      36.128  -9.120 -30.022  1.00  0.00     0.028 A 
HETATM    4  C4  UNL     1      35.566  -9.277 -28.770  1.00  0.00     0.021 A 
HETATM    5  C5  UNL     1      36.019 -10.276 -27.917  1.00  0.00     0.002 A 
HETATM    6  C6  UNL     1      37.032 -11.115 -28.316  1.00  0.00     0.014 A 
HETATM    7  C7  UNL     1      37.611 -10.983 -29.556  1.00  0.00    -0.009 A 
HETATM    8  C8  UNL     1      38.628 -11.820 -29.967  1.00  0.00     0.100 A 
HETATM    9  N1  UNL     1      39.158 -11.640 -31.198  1.00  0.00    -0.374 N 
ATOM     10  H1  UNL     1      39.911 -12.253 -31.513  1.00  0.00     0.164 HD
HETATM   11  C9  UNL     1      38.716 -10.679 -32.008  1.00  0.00     0.088 A 
HETATM   12  C10 UNL     1      37.698  -9.817 -31.638  1.00  0.00     0.030 A 
HETATM   13  C11 UNL     1      37.134  -9.966 -30.396  1.00  0.00    -0.005 A 
ENDROOT
TORSDOF 0
ENDMDL
MODEL 5
REMARK VINA RESULT: -6.717685913      1.765      4.217
REMARK  0 active torsions:
REMARK  status: ('A' for Active; 'I' for Inactive)
ROOT
HETATM    1  C1  UNL     1      40.676 -10.768 -29.212  1.00  0.00     0.018 C 
HETATM    2  C2  UNL     1      39.515 -10.921 -29.506  1.00  0.00    -0.077 C 
HETATM    3  C3  UNL     1      38.132 -11.092 -29.850  1.00  0.00     0.028 A 
HETATM    4  C4  UNL     1      37.528 -12.330 -29.762  1.00  0.00     0.021 A 
HETATM    5  C5  UNL     1      36.187 -12.484 -30.098  1.00  0.00     0.002 A 
HETATM    6  C6  UNL     1      35.456 -11.400 -30.520  1.00  0.00     0.014 A 
HETATM    7  C7  UNL     1      36.031 -10.154 -30.618  1.00  0.00    -0.009 A 
HETATM    8  C8  UNL     1      35.305  -9.060 -31.041  1.00  0.00     0.100 A 
HETATM    9  N1  UNL     1      35.926  -7.861 -31.118  1.00  0.00    -0.374 N 
ATOM     10  H1  UNL     1      35.400  -7.044 -31.430  1.00  0.00     0.164 HD
HETATM   11  C9  UNL     1      37.211  -7.725 -30.794  1.00  0.00     0.088 A 
HETATM   12  C10 UNL     1      37.977  -8.795 -30.364  1.00  0.00     0.030 A 
HETATM   13  C11 UNL     1      37.384 -10.029 -30.273  1.00  0.00    -0.005 A 
ENDROOT
TORSDOF 0
ENDMDL
