MODEL 1
REMARK VINA RESULT: -8.658484354      0.000      0.000
REMARK  4 active torsions:
REMARK  status: ('A' for Active; 'I' for Inactive)
REMARK    1  A    between atoms: N1_1  and  S1_4 
REMARK    2  A    between atoms: S1_4  and  C1_7 
REMARK    3  A    between atoms: C5_13  and  C6_14 
REMARK    4  A    between atoms: C6_14  and  C7_15 
ROOT
HETATM    1  C1  UNL     1      -7.381  12.037  20.417  1.00  0.00     0.082 A 
HETATM    2  C2  UNL     1      -6.595  10.910  20.292  1.00  0.00     0.028 A 
HETATM    3  C3  UNL     1      -6.772  10.098  19.211  1.00  0.00     0.034 A 
HETATM    4  C4  UNL     1      -7.736  10.408  18.248  1.00  0.00     0.067 A 
HETATM    5  N2  UNL     1      -7.930   9.626  17.175  1.00  0.00    -0.352 N 
ATOM      6  H2  UNL     1      -7.354   8.790  17.075  1.00  0.00     0.166 HD
HETATM    7  C5  UNL     1      -8.854   9.889  16.217  1.00  0.00     0.090 A 
HETATM    8  C13 UNL     1      -9.605  11.027  16.402  1.00  0.00     0.311 A 
HETATM    9  O3  UNL     1     -10.490  11.373  15.580  1.00  0.00    -0.258 OA
HETATM   10  O4  UNL     1      -9.434  11.819  17.454  1.00  0.00    -0.272 OA
HETATM   11  C14 UNL     1      -8.519  11.537  18.379  1.00  0.00     0.107 A 
HETATM   12  C15 UNL     1      -8.347  12.373  19.479  1.00  0.00     0.065 A 
ENDROOT
BRANCH   7  13
HETATM   13  C6  UNL     1      -8.987   8.979  15.082  1.00  0.00     0.102 C 
BRANCH  13  14
HETATM   14  C7  UNL     1      -8.488   7.618  15.276  1.00  0.00    -0.052 A 
HETATM   15  C8  UNL     1      -7.263   7.272  14.759  1.00  0.00     0.007 A 
HETATM   16  C9  UNL     1      -6.717   5.989  14.911  1.00  0.00     0.001 A 
HETATM   17  C10 UNL     1      -7.423   5.039  15.595  1.00  0.00     0.000 A 
HETATM   18  C11 UNL     1      -8.650   5.382  16.113  1.00  0.00     0.001 A 
HETATM   19  C12 UNL     1      -9.190   6.638  15.968  1.00  0.00     0.007 A 
ENDBRANCH  13  14
ENDBRANCH   7  13
BRANCH   1  20
HETATM   20  S1  UNL     1      -7.111  13.044  21.824  1.00  0.00     0.256 S 
HETATM   21  O1  UNL     1      -7.795  12.456  23.032  1.00  0.00    -0.201 OA
HETATM   22  O2  UNL     1      -5.645  13.259  22.068  1.00  0.00    -0.201 OA
BRANCH  20  23
HETATM   23  N1  UNL     1      -7.851  14.576  21.511  1.00  0.00    -0.324 N 
ATOM     24  H12 UNL     1      -8.847  14.784  21.598  1.00  0.00     0.169 HD
ATOM     25  H11 UNL     1      -7.110  15.217  21.227  1.00  0.00     0.169 HD
ENDBRANCH  20  23
ENDBRANCH   1  20
TORSDOF 4
ENDMDL
MODEL 2
REMARK VINA RESULT: -8.587340923      0.147      1.012
REMARK  4 active torsions:
REMARK  status: ('A' for Active; 'I' for Inactive)
REMARK    1  A    between atoms: N1_1  and  S1_4 
REMARK    2  A    between atoms: S1_4  and  C1_7 
REMARK    3  A    between atoms: C5_13  and  C6_14 
REMARK    4  A    between atoms: C6_14  and  C7_15 
ROOT
HETATM    1  C1  UNL     1      -7.350  12.054  20.530  1.00  0.00     0.082 A 
HETATM    2  C2  UNL     1      -6.595  10.902  20.431  1.00  0.00     0.028 A 
HETATM    3  C3  UNL     1      -6.770  10.089  19.350  1.00  0.00     0.034 A 
HETATM    4  C4  UNL     1      -7.700  10.421  18.362  1.00  0.00     0.067 A 
HETATM    5  N2  UNL     1      -7.892   9.638  17.290  1.00  0.00    -0.352 N 
ATOM      6  H2  UNL     1      -7.339   8.784  17.209  1.00  0.00     0.166 HD
HETATM    7  C5  UNL     1      -8.784   9.921  16.308  1.00  0.00     0.090 A 
HETATM    8  C13 UNL     1      -9.504  11.083  16.468  1.00  0.00     0.311 A 
HETATM    9  O3  UNL     1     -10.359  11.449  15.623  1.00  0.00    -0.258 OA
HETATM   10  O4  UNL     1      -9.336  11.877  17.519  1.00  0.00    -0.272 OA
HETATM   11  C14 UNL     1      -8.452  11.574  18.468  1.00  0.00     0.107 A 
HETATM   12  C15 UNL     1      -8.282  12.412  19.566  1.00  0.00     0.065 A 
ENDROOT
BRANCH   7  13
HETATM   13  C6  UNL     1      -8.917   9.009  15.176  1.00  0.00     0.102 C 
BRANCH  13  14
HETATM   14  C7  UNL     1      -8.369   7.665  15.354  1.00  0.00    -0.052 A 
HETATM   15  C8  UNL     1      -9.157   6.685  15.910  1.00  0.00     0.007 A 
HETATM   16  C9  UNL     1      -8.703   5.374  16.104  1.00  0.00     0.001 A 
HETATM   17  C10 UNL     1      -7.429   5.045  15.733  1.00  0.00     0.000 A 
HETATM   18  C11 UNL     1      -6.636   6.023  15.177  1.00  0.00     0.001 A 
HETATM   19  C12 UNL     1      -7.077   7.311  14.983  1.00  0.00     0.007 A 
ENDBRANCH  13  14
ENDBRANCH   7  13
BRANCH   1  20
HETATM   20  S1  UNL     1      -7.084  13.061  21.937  1.00  0.00     0.256 S 
HETATM   21  O1  UNL     1      -7.810  12.500  23.132  1.00  0.00    -0.201 OA
HETATM   22  O2  UNL     1      -5.618  13.238  22.213  1.00  0.00    -0.201 OA
BRANCH  20  23
HETATM   23  N1  UNL     1      -7.775  14.611  21.598  1.00  0.00    -0.324 N 
ATOM     24  H12 UNL     1      -7.252  15.469  21.421  1.00  0.00     0.169 HD
ATOM     25  H11 UNL     1      -8.789  14.499  21.610  1.00  0.00     0.169 HD
ENDBRANCH  20  23
ENDBRANCH   1  20
TORSDOF 4
ENDMDL
MODEL 3
REMARK VINA RESULT: -7.896317966      1.088      1.655
REMARK  4 active torsions:
REMARK  status: ('A' for Active; 'I' for Inactive)
REMARK    1  A    between atoms: N1_1  and  S1_4 
REMARK    2  A    between atoms: S1_4  and  C1_7 
REMARK    3  A    between atoms: C5_13  and  C6_14 
REMARK    4  A    between atoms: C6_14  and  C7_15 
ROOT
HETATM    1  C1  UNL     1      -7.211  11.644  20.561  1.00  0.00     0.082 A 
HETATM    2  C2  UNL     1      -6.692  10.402  20.864  1.00  0.00     0.028 A 
HETATM    3  C3  UNL     1      -6.813   9.395  19.953  1.00  0.00     0.034 A 
HETATM    4  C4  UNL     1      -7.454   9.623  18.732  1.00  0.00     0.067 A 
HETATM    5  N2  UNL     1      -7.587   8.649  17.819  1.00  0.00    -0.352 N 
ATOM      6  H2  UNL     1      -7.207   7.728  18.035  1.00  0.00     0.166 HD
HETATM    7  C5  UNL     1      -8.202   8.827  16.623  1.00  0.00     0.090 A 
HETATM    8  C13 UNL     1      -8.697  10.088  16.383  1.00  0.00     0.311 A 
HETATM    9  O3  UNL     1      -9.286  10.371  15.309  1.00  0.00    -0.258 OA
HETATM   10  O4  UNL     1      -8.580  11.070  17.268  1.00  0.00    -0.272 OA
HETATM   11  C14 UNL     1      -7.971  10.868  18.435  1.00  0.00     0.107 A 
HETATM   12  C15 UNL     1      -7.854  11.903  19.358  1.00  0.00     0.065 A 
ENDROOT
BRANCH   7  13
HETATM   13  C6  UNL     1      -8.292   7.706  15.691  1.00  0.00     0.102 C 
BRANCH  13  14
HETATM   14  C7  UNL     1      -7.078   6.913  15.506  1.00  0.00    -0.052 A 
HETATM   15  C8  UNL     1      -7.187   5.569  15.238  1.00  0.00     0.007 A 
HETATM   16  C9  UNL     1      -6.068   4.747  15.041  1.00  0.00     0.001 A 
HETATM   17  C10 UNL     1      -4.817   5.292  15.117  1.00  0.00     0.000 A 
HETATM   18  C11 UNL     1      -4.703   6.637  15.386  1.00  0.00     0.001 A 
HETATM   19  C12 UNL     1      -5.797   7.447  15.579  1.00  0.00     0.007 A 
ENDBRANCH  13  14
ENDBRANCH   7  13
BRANCH   1  20
HETATM   20  S1  UNL     1      -7.027  12.900  21.766  1.00  0.00     0.256 S 
HETATM   21  O1  UNL     1      -7.620  12.461  23.080  1.00  0.00    -0.201 OA
HETATM   22  O2  UNL     1      -5.589  13.306  21.916  1.00  0.00    -0.201 OA
BRANCH  20  23
HETATM   23  N1  UNL     1      -7.936  14.270  21.226  1.00  0.00    -0.324 N 
ATOM     24  H12 UNL     1      -8.850  14.236  20.773  1.00  0.00     0.169 HD
ATOM     25  H11 UNL     1      -7.388  15.102  21.446  1.00  0.00     0.169 HD
ENDBRANCH  20  23
ENDBRANCH   1  20
TORSDOF 4
ENDMDL
MODEL 4
REMARK VINA RESULT: -7.881782437      4.557      6.014
REMARK  4 active torsions:
REMARK  status: ('A' for Active; 'I' for Inactive)
REMARK    1  A    between atoms: N1_1  and  S1_4 
REMARK    2  A    between atoms: S1_4  and  C1_7 
REMARK    3  A    between atoms: C5_13  and  C6_14 
REMARK    4  A    between atoms: C6_14  and  C7_15 
ROOT
HETATM    1  C1  UNL     1      -5.222   5.986  19.740  1.00  0.00     0.082 A 
HETATM    2  C2  UNL     1      -5.825   7.160  20.144  1.00  0.00     0.028 A 
HETATM    3  C3  UNL     1      -6.525   7.891  19.231  1.00  0.00     0.034 A 
HETATM    4  C4  UNL     1      -6.628   7.453  17.908  1.00  0.00     0.067 A 
HETATM    5  N2  UNL     1      -7.310   8.155  16.990  1.00  0.00    -0.352 N 
ATOM      6  H2  UNL     1      -7.758   9.024  17.280  1.00  0.00     0.166 HD
HETATM    7  C5  UNL     1      -7.435   7.767  15.696  1.00  0.00     0.090 A 
HETATM    8  C13 UNL     1      -6.811   6.588  15.358  1.00  0.00     0.311 A 
HETATM    9  O3  UNL     1      -6.858   6.129  14.190  1.00  0.00    -0.258 OA
HETATM   10  O4  UNL     1      -6.129   5.874  16.246  1.00  0.00    -0.272 OA
HETATM   11  C14 UNL     1      -6.023   6.278  17.511  1.00  0.00     0.107 A 
HETATM   12  C15 UNL     1      -5.305   5.523  18.434  1.00  0.00     0.065 A 
ENDROOT
BRANCH   7  13
HETATM   13  C6  UNL     1      -8.204   8.596  14.772  1.00  0.00     0.102 C 
BRANCH  13  14
HETATM   14  C7  UNL     1      -8.902   9.743  15.351  1.00  0.00    -0.052 A 
HETATM   15  C8  UNL     1     -10.118  10.121  14.834  1.00  0.00     0.007 A 
HETATM   16  C9  UNL     1     -10.848  11.205  15.342  1.00  0.00     0.001 A 
HETATM   17  C10 UNL     1     -10.340  11.921  16.389  1.00  0.00     0.000 A 
HETATM   18  C11 UNL     1      -9.123  11.546  16.910  1.00  0.00     0.001 A 
HETATM   19  C12 UNL     1      -8.403  10.484  16.416  1.00  0.00     0.007 A 
ENDBRANCH  13  14
ENDBRANCH   7  13
BRANCH   1  20
HETATM   20  S1  UNL     1      -4.337   5.087  20.954  1.00  0.00     0.256 S 
HETATM   21  O1  UNL     1      -5.265   4.617  22.044  1.00  0.00    -0.201 OA
HETATM   22  O2  UNL     1      -3.580   3.943  20.341  1.00  0.00    -0.201 OA
BRANCH  20  23
HETATM   23  N1  UNL     1      -3.204   6.176  21.677  1.00  0.00    -0.324 N 
ATOM     24  H12 UNL     1      -3.049   6.294  22.679  1.00  0.00     0.169 HD
ATOM     25  H11 UNL     1      -2.731   6.668  20.919  1.00  0.00     0.169 HD
ENDBRANCH  20  23
ENDBRANCH   1  20
TORSDOF 4
ENDMDL
MODEL 5
REMARK VINA RESULT: -7.873101598      4.780      6.552
REMARK  4 active torsions:
REMARK  status: ('A' for Active; 'I' for Inactive)
REMARK    1  A    between atoms: N1_1  and  S1_4 
REMARK    2  A    between atoms: S1_4  and  C1_7 
REMARK    3  A    between atoms: C5_13  and  C6_14 
REMARK    4  A    between atoms: C6_14  and  C7_15 
ROOT
HETATM    1  C1  UNL     1      -4.472   5.498  17.659  1.00  0.00     0.082 A 
HETATM    2  C2  UNL     1      -4.414   5.995  16.372  1.00  0.00     0.028 A 
HETATM    3  C3  UNL     1      -5.107   7.130  16.071  1.00  0.00     0.034 A 
HETATM    4  C4  UNL     1      -5.861   7.776  17.054  1.00  0.00     0.067 A 
HETATM    5  N2  UNL     1      -6.553   8.894  16.783  1.00  0.00    -0.352 N 
ATOM      6  H2  UNL     1      -6.516   9.268  15.834  1.00  0.00     0.166 HD
HETATM    7  C5  UNL     1      -7.298   9.553  17.705  1.00  0.00     0.090 A 
HETATM    8  C13 UNL     1      -7.313   9.006  18.968  1.00  0.00     0.311 A 
HETATM    9  O3  UNL     1      -7.968   9.528  19.904  1.00  0.00    -0.258 OA
HETATM   10  O4  UNL     1      -6.639   7.901  19.263  1.00  0.00    -0.272 OA
HETATM   11  C14 UNL     1      -5.915   7.274  18.338  1.00  0.00     0.107 A 
HETATM   12  C15 UNL     1      -5.212   6.116  18.658  1.00  0.00     0.065 A 
ENDROOT
BRANCH   7  13
HETATM   13  C6  UNL     1      -8.011  10.766  17.315  1.00  0.00     0.102 C 
BRANCH  13  14
HETATM   14  C7  UNL     1      -8.994  10.628  16.242  1.00  0.00    -0.052 A 
HETATM   15  C8  UNL     1      -8.753   9.743  15.219  1.00  0.00     0.007 A 
HETATM   16  C9  UNL     1      -9.653   9.552  14.161  1.00  0.00     0.001 A 
HETATM   17  C10 UNL     1     -10.816  10.269  14.135  1.00  0.00     0.000 A 
HETATM   18  C11 UNL     1     -11.062  11.157  15.157  1.00  0.00     0.001 A 
HETATM   19  C12 UNL     1     -10.183  11.348  16.198  1.00  0.00     0.007 A 
ENDBRANCH  13  14
ENDBRANCH   7  13
BRANCH   1  20
HETATM   20  S1  UNL     1      -3.563   4.039  17.990  1.00  0.00     0.256 S 
HETATM   21  O1  UNL     1      -4.037   3.403  19.271  1.00  0.00    -0.201 OA
HETATM   22  O2  UNL     1      -3.632   3.079  16.837  1.00  0.00    -0.201 OA
BRANCH  20  23
HETATM   23  N1  UNL     1      -1.913   4.503  18.228  1.00  0.00    -0.324 N 
ATOM     24  H12 UNL     1      -1.363   4.333  19.070  1.00  0.00     0.169 HD
ATOM     25  H11 UNL     1      -1.605   4.970  17.375  1.00  0.00     0.169 HD
ENDBRANCH  20  23
ENDBRANCH   1  20
TORSDOF 4
ENDMDL
