MODEL 1
REMARK VINA RESULT: -8.391762818      0.000      0.000
REMARK  4 active torsions:
REMARK  status: ('A' for Active; 'I' for Inactive)
REMARK    1  A    between atoms: C7_8  and  C8_9 
REMARK    2  A    between atoms: N1_13  and  C10_14 
REMARK    3  A    between atoms: C10_14  and  C11_15 
REMARK    4  A    between atoms: C17_21  and  O3_22 
ROOT
HETATM    1  C8  UNL     1      -6.235   7.864  16.848  1.00  0.00     0.133 A 
HETATM    2  O1  UNL     1      -5.230   7.772  16.016  1.00  0.00    -0.257 OA
HETATM    3  C9  UNL     1      -4.907   6.514  15.858  1.00  0.00     0.374 A 
HETATM    4  O2  UNL     1      -3.965   6.097  15.108  1.00  0.00    -0.237 OA
HETATM    5  N1  UNL     1      -5.719   5.749  16.606  1.00  0.00    -0.267 N 
HETATM    6  C17 UNL     1      -6.558   6.585  17.233  1.00  0.00     0.182 A 
ENDROOT
BRANCH   1   7
HETATM    7  C7  UNL     1      -6.922   9.068  17.315  1.00  0.00     0.061 C 
HETATM    8  C6  UNL     1      -7.930   9.536  16.552  1.00  0.00     0.017 A 
HETATM    9  C2  UNL     1      -8.727  10.629  16.755  1.00  0.00    -0.027 A 
HETATM   10  S1  UNL     1      -8.515   8.890  15.088  1.00  0.00    -0.094 SA
HETATM   11  C1  UNL     1      -8.568  11.422  17.842  1.00  0.00     0.025 C 
HETATM   12  C3  UNL     1      -9.676  10.877  15.822  1.00  0.00     0.026 A 
HETATM   13  C4  UNL     1      -9.748  10.010  14.764  1.00  0.00    -0.020 A 
HETATM   14  C5  UNL     1     -10.715  10.074  13.605  1.00  0.00     0.056 C 
ENDBRANCH   1   7
BRANCH   6  15
HETATM   15  O3  UNL     1      -7.570   6.182  18.117  1.00  0.00    -0.344 OA
ATOM     16  H3  UNL     1      -8.476   5.979  17.913  1.00  0.00     0.219 HD
ENDBRANCH   6  15
BRANCH   5  17
HETATM   17  C10 UNL     1      -5.686   4.289  16.712  1.00  0.00     0.175 C 
BRANCH  17  18
HETATM   18  C11 UNL     1      -4.621   3.875  17.694  1.00  0.00    -0.040 A 
HETATM   19  C12 UNL     1      -3.611   3.025  17.302  1.00  0.00     0.009 A 
HETATM   20  C13 UNL     1      -2.627   2.626  18.162  1.00  0.00     0.001 A 
HETATM   21  C14 UNL     1      -2.636   3.085  19.464  1.00  0.00     0.000 A 
HETATM   22  C15 UNL     1      -3.645   3.938  19.868  1.00  0.00     0.001 A 
HETATM   23  C16 UNL     1      -4.631   4.330  18.985  1.00  0.00     0.009 A 
ENDBRANCH  17  18
ENDBRANCH   5  17
TORSDOF 4
ENDMDL
MODEL 2
REMARK VINA RESULT: -8.381534756      0.118      1.018
REMARK  4 active torsions:
REMARK  status: ('A' for Active; 'I' for Inactive)
REMARK    1  A    between atoms: C7_8  and  C8_9 
REMARK    2  A    between atoms: N1_13  and  C10_14 
REMARK    3  A    between atoms: C10_14  and  C11_15 
REMARK    4  A    between atoms: C17_21  and  O3_22 
ROOT
HETATM    1  C8  UNL     1      -6.214   7.857  16.943  1.00  0.00     0.133 A 
HETATM    2  O1  UNL     1      -5.214   7.754  16.106  1.00  0.00    -0.257 OA
HETATM    3  C9  UNL     1      -4.893   6.494  15.961  1.00  0.00     0.374 A 
HETATM    4  O2  UNL     1      -3.957   6.067  15.210  1.00  0.00    -0.237 OA
HETATM    5  N1  UNL     1      -5.702   5.738  16.723  1.00  0.00    -0.267 N 
HETATM    6  C17 UNL     1      -6.536   6.583  17.344  1.00  0.00     0.182 A 
ENDROOT
BRANCH   1   7
HETATM    7  C7  UNL     1      -6.897   9.067  17.399  1.00  0.00     0.061 C 
HETATM    8  C6  UNL     1      -7.897   9.538  16.627  1.00  0.00     0.017 A 
HETATM    9  C2  UNL     1      -8.689  10.637  16.821  1.00  0.00    -0.027 A 
HETATM   10  S1  UNL     1      -8.476   8.888  15.163  1.00  0.00    -0.094 SA
HETATM   11  C1  UNL     1      -8.532  11.433  17.904  1.00  0.00     0.025 C 
HETATM   12  C3  UNL     1      -9.630  10.885  15.880  1.00  0.00     0.026 A 
HETATM   13  C4  UNL     1      -9.700  10.013  14.826  1.00  0.00    -0.020 A 
HETATM   14  C5  UNL     1     -10.659  10.078  13.660  1.00  0.00     0.056 C 
ENDBRANCH   1   7
BRANCH   6  15
HETATM   15  O3  UNL     1      -7.544   6.192  18.239  1.00  0.00    -0.344 OA
ATOM     16  H3  UNL     1      -7.476   5.580  18.962  1.00  0.00     0.219 HD
ENDBRANCH   6  15
BRANCH   5  17
HETATM   17  C10 UNL     1      -5.670   4.280  16.845  1.00  0.00     0.175 C 
BRANCH  17  18
HETATM   18  C11 UNL     1      -4.590   3.875  17.815  1.00  0.00    -0.040 A 
HETATM   19  C12 UNL     1      -4.621   4.332  19.113  1.00  0.00     0.009 A 
HETATM   20  C13 UNL     1      -3.661   3.987  20.024  1.00  0.00     0.001 A 
HETATM   21  C14 UNL     1      -2.627   3.158  19.639  1.00  0.00     0.000 A 
HETATM   22  C15 UNL     1      -2.586   2.695  18.338  1.00  0.00     0.001 A 
HETATM   23  C16 UNL     1      -3.564   3.053  17.432  1.00  0.00     0.009 A 
ENDBRANCH  17  18
ENDBRANCH   5  17
TORSDOF 4
ENDMDL
MODEL 3
REMARK VINA RESULT: -8.131568567      1.961      7.546
REMARK  4 active torsions:
REMARK  status: ('A' for Active; 'I' for Inactive)
REMARK    1  A    between atoms: C7_8  and  C8_9 
REMARK    2  A    between atoms: N1_13  and  C10_14 
REMARK    3  A    between atoms: C10_14  and  C11_15 
REMARK    4  A    between atoms: C17_21  and  O3_22 
ROOT
HETATM    1  C8  UNL     1      -6.778   6.553  17.806  1.00  0.00     0.133 A 
HETATM    2  O1  UNL     1      -7.922   6.012  17.474  1.00  0.00    -0.257 OA
HETATM    3  C9  UNL     1      -8.441   6.671  16.471  1.00  0.00     0.374 A 
HETATM    4  O2  UNL     1      -9.554   6.389  15.918  1.00  0.00    -0.237 OA
HETATM    5  N1  UNL     1      -7.621   7.677  16.126  1.00  0.00    -0.267 N 
HETATM    6  C17 UNL     1      -6.571   7.613  16.958  1.00  0.00     0.182 A 
ENDROOT
BRANCH   1   7
HETATM    7  C7  UNL     1      -5.854   6.148  18.866  1.00  0.00     0.061 C 
HETATM    8  C6  UNL     1      -5.053   5.093  18.615  1.00  0.00     0.017 A 
HETATM    9  C2  UNL     1      -4.111   4.517  19.423  1.00  0.00    -0.027 A 
HETATM   10  S1  UNL     1      -4.979   4.156  17.194  1.00  0.00    -0.094 SA
HETATM   11  C1  UNL     1      -3.868   4.991  20.668  1.00  0.00     0.025 C 
HETATM   12  C3  UNL     1      -3.439   3.455  18.918  1.00  0.00     0.026 A 
HETATM   13  C4  UNL     1      -3.767   3.060  17.648  1.00  0.00    -0.020 A 
HETATM   14  C5  UNL     1      -3.162   1.912  16.874  1.00  0.00     0.056 C 
ENDBRANCH   1   7
BRANCH   6  15
HETATM   15  O3  UNL     1      -5.480   8.494  16.930  1.00  0.00    -0.344 OA
ATOM     16  H3  UNL     1      -4.926   8.713  16.190  1.00  0.00     0.219 HD
ENDBRANCH   6  15
BRANCH   5  17
HETATM   17  C10 UNL     1      -7.838   8.649  15.052  1.00  0.00     0.175 C 
BRANCH  17  18
HETATM   18  C11 UNL     1      -8.731   9.758  15.545  1.00  0.00    -0.040 A 
HETATM   19  C12 UNL     1      -9.858  10.105  14.834  1.00  0.00     0.009 A 
HETATM   20  C13 UNL     1     -10.694  11.105  15.247  1.00  0.00     0.001 A 
HETATM   21  C14 UNL     1     -10.409  11.790  16.410  1.00  0.00     0.000 A 
HETATM   22  C15 UNL     1      -9.280  11.450  17.131  1.00  0.00     0.001 A 
HETATM   23  C16 UNL     1      -8.447  10.438  16.699  1.00  0.00     0.009 A 
ENDBRANCH  17  18
ENDBRANCH   5  17
TORSDOF 4
ENDMDL
MODEL 4
REMARK VINA RESULT: -8.101394059      1.423      2.371
REMARK  4 active torsions:
REMARK  status: ('A' for Active; 'I' for Inactive)
REMARK    1  A    between atoms: C7_8  and  C8_9 
REMARK    2  A    between atoms: N1_13  and  C10_14 
REMARK    3  A    between atoms: C10_14  and  C11_15 
REMARK    4  A    between atoms: C17_21  and  O3_22 
ROOT
HETATM    1  C8  UNL     1      -6.601   6.391  15.331  1.00  0.00     0.133 A 
HETATM    2  O1  UNL     1      -5.310   6.600  15.294  1.00  0.00    -0.257 OA
HETATM    3  C9  UNL     1      -4.700   5.684  16.002  1.00  0.00     0.374 A 
HETATM    4  O2  UNL     1      -3.438   5.615  16.161  1.00  0.00    -0.237 OA
HETATM    5  N1  UNL     1      -5.610   4.845  16.523  1.00  0.00    -0.267 N 
HETATM    6  C17 UNL     1      -6.808   5.278  16.109  1.00  0.00     0.182 A 
ENDROOT
BRANCH   1   7
HETATM    7  C7  UNL     1      -7.665   7.162  14.687  1.00  0.00     0.061 C 
HETATM    8  C6  UNL     1      -8.070   8.289  15.305  1.00  0.00     0.017 A 
HETATM    9  C2  UNL     1      -9.033   9.182  14.923  1.00  0.00    -0.027 A 
HETATM   10  S1  UNL     1      -7.485   8.943  16.766  1.00  0.00    -0.094 SA
HETATM   11  C1  UNL     1      -9.742   9.004  13.783  1.00  0.00     0.025 C 
HETATM   12  C3  UNL     1      -9.241  10.244  15.736  1.00  0.00     0.026 A 
HETATM   13  C4  UNL     1      -8.467  10.323  16.864  1.00  0.00    -0.020 A 
HETATM   14  C5  UNL     1      -8.511  11.405  17.917  1.00  0.00     0.056 C 
ENDBRANCH   1   7
BRANCH   6  15
HETATM   15  O3  UNL     1      -8.030   4.672  16.437  1.00  0.00    -0.344 OA
ATOM     16  H3  UNL     1      -8.382   3.853  16.107  1.00  0.00     0.219 HD
ENDBRANCH   6  15
BRANCH   5  17
HETATM   17  C10 UNL     1      -5.337   3.686  17.377  1.00  0.00     0.175 C 
BRANCH  17  18
HETATM   18  C11 UNL     1      -4.770   4.149  18.694  1.00  0.00    -0.040 A 
HETATM   19  C12 UNL     1      -3.657   3.534  19.221  1.00  0.00     0.009 A 
HETATM   20  C13 UNL     1      -3.111   3.924  20.413  1.00  0.00     0.001 A 
HETATM   21  C14 UNL     1      -3.686   4.965  21.114  1.00  0.00     0.000 A 
HETATM   22  C15 UNL     1      -4.804   5.588  20.594  1.00  0.00     0.001 A 
HETATM   23  C16 UNL     1      -5.341   5.181  19.389  1.00  0.00     0.009 A 
ENDBRANCH  17  18
ENDBRANCH   5  17
TORSDOF 4
ENDMDL
MODEL 5
REMARK VINA RESULT: -8.062370300      2.003      7.910
REMARK  4 active torsions:
REMARK  status: ('A' for Active; 'I' for Inactive)
REMARK    1  A    between atoms: C7_8  and  C8_9 
REMARK    2  A    between atoms: N1_13  and  C10_14 
REMARK    3  A    between atoms: C10_14  and  C11_15 
REMARK    4  A    between atoms: C17_21  and  O3_22 
ROOT
HETATM    1  C8  UNL     1      -6.326   6.600  17.575  1.00  0.00     0.133 A 
HETATM    2  O1  UNL     1      -7.076   6.711  18.641  1.00  0.00    -0.257 OA
HETATM    3  C9  UNL     1      -7.378   7.969  18.834  1.00  0.00     0.374 A 
HETATM    4  O2  UNL     1      -8.097   8.402  19.792  1.00  0.00    -0.237 OA
HETATM    5  N1  UNL     1      -6.813   8.715  17.870  1.00  0.00    -0.267 N 
HETATM    6  C17 UNL     1      -6.150   7.866  17.072  1.00  0.00     0.182 A 
ENDROOT
BRANCH   1   7
HETATM    7  C7  UNL     1      -5.758   5.388  16.985  1.00  0.00     0.061 C 
HETATM    8  C6  UNL     1      -4.918   4.665  17.753  1.00  0.00     0.017 A 
HETATM    9  C2  UNL     1      -4.258   3.506  17.450  1.00  0.00    -0.027 A 
HETATM   10  S1  UNL     1      -4.429   4.989  19.353  1.00  0.00    -0.094 SA
HETATM   11  C1  UNL     1      -4.393   2.916  16.238  1.00  0.00     0.025 C 
HETATM   12  C3  UNL     1      -3.467   2.981  18.416  1.00  0.00     0.026 A 
HETATM   13  C4  UNL     1      -3.404   3.661  19.604  1.00  0.00    -0.020 A 
HETATM   14  C5  UNL     1      -2.599   3.279  20.824  1.00  0.00     0.056 C 
ENDBRANCH   1   7
BRANCH   6  15
HETATM   15  O3  UNL     1      -5.419   8.248  15.938  1.00  0.00    -0.344 OA
ATOM     16  H3  UNL     1      -4.831   7.714  15.415  1.00  0.00     0.219 HD
ENDBRANCH   6  15
BRANCH   5  17
HETATM   17  C10 UNL     1      -6.908  10.169  17.726  1.00  0.00     0.175 C 
BRANCH  17  18
HETATM   18  C11 UNL     1      -8.168  10.524  16.981  1.00  0.00    -0.040 A 
HETATM   19  C12 UNL     1      -9.071  11.406  17.531  1.00  0.00     0.009 A 
HETATM   20  C13 UNL     1     -10.226  11.755  16.886  1.00  0.00     0.001 A 
HETATM   21  C14 UNL     1     -10.502  11.212  15.648  1.00  0.00     0.000 A 
HETATM   22  C15 UNL     1      -9.603  10.325  15.087  1.00  0.00     0.001 A 
HETATM   23  C16 UNL     1      -8.442   9.985  15.752  1.00  0.00     0.009 A 
ENDBRANCH  17  18
ENDBRANCH   5  17
TORSDOF 4
ENDMDL
