MODEL 1
REMARK VINA RESULT: -8.165356748      0.000      0.000
REMARK  3 active torsions:
REMARK  status: ('A' for Active; 'I' for Inactive)
REMARK    1  A    between atoms: C4_7  and  N2_8 
REMARK    2  A    between atoms: C8_14  and  N3_15 
REMARK    3  A    between atoms: C9_17  and  C10_18 
ROOT
HETATM    1  O1  UNL     1     -10.043  10.797  15.718  1.00  0.00    -0.266 OA
HETATM    2  C1  UNL     1      -9.404  11.053  16.790  1.00  0.00     0.273 A 
HETATM    3  N1  UNL     1      -9.546  12.147  17.667  1.00  0.00    -0.321 N 
ATOM      4  H1  UNL     1     -10.207  12.917  17.562  1.00  0.00     0.169 HD
HETATM    5  C2  UNL     1      -8.695  12.006  18.629  1.00  0.00     0.050 A 
HETATM    6  C3  UNL     1      -8.421  12.794  19.745  1.00  0.00     0.066 A 
HETATM    7  C4  UNL     1      -7.460  12.455  20.655  1.00  0.00     0.105 A 
HETATM    8  C5  UNL     1      -6.728  11.306  20.488  1.00  0.00     0.037 A 
HETATM    9  C6  UNL     1      -6.981  10.524  19.402  1.00  0.00     0.018 A 
HETATM   10  C7  UNL     1      -7.962  10.853  18.457  1.00  0.00     0.023 A 
HETATM   11  C8  UNL     1      -8.346  10.227  17.356  1.00  0.00     0.113 A 
ENDROOT
BRANCH  11  12
HETATM   12  N3  UNL     1      -7.796   9.023  16.897  1.00  0.00    -0.360 N 
HETATM   13  C9  UNL     1      -6.863   8.907  16.045  1.00  0.00     0.100 C 
ATOM     14  H3  UNL     1      -8.181   8.161  17.283  1.00  0.00     0.165 HD
BRANCH  13  15
HETATM   15  C10 UNL     1      -6.410   7.560  15.679  1.00  0.00    -0.021 A 
HETATM   16  C11 UNL     1      -7.308   6.572  15.329  1.00  0.00     0.014 A 
HETATM   17  C12 UNL     1      -6.895   5.301  14.984  1.00  0.00     0.020 A 
HETATM   18  C13 UNL     1      -5.557   4.969  14.975  1.00  0.00     0.011 A 
HETATM   19  S1  UNL     1      -4.961   3.346  14.539  1.00  0.00    -0.053 SA
HETATM   20  C14 UNL     1      -4.669   5.961  15.326  1.00  0.00     0.020 A 
HETATM   21  C15 UNL     1      -5.061   7.234  15.673  1.00  0.00     0.014 A 
ENDBRANCH  13  15
ENDBRANCH  11  12
BRANCH   7  22
HETATM   22  N2  UNL     1      -7.207  13.294  21.797  1.00  0.00    -0.116 N 
HETATM   23  O2  UNL     1      -6.938  12.796  22.891  1.00  0.00    -0.532 OA
HETATM   24  O3  UNL     1      -7.266  14.652  21.657  1.00  0.00    -0.532 OA
ENDBRANCH   7  22
TORSDOF 3
ENDMDL
MODEL 2
REMARK VINA RESULT: -8.162833291      0.056      1.007
REMARK  3 active torsions:
REMARK  status: ('A' for Active; 'I' for Inactive)
REMARK    1  A    between atoms: C4_7  and  N2_8 
REMARK    2  A    between atoms: C8_14  and  N3_15 
REMARK    3  A    between atoms: C9_17  and  C10_18 
ROOT
HETATM    1  O1  UNL     1     -10.080  10.808  15.706  1.00  0.00    -0.266 OA
HETATM    2  C1  UNL     1      -9.444  11.062  16.780  1.00  0.00     0.273 A 
HETATM    3  N1  UNL     1      -9.585  12.156  17.656  1.00  0.00    -0.321 N 
ATOM      4  H1  UNL     1     -10.242  12.929  17.547  1.00  0.00     0.169 HD
HETATM    5  C2  UNL     1      -8.737  12.012  18.621  1.00  0.00     0.050 A 
HETATM    6  C3  UNL     1      -8.465  12.799  19.738  1.00  0.00     0.066 A 
HETATM    7  C4  UNL     1      -7.510  12.456  20.653  1.00  0.00     0.105 A 
HETATM    8  C5  UNL     1      -6.782  11.304  20.489  1.00  0.00     0.037 A 
HETATM    9  C6  UNL     1      -7.034  10.522  19.402  1.00  0.00     0.018 A 
HETATM   10  C7  UNL     1      -8.009  10.855  18.453  1.00  0.00     0.023 A 
HETATM   11  C8  UNL     1      -8.392  10.231  17.350  1.00  0.00     0.113 A 
ENDROOT
BRANCH  11  12
HETATM   12  N3  UNL     1      -7.845   9.024  16.894  1.00  0.00    -0.360 N 
HETATM   13  C9  UNL     1      -6.919   8.903  16.035  1.00  0.00     0.100 C 
ATOM     14  H3  UNL     1      -8.227   8.165  17.288  1.00  0.00     0.165 HD
BRANCH  13  15
HETATM   15  C10 UNL     1      -6.469   7.553  15.674  1.00  0.00    -0.021 A 
HETATM   16  C11 UNL     1      -5.129   7.224  15.660  1.00  0.00     0.014 A 
HETATM   17  C12 UNL     1      -4.693   5.959  15.322  1.00  0.00     0.020 A 
HETATM   18  C13 UNL     1      -5.590   4.968  14.981  1.00  0.00     0.011 A 
HETATM   19  S1  UNL     1      -5.090   3.316  14.535  1.00  0.00    -0.053 SA
HETATM   20  C14 UNL     1      -6.924   5.307  14.997  1.00  0.00     0.020 A 
HETATM   21  C15 UNL     1      -7.379   6.563  15.332  1.00  0.00     0.014 A 
ENDBRANCH  13  15
ENDBRANCH  11  12
BRANCH   7  22
HETATM   22  N2  UNL     1      -7.257  13.295  21.795  1.00  0.00    -0.116 N 
HETATM   23  O2  UNL     1      -6.971  12.796  22.885  1.00  0.00    -0.532 OA
HETATM   24  O3  UNL     1      -7.335  14.652  21.660  1.00  0.00    -0.532 OA
ENDBRANCH   7  22
TORSDOF 3
ENDMDL
MODEL 3
REMARK VINA RESULT: -8.037430123      4.212      7.800
REMARK  3 active torsions:
REMARK  status: ('A' for Active; 'I' for Inactive)
REMARK    1  A    between atoms: C4_7  and  N2_8 
REMARK    2  A    between atoms: C8_14  and  N3_15 
REMARK    3  A    between atoms: C9_17  and  C10_18 
ROOT
HETATM    1  O1  UNL     1      -9.925  10.344  15.040  1.00  0.00    -0.266 OA
HETATM    2  C1  UNL     1      -9.006   9.465  15.106  1.00  0.00     0.273 A 
HETATM    3  N1  UNL     1      -8.784   8.350  14.274  1.00  0.00    -0.321 N 
ATOM      4  H1  UNL     1      -9.353   8.081  13.470  1.00  0.00     0.169 HD
HETATM    5  C2  UNL     1      -7.737   7.726  14.704  1.00  0.00     0.050 A 
HETATM    6  C3  UNL     1      -7.094   6.577  14.250  1.00  0.00     0.066 A 
HETATM    7  C4  UNL     1      -5.978   6.080  14.864  1.00  0.00     0.105 A 
HETATM    8  C5  UNL     1      -5.457   6.714  15.963  1.00  0.00     0.037 A 
HETATM    9  C6  UNL     1      -6.074   7.839  16.422  1.00  0.00     0.018 A 
HETATM   10  C7  UNL     1      -7.217   8.365  15.807  1.00  0.00     0.023 A 
HETATM   11  C8  UNL     1      -7.944   9.432  16.103  1.00  0.00     0.113 A 
ENDROOT
BRANCH  11  12
HETATM   12  N3  UNL     1      -7.680  10.297  17.172  1.00  0.00    -0.360 N 
HETATM   13  C9  UNL     1      -8.034  10.121  18.378  1.00  0.00     0.100 C 
ATOM     14  H3  UNL     1      -7.157  11.147  16.962  1.00  0.00     0.165 HD
BRANCH  13  15
HETATM   15  C10 UNL     1      -7.670  11.139  19.372  1.00  0.00    -0.021 A 
HETATM   16  C11 UNL     1      -6.539  11.007  20.152  1.00  0.00     0.014 A 
HETATM   17  C12 UNL     1      -6.186  11.956  21.090  1.00  0.00     0.020 A 
HETATM   18  C13 UNL     1      -6.959  13.082  21.283  1.00  0.00     0.011 A 
HETATM   19  S1  UNL     1      -6.557  14.343  22.478  1.00  0.00    -0.053 SA
HETATM   20  C14 UNL     1      -8.086  13.203  20.502  1.00  0.00     0.020 A 
HETATM   21  C15 UNL     1      -8.454  12.268  19.561  1.00  0.00     0.014 A 
ENDBRANCH  13  15
ENDBRANCH  11  12
BRANCH   7  22
HETATM   22  N2  UNL     1      -5.340   4.890  14.365  1.00  0.00    -0.116 N 
HETATM   23  O2  UNL     1      -5.458   3.819  14.965  1.00  0.00    -0.532 OA
HETATM   24  O3  UNL     1      -4.601   4.956  13.218  1.00  0.00    -0.532 OA
ENDBRANCH   7  22
TORSDOF 3
ENDMDL
MODEL 4
REMARK VINA RESULT: -7.915522031      1.469      1.890
REMARK  3 active torsions:
REMARK  status: ('A' for Active; 'I' for Inactive)
REMARK    1  A    between atoms: C4_7  and  N2_8 
REMARK    2  A    between atoms: C8_14  and  N3_15 
REMARK    3  A    between atoms: C9_17  and  C10_18 
ROOT
HETATM    1  O1  UNL     1      -9.209   9.194  14.543  1.00  0.00    -0.266 OA
HETATM    2  C1  UNL     1      -8.830   9.639  15.675  1.00  0.00     0.273 A 
HETATM    3  N1  UNL     1      -9.148  10.862  16.298  1.00  0.00    -0.321 N 
ATOM      4  H1  UNL     1      -9.749  11.591  15.913  1.00  0.00     0.169 HD
HETATM    5  C2  UNL     1      -8.546  10.901  17.441  1.00  0.00     0.050 A 
HETATM    6  C3  UNL     1      -8.522  11.871  18.441  1.00  0.00     0.066 A 
HETATM    7  C4  UNL     1      -7.806  11.707  19.594  1.00  0.00     0.105 A 
HETATM    8  C5  UNL     1      -7.081  10.560  19.797  1.00  0.00     0.037 A 
HETATM    9  C6  UNL     1      -7.093   9.601  18.829  1.00  0.00     0.018 A 
HETATM   10  C7  UNL     1      -7.819   9.749  17.641  1.00  0.00     0.023 A 
HETATM   11  C8  UNL     1      -7.951   8.939  16.602  1.00  0.00     0.113 A 
ENDROOT
BRANCH  11  12
HETATM   12  N3  UNL     1      -7.337   7.685  16.493  1.00  0.00    -0.360 N 
HETATM   13  C9  UNL     1      -6.314   7.414  15.792  1.00  0.00     0.100 C 
ATOM     14  H3  UNL     1      -7.749   6.919  17.026  1.00  0.00     0.165 HD
BRANCH  13  15
HETATM   15  C10 UNL     1      -5.804   6.038  15.796  1.00  0.00    -0.021 A 
HETATM   16  C11 UNL     1      -5.578   5.353  14.619  1.00  0.00     0.014 A 
HETATM   17  C12 UNL     1      -5.100   4.059  14.609  1.00  0.00     0.020 A 
HETATM   18  C13 UNL     1      -4.828   3.396  15.787  1.00  0.00     0.011 A 
HETATM   19  S1  UNL     1      -4.208   1.724  15.841  1.00  0.00    -0.053 SA
HETATM   20  C14 UNL     1      -5.058   4.086  16.956  1.00  0.00     0.020 A 
HETATM   21  C15 UNL     1      -5.534   5.378  16.986  1.00  0.00     0.014 A 
ENDBRANCH  13  15
ENDBRANCH  11  12
BRANCH   7  22
HETATM   22  N2  UNL     1      -7.806  12.732  20.605  1.00  0.00    -0.116 N 
HETATM   23  O2  UNL     1      -8.579  13.689  20.525  1.00  0.00    -0.532 OA
HETATM   24  O3  UNL     1      -6.940  12.635  21.658  1.00  0.00    -0.532 OA
ENDBRANCH   7  22
TORSDOF 3
ENDMDL
MODEL 5
REMARK VINA RESULT: -7.908793758      4.544      8.109
REMARK  3 active torsions:
REMARK  status: ('A' for Active; 'I' for Inactive)
REMARK    1  A    between atoms: C4_7  and  N2_8 
REMARK    2  A    between atoms: C8_14  and  N3_15 
REMARK    3  A    between atoms: C9_17  and  C10_18 
ROOT
HETATM    1  O1  UNL     1      -6.948   7.925  20.532  1.00  0.00    -0.266 OA
HETATM    2  C1  UNL     1      -7.353   8.350  19.401  1.00  0.00     0.273 A 
HETATM    3  N1  UNL     1      -7.710   7.615  18.254  1.00  0.00    -0.321 N 
ATOM      4  H1  UNL     1      -7.693   6.599  18.165  1.00  0.00     0.169 HD
HETATM    5  C2  UNL     1      -8.063   8.450  17.333  1.00  0.00     0.050 A 
HETATM    6  C3  UNL     1      -8.499   8.254  16.024  1.00  0.00     0.066 A 
HETATM    7  C4  UNL     1      -8.828   9.297  15.205  1.00  0.00     0.105 A 
HETATM    8  C5  UNL     1      -8.734  10.588  15.661  1.00  0.00     0.037 A 
HETATM    9  C6  UNL     1      -8.308  10.798  16.938  1.00  0.00     0.018 A 
HETATM   10  C7  UNL     1      -7.967   9.744  17.795  1.00  0.00     0.023 A 
HETATM   11  C8  UNL     1      -7.540   9.751  19.048  1.00  0.00     0.113 A 
ENDROOT
BRANCH  11  12
HETATM   12  N3  UNL     1      -7.335  10.910  19.807  1.00  0.00    -0.360 N 
HETATM   13  C9  UNL     1      -6.283  11.201  20.454  1.00  0.00     0.100 C 
ATOM     14  H3  UNL     1      -8.103  11.581  19.844  1.00  0.00     0.165 HD
BRANCH  13  15
HETATM   15  C10 UNL     1      -6.244  12.465  21.199  1.00  0.00    -0.021 A 
HETATM   16  C11 UNL     1      -5.053  12.989  21.660  1.00  0.00     0.014 A 
HETATM   17  C12 UNL     1      -5.003  14.176  22.363  1.00  0.00     0.020 A 
HETATM   18  C13 UNL     1      -6.153  14.889  22.632  1.00  0.00     0.011 A 
HETATM   19  S1  UNL     1      -6.154  16.427  23.534  1.00  0.00    -0.053 SA
HETATM   20  C14 UNL     1      -7.335  14.357  22.169  1.00  0.00     0.020 A 
HETATM   21  C15 UNL     1      -7.406  13.175  21.467  1.00  0.00     0.014 A 
ENDBRANCH  13  15
ENDBRANCH  11  12
BRANCH   7  22
HETATM   22  N2  UNL     1      -9.275   9.055  13.858  1.00  0.00    -0.116 N 
HETATM   23  O2  UNL     1      -8.642   8.303  13.115  1.00  0.00    -0.532 OA
HETATM   24  O3  UNL     1     -10.412   9.667  13.409  1.00  0.00    -0.532 OA
ENDBRANCH   7  22
TORSDOF 3
ENDMDL
