MODEL 1
REMARK VINA RESULT: -8.147450429      0.000      0.000
REMARK  4 active torsions:
REMARK  status: ('A' for Active; 'I' for Inactive)
REMARK    1  A    between atoms: C2_2  and  C3_3 
REMARK    2  A    between atoms: C8_9  and  C9_10 
REMARK    3  A    between atoms: C11_12  and  O2_13 
REMARK    4  A    between atoms: C15_19  and  O4_20 
ROOT
HETATM    1  C3  UNL     1      -7.355   8.475  15.585  1.00  0.00    -0.004 C 
HETATM    2  C4  UNL     1      -8.368   9.277  15.325  1.00  0.00    -0.051 C 
HETATM    3  C5  UNL     1      -9.444   8.770  14.433  1.00  0.00     0.038 C 
HETATM    4  C6  UNL     1     -10.315   9.908  13.909  1.00  0.00     0.030 C 
HETATM    5  C7  UNL     1     -10.637  10.747  15.146  1.00  0.00     0.169 C 
HETATM    6  O1  UNL     1      -9.479  11.415  15.450  1.00  0.00    -0.379 OA
HETATM    7  C8  UNL     1      -8.445  10.659  15.904  1.00  0.00     0.179 C 
ENDROOT
BRANCH   1   8
HETATM    8  C2  UNL     1      -7.079   7.124  15.144  1.00  0.00     0.035 C 
HETATM    9  C1  UNL     1      -7.751   6.853  13.804  1.00  0.00     0.027 C 
HETATM   10  C13 UNL     1      -7.748   6.109  16.094  1.00  0.00     0.023 C 
HETATM   11  C14 UNL     1      -6.858   4.928  16.365  1.00  0.00     0.033 C 
HETATM   12  C15 UNL     1      -6.240   4.320  15.148  1.00  0.00     0.125 C 
HETATM   13  C16 UNL     1      -5.434   5.394  14.402  1.00  0.00     0.111 C 
HETATM   14  C17 UNL     1      -5.658   6.720  15.096  1.00  0.00     0.141 C 
HETATM   15  O5  UNL     1      -4.707   7.294  15.525  1.00  0.00    -0.297 OA
BRANCH  12  16
HETATM   16  O4  UNL     1      -5.376   3.315  15.580  1.00  0.00    -0.395 OA
ATOM     17  H4  UNL     1      -5.912   2.578  15.849  1.00  0.00     0.210 HD
ENDBRANCH  12  16
ENDBRANCH   1   8
BRANCH   7  18
HETATM   18  C9  UNL     1      -8.409  10.667  17.390  1.00  0.00     0.157 C 
HETATM   19  C10 UNL     1      -7.039  10.347  17.950  1.00  0.00     0.068 C 
HETATM   20  C11 UNL     1      -7.308  10.628  19.427  1.00  0.00     0.144 C 
HETATM   21  C12 UNL     1      -8.417  11.649  19.333  1.00  0.00     0.200 C 
HETATM   22  O3  UNL     1      -8.658  11.873  17.989  1.00  0.00    -0.380 OA
BRANCH  20  23
HETATM   23  O2  UNL     1      -7.810   9.443  19.961  1.00  0.00    -0.393 OA
ATOM     24  H2  UNL     1      -8.701   9.631  20.229  1.00  0.00     0.210 HD
ENDBRANCH  20  23
ENDBRANCH   7  18
TORSDOF 4
ENDMDL
MODEL 2
REMARK VINA RESULT: -8.095360351      1.126      1.442
REMARK  4 active torsions:
REMARK  status: ('A' for Active; 'I' for Inactive)
REMARK    1  A    between atoms: C2_2  and  C3_3 
REMARK    2  A    between atoms: C8_9  and  C9_10 
REMARK    3  A    between atoms: C11_12  and  O2_13 
REMARK    4  A    between atoms: C15_19  and  O4_20 
ROOT
HETATM    1  C3  UNL     1      -6.476   7.805  15.750  1.00  0.00    -0.004 C 
HETATM    2  C4  UNL     1      -7.458   8.680  15.669  1.00  0.00    -0.051 C 
HETATM    3  C5  UNL     1      -8.694   8.274  14.950  1.00  0.00     0.038 C 
HETATM    4  C6  UNL     1      -9.553   9.483  14.593  1.00  0.00     0.030 C 
HETATM    5  C7  UNL     1      -9.616  10.305  15.880  1.00  0.00     0.169 C 
HETATM    6  O1  UNL     1      -8.380  10.883  16.010  1.00  0.00    -0.379 OA
HETATM    7  C8  UNL     1      -7.344  10.047  16.279  1.00  0.00     0.179 C 
ENDROOT
BRANCH   1   8
HETATM    8  C2  UNL     1      -6.370   6.452  15.245  1.00  0.00     0.035 C 
HETATM    9  C1  UNL     1      -7.359   6.227  14.108  1.00  0.00     0.027 C 
HETATM   10  C13 UNL     1      -6.826   5.446  16.322  1.00  0.00     0.023 C 
HETATM   11  C14 UNL     1      -5.945   4.229  16.359  1.00  0.00     0.033 C 
HETATM   12  C15 UNL     1      -5.667   3.619  15.023  1.00  0.00     0.125 C 
HETATM   13  C16 UNL     1      -5.026   4.676  14.111  1.00  0.00     0.111 C 
HETATM   14  C17 UNL     1      -5.020   5.997  14.848  1.00  0.00     0.141 C 
HETATM   15  O5  UNL     1      -3.972   6.529  15.036  1.00  0.00    -0.297 OA
BRANCH  12  16
HETATM   16  O4  UNL     1      -4.764   2.576  15.223  1.00  0.00    -0.395 OA
ATOM     17  H4  UNL     1      -4.741   2.065  14.423  1.00  0.00     0.210 HD
ENDBRANCH  12  16
ENDBRANCH   1   8
BRANCH   7  18
HETATM   18  C9  UNL     1      -7.075  10.008  17.741  1.00  0.00     0.157 C 
HETATM   19  C10 UNL     1      -7.599  11.227  18.471  1.00  0.00     0.068 C 
HETATM   20  C11 UNL     1      -7.340  10.779  19.908  1.00  0.00     0.144 C 
HETATM   21  C12 UNL     1      -7.410   9.277  19.764  1.00  0.00     0.200 C 
HETATM   22  O3  UNL     1      -7.692   9.003  18.437  1.00  0.00    -0.380 OA
BRANCH  20  23
HETATM   23  O2  UNL     1      -6.031  11.158  20.201  1.00  0.00    -0.393 OA
ATOM     24  H2  UNL     1      -5.768  10.639  20.951  1.00  0.00     0.210 HD
ENDBRANCH  20  23
ENDBRANCH   7  18
TORSDOF 4
ENDMDL
MODEL 3
REMARK VINA RESULT: -7.992746725      2.753      6.084
REMARK  4 active torsions:
REMARK  status: ('A' for Active; 'I' for Inactive)
REMARK    1  A    between atoms: C2_2  and  C3_3 
REMARK    2  A    between atoms: C8_9  and  C9_10 
REMARK    3  A    between atoms: C11_12  and  O2_13 
REMARK    4  A    between atoms: C15_19  and  O4_20 
ROOT
HETATM    1  C3  UNL     1      -6.995   7.768  17.418  1.00  0.00    -0.004 C 
HETATM    2  C4  UNL     1      -6.178   6.867  16.911  1.00  0.00    -0.051 C 
HETATM    3  C5  UNL     1      -5.600   7.132  15.568  1.00  0.00     0.038 C 
HETATM    4  C6  UNL     1      -5.017   5.863  14.953  1.00  0.00     0.030 C 
HETATM    5  C7  UNL     1      -4.180   5.242  16.071  1.00  0.00     0.169 C 
HETATM    6  O1  UNL     1      -5.082   4.719  16.961  1.00  0.00    -0.379 OA
HETATM    7  C8  UNL     1      -5.834   5.611  17.657  1.00  0.00     0.179 C 
ENDROOT
BRANCH   1   8
HETATM    8  C2  UNL     1      -7.459   9.032  16.885  1.00  0.00     0.035 C 
HETATM    9  C1  UNL     1      -6.305   9.804  16.259  1.00  0.00     0.027 C 
HETATM   10  C13 UNL     1      -7.926   9.952  18.032  1.00  0.00     0.023 C 
HETATM   11  C14 UNL     1      -9.178  10.702  17.672  1.00  0.00     0.033 C 
HETATM   12  C15 UNL     1      -9.148  11.357  16.329  1.00  0.00     0.125 C 
HETATM   13  C16 UNL     1      -8.875  10.292  15.255  1.00  0.00     0.111 C 
HETATM   14  C17 UNL     1      -8.605   8.977  15.952  1.00  0.00     0.141 C 
HETATM   15  O5  UNL     1      -9.313   8.053  15.697  1.00  0.00    -0.297 OA
BRANCH  12  16
HETATM   16  O4  UNL     1     -10.407  11.916  16.112  1.00  0.00    -0.395 OA
ATOM     17  H4  UNL     1     -10.675  11.675  15.232  1.00  0.00     0.210 HD
ENDBRANCH  12  16
ENDBRANCH   1   8
BRANCH   7  18
HETATM   18  C9  UNL     1      -5.227   5.875  18.988  1.00  0.00     0.157 C 
HETATM   19  C10 UNL     1      -4.669   4.628  19.641  1.00  0.00     0.068 C 
HETATM   20  C11 UNL     1      -3.978   5.271  20.842  1.00  0.00     0.144 C 
HETATM   21  C12 UNL     1      -3.671   6.647  20.300  1.00  0.00     0.200 C 
HETATM   22  O3  UNL     1      -4.124   6.686  18.993  1.00  0.00    -0.380 OA
BRANCH  20  23
HETATM   23  O2  UNL     1      -4.947   5.368  21.839  1.00  0.00    -0.393 OA
ATOM     24  H2  UNL     1      -4.920   6.266  22.146  1.00  0.00     0.210 HD
ENDBRANCH  20  23
ENDBRANCH   7  18
TORSDOF 4
ENDMDL
MODEL 4
REMARK VINA RESULT: -7.878487755      1.321      1.673
REMARK  4 active torsions:
REMARK  status: ('A' for Active; 'I' for Inactive)
REMARK    1  A    between atoms: C2_2  and  C3_3 
REMARK    2  A    between atoms: C8_9  and  C9_10 
REMARK    3  A    between atoms: C11_12  and  O2_13 
REMARK    4  A    between atoms: C15_19  and  O4_20 
ROOT
HETATM    1  C3  UNL     1      -6.467   7.513  16.187  1.00  0.00    -0.004 C 
HETATM    2  C4  UNL     1      -7.365   8.184  15.494  1.00  0.00    -0.051 C 
HETATM    3  C5  UNL     1      -8.139   7.445  14.463  1.00  0.00     0.038 C 
HETATM    4  C6  UNL     1      -8.827   8.401  13.493  1.00  0.00     0.030 C 
HETATM    5  C7  UNL     1      -9.491   9.447  14.388  1.00  0.00     0.169 C 
HETATM    6  O1  UNL     1      -8.471  10.231  14.860  1.00  0.00    -0.379 OA
HETATM    7  C8  UNL     1      -7.608   9.645  15.730  1.00  0.00     0.179 C 
ENDROOT
BRANCH   1   8
HETATM    8  C2  UNL     1      -6.072   6.121  16.129  1.00  0.00     0.035 C 
HETATM    9  C1  UNL     1      -7.253   5.248  15.728  1.00  0.00     0.027 C 
HETATM   10  C13 UNL     1      -5.712   5.613  17.541  1.00  0.00     0.023 C 
HETATM   11  C14 UNL     1      -4.503   4.720  17.522  1.00  0.00     0.033 C 
HETATM   12  C15 UNL     1      -4.529   3.658  16.471  1.00  0.00     0.125 C 
HETATM   13  C16 UNL     1      -4.687   4.316  15.093  1.00  0.00     0.111 C 
HETATM   14  C17 UNL     1      -4.891   5.802  15.299  1.00  0.00     0.141 C 
HETATM   15  O5  UNL     1      -4.113   6.548  14.795  1.00  0.00    -0.297 OA
BRANCH  12  16
HETATM   16  O4  UNL     1      -3.304   2.993  16.525  1.00  0.00    -0.395 OA
ATOM     17  H4  UNL     1      -2.634   3.647  16.684  1.00  0.00     0.210 HD
ENDBRANCH  12  16
ENDBRANCH   1   8
BRANCH   7  18
HETATM   18  C9  UNL     1      -8.000   9.949  17.132  1.00  0.00     0.157 C 
HETATM   19  C10 UNL     1      -6.812  10.068  18.064  1.00  0.00     0.068 C 
HETATM   20  C11 UNL     1      -7.535  10.559  19.317  1.00  0.00     0.144 C 
HETATM   21  C12 UNL     1      -8.728  11.258  18.711  1.00  0.00     0.200 C 
HETATM   22  O3  UNL     1      -8.612  11.156  17.335  1.00  0.00    -0.380 OA
BRANCH  20  23
HETATM   23  O2  UNL     1      -7.958   9.416  19.992  1.00  0.00    -0.393 OA
ATOM     24  H2  UNL     1      -7.802   9.582  20.914  1.00  0.00     0.210 HD
ENDBRANCH  20  23
ENDBRANCH   7  18
TORSDOF 4
ENDMDL
MODEL 5
REMARK VINA RESULT: -7.812118408      3.119      6.363
REMARK  4 active torsions:
REMARK  status: ('A' for Active; 'I' for Inactive)
REMARK    1  A    between atoms: C2_2  and  C3_3 
REMARK    2  A    between atoms: C8_9  and  C9_10 
REMARK    3  A    between atoms: C11_12  and  O2_13 
REMARK    4  A    between atoms: C15_19  and  O4_20 
ROOT
HETATM    1  C3  UNL     1      -6.358   7.166  17.703  1.00  0.00    -0.004 C 
HETATM    2  C4  UNL     1      -5.805   6.042  17.293  1.00  0.00    -0.051 C 
HETATM    3  C5  UNL     1      -5.613   5.854  15.832  1.00  0.00     0.038 C 
HETATM    4  C6  UNL     1      -5.348   4.391  15.488  1.00  0.00     0.030 C 
HETATM    5  C7  UNL     1      -4.286   3.946  16.493  1.00  0.00     0.169 C 
HETATM    6  O1  UNL     1      -4.939   3.826  17.692  1.00  0.00    -0.379 OA
HETATM    7  C8  UNL     1      -5.377   4.979  18.262  1.00  0.00     0.179 C 
ENDROOT
BRANCH   1   8
HETATM    8  C2  UNL     1      -6.839   8.311  16.957  1.00  0.00     0.035 C 
HETATM    9  C1  UNL     1      -5.768   8.810  15.996  1.00  0.00     0.027 C 
HETATM   10  C13 UNL     1      -7.057   9.507  17.906  1.00  0.00     0.023 C 
HETATM   11  C14 UNL     1      -8.310  10.265  17.570  1.00  0.00     0.033 C 
HETATM   12  C15 UNL     1      -8.474  10.589  16.120  1.00  0.00     0.125 C 
HETATM   13  C16 UNL     1      -8.442   9.287  15.307  1.00  0.00     0.111 C 
HETATM   14  C17 UNL     1      -8.127   8.147  16.251  1.00  0.00     0.141 C 
HETATM   15  O5  UNL     1      -8.915   7.258  16.336  1.00  0.00    -0.297 OA
BRANCH  12  16
HETATM   16  O4  UNL     1      -9.721  11.195  15.969  1.00  0.00    -0.395 OA
ATOM     17  H4  UNL     1     -10.379  10.528  16.123  1.00  0.00     0.210 HD
ENDBRANCH  12  16
ENDBRANCH   1   8
BRANCH   7  18
HETATM   18  C9  UNL     1      -4.393   5.469  19.263  1.00  0.00     0.157 C 
HETATM   19  C10 UNL     1      -3.837   4.363  20.135  1.00  0.00     0.068 C 
HETATM   20  C11 UNL     1      -2.762   5.156  20.876  1.00  0.00     0.144 C 
HETATM   21  C12 UNL     1      -2.449   6.236  19.869  1.00  0.00     0.200 C 
HETATM   22  O3  UNL     1      -3.240   6.006  18.757  1.00  0.00    -0.380 OA
BRANCH  20  23
HETATM   23  O2  UNL     1      -3.393   5.720  21.984  1.00  0.00    -0.393 OA
ATOM     24  H2  UNL     1      -2.785   5.628  22.708  1.00  0.00     0.210 HD
ENDBRANCH  20  23
ENDBRANCH   7  18
TORSDOF 4
ENDMDL
