MODEL 1
REMARK VINA RESULT: -8.990878452      0.000      0.000
REMARK  14 active torsions:
REMARK  status: ('A' for Active; 'I' for Inactive)
REMARK       I    between atoms: N2_5  and  C4_6 
REMARK    1  A    between atoms: C4_6  and  C5_8 
REMARK    2  A    between atoms: C5_8  and  N3_9 
REMARK    3  A    between atoms: C5_8  and  O4_30 
REMARK    4  A    between atoms: N3_9  and  C6_11 
REMARK    5  A    between atoms: C6_11  and  C13_21 
REMARK    6  A    between atoms: C7_12  and  C8_13 
REMARK    7  A    between atoms: C13_21  and  O3_22 
REMARK    8  A    between atoms: C13_21  and  N5_24 
REMARK    9  A    between atoms: N5_24  and  C14_26 
REMARK   10  A    between atoms: O4_30  and  C18_31 
REMARK   11  A    between atoms: C18_31  and  C19_32 
REMARK   12  A    between atoms: C19_32  and  C20_33 
REMARK   13  A    between atoms: C20_33  and  C21_34 
REMARK   14  A    between atoms: C21_34  and  C22_35 
ROOT
HETATM    1  N3  UNL     1     -10.744  16.126   1.984  1.00  0.00    -0.329 N 
ATOM      2  H3  UNL     1     -11.516  16.788   1.907  1.00  0.00     0.168 HD
ENDROOT
BRANCH   1   3
HETATM    3  C5  UNL     1     -10.134  15.828   0.792  1.00  0.00     0.212 C 
BRANCH   3   4
HETATM    4  C4  UNL     1      -9.351  16.929   0.172  1.00  0.00     0.294 C 
HETATM    5  N2  UNL     1      -7.912  17.024   0.205  1.00  0.00    -0.342 N 
HETATM    6  C3  UNL     1      -6.999  16.074   0.755  1.00  0.00     0.156 C 
HETATM    7  C25 UNL     1      -7.340  18.248  -0.389  1.00  0.00     0.156 C 
HETATM    8  C2  UNL     1      -5.722  16.205  -0.102  1.00  0.00     0.291 C 
HETATM    9  N1  UNL     1      -5.065  17.455   0.068  1.00  0.00     0.087 N 
HETATM   10  C1  UNL     1      -4.187  17.643  -1.096  1.00  0.00     0.310 C 
HETATM   11  C26 UNL     1      -5.987  18.566   0.193  1.00  0.00     0.291 C 
HETATM   12  O1  UNL     1      -9.880  17.901  -0.460  1.00  0.00    -0.264 OA
ENDBRANCH   3   4
BRANCH   3  13
HETATM   13  O4  UNL     1     -10.857  15.159  -0.149  1.00  0.00    -0.332 OA
BRANCH  13  14
HETATM   14  C18 UNL     1     -10.139  14.221  -0.854  1.00  0.00     0.177 C 
BRANCH  14  15
HETATM   15  C19 UNL     1      -9.767  14.691  -2.194  1.00  0.00     0.027 C 
BRANCH  15  16
HETATM   16  C20 UNL     1      -8.260  14.729  -2.483  1.00  0.00     0.003 C 
BRANCH  16  17
HETATM   17  C21 UNL     1      -8.066  14.759  -3.943  1.00  0.00     0.016 C 
BRANCH  17  18
HETATM   18  C22 UNL     1      -8.597  15.992  -4.625  1.00  0.00     0.059 C 
HETATM   19  C23 UNL     1      -9.437  15.774  -5.795  1.00  0.00     0.027 C 
HETATM   20  C24 UNL     1      -8.763  15.784  -7.090  1.00  0.00     0.087 C 
HETATM   21  S1  UNL     1      -7.653  17.249  -7.137  1.00  0.00    -0.097 SA
HETATM   22  S2  UNL     1      -7.306  17.217  -5.001  1.00  0.00    -0.093 SA
ENDBRANCH  17  18
ENDBRANCH  16  17
ENDBRANCH  15  16
ENDBRANCH  14  15
ENDBRANCH  13  14
ENDBRANCH   3  13
ENDBRANCH   1   3
BRANCH   1  23
HETATM   23  C6  UNL     1     -10.491  15.673   3.313  1.00  0.00     0.082 C 
HETATM   24  C7  UNL     1      -9.245  15.929   3.967  1.00  0.00     0.021 C 
BRANCH  24  25
HETATM   25  C8  UNL     1      -8.879  15.589   5.367  1.00  0.00     0.103 C 
HETATM   26  C9  UNL     1      -9.534  16.267   6.500  1.00  0.00     0.020 C 
HETATM   27  C10 UNL     1      -9.731  15.333   7.718  1.00  0.00     0.021 C 
HETATM   28  C11 UNL     1     -10.800  14.310   7.310  1.00  0.00     0.122 C 
HETATM   29  N4  UNL     1     -10.207  13.584   6.200  1.00  0.00    -0.360 N 
HETATM   30  C12 UNL     1      -9.041  14.102   5.599  1.00  0.00     0.225 C 
ATOM     31  H4  UNL     1     -10.626  12.718   5.861  1.00  0.00     0.162 HD
HETATM   32  O2  UNL     1      -8.113  13.348   5.245  1.00  0.00    -0.273 OA
ENDBRANCH  24  25
BRANCH  23  33
HETATM   33  C13 UNL     1     -11.464  14.627   3.571  1.00  0.00     0.163 C 
BRANCH  33  34
HETATM   34  O3  UNL     1     -12.430  15.080   4.398  1.00  0.00    -0.345 OA
ATOM     35  H3  UNL     1     -13.208  14.539   4.323  1.00  0.00     0.219 HD
ENDBRANCH  33  34
BRANCH  33  36
HETATM   36  N5  UNL     1     -11.704  13.324   3.223  1.00  0.00    -0.361 N 
ATOM     37  H5  UNL     1     -11.071  12.604   3.573  1.00  0.00     0.162 HD
BRANCH  36  38
HETATM   38  C14 UNL     1     -12.834  12.909   2.368  1.00  0.00     0.021 C 
HETATM   39  C15 UNL     1     -13.781  12.065   3.187  1.00  0.00     0.037 C 
HETATM   40  C16 UNL     1     -12.332  12.057   1.226  1.00  0.00     0.037 C 
HETATM   41  C17 UNL     1     -13.583  14.049   1.777  1.00  0.00     0.037 C 
ENDBRANCH  36  38
ENDBRANCH  33  36
ENDBRANCH  23  33
ENDBRANCH   1  23
TORSDOF 14
ENDMDL
MODEL 2
REMARK VINA RESULT: -8.841609275      3.579      7.070
REMARK  14 active torsions:
REMARK  status: ('A' for Active; 'I' for Inactive)
REMARK       I    between atoms: N2_5  and  C4_6 
REMARK    1  A    between atoms: C4_6  and  C5_8 
REMARK    2  A    between atoms: C5_8  and  N3_9 
REMARK    3  A    between atoms: C5_8  and  O4_30 
REMARK    4  A    between atoms: N3_9  and  C6_11 
REMARK    5  A    between atoms: C6_11  and  C13_21 
REMARK    6  A    between atoms: C7_12  and  C8_13 
REMARK    7  A    between atoms: C13_21  and  O3_22 
REMARK    8  A    between atoms: C13_21  and  N5_24 
REMARK    9  A    between atoms: N5_24  and  C14_26 
REMARK   10  A    between atoms: O4_30  and  C18_31 
REMARK   11  A    between atoms: C18_31  and  C19_32 
REMARK   12  A    between atoms: C19_32  and  C20_33 
REMARK   13  A    between atoms: C20_33  and  C21_34 
REMARK   14  A    between atoms: C21_34  and  C22_35 
ROOT
HETATM    1  N3  UNL     1      -9.529  14.260   0.740  1.00  0.00    -0.329 N 
ATOM      2  H3  UNL     1      -9.805  13.683   1.535  1.00  0.00     0.168 HD
ENDROOT
BRANCH   1   3
HETATM    3  C5  UNL     1      -9.928  13.771  -0.478  1.00  0.00     0.212 C 
BRANCH   3   4
HETATM    4  C4  UNL     1     -10.131  14.784  -1.547  1.00  0.00     0.294 C 
HETATM    5  N2  UNL     1      -9.147  15.124  -2.545  1.00  0.00    -0.342 N 
HETATM    6  C3  UNL     1      -7.867  14.520  -2.733  1.00  0.00     0.156 C 
HETATM    7  C25 UNL     1      -9.516  16.224  -3.456  1.00  0.00     0.156 C 
HETATM    8  C2  UNL     1      -7.591  14.630  -4.248  1.00  0.00     0.291 C 
HETATM    9  N1  UNL     1      -7.407  15.972  -4.681  1.00  0.00     0.087 N 
HETATM   10  C1  UNL     1      -7.625  15.989  -6.135  1.00  0.00     0.310 C 
HETATM   11  C26 UNL     1      -8.298  16.907  -4.023  1.00  0.00     0.291 C 
HETATM   12  O1  UNL     1     -11.208  15.452  -1.690  1.00  0.00    -0.264 OA
ENDBRANCH   3   4
BRANCH   3  13
HETATM   13  O4  UNL     1     -10.919  12.837  -0.501  1.00  0.00    -0.332 OA
BRANCH  13  14
HETATM   14  C18 UNL     1     -11.699  12.812   0.631  1.00  0.00     0.177 C 
BRANCH  14  15
HETATM   15  C19 UNL     1     -13.125  12.991   0.331  1.00  0.00     0.027 C 
BRANCH  15  16
HETATM   16  C20 UNL     1     -13.863  13.997   1.227  1.00  0.00     0.003 C 
BRANCH  16  17
HETATM   17  C21 UNL     1     -13.396  13.817   2.613  1.00  0.00     0.016 C 
BRANCH  17  18
HETATM   18  C22 UNL     1     -14.292  12.968   3.476  1.00  0.00     0.059 C 
HETATM   19  C23 UNL     1     -14.692  13.541   4.754  1.00  0.00     0.027 C 
HETATM   20  C24 UNL     1     -13.861  13.202   5.906  1.00  0.00     0.087 C 
HETATM   21  S1  UNL     1     -13.566  11.387   5.875  1.00  0.00    -0.097 SA
HETATM   22  S2  UNL     1     -13.665  11.277   3.715  1.00  0.00    -0.093 SA
ENDBRANCH  17  18
ENDBRANCH  16  17
ENDBRANCH  15  16
ENDBRANCH  14  15
ENDBRANCH  13  14
ENDBRANCH   3  13
ENDBRANCH   1   3
BRANCH   1  23
HETATM   23  C6  UNL     1      -8.795  15.431   1.094  1.00  0.00     0.082 C 
HETATM   24  C7  UNL     1      -7.428  15.603   0.712  1.00  0.00     0.021 C 
BRANCH  24  25
HETATM   25  C8  UNL     1      -6.575  16.798   0.941  1.00  0.00     0.103 C 
HETATM   26  C9  UNL     1      -5.154  16.647   1.303  1.00  0.00     0.020 C 
HETATM   27  C10 UNL     1      -4.265  17.760   0.698  1.00  0.00     0.021 C 
HETATM   28  C11 UNL     1      -4.227  17.509  -0.815  1.00  0.00     0.122 C 
HETATM   29  N4  UNL     1      -5.605  17.663  -1.247  1.00  0.00    -0.360 N 
HETATM   30  C12 UNL     1      -6.620  17.707  -0.268  1.00  0.00     0.225 C 
ATOM     31  H4  UNL     1      -5.835  17.738  -2.238  1.00  0.00     0.162 HD
HETATM   32  O2  UNL     1      -7.579  18.496  -0.374  1.00  0.00    -0.273 OA
ENDBRANCH  24  25
BRANCH  23  33
HETATM   33  C13 UNL     1      -9.525  16.043   2.189  1.00  0.00     0.163 C 
BRANCH  33  34
HETATM   34  O3  UNL     1     -10.779  16.356   1.798  1.00  0.00    -0.345 OA
ATOM     35  H3  UNL     1     -11.076  17.142   2.242  1.00  0.00     0.219 HD
ENDBRANCH  33  34
BRANCH  33  36
HETATM   36  N5  UNL     1      -9.332  16.392   3.500  1.00  0.00    -0.361 N 
ATOM     37  H5  UNL     1      -9.097  17.362   3.714  1.00  0.00     0.162 HD
BRANCH  36  38
HETATM   38  C14 UNL     1      -9.446  15.434   4.618  1.00  0.00     0.021 C 
HETATM   39  C15 UNL     1     -10.903  15.286   4.984  1.00  0.00     0.037 C 
HETATM   40  C16 UNL     1      -8.721  15.968   5.831  1.00  0.00     0.037 C 
HETATM   41  C17 UNL     1      -8.880  14.094   4.315  1.00  0.00     0.037 C 
ENDBRANCH  36  38
ENDBRANCH  33  36
ENDBRANCH  23  33
ENDBRANCH   1  23
TORSDOF 14
ENDMDL
MODEL 3
REMARK VINA RESULT: -8.786833004      1.768      6.162
REMARK  14 active torsions:
REMARK  status: ('A' for Active; 'I' for Inactive)
REMARK       I    between atoms: N2_5  and  C4_6 
REMARK    1  A    between atoms: C4_6  and  C5_8 
REMARK    2  A    between atoms: C5_8  and  N3_9 
REMARK    3  A    between atoms: C5_8  and  O4_30 
REMARK    4  A    between atoms: N3_9  and  C6_11 
REMARK    5  A    between atoms: C6_11  and  C13_21 
REMARK    6  A    between atoms: C7_12  and  C8_13 
REMARK    7  A    between atoms: C13_21  and  O3_22 
REMARK    8  A    between atoms: C13_21  and  N5_24 
REMARK    9  A    between atoms: N5_24  and  C14_26 
REMARK   10  A    between atoms: O4_30  and  C18_31 
REMARK   11  A    between atoms: C18_31  and  C19_32 
REMARK   12  A    between atoms: C19_32  and  C20_33 
REMARK   13  A    between atoms: C20_33  and  C21_34 
REMARK   14  A    between atoms: C21_34  and  C22_35 
ROOT
HETATM    1  N3  UNL     1      -9.593  14.287   1.280  1.00  0.00    -0.329 N 
ATOM      2  H3  UNL     1      -9.480  13.596   2.022  1.00  0.00     0.168 HD
ENDROOT
BRANCH   1   3
HETATM    3  C5  UNL     1     -10.459  13.911   0.285  1.00  0.00     0.212 C 
BRANCH   3   4
HETATM    4  C4  UNL     1     -11.427  12.840   0.639  1.00  0.00     0.294 C 
HETATM    5  N2  UNL     1     -12.223  12.826   1.841  1.00  0.00    -0.342 N 
HETATM    6  C3  UNL     1     -12.285  13.840   2.844  1.00  0.00     0.156 C 
HETATM    7  C25 UNL     1     -13.051  11.622   2.045  1.00  0.00     0.156 C 
HETATM    8  C2  UNL     1     -13.720  13.759   3.408  1.00  0.00     0.291 C 
HETATM    9  N1  UNL     1     -13.969  12.553   4.119  1.00  0.00     0.087 N 
HETATM   10  C1  UNL     1     -15.428  12.384   4.183  1.00  0.00     0.310 C 
HETATM   11  C26 UNL     1     -13.351  11.395   3.504  1.00  0.00     0.291 C 
HETATM   12  O1  UNL     1     -11.653  11.823  -0.096  1.00  0.00    -0.264 OA
ENDBRANCH   3   4
BRANCH   3  13
HETATM   13  O4  UNL     1      -9.954  13.713  -0.965  1.00  0.00    -0.332 OA
BRANCH  13  14
HETATM   14  C18 UNL     1     -10.367  14.637  -1.896  1.00  0.00     0.177 C 
BRANCH  14  15
HETATM   15  C19 UNL     1      -9.271  15.501  -2.351  1.00  0.00     0.027 C 
BRANCH  15  16
HETATM   16  C20 UNL     1      -7.949  14.780  -2.656  1.00  0.00     0.003 C 
BRANCH  16  17
HETATM   17  C21 UNL     1      -7.744  14.781  -4.115  1.00  0.00     0.016 C 
BRANCH  17  18
HETATM   18  C22 UNL     1      -8.304  15.982  -4.830  1.00  0.00     0.059 C 
HETATM   19  C23 UNL     1      -9.006  15.722  -6.080  1.00  0.00     0.027 C 
HETATM   20  C24 UNL     1      -8.212  15.811  -7.302  1.00  0.00     0.087 C 
HETATM   21  S1  UNL     1      -7.225  17.360  -7.221  1.00  0.00    -0.097 SA
HETATM   22  S2  UNL     1      -7.085  17.312  -5.062  1.00  0.00    -0.093 SA
ENDBRANCH  17  18
ENDBRANCH  16  17
ENDBRANCH  15  16
ENDBRANCH  14  15
ENDBRANCH  13  14
ENDBRANCH   3  13
ENDBRANCH   1   3
BRANCH   1  23
HETATM   23  C6  UNL     1      -8.821  15.473   1.462  1.00  0.00     0.082 C 
HETATM   24  C7  UNL     1      -7.508  15.604   0.911  1.00  0.00     0.021 C 
BRANCH  24  25
HETATM   25  C8  UNL     1      -6.632  16.804   0.953  1.00  0.00     0.103 C 
HETATM   26  C9  UNL     1      -5.197  16.674   1.265  1.00  0.00     0.020 C 
HETATM   27  C10 UNL     1      -4.326  17.692   0.489  1.00  0.00     0.021 C 
HETATM   28  C11 UNL     1      -4.364  17.259  -0.983  1.00  0.00     0.122 C 
HETATM   29  N4  UNL     1      -5.759  17.383  -1.366  1.00  0.00    -0.360 N 
HETATM   30  C12 UNL     1      -6.725  17.561  -0.354  1.00  0.00     0.225 C 
ATOM     31  H4  UNL     1      -6.036  17.342  -2.347  1.00  0.00     0.162 HD
HETATM   32  O2  UNL     1      -7.680  18.348  -0.510  1.00  0.00    -0.273 OA
ENDBRANCH  24  25
BRANCH  23  33
HETATM   33  C13 UNL     1      -9.415  16.167   2.590  1.00  0.00     0.163 C 
BRANCH  33  34
HETATM   34  O3  UNL     1     -10.596  16.715   2.232  1.00  0.00    -0.345 OA
ATOM     35  H3  UNL     1     -11.060  17.027   3.000  1.00  0.00     0.219 HD
ENDBRANCH  33  34
BRANCH  33  36
HETATM   36  N5  UNL     1      -9.147  16.427   3.908  1.00  0.00    -0.361 N 
ATOM     37  H5  UNL     1      -8.791  17.350   4.157  1.00  0.00     0.162 HD
BRANCH  36  38
HETATM   38  C14 UNL     1      -9.349  15.437   4.986  1.00  0.00     0.021 C 
HETATM   39  C15 UNL     1     -10.810  15.424   5.367  1.00  0.00     0.037 C 
HETATM   40  C16 UNL     1      -8.560  15.839   6.210  1.00  0.00     0.037 C 
HETATM   41  C17 UNL     1      -8.928  14.060   4.617  1.00  0.00     0.037 C 
ENDBRANCH  36  38
ENDBRANCH  33  36
ENDBRANCH  23  33
ENDBRANCH   1  23
TORSDOF 14
ENDMDL
MODEL 4
REMARK VINA RESULT: -8.775307324      2.045      4.076
REMARK  14 active torsions:
REMARK  status: ('A' for Active; 'I' for Inactive)
REMARK       I    between atoms: N2_5  and  C4_6 
REMARK    1  A    between atoms: C4_6  and  C5_8 
REMARK    2  A    between atoms: C5_8  and  N3_9 
REMARK    3  A    between atoms: C5_8  and  O4_30 
REMARK    4  A    between atoms: N3_9  and  C6_11 
REMARK    5  A    between atoms: C6_11  and  C13_21 
REMARK    6  A    between atoms: C7_12  and  C8_13 
REMARK    7  A    between atoms: C13_21  and  O3_22 
REMARK    8  A    between atoms: C13_21  and  N5_24 
REMARK    9  A    between atoms: N5_24  and  C14_26 
REMARK   10  A    between atoms: O4_30  and  C18_31 
REMARK   11  A    between atoms: C18_31  and  C19_32 
REMARK   12  A    between atoms: C19_32  and  C20_33 
REMARK   13  A    between atoms: C20_33  and  C21_34 
REMARK   14  A    between atoms: C21_34  and  C22_35 
ROOT
HETATM    1  N3  UNL     1      -8.892  17.117   1.562  1.00  0.00    -0.329 N 
ATOM      2  H3  UNL     1      -9.247  18.068   1.465  1.00  0.00     0.168 HD
ENDROOT
BRANCH   1   3
HETATM    3  C5  UNL     1      -7.775  16.851   0.811  1.00  0.00     0.212 C 
BRANCH   3   4
HETATM    4  C4  UNL     1      -7.918  15.773  -0.202  1.00  0.00     0.294 C 
HETATM    5  N2  UNL     1      -8.392  15.977  -1.549  1.00  0.00    -0.342 N 
HETATM    6  C3  UNL     1      -8.729  17.221  -2.162  1.00  0.00     0.156 C 
HETATM    7  C25 UNL     1      -8.548  14.757  -2.363  1.00  0.00     0.156 C 
HETATM    8  C2  UNL     1      -8.402  17.031  -3.659  1.00  0.00     0.291 C 
HETATM    9  N1  UNL     1      -9.254  16.088  -4.297  1.00  0.00     0.087 N 
HETATM   10  C1  UNL     1      -8.573  15.653  -5.526  1.00  0.00     0.310 C 
HETATM   11  C26 UNL     1      -9.564  14.947  -3.459  1.00  0.00     0.291 C 
HETATM   12  O1  UNL     1      -7.626  14.552   0.022  1.00  0.00    -0.264 OA
ENDBRANCH   3   4
BRANCH   3  13
HETATM   13  O4  UNL     1      -6.578  16.756   1.453  1.00  0.00    -0.332 OA
BRANCH  13  14
HETATM   14  C18 UNL     1      -5.508  17.228   0.729  1.00  0.00     0.177 C 
BRANCH  14  15
HETATM   15  C19 UNL     1      -5.847  18.421  -0.057  1.00  0.00     0.027 C 
BRANCH  15  16
HETATM   16  C20 UNL     1      -4.736  18.934  -0.985  1.00  0.00     0.003 C 
BRANCH  16  17
HETATM   17  C21 UNL     1      -5.205  18.827  -2.377  1.00  0.00     0.016 C 
BRANCH  17  18
HETATM   18  C22 UNL     1      -4.792  17.565  -3.087  1.00  0.00     0.059 C 
HETATM   19  C23 UNL     1      -3.543  16.955  -2.650  1.00  0.00     0.027 C 
HETATM   20  C24 UNL     1      -2.342  17.336  -3.386  1.00  0.00     0.087 C 
HETATM   21  S1  UNL     1      -2.723  17.232  -5.182  1.00  0.00    -0.097 SA
HETATM   22  S2  UNL     1      -4.813  17.721  -4.899  1.00  0.00    -0.093 SA
ENDBRANCH  17  18
ENDBRANCH  16  17
ENDBRANCH  15  16
ENDBRANCH  14  15
ENDBRANCH  13  14
ENDBRANCH   3  13
ENDBRANCH   1   3
BRANCH   1  23
HETATM   23  C6  UNL     1      -9.646  16.299   2.455  1.00  0.00     0.082 C 
HETATM   24  C7  UNL     1      -9.015  15.534   3.485  1.00  0.00     0.021 C 
BRANCH  24  25
HETATM   25  C8  UNL     1      -9.679  14.710   4.528  1.00  0.00     0.103 C 
HETATM   26  C9  UNL     1      -8.880  13.935   5.494  1.00  0.00     0.020 C 
HETATM   27  C10 UNL     1      -9.539  13.870   6.893  1.00  0.00     0.021 C 
HETATM   28  C11 UNL     1      -9.449  15.285   7.480  1.00  0.00     0.122 C 
HETATM   29  N4  UNL     1     -10.239  16.106   6.580  1.00  0.00    -0.360 N 
HETATM   30  C12 UNL     1     -10.630  15.565   5.338  1.00  0.00     0.225 C 
ATOM     31  H4  UNL     1     -10.507  17.055   6.841  1.00  0.00     0.162 HD
HETATM   32  O2  UNL     1     -11.768  15.776   4.875  1.00  0.00    -0.273 OA
ENDBRANCH  24  25
BRANCH  23  33
HETATM   33  C13 UNL     1     -10.931  16.087   1.814  1.00  0.00     0.163 C 
BRANCH  33  34
HETATM   34  O3  UNL     1     -11.112  16.986   0.823  1.00  0.00    -0.345 OA
ATOM     35  H3  UNL     1     -11.505  16.567   0.066  1.00  0.00     0.219 HD
ENDBRANCH  33  34
BRANCH  33  36
HETATM   36  N5  UNL     1     -12.012  15.249   1.903  1.00  0.00    -0.361 N 
ATOM     37  H5  UNL     1     -12.822  15.559   2.439  1.00  0.00     0.162 HD
BRANCH  36  38
HETATM   38  C14 UNL     1     -12.060  13.921   1.259  1.00  0.00     0.021 C 
HETATM   39  C15 UNL     1     -13.398  13.758   0.580  1.00  0.00     0.037 C 
HETATM   40  C16 UNL     1     -11.943  12.837   2.305  1.00  0.00     0.037 C 
HETATM   41  C17 UNL     1     -10.978  13.700   0.266  1.00  0.00     0.037 C 
ENDBRANCH  36  38
ENDBRANCH  33  36
ENDBRANCH  23  33
ENDBRANCH   1  23
TORSDOF 14
ENDMDL
MODEL 5
REMARK VINA RESULT: -8.741954356      3.365      7.950
REMARK  14 active torsions:
REMARK  status: ('A' for Active; 'I' for Inactive)
REMARK       I    between atoms: N2_5  and  C4_6 
REMARK    1  A    between atoms: C4_6  and  C5_8 
REMARK    2  A    between atoms: C5_8  and  N3_9 
REMARK    3  A    between atoms: C5_8  and  O4_30 
REMARK    4  A    between atoms: N3_9  and  C6_11 
REMARK    5  A    between atoms: C6_11  and  C13_21 
REMARK    6  A    between atoms: C7_12  and  C8_13 
REMARK    7  A    between atoms: C13_21  and  O3_22 
REMARK    8  A    between atoms: C13_21  and  N5_24 
REMARK    9  A    between atoms: N5_24  and  C14_26 
REMARK   10  A    between atoms: O4_30  and  C18_31 
REMARK   11  A    between atoms: C18_31  and  C19_32 
REMARK   12  A    between atoms: C19_32  and  C20_33 
REMARK   13  A    between atoms: C20_33  and  C21_34 
REMARK   14  A    between atoms: C21_34  and  C22_35 
ROOT
HETATM    1  N3  UNL     1      -9.208  16.222   1.499  1.00  0.00    -0.329 N 
ATOM      2  H3  UNL     1      -9.560  17.072   1.941  1.00  0.00     0.168 HD
ENDROOT
BRANCH   1   3
HETATM    3  C5  UNL     1      -9.862  15.077   1.879  1.00  0.00     0.212 C 
BRANCH   3   4
HETATM    4  C4  UNL     1      -9.483  14.523   3.205  1.00  0.00     0.294 C 
HETATM    5  N2  UNL     1     -10.239  14.720   4.417  1.00  0.00    -0.342 N 
HETATM    6  C3  UNL     1     -11.489  15.397   4.551  1.00  0.00     0.156 C 
HETATM    7  C25 UNL     1      -9.635  14.165   5.644  1.00  0.00     0.156 C 
HETATM    8  C2  UNL     1     -12.203  14.690   5.723  1.00  0.00     0.291 C 
HETATM    9  N1  UNL     1     -11.559  14.903   6.973  1.00  0.00     0.087 N 
HETATM   10  C1  UNL     1     -12.022  13.843   7.882  1.00  0.00     0.310 C 
HETATM   11  C26 UNL     1     -10.113  14.891   6.874  1.00  0.00     0.291 C 
HETATM   12  O1  UNL     1      -8.445  13.809   3.400  1.00  0.00    -0.264 OA
ENDBRANCH   3   4
BRANCH   3  13
HETATM   13  O4  UNL     1      -9.997  14.081   0.959  1.00  0.00    -0.332 OA
BRANCH  13  14
HETATM   14  C18 UNL     1     -11.091  14.214   0.136  1.00  0.00     0.177 C 
BRANCH  14  15
HETATM   15  C19 UNL     1     -11.487  12.941  -0.478  1.00  0.00     0.027 C 
BRANCH  15  16
HETATM   16  C20 UNL     1     -12.643  12.208   0.218  1.00  0.00     0.003 C 
BRANCH  16  17
HETATM   17  C21 UNL     1     -13.541  13.212   0.813  1.00  0.00     0.016 C 
BRANCH  17  18
HETATM   18  C22 UNL     1     -13.413  13.370   2.305  1.00  0.00     0.059 C 
HETATM   19  C23 UNL     1     -12.842  12.240   3.028  1.00  0.00     0.027 C 
HETATM   20  C24 UNL     1     -13.789  11.272   3.572  1.00  0.00     0.087 C 
HETATM   21  S1  UNL     1     -15.123  12.207   4.427  1.00  0.00    -0.097 SA
HETATM   22  S2  UNL     1     -14.953  13.913   3.105  1.00  0.00    -0.093 SA
ENDBRANCH  17  18
ENDBRANCH  16  17
ENDBRANCH  15  16
ENDBRANCH  14  15
ENDBRANCH  13  14
ENDBRANCH   3  13
ENDBRANCH   1   3
BRANCH   1  23
HETATM   23  C6  UNL     1      -8.124  16.436   0.597  1.00  0.00     0.082 C 
HETATM   24  C7  UNL     1      -6.764  16.300   1.014  1.00  0.00     0.021 C 
BRANCH  24  25
HETATM   25  C8  UNL     1      -5.549  16.413   0.167  1.00  0.00     0.103 C 
HETATM   26  C9  UNL     1      -5.644  16.310  -1.300  1.00  0.00     0.020 C 
HETATM   27  C10 UNL     1      -4.632  17.228  -2.028  1.00  0.00     0.021 C 
HETATM   28  C11 UNL     1      -5.104  18.668  -1.787  1.00  0.00     0.122 C 
HETATM   29  N4  UNL     1      -5.015  18.848  -0.349  1.00  0.00    -0.360 N 
HETATM   30  C12 UNL     1      -4.828  17.710   0.464  1.00  0.00     0.225 C 
ATOM     31  H4  UNL     1      -5.087  19.777   0.066  1.00  0.00     0.162 HD
HETATM   32  O2  UNL     1      -4.062  17.744   1.448  1.00  0.00    -0.273 OA
ENDBRANCH  24  25
BRANCH  23  33
HETATM   33  C13 UNL     1      -8.672  17.199  -0.510  1.00  0.00     0.163 C 
BRANCH  33  34
HETATM   34  O3  UNL     1      -8.211  18.468  -0.476  1.00  0.00    -0.345 OA
ATOM     35  H3  UNL     1      -8.928  19.075  -0.332  1.00  0.00     0.219 HD
ENDBRANCH  33  34
BRANCH  33  36
HETATM   36  N5  UNL     1      -9.506  17.022  -1.582  1.00  0.00    -0.361 N 
ATOM     37  H5  UNL     1     -10.396  17.521  -1.591  1.00  0.00     0.162 HD
BRANCH  36  38
HETATM   38  C14 UNL     1      -9.181  16.146  -2.725  1.00  0.00     0.021 C 
HETATM   39  C15 UNL     1      -8.261  16.890  -3.662  1.00  0.00     0.037 C 
HETATM   40  C16 UNL     1     -10.438  15.808  -3.491  1.00  0.00     0.037 C 
HETATM   41  C17 UNL     1      -8.542  14.864  -2.329  1.00  0.00     0.037 C 
ENDBRANCH  36  38
ENDBRANCH  33  36
ENDBRANCH  23  33
ENDBRANCH   1  23
TORSDOF 14
ENDMDL
