MODEL 1
REMARK VINA RESULT: -9.108153146      0.000      0.000
REMARK  11 active torsions:
REMARK  status: ('A' for Active; 'I' for Inactive)
REMARK    1  A    between atoms: C2_2  and  C3_3 
REMARK    2  A    between atoms: C3_3  and  C4_4 
REMARK    3  A    between atoms: C4_4  and  N1_5 
REMARK    4  A    between atoms: C8_13  and  C9_14 
REMARK       I    between atoms: C9_14  and  N4_16 
REMARK    5  A    between atoms: N4_16  and  C10_18 
REMARK    6  A    between atoms: N6_22  and  C12_23 
REMARK    7  A    between atoms: C12_23  and  C13_24 
REMARK       I    between atoms: C13_24  and  N7_26 
REMARK    8  A    between atoms: C16_29  and  C17_30 
REMARK    9  A    between atoms: C17_30  and  N8_31 
REMARK   10  A    between atoms: C20_34  and  N9_35 
REMARK   11  A    between atoms: N9_35  and  C21_38 
ROOT
HETATM    1  C10 UNL     1     -10.382  16.243  -0.449  1.00  0.00     0.069 A 
HETATM    2  C11 UNL     1     -11.344  15.630   0.304  1.00  0.00     0.138 A 
HETATM    3  N5  UNL     1     -10.952  15.773   1.601  1.00  0.00    -0.307 N 
ATOM      4  H5  UNL     1     -11.466  15.418   2.408  1.00  0.00     0.186 HD
HETATM    5  N6  UNL     1      -9.828  16.429   1.666  1.00  0.00    -0.293 N 
HETATM    6  C27 UNL     1      -9.408  16.756   0.444  1.00  0.00     0.141 A 
ENDROOT
BRANCH   5   7
HETATM    7  C12 UNL     1      -9.148  16.738   2.935  1.00  0.00     0.251 C 
BRANCH   7   8
HETATM    8  C13 UNL     1      -8.857  15.464   3.609  1.00  0.00     0.239 C 
HETATM    9  O2  UNL     1      -8.523  14.497   2.823  1.00  0.00    -0.271 OA
HETATM   10  N7  UNL     1      -8.927  15.273   4.994  1.00  0.00    -0.351 N 
HETATM   11  C14 UNL     1      -8.616  13.940   5.526  1.00  0.00     0.126 C 
HETATM   12  C26 UNL     1      -9.271  16.273   5.954  1.00  0.00     0.126 C 
HETATM   13  C15 UNL     1      -9.891  13.489   6.203  1.00  0.00     0.026 C 
HETATM   14  C16 UNL     1     -10.246  14.398   7.362  1.00  0.00     0.017 C 
HETATM   15  C25 UNL     1     -10.260  15.840   6.996  1.00  0.00     0.026 C 
BRANCH  14  16
HETATM   16  C17 UNL     1     -11.641  14.018   7.808  1.00  0.00     0.277 C 
BRANCH  16  17
HETATM   17  N8  UNL     1     -12.423  13.479   6.713  1.00  0.00     0.088 N 
HETATM   18  C18 UNL     1     -13.079  14.465   5.912  1.00  0.00     0.274 C 
HETATM   19  C19 UNL     1     -13.685  13.870   4.677  1.00  0.00     0.063 C 
HETATM   20  C20 UNL     1     -14.429  12.612   4.891  1.00  0.00     0.189 C 
HETATM   21  C23 UNL     1     -13.866  11.738   5.984  1.00  0.00     0.063 C 
HETATM   22  C24 UNL     1     -13.427  12.546   7.181  1.00  0.00     0.274 C 
BRANCH  20  23
HETATM   23  N9  UNL     1     -15.848  12.755   5.123  1.00  0.00    -0.071 N 
ATOM     24  H92 UNL     1     -16.358  11.968   4.721  1.00  0.00     0.277 HD
ATOM     25  H91 UNL     1     -16.066  12.614   6.110  1.00  0.00     0.277 HD
BRANCH  23  26
HETATM   26  C21 UNL     1     -16.389  13.987   4.664  1.00  0.00     0.228 C 
HETATM   27  C22 UNL     1     -17.106  13.886   3.336  1.00  0.00     0.034 C 
ENDBRANCH  23  26
ENDBRANCH  20  23
ENDBRANCH  16  17
ENDBRANCH  14  16
ENDBRANCH   7   8
ENDBRANCH   5   7
BRANCH   1  28
HETATM   28  N4  UNL     1     -10.345  16.348  -1.841  1.00  0.00    -0.319 N 
HETATM   29  C9  UNL     1      -9.588  15.524  -2.702  1.00  0.00     0.276 C 
HETATM   30  O1  UNL     1      -8.892  14.635  -2.179  1.00  0.00    -0.266 OA
ATOM     31  H4  UNL     1     -10.910  17.080  -2.271  1.00  0.00     0.169 HD
BRANCH  29  32
HETATM   32  C8  UNL     1      -9.670  15.768  -4.153  1.00  0.00     0.145 A 
HETATM   33  N3  UNL     1     -10.787  15.522  -4.912  1.00  0.00    -0.293 N 
HETATM   34  N2  UNL     1     -10.504  15.831  -6.153  1.00  0.00    -0.302 N 
ATOM     35  H3  UNL     1     -11.678  15.161  -4.571  1.00  0.00     0.187 HD
HETATM   36  C7  UNL     1      -9.250  16.272  -6.265  1.00  0.00     0.056 A 
ATOM     37  H2  UNL     1     -11.158  15.745  -6.931  1.00  0.00     0.186 HD
HETATM   38  C6  UNL     1      -8.164  16.735  -7.213  1.00  0.00     0.081 C 
HETATM   39  C28 UNL     1      -8.705  16.241  -4.965  1.00  0.00     0.092 A 
HETATM   40  C5  UNL     1      -6.920  16.317  -6.392  1.00  0.00     0.134 C 
HETATM   41  N1  UNL     1      -7.397  16.788  -5.043  1.00  0.00    -0.357 N 
BRANCH  41  42
HETATM   42  C4  UNL     1      -6.634  17.628  -4.240  1.00  0.00     0.064 C 
BRANCH  42  43
HETATM   43  C3  UNL     1      -6.334  17.311  -2.814  1.00  0.00     0.044 C 
BRANCH  43  44
HETATM   44  C2  UNL     1      -5.208  18.267  -2.306  1.00  0.00     0.001 C 
HETATM   45  C1  UNL     1      -5.565  18.788  -0.939  1.00  0.00     0.005 C 
ENDBRANCH  43  44
ENDBRANCH  42  43
ENDBRANCH  41  42
ENDBRANCH  29  32
ENDBRANCH   1  28
TORSDOF 11
ENDMDL
MODEL 2
REMARK VINA RESULT: -8.839083196      2.520      5.141
REMARK  11 active torsions:
REMARK  status: ('A' for Active; 'I' for Inactive)
REMARK    1  A    between atoms: C2_2  and  C3_3 
REMARK    2  A    between atoms: C3_3  and  C4_4 
REMARK    3  A    between atoms: C4_4  and  N1_5 
REMARK    4  A    between atoms: C8_13  and  C9_14 
REMARK       I    between atoms: C9_14  and  N4_16 
REMARK    5  A    between atoms: N4_16  and  C10_18 
REMARK    6  A    between atoms: N6_22  and  C12_23 
REMARK    7  A    between atoms: C12_23  and  C13_24 
REMARK       I    between atoms: C13_24  and  N7_26 
REMARK    8  A    between atoms: C16_29  and  C17_30 
REMARK    9  A    between atoms: C17_30  and  N8_31 
REMARK   10  A    between atoms: C20_34  and  N9_35 
REMARK   11  A    between atoms: N9_35  and  C21_38 
ROOT
HETATM    1  C10 UNL     1      -8.190  16.221  -5.045  1.00  0.00     0.069 A 
HETATM    2  C11 UNL     1      -9.260  15.501  -5.496  1.00  0.00     0.138 A 
HETATM    3  N5  UNL     1     -10.153  15.471  -4.467  1.00  0.00    -0.307 N 
ATOM      4  H5  UNL     1     -11.060  15.004  -4.496  1.00  0.00     0.186 HD
HETATM    5  N6  UNL     1      -9.685  16.124  -3.442  1.00  0.00    -0.293 N 
HETATM    6  C27 UNL     1      -8.478  16.619  -3.715  1.00  0.00     0.141 A 
ENDROOT
BRANCH   5   7
HETATM    7  C12 UNL     1     -10.421  16.267  -2.174  1.00  0.00     0.251 C 
BRANCH   7   8
HETATM    8  C13 UNL     1      -9.939  15.223  -1.257  1.00  0.00     0.239 C 
HETATM    9  O2  UNL     1     -10.416  14.044  -1.477  1.00  0.00    -0.271 OA
HETATM   10  N7  UNL     1      -9.035  15.449  -0.213  1.00  0.00    -0.351 N 
HETATM   11  C14 UNL     1      -8.650  14.309   0.628  1.00  0.00     0.126 C 
HETATM   12  C26 UNL     1      -8.437  16.705   0.110  1.00  0.00     0.126 C 
HETATM   13  C15 UNL     1      -9.117  14.682   2.019  1.00  0.00     0.026 C 
HETATM   14  C16 UNL     1      -8.399  15.917   2.524  1.00  0.00     0.017 C 
HETATM   15  C25 UNL     1      -8.445  17.057   1.568  1.00  0.00     0.026 C 
BRANCH  14  16
HETATM   16  C17 UNL     1      -9.100  16.346   3.794  1.00  0.00     0.277 C 
BRANCH  16  17
HETATM   17  N8  UNL     1      -9.588  15.205   4.544  1.00  0.00     0.088 N 
HETATM   18  C18 UNL     1     -10.977  15.264   4.876  1.00  0.00     0.274 C 
HETATM   19  C19 UNL     1     -11.470  13.971   5.451  1.00  0.00     0.063 C 
HETATM   20  C20 UNL     1     -10.588  13.365   6.470  1.00  0.00     0.189 C 
HETATM   21  C23 UNL     1      -9.118  13.606   6.237  1.00  0.00     0.063 C 
HETATM   22  C24 UNL     1      -8.844  15.016   5.773  1.00  0.00     0.274 C 
BRANCH  20  23
HETATM   23  N9  UNL     1     -10.884  13.711   7.842  1.00  0.00    -0.071 N 
ATOM     24  H92 UNL     1     -10.023  13.795   8.383  1.00  0.00     0.277 HD
ATOM     25  H91 UNL     1     -11.221  14.672   7.904  1.00  0.00     0.277 HD
BRANCH  23  26
HETATM   26  C21 UNL     1     -11.791  12.821   8.480  1.00  0.00     0.228 C 
HETATM   27  C22 UNL     1     -11.513  11.360   8.207  1.00  0.00     0.034 C 
ENDBRANCH  23  26
ENDBRANCH  20  23
ENDBRANCH  16  17
ENDBRANCH  14  16
ENDBRANCH   7   8
ENDBRANCH   5   7
BRANCH   1  28
HETATM   28  N4  UNL     1      -7.018  16.514  -5.745  1.00  0.00    -0.319 N 
HETATM   29  C9  UNL     1      -6.939  17.309  -6.909  1.00  0.00     0.276 C 
HETATM   30  O1  UNL     1      -8.001  17.783  -7.351  1.00  0.00    -0.266 OA
ATOM     31  H4  UNL     1      -6.148  16.121  -5.387  1.00  0.00     0.169 HD
BRANCH  29  32
HETATM   32  C8  UNL     1      -5.616  17.524  -7.520  1.00  0.00     0.145 A 
HETATM   33  N3  UNL     1      -5.418  17.796  -8.850  1.00  0.00    -0.293 N 
HETATM   34  N2  UNL     1      -4.128  17.906  -9.049  1.00  0.00    -0.302 N 
ATOM     35  H3  UNL     1      -6.146  17.895  -9.558  1.00  0.00     0.187 HD
HETATM   36  C7  UNL     1      -3.449  17.720  -7.917  1.00  0.00     0.056 A 
ATOM     37  H2  UNL     1      -3.700  18.109  -9.953  1.00  0.00     0.186 HD
HETATM   38  C6  UNL     1      -2.080  17.605  -7.281  1.00  0.00     0.081 C 
HETATM   39  C28 UNL     1      -4.412  17.477  -6.916  1.00  0.00     0.092 A 
HETATM   40  C5  UNL     1      -2.435  16.686  -6.087  1.00  0.00     0.134 C 
HETATM   41  N1  UNL     1      -3.719  17.360  -5.682  1.00  0.00    -0.357 N 
BRANCH  41  42
HETATM   42  C4  UNL     1      -3.957  17.778  -4.378  1.00  0.00     0.064 C 
BRANCH  42  43
HETATM   43  C3  UNL     1      -3.215  17.215  -3.214  1.00  0.00     0.044 C 
BRANCH  43  44
HETATM   44  C2  UNL     1      -4.118  17.308  -1.942  1.00  0.00     0.001 C 
HETATM   45  C1  UNL     1      -4.817  18.641  -1.913  1.00  0.00     0.005 C 
ENDBRANCH  43  44
ENDBRANCH  42  43
ENDBRANCH  41  42
ENDBRANCH  29  32
ENDBRANCH   1  28
TORSDOF 11
ENDMDL
MODEL 3
REMARK VINA RESULT: -8.792876584      2.117     11.720
REMARK  11 active torsions:
REMARK  status: ('A' for Active; 'I' for Inactive)
REMARK    1  A    between atoms: C2_2  and  C3_3 
REMARK    2  A    between atoms: C3_3  and  C4_4 
REMARK    3  A    between atoms: C4_4  and  N1_5 
REMARK    4  A    between atoms: C8_13  and  C9_14 
REMARK       I    between atoms: C9_14  and  N4_16 
REMARK    5  A    between atoms: N4_16  and  C10_18 
REMARK    6  A    between atoms: N6_22  and  C12_23 
REMARK    7  A    between atoms: C12_23  and  C13_24 
REMARK       I    between atoms: C13_24  and  N7_26 
REMARK    8  A    between atoms: C16_29  and  C17_30 
REMARK    9  A    between atoms: C17_30  and  N8_31 
REMARK   10  A    between atoms: C20_34  and  N9_35 
REMARK   11  A    between atoms: N9_35  and  C21_38 
ROOT
HETATM    1  C10 UNL     1     -10.479  16.141   2.344  1.00  0.00     0.069 A 
HETATM    2  C11 UNL     1      -9.323  16.792   2.673  1.00  0.00     0.138 A 
HETATM    3  N5  UNL     1      -8.841  17.311   1.509  1.00  0.00    -0.307 N 
ATOM      4  H5  UNL     1      -7.982  17.855   1.426  1.00  0.00     0.186 HD
HETATM    5  N6  UNL     1      -9.631  17.013   0.517  1.00  0.00    -0.293 N 
HETATM    6  C27 UNL     1     -10.667  16.293   0.947  1.00  0.00     0.141 A 
ENDROOT
BRANCH   5   7
HETATM    7  C12 UNL     1      -9.374  17.432  -0.871  1.00  0.00     0.251 C 
BRANCH   7   8
HETATM    8  C13 UNL     1      -8.534  16.402  -1.501  1.00  0.00     0.239 C 
HETATM    9  O2  UNL     1      -7.396  16.202  -0.925  1.00  0.00    -0.271 OA
HETATM   10  N7  UNL     1      -8.903  15.673  -2.638  1.00  0.00    -0.351 N 
HETATM   11  C14 UNL     1      -7.956  14.681  -3.161  1.00  0.00     0.126 C 
HETATM   12  C26 UNL     1     -10.137  15.804  -3.344  1.00  0.00     0.126 C 
HETATM   13  C15 UNL     1      -7.624  15.163  -4.557  1.00  0.00     0.026 C 
HETATM   14  C16 UNL     1      -8.855  15.167  -5.440  1.00  0.00     0.017 C 
HETATM   15  C25 UNL     1     -10.011  15.881  -4.836  1.00  0.00     0.026 C 
BRANCH  14  16
HETATM   16  C17 UNL     1      -8.478  15.886  -6.717  1.00  0.00     0.277 C 
BRANCH  16  17
HETATM   17  N8  UNL     1      -7.093  16.315  -6.697  1.00  0.00     0.088 N 
HETATM   18  C18 UNL     1      -6.911  17.722  -6.527  1.00  0.00     0.274 C 
HETATM   19  C19 UNL     1      -5.473  18.076  -6.295  1.00  0.00     0.063 C 
HETATM   20  C20 UNL     1      -4.512  17.405  -7.195  1.00  0.00     0.189 C 
HETATM   21  C23 UNL     1      -4.918  16.010  -7.603  1.00  0.00     0.063 C 
HETATM   22  C24 UNL     1      -6.395  15.918  -7.903  1.00  0.00     0.274 C 
BRANCH  20  23
HETATM   23  N9  UNL     1      -4.159  18.133  -8.392  1.00  0.00    -0.071 N 
ATOM     24  H92 UNL     1      -4.924  18.105  -9.066  1.00  0.00     0.277 HD
ATOM     25  H91 UNL     1      -4.131  19.136  -8.206  1.00  0.00     0.277 HD
BRANCH  23  26
HETATM   26  C21 UNL     1      -2.945  17.703  -8.995  1.00  0.00     0.228 C 
HETATM   27  C22 UNL     1      -1.711  18.015  -8.178  1.00  0.00     0.034 C 
ENDBRANCH  23  26
ENDBRANCH  20  23
ENDBRANCH  16  17
ENDBRANCH  14  16
ENDBRANCH   7   8
ENDBRANCH   5   7
BRANCH   1  28
HETATM   28  N4  UNL     1     -11.327  15.445   3.207  1.00  0.00    -0.319 N 
HETATM   29  C9  UNL     1     -11.618  14.065   3.130  1.00  0.00     0.276 C 
HETATM   30  O1  UNL     1     -11.081  13.418   2.214  1.00  0.00    -0.266 OA
ATOM     31  H4  UNL     1     -11.773  15.975   3.956  1.00  0.00     0.169 HD
BRANCH  29  32
HETATM   32  C8  UNL     1     -12.532  13.487   4.130  1.00  0.00     0.145 A 
HETATM   33  N3  UNL     1     -13.768  12.969   3.834  1.00  0.00    -0.293 N 
HETATM   34  N2  UNL     1     -14.313  12.565   4.954  1.00  0.00    -0.302 N 
ATOM     35  H3  UNL     1     -14.188  12.910   2.906  1.00  0.00     0.187 HD
HETATM   36  C7  UNL     1     -13.503  12.787   5.990  1.00  0.00     0.056 A 
ATOM     37  H2  UNL     1     -15.235  12.135   5.024  1.00  0.00     0.186 HD
HETATM   38  C6  UNL     1     -13.344  12.718   7.494  1.00  0.00     0.081 C 
HETATM   39  C28 UNL     1     -12.339  13.381   5.459  1.00  0.00     0.092 A 
HETATM   40  C5  UNL     1     -12.329  13.871   7.692  1.00  0.00     0.134 C 
HETATM   41  N1  UNL     1     -11.424  13.550   6.532  1.00  0.00    -0.357 N 
BRANCH  41  42
HETATM   42  C4  UNL     1     -10.050  13.406   6.683  1.00  0.00     0.064 C 
BRANCH  42  43
HETATM   43  C3  UNL     1      -9.074  14.145   5.833  1.00  0.00     0.044 C 
BRANCH  43  44
HETATM   44  C2  UNL     1      -9.152  15.668   6.176  1.00  0.00     0.001 C 
HETATM   45  C1  UNL     1      -9.197  15.849   7.670  1.00  0.00     0.005 C 
ENDBRANCH  43  44
ENDBRANCH  42  43
ENDBRANCH  41  42
ENDBRANCH  29  32
ENDBRANCH   1  28
TORSDOF 11
ENDMDL
MODEL 4
REMARK VINA RESULT: -8.789916439      1.056      1.291
REMARK  11 active torsions:
REMARK  status: ('A' for Active; 'I' for Inactive)
REMARK    1  A    between atoms: C2_2  and  C3_3 
REMARK    2  A    between atoms: C3_3  and  C4_4 
REMARK    3  A    between atoms: C4_4  and  N1_5 
REMARK    4  A    between atoms: C8_13  and  C9_14 
REMARK       I    between atoms: C9_14  and  N4_16 
REMARK    5  A    between atoms: N4_16  and  C10_18 
REMARK    6  A    between atoms: N6_22  and  C12_23 
REMARK    7  A    between atoms: C12_23  and  C13_24 
REMARK       I    between atoms: C13_24  and  N7_26 
REMARK    8  A    between atoms: C16_29  and  C17_30 
REMARK    9  A    between atoms: C17_30  and  N8_31 
REMARK   10  A    between atoms: C20_34  and  N9_35 
REMARK   11  A    between atoms: N9_35  and  C21_38 
ROOT
HETATM    1  C10 UNL     1     -10.565  16.087  -0.502  1.00  0.00     0.069 A 
HETATM    2  C11 UNL     1     -11.465  15.371   0.235  1.00  0.00     0.138 A 
HETATM    3  N5  UNL     1     -11.109  15.549   1.538  1.00  0.00    -0.307 N 
ATOM      4  H5  UNL     1     -11.593  15.137   2.336  1.00  0.00     0.186 HD
HETATM    5  N6  UNL     1     -10.063  16.321   1.621  1.00  0.00    -0.293 N 
HETATM    6  C27 UNL     1      -9.664  16.697   0.406  1.00  0.00     0.141 A 
ENDROOT
BRANCH   5   7
HETATM    7  C12 UNL     1      -9.438  16.696   2.901  1.00  0.00     0.251 C 
BRANCH   7   8
HETATM    8  C13 UNL     1      -9.019  15.457   3.574  1.00  0.00     0.239 C 
HETATM    9  O2  UNL     1      -8.624  14.517   2.784  1.00  0.00    -0.271 OA
HETATM   10  N7  UNL     1      -9.034  15.273   4.962  1.00  0.00    -0.351 N 
HETATM   11  C14 UNL     1      -8.594  13.976   5.492  1.00  0.00     0.126 C 
HETATM   12  C26 UNL     1      -9.438  16.246   5.925  1.00  0.00     0.126 C 
HETATM   13  C15 UNL     1      -9.807  13.421   6.208  1.00  0.00     0.026 C 
HETATM   14  C16 UNL     1     -10.207  14.306   7.370  1.00  0.00     0.017 C 
HETATM   15  C25 UNL     1     -10.356  15.738   6.996  1.00  0.00     0.026 C 
BRANCH  14  16
HETATM   16  C17 UNL     1     -11.551  13.810   7.858  1.00  0.00     0.277 C 
BRANCH  16  17
HETATM   17  N8  UNL     1     -12.135  12.858   6.933  1.00  0.00     0.088 N 
HETATM   18  C18 UNL     1     -13.210  13.378   6.147  1.00  0.00     0.274 C 
HETATM   19  C19 UNL     1     -13.623  12.427   5.065  1.00  0.00     0.063 C 
HETATM   20  C20 UNL     1     -13.758  11.018   5.491  1.00  0.00     0.189 C 
HETATM   21  C23 UNL     1     -12.787  10.603   6.569  1.00  0.00     0.063 C 
HETATM   22  C24 UNL     1     -12.616  11.675   7.617  1.00  0.00     0.274 C 
BRANCH  20  23
HETATM   23  N9  UNL     1     -15.082  10.612   5.905  1.00  0.00    -0.071 N 
ATOM     24  H92 UNL     1     -15.032  10.026   6.738  1.00  0.00     0.277 HD
ATOM     25  H91 UNL     1     -15.599  11.406   6.283  1.00  0.00     0.277 HD
BRANCH  23  26
HETATM   26  C21 UNL     1     -15.834   9.966   4.885  1.00  0.00     0.228 C 
HETATM   27  C22 UNL     1     -15.002   9.104   3.961  1.00  0.00     0.034 C 
ENDBRANCH  23  26
ENDBRANCH  20  23
ENDBRANCH  16  17
ENDBRANCH  14  16
ENDBRANCH   7   8
ENDBRANCH   5   7
BRANCH   1  28
HETATM   28  N4  UNL     1     -10.519  16.202  -1.893  1.00  0.00    -0.319 N 
HETATM   29  C9  UNL     1      -9.681  15.453  -2.747  1.00  0.00     0.276 C 
HETATM   30  O1  UNL     1      -8.915  14.628  -2.219  1.00  0.00    -0.266 OA
ATOM     31  H4  UNL     1     -11.143  16.882  -2.328  1.00  0.00     0.169 HD
BRANCH  29  32
HETATM   32  C8  UNL     1      -9.766  15.697  -4.198  1.00  0.00     0.145 A 
HETATM   33  N3  UNL     1     -10.900  15.498  -4.946  1.00  0.00    -0.293 N 
HETATM   34  N2  UNL     1     -10.616  15.790  -6.190  1.00  0.00    -0.302 N 
ATOM     35  H3  UNL     1     -11.803  15.178  -4.595  1.00  0.00     0.187 HD
HETATM   36  C7  UNL     1      -9.345  16.175  -6.316  1.00  0.00     0.056 A 
ATOM     37  H2  UNL     1     -11.281  15.732  -6.962  1.00  0.00     0.186 HD
HETATM   38  C6  UNL     1      -8.249  16.586  -7.276  1.00  0.00     0.081 C 
HETATM   39  C28 UNL     1      -8.789  16.123  -5.021  1.00  0.00     0.092 A 
HETATM   40  C5  UNL     1      -7.017  16.117  -6.465  1.00  0.00     0.134 C 
HETATM   41  N1  UNL     1      -7.459  16.612  -5.113  1.00  0.00    -0.357 N 
BRANCH  41  42
HETATM   42  C4  UNL     1      -6.651  17.419  -4.321  1.00  0.00     0.064 C 
BRANCH  42  43
HETATM   43  C3  UNL     1      -6.170  16.990  -2.977  1.00  0.00     0.044 C 
BRANCH  43  44
HETATM   44  C2  UNL     1      -4.763  17.618  -2.715  1.00  0.00     0.001 C 
HETATM   45  C1  UNL     1      -4.912  18.863  -1.884  1.00  0.00     0.005 C 
ENDBRANCH  43  44
ENDBRANCH  42  43
ENDBRANCH  41  42
ENDBRANCH  29  32
ENDBRANCH   1  28
TORSDOF 11
ENDMDL
MODEL 5
REMARK VINA RESULT: -8.770263188      1.605      2.408
REMARK  11 active torsions:
REMARK  status: ('A' for Active; 'I' for Inactive)
REMARK    1  A    between atoms: C2_2  and  C3_3 
REMARK    2  A    between atoms: C3_3  and  C4_4 
REMARK    3  A    between atoms: C4_4  and  N1_5 
REMARK    4  A    between atoms: C8_13  and  C9_14 
REMARK       I    between atoms: C9_14  and  N4_16 
REMARK    5  A    between atoms: N4_16  and  C10_18 
REMARK    6  A    between atoms: N6_22  and  C12_23 
REMARK    7  A    between atoms: C12_23  and  C13_24 
REMARK       I    between atoms: C13_24  and  N7_26 
REMARK    8  A    between atoms: C16_29  and  C17_30 
REMARK    9  A    between atoms: C17_30  and  N8_31 
REMARK   10  A    between atoms: C20_34  and  N9_35 
REMARK   11  A    between atoms: N9_35  and  C21_38 
ROOT
HETATM    1  C10 UNL     1     -10.460  16.174  -0.514  1.00  0.00     0.069 A 
HETATM    2  C11 UNL     1     -11.401  15.500   0.213  1.00  0.00     0.138 A 
HETATM    3  N5  UNL     1     -11.044  15.650   1.519  1.00  0.00    -0.307 N 
ATOM      4  H5  UNL     1     -11.553  15.258   2.311  1.00  0.00     0.186 HD
HETATM    5  N6  UNL     1      -9.959  16.366   1.614  1.00  0.00    -0.293 N 
HETATM    6  C27 UNL     1      -9.534  16.730   0.405  1.00  0.00     0.141 A 
ENDROOT
BRANCH   5   7
HETATM    7  C12 UNL     1      -9.324  16.699   2.900  1.00  0.00     0.251 C 
BRANCH   7   8
HETATM    8  C13 UNL     1      -9.004  15.435   3.581  1.00  0.00     0.239 C 
HETATM    9  O2  UNL     1      -8.724  14.450   2.796  1.00  0.00    -0.271 OA
HETATM   10  N7  UNL     1      -8.994  15.271   4.972  1.00  0.00    -0.351 N 
HETATM   11  C14 UNL     1      -8.664  13.946   5.510  1.00  0.00     0.126 C 
HETATM   12  C26 UNL     1      -9.275  16.292   5.930  1.00  0.00     0.126 C 
HETATM   13  C15 UNL     1      -9.901  13.519   6.269  1.00  0.00     0.026 C 
HETATM   14  C16 UNL     1     -10.181  14.453   7.428  1.00  0.00     0.017 C 
HETATM   15  C25 UNL     1     -10.204  15.888   7.036  1.00  0.00     0.026 C 
BRANCH  14  16
HETATM   16  C17 UNL     1     -11.550  14.094   7.963  1.00  0.00     0.277 C 
BRANCH  16  17
HETATM   17  N8  UNL     1     -11.849  12.690   7.761  1.00  0.00     0.088 N 
HETATM   18  C18 UNL     1     -13.130  12.434   7.182  1.00  0.00     0.274 C 
HETATM   19  C19 UNL     1     -13.292  10.995   6.796  1.00  0.00     0.063 C 
HETATM   20  C20 UNL     1     -12.837  10.022   7.811  1.00  0.00     0.189 C 
HETATM   21  C23 UNL     1     -11.654  10.485   8.624  1.00  0.00     0.063 C 
HETATM   22  C24 UNL     1     -11.763  11.943   9.000  1.00  0.00     0.274 C 
BRANCH  20  23
HETATM   23  N9  UNL     1     -13.850   9.552   8.729  1.00  0.00    -0.071 N 
ATOM     24  H92 UNL     1     -13.915  10.171   9.537  1.00  0.00     0.277 HD
ATOM     25  H91 UNL     1     -14.781   9.685   8.334  1.00  0.00     0.277 HD
BRANCH  23  26
HETATM   26  C21 UNL     1     -13.673   8.204   9.145  1.00  0.00     0.228 C 
HETATM   27  C22 UNL     1     -13.482   7.229   8.005  1.00  0.00     0.034 C 
ENDBRANCH  23  26
ENDBRANCH  20  23
ENDBRANCH  16  17
ENDBRANCH  14  16
ENDBRANCH   7   8
ENDBRANCH   5   7
BRANCH   1  28
HETATM   28  N4  UNL     1     -10.400  16.297  -1.903  1.00  0.00    -0.319 N 
HETATM   29  C9  UNL     1      -9.569  15.537  -2.755  1.00  0.00     0.276 C 
HETATM   30  O1  UNL     1      -8.824  14.693  -2.225  1.00  0.00    -0.266 OA
ATOM     31  H4  UNL     1     -11.006  16.992  -2.339  1.00  0.00     0.169 HD
BRANCH  29  32
HETATM   32  C8  UNL     1      -9.637  15.791  -4.205  1.00  0.00     0.145 A 
HETATM   33  N3  UNL     1     -10.748  15.556  -4.976  1.00  0.00    -0.293 N 
HETATM   34  N2  UNL     1     -10.452  15.871  -6.212  1.00  0.00    -0.302 N 
ATOM     35  H3  UNL     1     -11.644  15.198  -4.645  1.00  0.00     0.187 HD
HETATM   36  C7  UNL     1      -9.195  16.306  -6.311  1.00  0.00     0.056 A 
ATOM     37  H2  UNL     1     -11.100  15.794  -6.997  1.00  0.00     0.186 HD
HETATM   38  C6  UNL     1      -8.098  16.768  -7.246  1.00  0.00     0.081 C 
HETATM   39  C28 UNL     1      -8.662  16.263  -5.006  1.00  0.00     0.092 A 
HETATM   40  C5  UNL     1      -6.864  16.338  -6.416  1.00  0.00     0.134 C 
HETATM   41  N1  UNL     1      -7.350  16.803  -5.068  1.00  0.00    -0.357 N 
BRANCH  41  42
HETATM   42  C4  UNL     1      -6.589  17.633  -4.253  1.00  0.00     0.064 C 
BRANCH  42  43
HETATM   43  C3  UNL     1      -6.246  17.273  -2.848  1.00  0.00     0.044 C 
BRANCH  43  44
HETATM   44  C2  UNL     1      -5.121  18.229  -2.337  1.00  0.00     0.001 C 
HETATM   45  C1  UNL     1      -5.480  18.748  -0.970  1.00  0.00     0.005 C 
ENDBRANCH  43  44
ENDBRANCH  42  43
ENDBRANCH  41  42
ENDBRANCH  29  32
ENDBRANCH   1  28
TORSDOF 11
ENDMDL
