MODEL 1
REMARK VINA RESULT: -8.428185008      0.000      0.000
REMARK  12 active torsions:
REMARK  status: ('A' for Active; 'I' for Inactive)
REMARK    1  A    between atoms: O1_2  and  C2_3 
REMARK    2  A    between atoms: C5_8  and  N2_9 
REMARK    3  A    between atoms: N2_9  and  C6_11 
REMARK    4  A    between atoms: C9_14  and  O2_15 
REMARK    5  A    between atoms: O2_15  and  C10_16 
REMARK    6  A    between atoms: C10_16  and  C11_17 
REMARK    7  A    between atoms: C11_17  and  N3_18 
REMARK    8  A    between atoms: C14_21  and  C15_22 
REMARK    9  A    between atoms: C19_28  and  N5_29 
REMARK   10  A    between atoms: C20_31  and  C21_32 
REMARK   11  A    between atoms: C21_32  and  N6_33 
REMARK   12  A    between atoms: C29_42  and  O3_43 
ROOT
HETATM    1  C2  UNL     1      -8.442  17.007  -2.347  1.00  0.00     0.103 A 
HETATM    2  C3  UNL     1      -9.701  16.459  -2.256  1.00  0.00     0.070 A 
HETATM    3  C4  UNL     1     -10.295  16.242  -1.005  1.00  0.00     0.066 A 
HETATM    4  N1  UNL     1     -11.520  15.710  -0.913  1.00  0.00    -0.191 N 
ATOM      5  H1  UNL     1     -12.039  15.453  -1.753  1.00  0.00     0.184 HD
HETATM    6  C5  UNL     1     -12.049  15.521   0.292  1.00  0.00     0.684 A 
HETATM    7  N4  UNL     1     -11.353  15.865   1.390  1.00  0.00    -0.175 N 
ATOM      8  H4  UNL     1     -11.792  15.706   2.297  1.00  0.00     0.186 HD
HETATM    9  C19 UNL     1     -10.122  16.402   1.380  1.00  0.00     0.133 A 
HETATM   10  C27 UNL     1      -9.567  16.599   0.086  1.00  0.00     0.039 A 
HETATM   11  C28 UNL     1      -8.287  17.156  -0.008  1.00  0.00     0.057 A 
HETATM   12  C29 UNL     1      -7.705  17.368  -1.239  1.00  0.00     0.102 A 
ENDROOT
BRANCH   6  13
HETATM   13  N2  UNL     1     -13.222  15.009   0.445  1.00  0.00    -0.192 N 
ATOM     14  H2  UNL     1     -14.022  15.388  -0.062  1.00  0.00     0.184 HD
BRANCH  13  15
HETATM   15  C6  UNL     1     -13.382  13.914   1.328  1.00  0.00     0.050 A 
HETATM   16  C7  UNL     1     -12.554  12.824   1.183  1.00  0.00     0.033 A 
HETATM   17  C8  UNL     1     -12.730  11.780   2.051  1.00  0.00     0.039 A 
HETATM   18  C9  UNL     1     -13.703  11.802   3.047  1.00  0.00     0.075 A 
HETATM   19  C14 UNL     1     -14.531  12.884   3.197  1.00  0.00    -0.019 A 
HETATM   20  C18 UNL     1     -14.348  13.944   2.311  1.00  0.00     0.040 A 
BRANCH  18  21
HETATM   21  O2  UNL     1     -13.827  10.689   3.903  1.00  0.00    -0.349 OA
BRANCH  21  22
HETATM   22  C10 UNL     1     -13.167   9.481   3.560  1.00  0.00     0.206 C 
BRANCH  22  23
HETATM   23  C11 UNL     1     -12.817   8.597   4.699  1.00  0.00     0.297 C 
BRANCH  23  24
HETATM   24  N3  UNL     1     -12.441   7.256   4.369  1.00  0.00     0.082 N 
HETATM   25  C12 UNL     1     -13.525   6.400   3.983  1.00  0.00     0.309 C 
HETATM   26  C13 UNL     1     -11.514   7.315   3.245  1.00  0.00     0.309 C 
ENDBRANCH  23  24
ENDBRANCH  22  23
ENDBRANCH  21  22
ENDBRANCH  18  21
BRANCH  19  27
HETATM   27  C15 UNL     1     -15.568  12.998   4.221  1.00  0.00     0.013 C 
HETATM   28  C16 UNL     1     -16.474  14.164   3.911  1.00  0.00     0.015 C 
HETATM   29  C17 UNL     1     -15.017  13.191   5.609  1.00  0.00     0.015 C 
ENDBRANCH  19  27
ENDBRANCH  13  15
ENDBRANCH   6  13
BRANCH   9  30
HETATM   30  N5  UNL     1      -9.422  16.740   2.336  1.00  0.00    -0.353 N 
HETATM   31  C20 UNL     1      -8.705  16.338   3.424  1.00  0.00     0.082 C 
ATOM     32  H5  UNL     1      -9.347  17.756   2.298  1.00  0.00     0.166 HD
BRANCH  31  33
HETATM   33  C21 UNL     1      -8.672  14.867   3.718  1.00  0.00     0.171 C 
BRANCH  33  34
HETATM   34  N6  UNL     1      -9.504  14.515   4.853  1.00  0.00    -0.366 N 
HETATM   35  C22 UNL     1      -9.193  15.115   6.076  1.00  0.00     0.093 C 
HETATM   36  C23 UNL     1     -10.317  15.814   6.780  1.00  0.00     0.317 C 
HETATM   37  N7  UNL     1     -11.605  15.207   6.539  1.00  0.00     0.093 N 
HETATM   38  C24 UNL     1     -11.787  13.976   7.249  1.00  0.00     0.310 C 
HETATM   39  C25 UNL     1     -11.869  15.067   5.119  1.00  0.00     0.317 C 
HETATM   40  C26 UNL     1     -10.831  14.151   4.555  1.00  0.00     0.093 C 
ENDBRANCH  33  34
ENDBRANCH  31  33
ENDBRANCH   9  30
BRANCH   1  41
HETATM   41  O1  UNL     1      -7.863  17.218  -3.589  1.00  0.00    -0.353 OA
HETATM   42  C1  UNL     1      -8.317  16.664  -4.791  1.00  0.00     0.210 C 
ENDBRANCH   1  41
BRANCH  12  43
HETATM   43  O3  UNL     1      -6.432  17.920  -1.380  1.00  0.00    -0.353 OA
HETATM   44  C30 UNL     1      -5.889  18.849  -0.494  1.00  0.00     0.210 C 
ENDBRANCH  12  43
TORSDOF 12
ENDMDL
MODEL 2
REMARK VINA RESULT: -8.348304948      2.541      8.969
REMARK  12 active torsions:
REMARK  status: ('A' for Active; 'I' for Inactive)
REMARK    1  A    between atoms: O1_2  and  C2_3 
REMARK    2  A    between atoms: C5_8  and  N2_9 
REMARK    3  A    between atoms: N2_9  and  C6_11 
REMARK    4  A    between atoms: C9_14  and  O2_15 
REMARK    5  A    between atoms: O2_15  and  C10_16 
REMARK    6  A    between atoms: C10_16  and  C11_17 
REMARK    7  A    between atoms: C11_17  and  N3_18 
REMARK    8  A    between atoms: C14_21  and  C15_22 
REMARK    9  A    between atoms: C19_28  and  N5_29 
REMARK   10  A    between atoms: C20_31  and  C21_32 
REMARK   11  A    between atoms: C21_32  and  N6_33 
REMARK   12  A    between atoms: C29_42  and  O3_43 
ROOT
HETATM    1  C2  UNL     1      -9.456  15.274   5.318  1.00  0.00     0.103 A 
HETATM    2  C3  UNL     1      -9.288  16.233   4.344  1.00  0.00     0.070 A 
HETATM    3  C4  UNL     1      -9.931  16.108   3.104  1.00  0.00     0.066 A 
HETATM    4  N1  UNL     1      -9.770  17.039   2.154  1.00  0.00    -0.191 N 
ATOM      5  H1  UNL     1      -9.177  17.852   2.320  1.00  0.00     0.184 HD
HETATM    6  C5  UNL     1     -10.397  16.885   0.993  1.00  0.00     0.684 A 
HETATM    7  N4  UNL     1     -11.176  15.807   0.789  1.00  0.00    -0.175 N 
ATOM      8  H4  UNL     1     -11.641  15.725  -0.115  1.00  0.00     0.186 HD
HETATM    9  C19 UNL     1     -11.386  14.833   1.689  1.00  0.00     0.133 A 
HETATM   10  C27 UNL     1     -10.710  15.009   2.929  1.00  0.00     0.039 A 
HETATM   11  C28 UNL     1     -10.880  14.035   3.919  1.00  0.00     0.057 A 
HETATM   12  C29 UNL     1     -10.248  14.160   5.137  1.00  0.00     0.102 A 
ENDROOT
BRANCH   6  13
HETATM   13  N2  UNL     1     -10.279  17.744   0.039  1.00  0.00    -0.192 N 
ATOM     14  H2  UNL     1     -10.901  18.552  -0.010  1.00  0.00     0.184 HD
BRANCH  13  15
HETATM   15  C6  UNL     1      -9.273  17.550  -0.939  1.00  0.00     0.050 A 
HETATM   16  C7  UNL     1      -9.655  17.217  -2.219  1.00  0.00     0.033 A 
HETATM   17  C8  UNL     1      -8.663  17.037  -3.145  1.00  0.00     0.039 A 
HETATM   18  C9  UNL     1      -7.315  17.180  -2.823  1.00  0.00     0.075 A 
HETATM   19  C14 UNL     1      -6.929  17.512  -1.550  1.00  0.00    -0.019 A 
HETATM   20  C18 UNL     1      -7.943  17.694  -0.611  1.00  0.00     0.040 A 
BRANCH  18  21
HETATM   21  O2  UNL     1      -6.349  16.977  -3.829  1.00  0.00    -0.349 OA
BRANCH  21  22
HETATM   22  C10 UNL     1      -6.017  18.055  -4.690  1.00  0.00     0.206 C 
BRANCH  22  23
HETATM   23  C11 UNL     1      -6.498  17.929  -6.087  1.00  0.00     0.297 C 
BRANCH  23  24
HETATM   24  N3  UNL     1      -7.155  16.702  -6.422  1.00  0.00     0.082 N 
HETATM   25  C12 UNL     1      -8.504  16.844  -6.888  1.00  0.00     0.309 C 
HETATM   26  C13 UNL     1      -6.394  16.063  -7.490  1.00  0.00     0.309 C 
ENDBRANCH  23  24
ENDBRANCH  22  23
ENDBRANCH  21  22
ENDBRANCH  18  21
BRANCH  19  27
HETATM   27  C15 UNL     1      -5.541  17.696  -1.128  1.00  0.00     0.013 C 
HETATM   28  C16 UNL     1      -5.208  16.730  -0.017  1.00  0.00     0.015 C 
HETATM   29  C17 UNL     1      -5.246  19.089  -0.640  1.00  0.00     0.015 C 
ENDBRANCH  19  27
ENDBRANCH  13  15
ENDBRANCH   6  13
BRANCH   9  30
HETATM   30  N5  UNL     1     -12.079  13.820   1.579  1.00  0.00    -0.353 N 
HETATM   31  C20 UNL     1     -13.279  13.226   1.835  1.00  0.00     0.082 C 
ATOM     32  H5  UNL     1     -11.512  13.130   1.087  1.00  0.00     0.166 HD
BRANCH  31  33
HETATM   33  C21 UNL     1     -14.300  14.034   2.579  1.00  0.00     0.171 C 
BRANCH  33  34
HETATM   34  N6  UNL     1     -14.535  13.525   3.917  1.00  0.00    -0.366 N 
HETATM   35  C22 UNL     1     -15.637  14.039   4.606  1.00  0.00     0.093 C 
HETATM   36  C23 UNL     1     -16.598  13.034   5.168  1.00  0.00     0.317 C 
HETATM   37  N7  UNL     1     -15.964  11.800   5.565  1.00  0.00     0.093 N 
HETATM   38  C24 UNL     1     -15.216  11.918   6.781  1.00  0.00     0.310 C 
HETATM   39  C25 UNL     1     -15.174  11.237   4.486  1.00  0.00     0.317 C 
HETATM   40  C26 UNL     1     -14.088  12.213   4.165  1.00  0.00     0.093 C 
ENDBRANCH  33  34
ENDBRANCH  31  33
ENDBRANCH   9  30
BRANCH   1  41
HETATM   41  O1  UNL     1      -8.817  15.406   6.541  1.00  0.00    -0.353 OA
HETATM   42  C1  UNL     1      -9.403  15.922   7.701  1.00  0.00     0.210 C 
ENDBRANCH   1  41
BRANCH  12  43
HETATM   43  O3  UNL     1     -10.387  13.215   6.153  1.00  0.00    -0.353 OA
HETATM   44  C30 UNL     1     -11.565  13.022   6.875  1.00  0.00     0.210 C 
ENDBRANCH  12  43
TORSDOF 12
ENDMDL
MODEL 3
REMARK VINA RESULT: -8.129476661      3.050      9.185
REMARK  12 active torsions:
REMARK  status: ('A' for Active; 'I' for Inactive)
REMARK    1  A    between atoms: O1_2  and  C2_3 
REMARK    2  A    between atoms: C5_8  and  N2_9 
REMARK    3  A    between atoms: N2_9  and  C6_11 
REMARK    4  A    between atoms: C9_14  and  O2_15 
REMARK    5  A    between atoms: O2_15  and  C10_16 
REMARK    6  A    between atoms: C10_16  and  C11_17 
REMARK    7  A    between atoms: C11_17  and  N3_18 
REMARK    8  A    between atoms: C14_21  and  C15_22 
REMARK    9  A    between atoms: C19_28  and  N5_29 
REMARK   10  A    between atoms: C20_31  and  C21_32 
REMARK   11  A    between atoms: C21_32  and  N6_33 
REMARK   12  A    between atoms: C29_42  and  O3_43 
ROOT
HETATM    1  C2  UNL     1      -9.462  15.599   4.108  1.00  0.00     0.103 A 
HETATM    2  C3  UNL     1      -8.618  15.363   3.046  1.00  0.00     0.070 A 
HETATM    3  C4  UNL     1      -9.133  15.000   1.793  1.00  0.00     0.066 A 
HETATM    4  N1  UNL     1      -8.315  14.770   0.758  1.00  0.00    -0.191 N 
ATOM      5  H1  UNL     1      -7.304  14.857   0.867  1.00  0.00     0.184 HD
HETATM    6  C5  UNL     1      -8.842  14.429  -0.412  1.00  0.00     0.684 A 
HETATM    7  N4  UNL     1     -10.177  14.319  -0.540  1.00  0.00    -0.175 N 
ATOM      8  H4  UNL     1     -10.543  14.056  -1.454  1.00  0.00     0.186 HD
HETATM    9  C19 UNL     1     -11.060  14.531   0.448  1.00  0.00     0.133 A 
HETATM   10  C27 UNL     1     -10.484  14.897   1.696  1.00  0.00     0.039 A 
HETATM   11  C28 UNL     1     -11.341  15.136   2.777  1.00  0.00     0.057 A 
HETATM   12  C29 UNL     1     -10.833  15.493   4.007  1.00  0.00     0.102 A 
ENDROOT
BRANCH   6  13
HETATM   13  N2  UNL     1      -8.106  14.192  -1.444  1.00  0.00    -0.192 N 
ATOM     14  H2  UNL     1      -7.669  13.279  -1.569  1.00  0.00     0.184 HD
BRANCH  13  15
HETATM   15  C6  UNL     1      -7.915  15.218  -2.400  1.00  0.00     0.050 A 
HETATM   16  C7  UNL     1      -6.961  16.179  -2.154  1.00  0.00     0.033 A 
HETATM   17  C8  UNL     1      -6.796  17.159  -3.096  1.00  0.00     0.039 A 
HETATM   18  C9  UNL     1      -7.554  17.198  -4.264  1.00  0.00     0.075 A 
HETATM   19  C14 UNL     1      -8.506  16.244  -4.515  1.00  0.00    -0.019 A 
HETATM   20  C18 UNL     1      -8.670  15.249  -3.553  1.00  0.00     0.040 A 
BRANCH  18  21
HETATM   21  O2  UNL     1      -7.329  18.238  -5.187  1.00  0.00    -0.349 OA
BRANCH  21  22
HETATM   22  C10 UNL     1      -6.024  18.420  -5.713  1.00  0.00     0.206 C 
BRANCH  22  23
HETATM   23  C11 UNL     1      -5.756  17.744  -7.006  1.00  0.00     0.297 C 
BRANCH  23  24
HETATM   24  N3  UNL     1      -4.426  17.249  -7.198  1.00  0.00     0.082 N 
HETATM   25  C12 UNL     1      -3.607  17.238  -6.021  1.00  0.00     0.309 C 
HETATM   26  C13 UNL     1      -4.525  15.873  -7.671  1.00  0.00     0.309 C 
ENDBRANCH  23  24
ENDBRANCH  22  23
ENDBRANCH  21  22
ENDBRANCH  18  21
BRANCH  19  27
HETATM   27  C15 UNL     1      -9.337  16.200  -5.718  1.00  0.00     0.013 C 
HETATM   28  C16 UNL     1     -10.637  15.495  -5.421  1.00  0.00     0.015 C 
HETATM   29  C17 UNL     1      -8.676  15.495  -6.872  1.00  0.00     0.015 C 
ENDBRANCH  19  27
ENDBRANCH  13  15
ENDBRANCH   6  13
BRANCH   9  30
HETATM   30  N5  UNL     1     -12.289  14.450   0.412  1.00  0.00    -0.353 N 
HETATM   31  C20 UNL     1     -13.386  13.657   0.580  1.00  0.00     0.082 C 
ATOM     32  H5  UNL     1     -12.635  15.370   0.142  1.00  0.00     0.166 HD
BRANCH  31  33
HETATM   33  C21 UNL     1     -13.145  12.227   0.965  1.00  0.00     0.171 C 
BRANCH  33  34
HETATM   34  N6  UNL     1     -13.151  12.038   2.403  1.00  0.00    -0.366 N 
HETATM   35  C22 UNL     1     -14.019  12.844   3.145  1.00  0.00     0.093 C 
HETATM   36  C23 UNL     1     -14.949  12.134   4.083  1.00  0.00     0.317 C 
HETATM   37  N7  UNL     1     -14.390  10.920   4.628  1.00  0.00     0.093 N 
HETATM   38  C24 UNL     1     -13.395  11.159   5.631  1.00  0.00     0.310 C 
HETATM   39  C25 UNL     1     -13.914  10.037   3.580  1.00  0.00     0.317 C 
HETATM   40  C26 UNL     1     -12.815  10.748   2.857  1.00  0.00     0.093 C 
ENDBRANCH  33  34
ENDBRANCH  31  33
ENDBRANCH   9  30
BRANCH   1  41
HETATM   41  O1  UNL     1      -8.944  15.958   5.342  1.00  0.00    -0.353 OA
HETATM   42  C1  UNL     1      -8.649  15.067   6.379  1.00  0.00     0.210 C 
ENDBRANCH   1  41
BRANCH  12  43
HETATM   43  O3  UNL     1     -11.649  15.740   5.110  1.00  0.00    -0.353 OA
HETATM   44  C30 UNL     1     -12.338  14.745   5.802  1.00  0.00     0.210 C 
ENDBRANCH  12  43
TORSDOF 12
ENDMDL
MODEL 4
REMARK VINA RESULT: -8.095029380      2.612      8.988
REMARK  12 active torsions:
REMARK  status: ('A' for Active; 'I' for Inactive)
REMARK    1  A    between atoms: O1_2  and  C2_3 
REMARK    2  A    between atoms: C5_8  and  N2_9 
REMARK    3  A    between atoms: N2_9  and  C6_11 
REMARK    4  A    between atoms: C9_14  and  O2_15 
REMARK    5  A    between atoms: O2_15  and  C10_16 
REMARK    6  A    between atoms: C10_16  and  C11_17 
REMARK    7  A    between atoms: C11_17  and  N3_18 
REMARK    8  A    between atoms: C14_21  and  C15_22 
REMARK    9  A    between atoms: C19_28  and  N5_29 
REMARK   10  A    between atoms: C20_31  and  C21_32 
REMARK   11  A    between atoms: C21_32  and  N6_33 
REMARK   12  A    between atoms: C29_42  and  O3_43 
ROOT
HETATM    1  C2  UNL     1      -9.668  14.762   5.368  1.00  0.00     0.103 A 
HETATM    2  C3  UNL     1      -8.771  14.501   4.357  1.00  0.00     0.070 A 
HETATM    3  C4  UNL     1      -9.196  14.453   3.021  1.00  0.00     0.066 A 
HETATM    4  N1  UNL     1      -8.326  14.200   2.036  1.00  0.00    -0.191 N 
ATOM      5  H1  UNL     1      -7.340  14.037   2.243  1.00  0.00     0.184 HD
HETATM    6  C5  UNL     1      -8.768  14.164   0.784  1.00  0.00     0.684 A 
HETATM    7  N4  UNL     1     -10.070  14.381   0.526  1.00  0.00    -0.175 N 
ATOM      8  H4  UNL     1     -10.371  14.346  -0.448  1.00  0.00     0.186 HD
HETATM    9  C19 UNL     1     -11.002  14.640   1.457  1.00  0.00     0.133 A 
HETATM   10  C27 UNL     1     -10.517  14.676   2.794  1.00  0.00     0.039 A 
HETATM   11  C28 UNL     1     -11.428  14.941   3.822  1.00  0.00     0.057 A 
HETATM   12  C29 UNL     1     -11.008  14.988   5.134  1.00  0.00     0.102 A 
ENDROOT
BRANCH   6  13
HETATM   13  N2  UNL     1      -7.980  13.922  -0.207  1.00  0.00    -0.192 N 
ATOM     14  H2  UNL     1      -7.500  13.024  -0.280  1.00  0.00     0.184 HD
BRANCH  13  15
HETATM   15  C6  UNL     1      -7.790  14.920  -1.193  1.00  0.00     0.050 A 
HETATM   16  C7  UNL     1      -8.351  14.734  -2.436  1.00  0.00     0.033 A 
HETATM   17  C8  UNL     1      -8.152  15.716  -3.370  1.00  0.00     0.039 A 
HETATM   18  C9  UNL     1      -7.416  16.864  -3.091  1.00  0.00     0.075 A 
HETATM   19  C14 UNL     1      -6.855  17.056  -1.855  1.00  0.00    -0.019 A 
HETATM   20  C18 UNL     1      -7.059  16.053  -0.908  1.00  0.00     0.040 A 
BRANCH  18  21
HETATM   21  O2  UNL     1      -7.253  17.831  -4.103  1.00  0.00    -0.349 OA
BRANCH  21  22
HETATM   22  C10 UNL     1      -6.353  17.567  -5.168  1.00  0.00     0.206 C 
BRANCH  22  23
HETATM   23  C11 UNL     1      -6.885  17.813  -6.530  1.00  0.00     0.297 C 
BRANCH  23  24
HETATM   24  N3  UNL     1      -7.405  16.673  -7.223  1.00  0.00     0.082 N 
HETATM   25  C12 UNL     1      -6.880  15.410  -6.791  1.00  0.00     0.309 C 
HETATM   26  C13 UNL     1      -8.847  16.639  -7.011  1.00  0.00     0.309 C 
ENDBRANCH  23  24
ENDBRANCH  22  23
ENDBRANCH  21  22
ENDBRANCH  18  21
BRANCH  19  27
HETATM   27  C15 UNL     1      -6.079  18.235  -1.471  1.00  0.00     0.013 C 
HETATM   28  C16 UNL     1      -4.613  17.884  -1.395  1.00  0.00     0.015 C 
HETATM   29  C17 UNL     1      -6.491  18.813  -0.144  1.00  0.00     0.015 C 
ENDBRANCH  19  27
ENDBRANCH  13  15
ENDBRANCH   6  13
BRANCH   9  30
HETATM   30  N5  UNL     1     -12.207  14.847   1.304  1.00  0.00    -0.353 N 
HETATM   31  C20 UNL     1     -13.454  14.304   1.205  1.00  0.00     0.082 C 
ATOM     32  H5  UNL     1     -12.320  15.856   1.211  1.00  0.00     0.166 HD
BRANCH  31  33
HETATM   33  C21 UNL     1     -13.561  12.811   1.291  1.00  0.00     0.171 C 
BRANCH  33  34
HETATM   34  N6  UNL     1     -13.470  12.331   2.657  1.00  0.00    -0.366 N 
HETATM   35  C22 UNL     1     -14.363  12.880   3.581  1.00  0.00     0.093 C 
HETATM   36  C23 UNL     1     -15.174  11.907   4.384  1.00  0.00     0.317 C 
HETATM   37  N7  UNL     1     -14.481  10.667   4.643  1.00  0.00     0.093 N 
HETATM   38  C24 UNL     1     -13.457  10.792   5.636  1.00  0.00     0.310 C 
HETATM   39  C25 UNL     1     -13.988  10.067   3.416  1.00  0.00     0.317 C 
HETATM   40  C26 UNL     1     -12.998  11.015   2.818  1.00  0.00     0.093 C 
ENDBRANCH  33  34
ENDBRANCH  31  33
ENDBRANCH   9  30
BRANCH   1  41
HETATM   41  O1  UNL     1      -9.238  14.807   6.685  1.00  0.00    -0.353 OA
HETATM   42  C1  UNL     1      -9.159  15.966   7.464  1.00  0.00     0.210 C 
ENDBRANCH   1  41
BRANCH  12  43
HETATM   43  O3  UNL     1     -11.881  15.248   6.190  1.00  0.00    -0.353 OA
HETATM   44  C30 UNL     1     -12.630  14.265   6.835  1.00  0.00     0.210 C 
ENDBRANCH  12  43
TORSDOF 12
ENDMDL
MODEL 5
REMARK VINA RESULT: -8.014639500      2.832      9.148
REMARK  12 active torsions:
REMARK  status: ('A' for Active; 'I' for Inactive)
REMARK    1  A    between atoms: O1_2  and  C2_3 
REMARK    2  A    between atoms: C5_8  and  N2_9 
REMARK    3  A    between atoms: N2_9  and  C6_11 
REMARK    4  A    between atoms: C9_14  and  O2_15 
REMARK    5  A    between atoms: O2_15  and  C10_16 
REMARK    6  A    between atoms: C10_16  and  C11_17 
REMARK    7  A    between atoms: C11_17  and  N3_18 
REMARK    8  A    between atoms: C14_21  and  C15_22 
REMARK    9  A    between atoms: C19_28  and  N5_29 
REMARK   10  A    between atoms: C20_31  and  C21_32 
REMARK   11  A    between atoms: C21_32  and  N6_33 
REMARK   12  A    between atoms: C29_42  and  O3_43 
ROOT
HETATM    1  C2  UNL     1      -9.463  15.231   5.414  1.00  0.00     0.103 A 
HETATM    2  C3  UNL     1      -9.298  16.180   4.431  1.00  0.00     0.070 A 
HETATM    3  C4  UNL     1     -10.002  16.084   3.222  1.00  0.00     0.066 A 
HETATM    4  N1  UNL     1      -9.844  17.006   2.264  1.00  0.00    -0.191 N 
ATOM      5  H1  UNL     1      -9.207  17.792   2.400  1.00  0.00     0.184 HD
HETATM    6  C5  UNL     1     -10.529  16.880   1.133  1.00  0.00     0.684 A 
HETATM    7  N4  UNL     1     -11.364  15.838   0.968  1.00  0.00    -0.175 N 
ATOM      8  H4  UNL     1     -11.874  15.776   0.087  1.00  0.00     0.186 HD
HETATM    9  C19 UNL     1     -11.576  14.875   1.879  1.00  0.00     0.133 A 
HETATM   10  C27 UNL     1     -10.837  15.021   3.085  1.00  0.00     0.039 A 
HETATM   11  C28 UNL     1     -11.004  14.056   4.085  1.00  0.00     0.057 A 
HETATM   12  C29 UNL     1     -10.311  14.153   5.273  1.00  0.00     0.102 A 
ENDROOT
BRANCH   6  13
HETATM   13  N2  UNL     1     -10.417  17.733   0.173  1.00  0.00    -0.192 N 
ATOM     14  H2  UNL     1     -11.029  18.548   0.130  1.00  0.00     0.184 HD
BRANCH  13  15
HETATM   15  C6  UNL     1      -9.431  17.521  -0.821  1.00  0.00     0.050 A 
HETATM   16  C7  UNL     1      -9.839  17.178  -2.091  1.00  0.00     0.033 A 
HETATM   17  C8  UNL     1      -8.865  16.981  -3.033  1.00  0.00     0.039 A 
HETATM   18  C9  UNL     1      -7.511  17.116  -2.737  1.00  0.00     0.075 A 
HETATM   19  C14 UNL     1      -7.099  17.458  -1.475  1.00  0.00    -0.019 A 
HETATM   20  C18 UNL     1      -8.093  17.657  -0.520  1.00  0.00     0.040 A 
BRANCH  18  21
HETATM   21  O2  UNL     1      -6.565  16.896  -3.758  1.00  0.00    -0.349 OA
BRANCH  21  22
HETATM   22  C10 UNL     1      -6.565  17.750  -4.892  1.00  0.00     0.206 C 
BRANCH  22  23
HETATM   23  C11 UNL     1      -5.234  18.246  -5.318  1.00  0.00     0.297 C 
BRANCH  23  24
HETATM   24  N3  UNL     1      -4.115  17.408  -5.006  1.00  0.00     0.082 N 
HETATM   25  C12 UNL     1      -3.226  17.151  -6.101  1.00  0.00     0.309 C 
HETATM   26  C13 UNL     1      -3.339  18.068  -3.963  1.00  0.00     0.309 C 
ENDBRANCH  23  24
ENDBRANCH  22  23
ENDBRANCH  21  22
ENDBRANCH  18  21
BRANCH  19  27
HETATM   27  C15 UNL     1      -5.702  17.634  -1.080  1.00  0.00     0.013 C 
HETATM   28  C16 UNL     1      -5.389  16.764   0.112  1.00  0.00     0.015 C 
HETATM   29  C17 UNL     1      -5.359  19.056  -0.724  1.00  0.00     0.015 C 
ENDBRANCH  19  27
ENDBRANCH  13  15
ENDBRANCH   6  13
BRANCH   9  30
HETATM   30  N5  UNL     1     -12.318  13.894   1.804  1.00  0.00    -0.353 N 
HETATM   31  C20 UNL     1     -13.536  13.359   2.103  1.00  0.00     0.082 C 
ATOM     32  H5  UNL     1     -11.798  13.173   1.303  1.00  0.00     0.166 HD
BRANCH  31  33
HETATM   33  C21 UNL     1     -14.494  14.223   2.867  1.00  0.00     0.171 C 
BRANCH  33  34
HETATM   34  N6  UNL     1     -14.914  13.609   4.113  1.00  0.00    -0.366 N 
HETATM   35  C22 UNL     1     -16.234  13.831   4.516  1.00  0.00     0.093 C 
HETATM   36  C23 UNL     1     -17.046  12.612   4.837  1.00  0.00     0.317 C 
HETATM   37  N7  UNL     1     -16.260  11.531   5.381  1.00  0.00     0.093 N 
HETATM   38  C24 UNL     1     -15.863  11.752   6.740  1.00  0.00     0.310 C 
HETATM   39  C25 UNL     1     -15.133  11.210   4.524  1.00  0.00     0.317 C 
HETATM   40  C26 UNL     1     -14.252  12.417   4.467  1.00  0.00     0.093 C 
ENDBRANCH  33  34
ENDBRANCH  31  33
ENDBRANCH   9  30
BRANCH   1  41
HETATM   41  O1  UNL     1      -8.763  15.334   6.606  1.00  0.00    -0.353 OA
HETATM   42  C1  UNL     1      -9.244  15.945   7.769  1.00  0.00     0.210 C 
ENDBRANCH   1  41
BRANCH  12  43
HETATM   43  O3  UNL     1     -10.446  13.215   6.296  1.00  0.00    -0.353 OA
HETATM   44  C30 UNL     1     -11.602  13.065   7.060  1.00  0.00     0.210 C 
ENDBRANCH  12  43
TORSDOF 12
ENDMDL
