MODEL 1
REMARK VINA RESULT: -8.502476055      0.000      0.000
REMARK  14 active torsions:
REMARK  status: ('A' for Active; 'I' for Inactive)
REMARK    1  A    between atoms: C2_2  and  N1_3 
REMARK    2  A    between atoms: N1_3  and  C3_4 
REMARK       I    between atoms: N1_3  and  C5_6 
REMARK    3  A    between atoms: C5_6  and  C6_8 
REMARK    4  A    between atoms: C6_8  and  N2_9 
REMARK    5  A    between atoms: N2_9  and  C7_11 
REMARK    6  A    between atoms: C9_15  and  C10_16 
REMARK    7  A    between atoms: C12_20  and  O2_21 
REMARK    8  A    between atoms: O2_21  and  C13_22 
REMARK    9  A    between atoms: C13_22  and  C14_23 
REMARK   10  A    between atoms: C14_23  and  C15_24 
REMARK   11  A    between atoms: C15_24  and  N5_25 
REMARK   12  A    between atoms: C18_28  and  O3_29 
REMARK   13  A    between atoms: C21_32  and  N6_33 
REMARK   14  A    between atoms: N6_33  and  C22_35 
ROOT
HETATM    1  C7  UNL     1     -12.163  14.250   1.901  1.00  0.00     0.679 A 
HETATM    2  N3  UNL     1     -11.906  13.245   1.046  1.00  0.00    -0.201 N 
ATOM      3  H3  UNL     1     -12.317  12.329   1.232  1.00  0.00     0.183 HD
HETATM    4  C8  UNL     1     -11.132  13.392  -0.042  1.00  0.00     0.122 A 
HETATM    5  C9  UNL     1     -10.578  14.624  -0.295  1.00  0.00     0.036 A 
HETATM    6  C21 UNL     1     -10.830  15.668   0.569  1.00  0.00     0.134 A 
HETATM    7  N9  UNL     1     -11.613  15.464   1.644  1.00  0.00    -0.176 N 
ATOM      8  H9  UNL     1     -11.797  16.239   2.282  1.00  0.00     0.186 HD
ENDROOT
BRANCH   5   9
HETATM    9  C10 UNL     1      -9.743  14.833  -1.471  1.00  0.00    -0.003 A 
HETATM   10  C11 UNL     1      -8.425  14.448  -1.502  1.00  0.00     0.102 A 
HETATM   11  N4  UNL     1      -7.636  14.632  -2.599  1.00  0.00    -0.344 N 
HETATM   12  C12 UNL     1      -8.123  15.208  -3.715  1.00  0.00     0.176 A 
ATOM     13  H4  UNL     1      -6.662  14.330  -2.574  1.00  0.00     0.167 HD
HETATM   14  C18 UNL     1      -9.445  15.604  -3.710  1.00  0.00     0.120 A 
HETATM   15  C20 UNL     1     -10.261  15.425  -2.608  1.00  0.00     0.055 A 
BRANCH  12  16
HETATM   16  O2  UNL     1      -7.377  15.420  -4.848  1.00  0.00    -0.334 OA
BRANCH  16  17
HETATM   17  C13 UNL     1      -7.598  14.730  -6.065  1.00  0.00     0.179 C 
BRANCH  17  18
HETATM   18  C14 UNL     1      -7.353  15.584  -7.265  1.00  0.00     0.057 C 
BRANCH  18  19
HETATM   19  C15 UNL     1      -7.483  17.057  -6.984  1.00  0.00     0.273 C 
BRANCH  19  20
HETATM   20  N5  UNL     1      -6.237  17.760  -7.301  1.00  0.00     0.080 N 
HETATM   21  C16 UNL     1      -5.376  16.884  -8.075  1.00  0.00     0.309 C 
HETATM   22  C17 UNL     1      -5.599  18.106  -6.045  1.00  0.00     0.309 C 
ENDBRANCH  19  20
ENDBRANCH  18  19
ENDBRANCH  17  18
ENDBRANCH  16  17
ENDBRANCH  12  16
BRANCH  14  23
HETATM   23  O3  UNL     1     -10.003  16.203  -4.829  1.00  0.00    -0.352 OA
HETATM   24  C19 UNL     1     -11.029  15.596  -5.569  1.00  0.00     0.210 C 
ENDBRANCH  14  23
ENDBRANCH   5   9
BRANCH   6  25
HETATM   25  N6  UNL     1     -10.310  16.853   0.357  1.00  0.00    -0.341 N 
ATOM     26  H6  UNL     1     -10.941  17.628   0.154  1.00  0.00     0.167 HD
BRANCH  25  27
HETATM   27  C22 UNL     1      -8.930  17.111   0.395  1.00  0.00     0.035 A 
HETATM   28  C23 UNL     1      -8.084  16.579   1.363  1.00  0.00     0.032 A 
HETATM   29  C24 UNL     1      -6.734  16.858   1.363  1.00  0.00     0.034 A 
HETATM   30  C25 UNL     1      -6.171  17.672   0.404  1.00  0.00     0.060 A 
HETATM   31  N7  UNL     1      -4.932  18.113   0.148  1.00  0.00    -0.351 N 
HETATM   32  C27 UNL     1      -6.994  18.201  -0.554  1.00  0.00     0.062 A 
HETATM   33  C26 UNL     1      -4.950  18.902  -0.939  1.00  0.00     0.181 A 
ATOM     34  H7  UNL     1      -4.102  17.884   0.695  1.00  0.00     0.166 HD
HETATM   35  N8  UNL     1      -6.222  18.955  -1.369  1.00  0.00    -0.350 N 
ATOM     36  H8  UNL     1      -6.552  19.478  -2.179  1.00  0.00     0.166 HD
HETATM   37  C28 UNL     1      -8.346  17.928  -0.559  1.00  0.00     0.061 A 
ENDBRANCH  25  27
ENDBRANCH   6  25
BRANCH   1  38
HETATM   38  N2  UNL     1     -12.910  14.110   2.945  1.00  0.00    -0.217 N 
ATOM     39  H2  UNL     1     -13.901  14.346   2.911  1.00  0.00     0.178 HD
BRANCH  38  40
HETATM   40  C6  UNL     1     -12.316  13.616   4.157  1.00  0.00     0.240 C 
BRANCH  40  41
HETATM   41  C5  UNL     1     -12.061  14.691   5.145  1.00  0.00     0.237 C 
HETATM   42  N1  UNL     1     -10.767  14.855   5.663  1.00  0.00    -0.351 N 
HETATM   43  O1  UNL     1     -13.041  15.412   5.469  1.00  0.00    -0.272 OA
BRANCH  42  44
HETATM   44  C2  UNL     1      -9.700  13.992   5.246  1.00  0.00     0.121 C 
HETATM   45  C1  UNL     1      -8.982  14.508   4.017  1.00  0.00     0.026 C 
ENDBRANCH  42  44
BRANCH  42  46
HETATM   46  C3  UNL     1     -10.513  15.897   6.620  1.00  0.00     0.121 C 
HETATM   47  C4  UNL     1      -9.392  15.553   7.571  1.00  0.00     0.026 C 
ENDBRANCH  42  46
ENDBRANCH  40  41
ENDBRANCH  38  40
ENDBRANCH   1  38
TORSDOF 14
ENDMDL
MODEL 2
REMARK VINA RESULT: -8.500214260      2.279      4.713
REMARK  14 active torsions:
REMARK  status: ('A' for Active; 'I' for Inactive)
REMARK    1  A    between atoms: C2_2  and  N1_3 
REMARK    2  A    between atoms: N1_3  and  C3_4 
REMARK       I    between atoms: N1_3  and  C5_6 
REMARK    3  A    between atoms: C5_6  and  C6_8 
REMARK    4  A    between atoms: C6_8  and  N2_9 
REMARK    5  A    between atoms: N2_9  and  C7_11 
REMARK    6  A    between atoms: C9_15  and  C10_16 
REMARK    7  A    between atoms: C12_20  and  O2_21 
REMARK    8  A    between atoms: O2_21  and  C13_22 
REMARK    9  A    between atoms: C13_22  and  C14_23 
REMARK   10  A    between atoms: C14_23  and  C15_24 
REMARK   11  A    between atoms: C15_24  and  N5_25 
REMARK   12  A    between atoms: C18_28  and  O3_29 
REMARK   13  A    between atoms: C21_32  and  N6_33 
REMARK   14  A    between atoms: N6_33  and  C22_35 
ROOT
HETATM    1  C7  UNL     1     -11.824  14.125   1.310  1.00  0.00     0.679 A 
HETATM    2  N3  UNL     1     -11.687  15.302   1.944  1.00  0.00    -0.201 N 
ATOM      3  H3  UNL     1     -12.369  15.551   2.661  1.00  0.00     0.183 HD
HETATM    4  C8  UNL     1     -10.692  16.164   1.677  1.00  0.00     0.122 A 
HETATM    5  C9  UNL     1      -9.772  15.830   0.712  1.00  0.00     0.036 A 
HETATM    6  C21 UNL     1      -9.895  14.627   0.050  1.00  0.00     0.134 A 
HETATM    7  N9  UNL     1     -10.911  13.801   0.359  1.00  0.00    -0.176 N 
ATOM      8  H9  UNL     1     -10.998  12.912  -0.133  1.00  0.00     0.186 HD
ENDROOT
BRANCH   5   9
HETATM    9  C10 UNL     1      -8.670  16.729   0.397  1.00  0.00    -0.003 A 
HETATM   10  C11 UNL     1      -8.813  17.771  -0.486  1.00  0.00     0.102 A 
HETATM   11  N4  UNL     1      -7.789  18.622  -0.783  1.00  0.00    -0.344 N 
HETATM   12  C12 UNL     1      -6.578  18.476  -0.213  1.00  0.00     0.176 A 
ATOM     13  H4  UNL     1      -7.944  19.381  -1.446  1.00  0.00     0.167 HD
HETATM   14  C18 UNL     1      -6.407  17.437   0.679  1.00  0.00     0.120 A 
HETATM   15  C20 UNL     1      -7.432  16.564   0.993  1.00  0.00     0.055 A 
BRANCH  12  16
HETATM   16  O2  UNL     1      -5.511  19.301  -0.473  1.00  0.00    -0.334 OA
BRANCH  16  17
HETATM   17  C13 UNL     1      -4.948  19.461  -1.763  1.00  0.00     0.179 C 
BRANCH  17  18
HETATM   18  C14 UNL     1      -4.398  18.186  -2.313  1.00  0.00     0.057 C 
BRANCH  18  19
HETATM   19  C15 UNL     1      -5.212  17.626  -3.448  1.00  0.00     0.273 C 
BRANCH  19  20
HETATM   20  N5  UNL     1      -4.953  18.363  -4.688  1.00  0.00     0.080 N 
HETATM   21  C16 UNL     1      -6.212  18.823  -5.243  1.00  0.00     0.309 C 
HETATM   22  C17 UNL     1      -4.303  17.452  -5.610  1.00  0.00     0.309 C 
ENDBRANCH  19  20
ENDBRANCH  18  19
ENDBRANCH  17  18
ENDBRANCH  16  17
ENDBRANCH  12  16
BRANCH  14  23
HETATM   23  O3  UNL     1      -5.183  17.235   1.297  1.00  0.00    -0.352 OA
HETATM   24  C19 UNL     1      -4.186  16.422   0.736  1.00  0.00     0.210 C 
ENDBRANCH  14  23
ENDBRANCH   5   9
BRANCH   6  25
HETATM   25  N6  UNL     1      -9.036  14.284  -0.880  1.00  0.00    -0.341 N 
ATOM     26  H6  UNL     1      -8.272  13.658  -0.625  1.00  0.00     0.167 HD
BRANCH  25  27
HETATM   27  C22 UNL     1      -9.111  14.734  -2.208  1.00  0.00     0.035 A 
HETATM   28  C23 UNL     1     -10.274  15.249  -2.771  1.00  0.00     0.032 A 
HETATM   29  C24 UNL     1     -10.305  15.681  -4.079  1.00  0.00     0.034 A 
HETATM   30  C25 UNL     1      -9.185  15.619  -4.879  1.00  0.00     0.060 A 
HETATM   31  N7  UNL     1      -8.911  15.952  -6.148  1.00  0.00    -0.351 N 
HETATM   32  C27 UNL     1      -8.034  15.114  -4.337  1.00  0.00     0.062 A 
HETATM   33  C26 UNL     1      -7.625  15.672  -6.420  1.00  0.00     0.181 A 
ATOM     34  H7  UNL     1      -9.577  16.356  -6.807  1.00  0.00     0.166 HD
HETATM   35  N8  UNL     1      -7.088  15.155  -5.302  1.00  0.00    -0.350 N 
ATOM     36  H8  UNL     1      -6.122  14.844  -5.198  1.00  0.00     0.166 HD
HETATM   37  C28 UNL     1      -7.997  14.679  -3.028  1.00  0.00     0.061 A 
ENDBRANCH  25  27
ENDBRANCH   6  25
BRANCH   1  38
HETATM   38  N2  UNL     1     -12.777  13.293   1.569  1.00  0.00    -0.217 N 
ATOM     39  H2  UNL     1     -12.920  12.468   0.988  1.00  0.00     0.178 HD
BRANCH  38  40
HETATM   40  C6  UNL     1     -13.634  13.554   2.693  1.00  0.00     0.240 C 
BRANCH  40  41
HETATM   41  C5  UNL     1     -13.380  12.636   3.828  1.00  0.00     0.237 C 
HETATM   42  N1  UNL     1     -13.062  13.170   5.087  1.00  0.00    -0.351 N 
HETATM   43  O1  UNL     1     -13.466  11.401   3.593  1.00  0.00    -0.272 OA
BRANCH  42  44
HETATM   44  C2  UNL     1     -12.981  14.589   5.276  1.00  0.00     0.121 C 
HETATM   45  C1  UNL     1     -11.569  15.059   5.550  1.00  0.00     0.026 C 
ENDBRANCH  42  44
BRANCH  42  46
HETATM   46  C3  UNL     1     -12.817  12.284   6.191  1.00  0.00     0.121 C 
HETATM   47  C4  UNL     1     -14.045  12.059   7.040  1.00  0.00     0.026 C 
ENDBRANCH  42  46
ENDBRANCH  40  41
ENDBRANCH  38  40
ENDBRANCH   1  38
TORSDOF 14
ENDMDL
MODEL 3
REMARK VINA RESULT: -8.404577551      0.980      1.318
REMARK  14 active torsions:
REMARK  status: ('A' for Active; 'I' for Inactive)
REMARK    1  A    between atoms: C2_2  and  N1_3 
REMARK    2  A    between atoms: N1_3  and  C3_4 
REMARK       I    between atoms: N1_3  and  C5_6 
REMARK    3  A    between atoms: C5_6  and  C6_8 
REMARK    4  A    between atoms: C6_8  and  N2_9 
REMARK    5  A    between atoms: N2_9  and  C7_11 
REMARK    6  A    between atoms: C9_15  and  C10_16 
REMARK    7  A    between atoms: C12_20  and  O2_21 
REMARK    8  A    between atoms: O2_21  and  C13_22 
REMARK    9  A    between atoms: C13_22  and  C14_23 
REMARK   10  A    between atoms: C14_23  and  C15_24 
REMARK   11  A    between atoms: C15_24  and  N5_25 
REMARK   12  A    between atoms: C18_28  and  O3_29 
REMARK   13  A    between atoms: C21_32  and  N6_33 
REMARK   14  A    between atoms: N6_33  and  C22_35 
ROOT
HETATM    1  C7  UNL     1     -12.202  14.348   1.824  1.00  0.00     0.679 A 
HETATM    2  N3  UNL     1     -11.965  13.311   1.003  1.00  0.00    -0.201 N 
ATOM      3  H3  UNL     1     -12.379  12.406   1.229  1.00  0.00     0.183 HD
HETATM    4  C8  UNL     1     -11.209  13.413  -0.102  1.00  0.00     0.122 A 
HETATM    5  C9  UNL     1     -10.650  14.631  -0.409  1.00  0.00     0.036 A 
HETATM    6  C21 UNL     1     -10.881  15.707   0.421  1.00  0.00     0.134 A 
HETATM    7  N9  UNL     1     -11.647  15.548   1.515  1.00  0.00    -0.176 N 
ATOM      8  H9  UNL     1     -11.815  16.347   2.126  1.00  0.00     0.186 HD
ENDROOT
BRANCH   5   9
HETATM    9  C10 UNL     1      -9.833  14.791  -1.605  1.00  0.00    -0.003 A 
HETATM   10  C11 UNL     1      -8.528  14.364  -1.654  1.00  0.00     0.102 A 
HETATM   11  N4  UNL     1      -7.757  14.503  -2.770  1.00  0.00    -0.344 N 
HETATM   12  C12 UNL     1      -8.248  15.071  -3.888  1.00  0.00     0.176 A 
ATOM     13  H4  UNL     1      -6.792  14.171  -2.758  1.00  0.00     0.167 HD
HETATM   14  C18 UNL     1      -9.557  15.509  -3.865  1.00  0.00     0.120 A 
HETATM   15  C20 UNL     1     -10.356  15.377  -2.744  1.00  0.00     0.055 A 
BRANCH  12  16
HETATM   16  O2  UNL     1      -7.519  15.238  -5.039  1.00  0.00    -0.334 OA
BRANCH  16  17
HETATM   17  C13 UNL     1      -6.985  16.484  -5.448  1.00  0.00     0.179 C 
BRANCH  17  18
HETATM   18  C14 UNL     1      -6.277  17.197  -4.343  1.00  0.00     0.057 C 
BRANCH  18  19
HETATM   19  C15 UNL     1      -5.146  18.067  -4.823  1.00  0.00     0.273 C 
BRANCH  19  20
HETATM   20  N5  UNL     1      -3.884  17.323  -4.831  1.00  0.00     0.080 N 
HETATM   21  C16 UNL     1      -2.921  18.003  -3.985  1.00  0.00     0.309 C 
HETATM   22  C17 UNL     1      -3.408  17.285  -6.201  1.00  0.00     0.309 C 
ENDBRANCH  19  20
ENDBRANCH  18  19
ENDBRANCH  17  18
ENDBRANCH  16  17
ENDBRANCH  12  16
BRANCH  14  23
HETATM   23  O3  UNL     1     -10.120  16.102  -4.985  1.00  0.00    -0.352 OA
HETATM   24  C19 UNL     1     -11.074  15.448  -5.779  1.00  0.00     0.210 C 
ENDBRANCH  14  23
ENDBRANCH   5   9
BRANCH   6  25
HETATM   25  N6  UNL     1     -10.356  16.881   0.157  1.00  0.00    -0.341 N 
ATOM     26  H6  UNL     1     -10.980  17.636  -0.126  1.00  0.00     0.167 HD
BRANCH  25  27
HETATM   27  C22 UNL     1      -8.981  17.151   0.244  1.00  0.00     0.035 A 
HETATM   28  C23 UNL     1      -8.160  16.605   1.224  1.00  0.00     0.032 A 
HETATM   29  C24 UNL     1      -6.814  16.896   1.273  1.00  0.00     0.034 A 
HETATM   30  C25 UNL     1      -6.230  17.738   0.350  1.00  0.00     0.060 A 
HETATM   31  N7  UNL     1      -4.988  18.196   0.143  1.00  0.00    -0.351 N 
HETATM   32  C27 UNL     1      -7.028  18.280  -0.620  1.00  0.00     0.062 A 
HETATM   33  C26 UNL     1      -4.980  19.009  -0.926  1.00  0.00     0.181 A 
ATOM     34  H7  UNL     1      -4.173  17.963   0.711  1.00  0.00     0.166 HD
HETATM   35  N8  UNL     1      -6.239  19.060  -1.394  1.00  0.00    -0.350 N 
ATOM     36  H8  UNL     1      -6.549  19.599  -2.202  1.00  0.00     0.166 HD
HETATM   37  C28 UNL     1      -8.376  17.994  -0.674  1.00  0.00     0.061 A 
ENDBRANCH  25  27
ENDBRANCH   6  25
BRANCH   1  38
HETATM   38  N2  UNL     1     -12.932  14.252   2.885  1.00  0.00    -0.217 N 
ATOM     39  H2  UNL     1     -13.903  14.562   2.877  1.00  0.00     0.178 HD
BRANCH  38  40
HETATM   40  C6  UNL     1     -12.349  13.700   4.077  1.00  0.00     0.240 C 
BRANCH  40  41
HETATM   41  C5  UNL     1     -12.092  14.727   5.113  1.00  0.00     0.237 C 
HETATM   42  N1  UNL     1     -10.798  14.862   5.641  1.00  0.00    -0.351 N 
HETATM   43  O1  UNL     1     -13.070  15.438   5.468  1.00  0.00    -0.272 OA
BRANCH  42  44
HETATM   44  C2  UNL     1      -9.734  14.015   5.188  1.00  0.00     0.121 C 
HETATM   45  C1  UNL     1      -8.995  14.595   4.001  1.00  0.00     0.026 C 
ENDBRANCH  42  44
BRANCH  42  46
HETATM   46  C3  UNL     1     -10.543  15.858   6.645  1.00  0.00     0.121 C 
HETATM   47  C4  UNL     1      -9.403  15.482   7.561  1.00  0.00     0.026 C 
ENDBRANCH  42  46
ENDBRANCH  40  41
ENDBRANCH  38  40
ENDBRANCH   1  38
TORSDOF 14
ENDMDL
MODEL 4
REMARK VINA RESULT: -8.370590427      2.008      4.281
REMARK  14 active torsions:
REMARK  status: ('A' for Active; 'I' for Inactive)
REMARK    1  A    between atoms: C2_2  and  N1_3 
REMARK    2  A    between atoms: N1_3  and  C3_4 
REMARK       I    between atoms: N1_3  and  C5_6 
REMARK    3  A    between atoms: C5_6  and  C6_8 
REMARK    4  A    between atoms: C6_8  and  N2_9 
REMARK    5  A    between atoms: N2_9  and  C7_11 
REMARK    6  A    between atoms: C9_15  and  C10_16 
REMARK    7  A    between atoms: C12_20  and  O2_21 
REMARK    8  A    between atoms: O2_21  and  C13_22 
REMARK    9  A    between atoms: C13_22  and  C14_23 
REMARK   10  A    between atoms: C14_23  and  C15_24 
REMARK   11  A    between atoms: C15_24  and  N5_25 
REMARK   12  A    between atoms: C18_28  and  O3_29 
REMARK   13  A    between atoms: C21_32  and  N6_33 
REMARK   14  A    between atoms: N6_33  and  C22_35 
ROOT
HETATM    1  C7  UNL     1     -11.430  14.656   2.486  1.00  0.00     0.679 A 
HETATM    2  N3  UNL     1     -11.181  15.903   2.922  1.00  0.00    -0.201 N 
ATOM      3  H3  UNL     1     -11.754  16.279   3.679  1.00  0.00     0.183 HD
HETATM    4  C8  UNL     1     -10.211  16.676   2.407  1.00  0.00     0.122 A 
HETATM    5  C9  UNL     1      -9.438  16.173   1.388  1.00  0.00     0.036 A 
HETATM    6  C21 UNL     1      -9.678  14.896   0.927  1.00  0.00     0.134 A 
HETATM    7  N9  UNL     1     -10.663  14.165   1.480  1.00  0.00    -0.176 N 
ATOM      8  H9  UNL     1     -10.837  13.221   1.136  1.00  0.00     0.186 HD
ENDROOT
BRANCH   5   9
HETATM    9  C10 UNL     1      -8.367  16.971   0.807  1.00  0.00    -0.003 A 
HETATM   10  C11 UNL     1      -8.611  17.930  -0.146  1.00  0.00     0.102 A 
HETATM   11  N4  UNL     1      -7.616  18.687  -0.691  1.00  0.00    -0.344 N 
HETATM   12  C12 UNL     1      -6.334  18.526  -0.313  1.00  0.00     0.176 A 
ATOM     13  H4  UNL     1      -7.848  19.386  -1.396  1.00  0.00     0.167 HD
HETATM   14  C18 UNL     1      -6.061  17.569   0.644  1.00  0.00     0.120 A 
HETATM   15  C20 UNL     1      -7.055  16.791   1.209  1.00  0.00     0.055 A 
BRANCH  12  16
HETATM   16  O2  UNL     1      -5.292  19.258  -0.826  1.00  0.00    -0.334 OA
BRANCH  16  17
HETATM   17  C13 UNL     1      -5.054  19.403  -2.215  1.00  0.00     0.179 C 
BRANCH  17  18
HETATM   18  C14 UNL     1      -5.072  18.098  -2.941  1.00  0.00     0.057 C 
BRANCH  18  19
HETATM   19  C15 UNL     1      -5.367  18.237  -4.410  1.00  0.00     0.273 C 
BRANCH  19  20
HETATM   20  N5  UNL     1      -4.527  17.332  -5.199  1.00  0.00     0.080 N 
HETATM   21  C16 UNL     1      -3.133  17.556  -4.862  1.00  0.00     0.309 C 
HETATM   22  C17 UNL     1      -4.758  17.631  -6.599  1.00  0.00     0.309 C 
ENDBRANCH  19  20
ENDBRANCH  18  19
ENDBRANCH  17  18
ENDBRANCH  16  17
ENDBRANCH  12  16
BRANCH  14  23
HETATM   23  O3  UNL     1      -4.760  17.356   1.074  1.00  0.00    -0.352 OA
HETATM   24  C19 UNL     1      -3.847  16.581   0.342  1.00  0.00     0.210 C 
ENDBRANCH  14  23
ENDBRANCH   5   9
BRANCH   6  25
HETATM   25  N6  UNL     1      -8.961  14.391  -0.049  1.00  0.00    -0.341 N 
ATOM     26  H6  UNL     1      -8.266  13.680   0.180  1.00  0.00     0.167 HD
BRANCH  25  27
HETATM   27  C22 UNL     1      -9.099  14.777  -1.392  1.00  0.00     0.035 A 
HETATM   28  C23 UNL     1     -10.293  15.248  -1.928  1.00  0.00     0.032 A 
HETATM   29  C24 UNL     1     -10.385  15.617  -3.252  1.00  0.00     0.034 A 
HETATM   30  C25 UNL     1      -9.298  15.535  -4.095  1.00  0.00     0.060 A 
HETATM   31  N7  UNL     1      -9.082  15.813  -5.389  1.00  0.00    -0.351 N 
HETATM   32  C27 UNL     1      -8.117  15.074  -3.579  1.00  0.00     0.062 A 
HETATM   33  C26 UNL     1      -7.805  15.540  -5.701  1.00  0.00     0.181 A 
ATOM     34  H7  UNL     1      -9.782  16.176  -6.036  1.00  0.00     0.166 HD
HETATM   35  N8  UNL     1      -7.212  15.084  -4.584  1.00  0.00    -0.350 N 
ATOM     36  H8  UNL     1      -6.238  14.793  -4.507  1.00  0.00     0.166 HD
HETATM   37  C28 UNL     1      -8.018  14.701  -2.255  1.00  0.00     0.061 A 
ENDBRANCH  25  27
ENDBRANCH   6  25
BRANCH   1  38
HETATM   38  N2  UNL     1     -12.360  13.911   2.984  1.00  0.00    -0.217 N 
ATOM     39  H2  UNL     1     -13.191  13.683   2.438  1.00  0.00     0.178 HD
BRANCH  38  40
HETATM   40  C6  UNL     1     -12.201  13.409   4.321  1.00  0.00     0.240 C 
BRANCH  40  41
HETATM   41  C5  UNL     1     -12.063  14.491   5.322  1.00  0.00     0.237 C 
HETATM   42  N1  UNL     1     -10.881  14.584   6.076  1.00  0.00    -0.351 N 
HETATM   43  O1  UNL     1     -13.033  15.286   5.443  1.00  0.00    -0.272 OA
BRANCH  42  44
HETATM   44  C2  UNL     1      -9.819  13.640   5.883  1.00  0.00     0.121 C 
HETATM   45  C1  UNL     1      -8.811  14.103   4.853  1.00  0.00     0.026 C 
ENDBRANCH  42  44
BRANCH  42  46
HETATM   46  C3  UNL     1     -10.741  15.633   7.047  1.00  0.00     0.121 C 
HETATM   47  C4  UNL     1      -9.372  15.655   7.685  1.00  0.00     0.026 C 
ENDBRANCH  42  46
ENDBRANCH  40  41
ENDBRANCH  38  40
ENDBRANCH   1  38
TORSDOF 14
ENDMDL
MODEL 5
REMARK VINA RESULT: -8.344319631      2.676      5.036
REMARK  14 active torsions:
REMARK  status: ('A' for Active; 'I' for Inactive)
REMARK    1  A    between atoms: C2_2  and  N1_3 
REMARK    2  A    between atoms: N1_3  and  C3_4 
REMARK       I    between atoms: N1_3  and  C5_6 
REMARK    3  A    between atoms: C5_6  and  C6_8 
REMARK    4  A    between atoms: C6_8  and  N2_9 
REMARK    5  A    between atoms: N2_9  and  C7_11 
REMARK    6  A    between atoms: C9_15  and  C10_16 
REMARK    7  A    between atoms: C12_20  and  O2_21 
REMARK    8  A    between atoms: O2_21  and  C13_22 
REMARK    9  A    between atoms: C13_22  and  C14_23 
REMARK   10  A    between atoms: C14_23  and  C15_24 
REMARK   11  A    between atoms: C15_24  and  N5_25 
REMARK   12  A    between atoms: C18_28  and  O3_29 
REMARK   13  A    between atoms: C21_32  and  N6_33 
REMARK   14  A    between atoms: N6_33  and  C22_35 
ROOT
HETATM    1  C7  UNL     1     -11.919  13.990   1.083  1.00  0.00     0.679 A 
HETATM    2  N3  UNL     1     -11.813  15.153   1.749  1.00  0.00    -0.201 N 
ATOM      3  H3  UNL     1     -12.516  15.377   2.454  1.00  0.00     0.183 HD
HETATM    4  C8  UNL     1     -10.821  16.032   1.529  1.00  0.00     0.122 A 
HETATM    5  C9  UNL     1      -9.872  15.732   0.581  1.00  0.00     0.036 A 
HETATM    6  C21 UNL     1      -9.963  14.544  -0.113  1.00  0.00     0.134 A 
HETATM    7  N9  UNL     1     -10.978  13.700   0.149  1.00  0.00    -0.176 N 
ATOM      8  H9  UNL     1     -11.042  12.823  -0.367  1.00  0.00     0.186 HD
ENDROOT
BRANCH   5   9
HETATM    9  C10 UNL     1      -8.773  16.651   0.318  1.00  0.00    -0.003 A 
HETATM   10  C11 UNL     1      -8.911  17.726  -0.525  1.00  0.00     0.102 A 
HETATM   11  N4  UNL     1      -7.890  18.596  -0.773  1.00  0.00    -0.344 N 
HETATM   12  C12 UNL     1      -6.685  18.435  -0.193  1.00  0.00     0.176 A 
ATOM     13  H4  UNL     1      -8.041  19.380  -1.408  1.00  0.00     0.167 HD
HETATM   14  C18 UNL     1      -6.519  17.362   0.659  1.00  0.00     0.120 A 
HETATM   15  C20 UNL     1      -7.542  16.470   0.924  1.00  0.00     0.055 A 
BRANCH  12  16
HETATM   16  O2  UNL     1      -5.621  19.278  -0.405  1.00  0.00    -0.334 OA
BRANCH  16  17
HETATM   17  C13 UNL     1      -5.028  19.476  -1.676  1.00  0.00     0.179 C 
BRANCH  17  18
HETATM   18  C14 UNL     1      -4.388  18.238  -2.212  1.00  0.00     0.057 C 
BRANCH  18  19
HETATM   19  C15 UNL     1      -5.128  17.641  -3.378  1.00  0.00     0.273 C 
BRANCH  19  20
HETATM   20  N5  UNL     1      -4.854  18.388  -4.608  1.00  0.00     0.080 N 
HETATM   21  C16 UNL     1      -6.108  18.849  -5.177  1.00  0.00     0.309 C 
HETATM   22  C17 UNL     1      -4.188  17.487  -5.528  1.00  0.00     0.309 C 
ENDBRANCH  19  20
ENDBRANCH  18  19
ENDBRANCH  17  18
ENDBRANCH  16  17
ENDBRANCH  12  16
BRANCH  14  23
HETATM   23  O3  UNL     1      -5.302  17.144   1.286  1.00  0.00    -0.352 OA
HETATM   24  C19 UNL     1      -4.304  16.336   0.721  1.00  0.00     0.210 C 
ENDBRANCH  14  23
ENDBRANCH   5   9
BRANCH   6  25
HETATM   25  N6  UNL     1      -9.076  14.234  -1.028  1.00  0.00    -0.341 N 
ATOM     26  H6  UNL     1      -8.316  13.605  -0.769  1.00  0.00     0.167 HD
BRANCH  25  27
HETATM   27  C22 UNL     1      -9.118  14.722  -2.344  1.00  0.00     0.035 A 
HETATM   28  C23 UNL     1     -10.263  15.262  -2.918  1.00  0.00     0.032 A 
HETATM   29  C24 UNL     1     -10.261  15.731  -4.214  1.00  0.00     0.034 A 
HETATM   30  C25 UNL     1      -9.122  15.683  -4.989  1.00  0.00     0.060 A 
HETATM   31  N7  UNL     1      -8.816  16.050  -6.242  1.00  0.00    -0.351 N 
HETATM   32  C27 UNL     1      -7.988  15.155  -4.435  1.00  0.00     0.062 A 
HETATM   33  C26 UNL     1      -7.526  15.769  -6.491  1.00  0.00     0.181 A 
ATOM     34  H7  UNL     1      -9.463  16.478  -6.904  1.00  0.00     0.166 HD
HETATM   35  N8  UNL     1      -7.018  15.217  -5.376  1.00  0.00    -0.350 N 
ATOM     36  H8  UNL     1      -6.058  14.896  -5.259  1.00  0.00     0.166 HD
HETATM   37  C28 UNL     1      -7.984  14.683  -3.139  1.00  0.00     0.061 A 
ENDBRANCH  25  27
ENDBRANCH   6  25
BRANCH   1  38
HETATM   38  N2  UNL     1     -12.869  13.142   1.297  1.00  0.00    -0.217 N 
ATOM     39  H2  UNL     1     -13.800  13.297   0.910  1.00  0.00     0.178 HD
BRANCH  38  40
HETATM   40  C6  UNL     1     -12.590  11.977   2.089  1.00  0.00     0.240 C 
BRANCH  40  41
HETATM   41  C5  UNL     1     -13.143  12.074   3.459  1.00  0.00     0.237 C 
HETATM   42  N1  UNL     1     -13.520  10.901   4.133  1.00  0.00    -0.351 N 
HETATM   43  O1  UNL     1     -13.246  13.228   3.953  1.00  0.00    -0.272 OA
BRANCH  42  44
HETATM   44  C2  UNL     1     -13.374   9.621   3.505  1.00  0.00     0.121 C 
HETATM   45  C1  UNL     1     -12.759   8.588   4.425  1.00  0.00     0.026 C 
ENDBRANCH  42  44
BRANCH  42  46
HETATM   46  C3  UNL     1     -14.055  10.989   5.464  1.00  0.00     0.121 C 
HETATM   47  C4  UNL     1     -15.563  10.905   5.491  1.00  0.00     0.026 C 
ENDBRANCH  42  46
ENDBRANCH  40  41
ENDBRANCH  38  40
ENDBRANCH   1  38
TORSDOF 14
ENDMDL
