MODEL 1
REMARK VINA RESULT: -8.668100036      0.000      0.000
REMARK  12 active torsions:
REMARK  status: ('A' for Active; 'I' for Inactive)
REMARK       I    between atoms: C1_2  and  N1_3 
REMARK    1  A    between atoms: C1_2  and  C8_11 
REMARK    2  A    between atoms: N1_3  and  C2_4 
REMARK    3  A    between atoms: C2_4  and  C3_5 
REMARK    4  A    between atoms: C3_5  and  N2_6 
REMARK    5  A    between atoms: C9_12  and  N3_13 
REMARK    6  A    between atoms: N3_13  and  C10_15 
REMARK    7  A    between atoms: C10_15  and  C11_16 
REMARK    8  A    between atoms: C10_15  and  C19_29 
REMARK       I    between atoms: C11_16  and  N4_18 
REMARK    9  A    between atoms: N4_18  and  C12_20 
REMARK   10  A    between atoms: C12_20  and  C13_21 
REMARK   11  A    between atoms: C13_21  and  C14_22 
REMARK   12  A    between atoms: C14_22  and  N5_23 
ROOT
HETATM    1  C10 UNL     1       9.378 -13.702  -0.337  1.00  0.00     0.209 C 
ENDROOT
BRANCH   1   2
HETATM    2  N3  UNL     1      10.603 -13.981   0.268  1.00  0.00    -0.366 N 
ATOM      3  H3  UNL     1      11.229 -14.326  -0.458  1.00  0.00     0.161 HD
BRANCH   2   4
HETATM    4  C9  UNL     1      11.310 -13.977   1.456  1.00  0.00     0.088 A 
HETATM    5  C8  UNL     1      11.357 -14.466   2.735  1.00  0.00     0.087 A 
HETATM    6  C25 UNL     1      12.220 -13.917   3.595  1.00  0.00    -0.025 A 
HETATM    7  C24 UNL     1      13.004 -12.909   3.177  1.00  0.00    -0.008 A 
HETATM    8  C26 UNL     1      12.676 -14.149   5.033  1.00  0.00     0.041 C 
HETATM    9  S1  UNL     1      12.593 -12.686   1.594  1.00  0.00    -0.076 SA
HETATM   10  C28 UNL     1      13.891 -12.334   4.258  1.00  0.00     0.047 C 
HETATM   11  C27 UNL     1      14.082 -13.550   5.086  1.00  0.00     0.010 C 
BRANCH   5  12
HETATM   12  C1  UNL     1      10.394 -15.580   3.077  1.00  0.00     0.324 C 
HETATM   13  O1  UNL     1      10.410 -16.515   2.180  1.00  0.00    -0.251 OA
HETATM   14  N1  UNL     1       9.644 -15.590   4.143  1.00  0.00    -0.409 NA
BRANCH  14  15
HETATM   15  C2  UNL     1       8.829 -15.604   5.299  1.00  0.00     0.242 C 
BRANCH  15  16
HETATM   16  C3  UNL     1       9.636 -15.889   6.591  1.00  0.00     0.155 C 
BRANCH  16  17
HETATM   17  N2  UNL     1       9.341 -14.932   7.554  1.00  0.00    -0.391 N 
HETATM   18  C4  UNL     1       9.789 -13.576   7.278  1.00  0.00     0.122 C 
HETATM   19  C5  UNL     1      10.927 -13.344   8.284  1.00  0.00     0.025 C 
HETATM   20  C6  UNL     1      10.820 -14.463   9.292  1.00  0.00     0.046 C 
HETATM   21  C7  UNL     1       9.509 -15.156   8.925  1.00  0.00     0.058 C 
ENDBRANCH  16  17
ENDBRANCH  15  16
ENDBRANCH  14  15
ENDBRANCH   5  12
ENDBRANCH   2   4
ENDBRANCH   1   2
BRANCH   1  22
HETATM   22  C11 UNL     1       8.188 -14.079   0.529  1.00  0.00     0.245 C 
HETATM   23  O2  UNL     1       7.501 -13.119   0.906  1.00  0.00    -0.271 OA
HETATM   24  N4  UNL     1       7.890 -15.409   0.881  1.00  0.00    -0.359 N 
ATOM     25  H4  UNL     1       8.544 -16.093   0.501  1.00  0.00     0.162 HD
BRANCH  24  26
HETATM   26  C12 UNL     1       6.860 -15.974   1.661  1.00  0.00     0.124 C 
BRANCH  26  27
HETATM   27  C13 UNL     1       5.932 -16.903   0.993  1.00  0.00     0.050 C 
BRANCH  27  28
HETATM   28  C14 UNL     1       4.648 -16.447   0.457  1.00  0.00     0.274 C 
BRANCH  28  29
HETATM   29  N5  UNL     1       4.320 -17.188  -0.795  1.00  0.00     0.092 N 
HETATM   30  C15 UNL     1       4.940 -18.507  -0.630  1.00  0.00     0.298 C 
HETATM   31  C16 UNL     1       4.756 -19.323  -1.899  1.00  0.00     0.198 C 
HETATM   32  O3  UNL     1       4.427 -18.496  -2.978  1.00  0.00    -0.388 OA
HETATM   33  C17 UNL     1       5.268 -17.403  -3.033  1.00  0.00     0.198 C 
HETATM   34  C18 UNL     1       4.989 -16.489  -1.886  1.00  0.00     0.298 C 
ENDBRANCH  28  29
ENDBRANCH  27  28
ENDBRANCH  26  27
ENDBRANCH  24  26
ENDBRANCH   1  22
BRANCH   1  35
HETATM   35  C19 UNL     1       9.258 -14.625  -1.549  1.00  0.00    -0.011 A 
HETATM   36  C20 UNL     1       8.280 -14.350  -2.459  1.00  0.00     0.012 A 
HETATM   37  C21 UNL     1       8.184 -15.183  -3.549  1.00  0.00     0.018 A 
HETATM   38  C22 UNL     1       9.075 -16.236  -3.660  1.00  0.00     0.087 A 
HETATM   39  N6  UNL     1      10.030 -16.499  -2.768  1.00  0.00    -0.375 N 
HETATM   40  C23 UNL     1      10.119 -15.668  -1.681  1.00  0.00     0.097 A 
ATOM     41  H6  UNL     1      10.668 -17.286  -2.890  1.00  0.00     0.164 HD
ENDBRANCH   1  35
TORSDOF 12
ENDMDL
MODEL 2
REMARK VINA RESULT: -8.425953261      2.405      9.735
REMARK  12 active torsions:
REMARK  status: ('A' for Active; 'I' for Inactive)
REMARK       I    between atoms: C1_2  and  N1_3 
REMARK    1  A    between atoms: C1_2  and  C8_11 
REMARK    2  A    between atoms: N1_3  and  C2_4 
REMARK    3  A    between atoms: C2_4  and  C3_5 
REMARK    4  A    between atoms: C3_5  and  N2_6 
REMARK    5  A    between atoms: C9_12  and  N3_13 
REMARK    6  A    between atoms: N3_13  and  C10_15 
REMARK    7  A    between atoms: C10_15  and  C11_16 
REMARK    8  A    between atoms: C10_15  and  C19_29 
REMARK       I    between atoms: C11_16  and  N4_18 
REMARK    9  A    between atoms: N4_18  and  C12_20 
REMARK   10  A    between atoms: C12_20  and  C13_21 
REMARK   11  A    between atoms: C13_21  and  C14_22 
REMARK   12  A    between atoms: C14_22  and  N5_23 
ROOT
HETATM    1  C10 UNL     1       9.076 -14.162   2.819  1.00  0.00     0.209 C 
ENDROOT
BRANCH   1   2
HETATM    2  N3  UNL     1       8.028 -14.986   2.410  1.00  0.00    -0.366 N 
ATOM      3  H3  UNL     1       7.533 -15.287   3.249  1.00  0.00     0.161 HD
BRANCH   2   4
HETATM    4  C9  UNL     1       7.389 -15.558   1.325  1.00  0.00     0.088 A 
HETATM    5  C8  UNL     1       7.167 -15.463  -0.024  1.00  0.00     0.087 A 
HETATM    6  C25 UNL     1       6.214 -16.226  -0.567  1.00  0.00    -0.025 A 
HETATM    7  C24 UNL     1       5.511 -17.052   0.226  1.00  0.00    -0.008 A 
HETATM    8  C26 UNL     1       5.667 -16.521  -1.961  1.00  0.00     0.041 C 
HETATM    9  S1  UNL     1       6.135 -16.819   1.736  1.00  0.00    -0.076 SA
HETATM   10  C28 UNL     1       4.423 -17.815  -0.495  1.00  0.00     0.047 C 
HETATM   11  C27 UNL     1       5.046 -17.912  -1.837  1.00  0.00     0.010 C 
BRANCH   5  12
HETATM   12  C1  UNL     1       8.010 -14.468  -0.788  1.00  0.00     0.324 C 
HETATM   13  O1  UNL     1       7.874 -13.268  -0.318  1.00  0.00    -0.251 OA
HETATM   14  N1  UNL     1       8.775 -14.786  -1.794  1.00  0.00    -0.409 NA
BRANCH  14  15
HETATM   15  C2  UNL     1       9.606 -15.128  -2.886  1.00  0.00     0.242 C 
BRANCH  15  16
HETATM   16  C3  UNL     1       8.869 -15.982  -3.949  1.00  0.00     0.155 C 
BRANCH  16  17
HETATM   17  N2  UNL     1       8.867 -15.318  -5.170  1.00  0.00    -0.391 N 
HETATM   18  C4  UNL     1       7.661 -14.575  -5.500  1.00  0.00     0.122 C 
HETATM   19  C5  UNL     1       7.021 -15.384  -6.639  1.00  0.00     0.025 C 
HETATM   20  C6  UNL     1       8.085 -16.348  -7.108  1.00  0.00     0.046 C 
HETATM   21  C7  UNL     1       9.335 -15.901  -6.352  1.00  0.00     0.058 C 
ENDBRANCH  16  17
ENDBRANCH  15  16
ENDBRANCH  14  15
ENDBRANCH   5  12
ENDBRANCH   2   4
ENDBRANCH   1   2
BRANCH   1  22
HETATM   22  C11 UNL     1      10.326 -14.327   1.973  1.00  0.00     0.245 C 
HETATM   23  O2  UNL     1      10.860 -15.443   2.055  1.00  0.00    -0.271 OA
HETATM   24  N4  UNL     1      10.843 -13.298   1.164  1.00  0.00    -0.359 N 
ATOM     25  H4  UNL     1      10.301 -12.435   1.197  1.00  0.00     0.162 HD
BRANCH  24  26
HETATM   26  C12 UNL     1      11.969 -13.234   0.317  1.00  0.00     0.124 C 
BRANCH  26  27
HETATM   27  C13 UNL     1      13.254 -12.842   0.920  1.00  0.00     0.050 C 
BRANCH  27  28
HETATM   28  C14 UNL     1      14.059 -13.793   1.691  1.00  0.00     0.274 C 
BRANCH  28  29
HETATM   29  N5  UNL     1      13.778 -13.642   3.148  1.00  0.00     0.092 N 
HETATM   30  C15 UNL     1      13.650 -12.197   3.363  1.00  0.00     0.298 C 
HETATM   31  C16 UNL     1      13.461 -11.913   4.844  1.00  0.00     0.198 C 
HETATM   32  O3  UNL     1      13.855 -13.013   5.615  1.00  0.00    -0.388 OA
HETATM   33  C17 UNL     1      15.085 -13.484   5.203  1.00  0.00     0.198 C 
HETATM   34  C18 UNL     1      14.960 -14.118   3.856  1.00  0.00     0.298 C 
ENDBRANCH  28  29
ENDBRANCH  27  28
ENDBRANCH  26  27
ENDBRANCH  24  26
ENDBRANCH   1  22
BRANCH   1  35
HETATM   35  C19 UNL     1       9.505 -14.640   4.206  1.00  0.00    -0.011 A 
HETATM   36  C20 UNL     1       8.741 -15.596   4.809  1.00  0.00     0.012 A 
HETATM   37  C21 UNL     1       9.138 -16.023   6.054  1.00  0.00     0.018 A 
HETATM   38  C22 UNL     1      10.275 -15.468   6.615  1.00  0.00     0.087 A 
HETATM   39  N6  UNL     1      11.018 -14.535   6.021  1.00  0.00    -0.375 N 
HETATM   40  C23 UNL     1      10.616 -14.109   4.781  1.00  0.00     0.097 A 
ATOM     41  H6  UNL     1      11.851 -14.153   6.470  1.00  0.00     0.164 HD
ENDBRANCH   1  35
TORSDOF 12
ENDMDL
MODEL 3
REMARK VINA RESULT: -8.409057781      2.410      4.794
REMARK  12 active torsions:
REMARK  status: ('A' for Active; 'I' for Inactive)
REMARK       I    between atoms: C1_2  and  N1_3 
REMARK    1  A    between atoms: C1_2  and  C8_11 
REMARK    2  A    between atoms: N1_3  and  C2_4 
REMARK    3  A    between atoms: C2_4  and  C3_5 
REMARK    4  A    between atoms: C3_5  and  N2_6 
REMARK    5  A    between atoms: C9_12  and  N3_13 
REMARK    6  A    between atoms: N3_13  and  C10_15 
REMARK    7  A    between atoms: C10_15  and  C11_16 
REMARK    8  A    between atoms: C10_15  and  C19_29 
REMARK       I    between atoms: C11_16  and  N4_18 
REMARK    9  A    between atoms: N4_18  and  C12_20 
REMARK   10  A    between atoms: C12_20  and  C13_21 
REMARK   11  A    between atoms: C13_21  and  C14_22 
REMARK   12  A    between atoms: C14_22  and  N5_23 
ROOT
HETATM    1  C10 UNL     1       8.949 -14.510   2.324  1.00  0.00     0.209 C 
ENDROOT
BRANCH   1   2
HETATM    2  N3  UNL     1       9.339 -15.173   3.487  1.00  0.00    -0.366 N 
ATOM      3  H3  UNL     1       9.407 -16.165   3.264  1.00  0.00     0.161 HD
BRANCH   2   4
HETATM    4  C9  UNL     1       9.672 -15.026   4.821  1.00  0.00     0.088 A 
HETATM    5  C8  UNL     1      10.703 -14.856   5.708  1.00  0.00     0.087 A 
HETATM    6  C25 UNL     1      10.452 -15.004   7.012  1.00  0.00    -0.025 A 
HETATM    7  C24 UNL     1       9.205 -15.316   7.404  1.00  0.00    -0.008 A 
HETATM    8  C26 UNL     1      11.210 -14.852   8.328  1.00  0.00     0.041 C 
HETATM    9  S1  UNL     1       8.335 -15.407   6.004  1.00  0.00    -0.076 SA
HETATM   10  C28 UNL     1       9.064 -15.517   8.895  1.00  0.00     0.047 C 
HETATM   11  C27 UNL     1      10.119 -14.586   9.365  1.00  0.00     0.010 C 
BRANCH   5  12
HETATM   12  C1  UNL     1      12.061 -14.539   5.125  1.00  0.00     0.324 C 
HETATM   13  O1  UNL     1      12.988 -15.280   5.646  1.00  0.00    -0.251 OA
HETATM   14  N1  UNL     1      12.266 -13.631   4.212  1.00  0.00    -0.409 NA
BRANCH  14  15
HETATM   15  C2  UNL     1      12.491 -12.647   3.222  1.00  0.00     0.242 C 
BRANCH  15  16
HETATM   16  C3  UNL     1      13.992 -12.291   3.068  1.00  0.00     0.155 C 
BRANCH  16  17
HETATM   17  N2  UNL     1      14.749 -13.042   3.959  1.00  0.00    -0.391 N 
HETATM   18  C4  UNL     1      15.443 -12.302   5.002  1.00  0.00     0.122 C 
HETATM   19  C5  UNL     1      16.926 -12.406   4.613  1.00  0.00     0.025 C 
HETATM   20  C6  UNL     1      17.001 -13.487   3.561  1.00  0.00     0.046 C 
HETATM   21  C7  UNL     1      15.593 -14.081   3.552  1.00  0.00     0.058 C 
ENDBRANCH  16  17
ENDBRANCH  15  16
ENDBRANCH  14  15
ENDBRANCH   5  12
ENDBRANCH   2   4
ENDBRANCH   1   2
BRANCH   1  22
HETATM   22  C11 UNL     1       7.810 -15.204   1.599  1.00  0.00     0.245 C 
HETATM   23  O2  UNL     1       7.119 -14.457   0.890  1.00  0.00    -0.271 OA
HETATM   24  N4  UNL     1       7.553 -16.582   1.722  1.00  0.00    -0.359 N 
ATOM     25  H4  UNL     1       8.201 -17.070   2.339  1.00  0.00     0.162 HD
BRANCH  24  26
HETATM   26  C12 UNL     1       6.568 -17.417   1.153  1.00  0.00     0.124 C 
BRANCH  26  27
HETATM   27  C13 UNL     1       6.866 -18.030  -0.153  1.00  0.00     0.050 C 
BRANCH  27  28
HETATM   28  C14 UNL     1       6.403 -17.426  -1.405  1.00  0.00     0.274 C 
BRANCH  28  29
HETATM   29  N5  UNL     1       7.335 -16.342  -1.829  1.00  0.00     0.092 N 
HETATM   30  C15 UNL     1       7.018 -16.099  -3.240  1.00  0.00     0.298 C 
HETATM   31  C16 UNL     1       7.982 -15.073  -3.814  1.00  0.00     0.198 C 
HETATM   32  O3  UNL     1       9.116 -14.950  -3.003  1.00  0.00    -0.388 OA
HETATM   33  C17 UNL     1       9.620 -16.192  -2.672  1.00  0.00     0.198 C 
HETATM   34  C18 UNL     1       8.684 -16.887  -1.739  1.00  0.00     0.298 C 
ENDBRANCH  28  29
ENDBRANCH  27  28
ENDBRANCH  26  27
ENDBRANCH  24  26
ENDBRANCH   1  22
BRANCH   1  35
HETATM   35  C19 UNL     1      10.119 -14.599   1.345  1.00  0.00    -0.011 A 
HETATM   36  C20 UNL     1      10.259 -13.594   0.433  1.00  0.00     0.012 A 
HETATM   37  C21 UNL     1      11.317 -13.681  -0.440  1.00  0.00     0.018 A 
HETATM   38  C22 UNL     1      12.170 -14.767  -0.343  1.00  0.00     0.087 A 
HETATM   39  N6  UNL     1      12.029 -15.746   0.551  1.00  0.00    -0.375 N 
HETATM   40  C23 UNL     1      10.970 -15.657   1.417  1.00  0.00     0.097 A 
ATOM     41  H6  UNL     1      12.682 -16.529   0.589  1.00  0.00     0.164 HD
ENDBRANCH   1  35
TORSDOF 12
ENDMDL
MODEL 4
REMARK VINA RESULT: -8.390115841      2.477      4.720
REMARK  12 active torsions:
REMARK  status: ('A' for Active; 'I' for Inactive)
REMARK       I    between atoms: C1_2  and  N1_3 
REMARK    1  A    between atoms: C1_2  and  C8_11 
REMARK    2  A    between atoms: N1_3  and  C2_4 
REMARK    3  A    between atoms: C2_4  and  C3_5 
REMARK    4  A    between atoms: C3_5  and  N2_6 
REMARK    5  A    between atoms: C9_12  and  N3_13 
REMARK    6  A    between atoms: N3_13  and  C10_15 
REMARK    7  A    between atoms: C10_15  and  C11_16 
REMARK    8  A    between atoms: C10_15  and  C19_29 
REMARK       I    between atoms: C11_16  and  N4_18 
REMARK    9  A    between atoms: N4_18  and  C12_20 
REMARK   10  A    between atoms: C12_20  and  C13_21 
REMARK   11  A    between atoms: C13_21  and  C14_22 
REMARK   12  A    between atoms: C14_22  and  N5_23 
ROOT
HETATM    1  C10 UNL     1       8.941 -14.523   2.284  1.00  0.00     0.209 C 
ENDROOT
BRANCH   1   2
HETATM    2  N3  UNL     1       9.350 -15.171   3.449  1.00  0.00    -0.366 N 
ATOM      3  H3  UNL     1       9.425 -16.165   3.233  1.00  0.00     0.161 HD
BRANCH   2   4
HETATM    4  C9  UNL     1       9.696 -15.009   4.778  1.00  0.00     0.088 A 
HETATM    5  C8  UNL     1      10.733 -14.812   5.651  1.00  0.00     0.087 A 
HETATM    6  C25 UNL     1      10.501 -14.957   6.959  1.00  0.00    -0.025 A 
HETATM    7  C24 UNL     1       9.266 -15.293   7.367  1.00  0.00    -0.008 A 
HETATM    8  C26 UNL     1      11.271 -14.780   8.264  1.00  0.00     0.041 C 
HETATM    9  S1  UNL     1       8.381 -15.411   5.978  1.00  0.00    -0.076 SA
HETATM   10  C28 UNL     1       9.146 -15.487   8.862  1.00  0.00     0.047 C 
HETATM   11  C27 UNL     1      10.186 -14.531   9.313  1.00  0.00     0.010 C 
BRANCH   5  12
HETATM   12  C1  UNL     1      12.077 -14.470   5.050  1.00  0.00     0.324 C 
HETATM   13  O1  UNL     1      13.030 -15.166   5.585  1.00  0.00    -0.251 OA
HETATM   14  N1  UNL     1      12.248 -13.582   4.111  1.00  0.00    -0.409 NA
BRANCH  14  15
HETATM   15  C2  UNL     1      12.437 -12.620   3.092  1.00  0.00     0.242 C 
BRANCH  15  16
HETATM   16  C3  UNL     1      13.742 -11.806   3.277  1.00  0.00     0.155 C 
BRANCH  16  17
HETATM   17  N2  UNL     1      13.558 -10.834   4.254  1.00  0.00    -0.391 N 
HETATM   18  C4  UNL     1      13.278  -9.487   3.781  1.00  0.00     0.122 C 
HETATM   19  C5  UNL     1      14.554  -8.698   4.112  1.00  0.00     0.025 C 
HETATM   20  C6  UNL     1      15.343  -9.571   5.059  1.00  0.00     0.046 C 
HETATM   21  C7  UNL     1      14.386 -10.718   5.376  1.00  0.00     0.058 C 
ENDBRANCH  16  17
ENDBRANCH  15  16
ENDBRANCH  14  15
ENDBRANCH   5  12
ENDBRANCH   2   4
ENDBRANCH   1   2
BRANCH   1  22
HETATM   22  C11 UNL     1       7.799 -15.233   1.579  1.00  0.00     0.245 C 
HETATM   23  O2  UNL     1       7.068 -14.491   0.905  1.00  0.00    -0.271 OA
HETATM   24  N4  UNL     1       7.582 -16.620   1.682  1.00  0.00    -0.359 N 
ATOM     25  H4  UNL     1       8.261 -17.102   2.271  1.00  0.00     0.162 HD
BRANCH  24  26
HETATM   26  C12 UNL     1       6.603 -17.469   1.126  1.00  0.00     0.124 C 
BRANCH  26  27
HETATM   27  C13 UNL     1       6.882 -18.059  -0.194  1.00  0.00     0.050 C 
BRANCH  27  28
HETATM   28  C14 UNL     1       6.389 -17.442  -1.428  1.00  0.00     0.274 C 
BRANCH  28  29
HETATM   29  N5  UNL     1       7.313 -16.358  -1.867  1.00  0.00     0.092 N 
HETATM   30  C15 UNL     1       6.973 -16.114  -3.272  1.00  0.00     0.298 C 
HETATM   31  C16 UNL     1       7.928 -15.087  -3.861  1.00  0.00     0.198 C 
HETATM   32  O3  UNL     1       9.074 -14.963  -3.068  1.00  0.00    -0.388 OA
HETATM   33  C17 UNL     1       9.584 -16.205  -2.745  1.00  0.00     0.198 C 
HETATM   34  C18 UNL     1       8.664 -16.901  -1.798  1.00  0.00     0.298 C 
ENDBRANCH  28  29
ENDBRANCH  27  28
ENDBRANCH  26  27
ENDBRANCH  24  26
ENDBRANCH   1  22
BRANCH   1  35
HETATM   35  C19 UNL     1      10.100 -14.613   1.292  1.00  0.00    -0.011 A 
HETATM   36  C20 UNL     1      10.205 -13.630   0.351  1.00  0.00     0.012 A 
HETATM   37  C21 UNL     1      11.254 -13.717  -0.533  1.00  0.00     0.018 A 
HETATM   38  C22 UNL     1      12.133 -14.780  -0.418  1.00  0.00     0.087 A 
HETATM   39  N6  UNL     1      12.026 -15.737   0.504  1.00  0.00    -0.375 N 
HETATM   40  C23 UNL     1      10.976 -15.648   1.381  1.00  0.00     0.097 A 
ATOM     41  H6  UNL     1      12.698 -16.504   0.554  1.00  0.00     0.164 HD
ENDBRANCH   1  35
TORSDOF 12
ENDMDL
MODEL 5
REMARK VINA RESULT: -8.374824890      1.434      1.985
REMARK  12 active torsions:
REMARK  status: ('A' for Active; 'I' for Inactive)
REMARK       I    between atoms: C1_2  and  N1_3 
REMARK    1  A    between atoms: C1_2  and  C8_11 
REMARK    2  A    between atoms: N1_3  and  C2_4 
REMARK    3  A    between atoms: C2_4  and  C3_5 
REMARK    4  A    between atoms: C3_5  and  N2_6 
REMARK    5  A    between atoms: C9_12  and  N3_13 
REMARK    6  A    between atoms: N3_13  and  C10_15 
REMARK    7  A    between atoms: C10_15  and  C11_16 
REMARK    8  A    between atoms: C10_15  and  C19_29 
REMARK       I    between atoms: C11_16  and  N4_18 
REMARK    9  A    between atoms: N4_18  and  C12_20 
REMARK   10  A    between atoms: C12_20  and  C13_21 
REMARK   11  A    between atoms: C13_21  and  C14_22 
REMARK   12  A    between atoms: C14_22  and  N5_23 
ROOT
HETATM    1  C10 UNL     1       8.214 -14.386  -1.114  1.00  0.00     0.209 C 
ENDROOT
BRANCH   1   2
HETATM    2  N3  UNL     1       9.572 -14.294  -0.812  1.00  0.00    -0.366 N 
ATOM      3  H3  UNL     1      10.088 -14.474  -1.673  1.00  0.00     0.161 HD
BRANCH   2   4
HETATM    4  C9  UNL     1      10.502 -14.057   0.184  1.00  0.00     0.088 A 
HETATM    5  C8  UNL     1      10.918 -14.419   1.439  1.00  0.00     0.087 A 
HETATM    6  C25 UNL     1      11.816 -13.648   2.058  1.00  0.00    -0.025 A 
HETATM    7  C24 UNL     1      12.273 -12.550   1.433  1.00  0.00    -0.008 A 
HETATM    8  C26 UNL     1      12.606 -13.667   3.364  1.00  0.00     0.041 C 
HETATM    9  S1  UNL     1      11.498 -12.542  -0.024  1.00  0.00    -0.076 SA
HETATM   10  C28 UNL     1      13.236 -11.729   2.261  1.00  0.00     0.047 C 
HETATM   11  C27 UNL     1      13.840 -12.813   3.073  1.00  0.00     0.010 C 
BRANCH   5  12
HETATM   12  C1  UNL     1      10.295 -15.661   2.034  1.00  0.00     0.324 C 
HETATM   13  O1  UNL     1      10.433 -16.685   1.253  1.00  0.00    -0.251 OA
HETATM   14  N1  UNL     1       9.694 -15.689   3.191  1.00  0.00    -0.409 NA
BRANCH  14  15
HETATM   15  C2  UNL     1       9.043 -15.722   4.446  1.00  0.00     0.242 C 
BRANCH  15  16
HETATM   16  C3  UNL     1       9.577 -14.644   5.422  1.00  0.00     0.155 C 
BRANCH  16  17
HETATM   17  N2  UNL     1      10.246 -15.251   6.478  1.00  0.00    -0.391 N 
HETATM   18  C4  UNL     1       9.451 -16.115   7.336  1.00  0.00     0.122 C 
HETATM   19  C5  UNL     1       9.347 -15.339   8.658  1.00  0.00     0.025 C 
HETATM   20  C6  UNL     1      10.379 -14.240   8.572  1.00  0.00     0.046 C 
HETATM   21  C7  UNL     1      11.152 -14.569   7.296  1.00  0.00     0.058 C 
ENDBRANCH  16  17
ENDBRANCH  15  16
ENDBRANCH  14  15
ENDBRANCH   5  12
ENDBRANCH   2   4
ENDBRANCH   1   2
BRANCH   1  22
HETATM   22  C11 UNL     1       7.456 -15.300  -0.168  1.00  0.00     0.245 C 
HETATM   23  O2  UNL     1       6.666 -14.717   0.590  1.00  0.00    -0.271 OA
HETATM   24  N4  UNL     1       7.637 -16.696  -0.145  1.00  0.00    -0.359 N 
ATOM     25  H4  UNL     1       8.320 -17.035  -0.822  1.00  0.00     0.162 HD
BRANCH  24  26
HETATM   26  C12 UNL     1       7.052 -17.714   0.636  1.00  0.00     0.124 C 
BRANCH  26  27
HETATM   27  C13 UNL     1       5.631 -18.023   0.401  1.00  0.00     0.050 C 
BRANCH  27  28
HETATM   28  C14 UNL     1       5.216 -18.979  -0.628  1.00  0.00     0.274 C 
BRANCH  28  29
HETATM   29  N5  UNL     1       4.929 -18.267  -1.906  1.00  0.00     0.092 N 
HETATM   30  C15 UNL     1       3.795 -17.387  -1.605  1.00  0.00     0.298 C 
HETATM   31  C16 UNL     1       3.344 -16.678  -2.872  1.00  0.00     0.198 C 
HETATM   32  O3  UNL     1       3.835 -17.331  -4.008  1.00  0.00    -0.388 OA
HETATM   33  C17 UNL     1       3.621 -18.691  -3.922  1.00  0.00     0.198 C 
HETATM   34  C18 UNL     1       4.496 -19.278  -2.864  1.00  0.00     0.298 C 
ENDBRANCH  28  29
ENDBRANCH  27  28
ENDBRANCH  26  27
ENDBRANCH  24  26
ENDBRANCH   1  22
BRANCH   1  35
HETATM   35  C19 UNL     1       8.104 -15.084  -2.468  1.00  0.00    -0.011 A 
HETATM   36  C20 UNL     1       9.257 -15.299  -3.165  1.00  0.00     0.012 A 
HETATM   37  C21 UNL     1       9.147 -15.933  -4.380  1.00  0.00     0.018 A 
HETATM   38  C22 UNL     1       7.891 -16.312  -4.820  1.00  0.00     0.087 A 
HETATM   39  N6  UNL     1       6.767 -16.100  -4.135  1.00  0.00    -0.375 N 
HETATM   40  C23 UNL     1       6.881 -15.465  -2.925  1.00  0.00     0.097 A 
ATOM     41  H6  UNL     1       5.861 -16.398  -4.496  1.00  0.00     0.164 HD
ENDBRANCH   1  35
TORSDOF 12
ENDMDL
