MODEL 1
REMARK VINA RESULT: -9.188299222      0.000      0.000
REMARK  15 active torsions:
REMARK  status: ('A' for Active; 'I' for Inactive)
REMARK    1  A    between atoms: C3_5  and  N2_6 
REMARK    2  A    between atoms: N2_6  and  C4_8 
REMARK    3  A    between atoms: C9_16  and  N4_17 
REMARK    4  A    between atoms: N4_17  and  C10_19 
REMARK    5  A    between atoms: C12_21  and  C13_22 
REMARK    6  A    between atoms: C16_29  and  C17_30 
REMARK    7  A    between atoms: C17_30  and  O2_31 
REMARK    8  A    between atoms: C17_30  and  N7_33 
REMARK    9  A    between atoms: N7_33  and  C18_35 
REMARK   10  A    between atoms: C18_35  and  C19_36 
REMARK   11  A    between atoms: C19_36  and  C20_37 
REMARK   12  A    between atoms: C20_37  and  N8_38 
REMARK   13  A    between atoms: C23_41  and  O3_42 
REMARK   14  A    between atoms: O3_42  and  C24_43 
REMARK   15  A    between atoms: C24_43  and  C25_44 
ROOT
HETATM    1  C25 UNL     1       4.345 -17.117  -7.891  1.00  0.00     0.150 C 
HETATM    2  C26 UNL     1       3.659 -15.849  -7.859  1.00  0.00     0.061 C 
HETATM    3  N9  UNL     1       3.113 -14.827  -7.826  1.00  0.00    -0.197 NA
ENDROOT
BRANCH   1   4
HETATM    4  C24 UNL     1       5.813 -17.042  -7.662  1.00  0.00     0.182 C 
BRANCH   4   5
HETATM    5  O3  UNL     1       6.338 -15.798  -7.418  1.00  0.00    -0.385 OA
BRANCH   5   6
HETATM    6  C23 UNL     1       6.973 -15.717  -6.213  1.00  0.00     0.127 C 
HETATM    7  C22 UNL     1       8.302 -16.466  -6.208  1.00  0.00     0.076 C 
HETATM    8  C21 UNL     1       9.376 -15.794  -5.438  1.00  0.00     0.060 C 
HETATM    9  N8  UNL     1       9.004 -15.084  -4.280  1.00  0.00    -0.393 N 
HETATM   10  C28 UNL     1       7.689 -14.506  -4.264  1.00  0.00     0.124 C 
HETATM   11  C27 UNL     1       7.271 -14.322  -5.721  1.00  0.00     0.052 C 
BRANCH   9  12
HETATM   12  C20 UNL     1       9.365 -15.703  -3.027  1.00  0.00     0.123 C 
BRANCH  12  13
HETATM   13  C19 UNL     1       9.243 -14.777  -1.868  1.00  0.00     0.039 C 
BRANCH  13  14
HETATM   14  C18 UNL     1      10.566 -14.177  -1.454  1.00  0.00     0.123 C 
BRANCH  14  15
HETATM   15  N7  UNL     1      11.443 -15.245  -0.941  1.00  0.00    -0.370 N 
ATOM     16  H7  UNL     1      11.863 -15.915  -1.585  1.00  0.00     0.161 HD
BRANCH  15  17
HETATM   17  C17 UNL     1      11.694 -15.336   0.422  1.00  0.00     0.152 C 
BRANCH  17  18
HETATM   18  C16 UNL     1      10.981 -14.853   1.567  1.00  0.00     0.082 A 
HETATM   19  C2  UNL     1      11.160 -13.625   2.148  1.00  0.00     0.041 A 
HETATM   20  C1  UNL     1      12.056 -12.616   1.535  1.00  0.00     0.070 C 
HETATM   21  N1  UNL     1      10.472 -13.286   3.288  1.00  0.00    -0.195 N 
HETATM   22  C3  UNL     1       9.605 -14.106   3.889  1.00  0.00     0.680 A 
ATOM     23  H1  UNL     1      10.632 -12.365   3.696  1.00  0.00     0.184 HD
HETATM   24  N3  UNL     1       9.426 -15.300   3.326  1.00  0.00    -0.176 N 
HETATM   25  C9  UNL     1      10.073 -15.678   2.215  1.00  0.00     0.139 A 
ATOM     26  H3  UNL     1       8.770 -15.952   3.757  1.00  0.00     0.186 HD
BRANCH  22  27
HETATM   27  N2  UNL     1       8.980 -13.755   4.963  1.00  0.00    -0.221 N 
ATOM     28  H2  UNL     1       8.061 -13.332   4.832  1.00  0.00     0.178 HD
BRANCH  27  29
HETATM   29  C4  UNL     1       9.423 -13.890   6.309  1.00  0.00     0.103 C 
HETATM   30  C5  UNL     1      10.925 -13.923   6.480  1.00  0.00     0.052 C 
HETATM   31  C6  UNL     1      11.220 -14.401   7.902  1.00  0.00     0.169 C 
HETATM   32  O1  UNL     1      10.090 -14.397   8.698  1.00  0.00    -0.391 OA
HETATM   33  C7  UNL     1       9.295 -15.458   8.268  1.00  0.00     0.169 C 
HETATM   34  C8  UNL     1       8.892 -15.232   6.851  1.00  0.00     0.052 C 
ENDBRANCH  27  29
ENDBRANCH  22  27
BRANCH  25  35
HETATM   35  N4  UNL     1       9.759 -16.964   1.730  1.00  0.00    -0.326 N 
ATOM     36  H4  UNL     1      10.304 -17.768   2.043  1.00  0.00     0.169 HD
BRANCH  35  37
HETATM   37  C10 UNL     1       8.771 -17.139   0.878  1.00  0.00     0.123 A 
HETATM   38  C11 UNL     1       7.553 -16.539   0.994  1.00  0.00     0.076 A 
HETATM   39  C12 UNL     1       6.772 -16.990  -0.056  1.00  0.00     0.033 A 
HETATM   40  N5  UNL     1       7.526 -17.838  -0.770  1.00  0.00    -0.303 N 
HETATM   41  N6  UNL     1       8.711 -17.915  -0.201  1.00  0.00    -0.285 N 
ATOM     42  H5  UNL     1       7.232 -18.337  -1.609  1.00  0.00     0.186 HD
ATOM     43  H6  UNL     1       9.480 -18.493  -0.542  1.00  0.00     0.188 HD
BRANCH  39  44
HETATM   44  C13 UNL     1       5.363 -16.616  -0.379  1.00  0.00     0.037 A 
HETATM   45  C14 UNL     1       4.479 -16.270   0.776  1.00  0.00     0.011 A 
HETATM   46  C15 UNL     1       4.290 -17.570   0.087  1.00  0.00     0.011 A 
ENDBRANCH  39  44
ENDBRANCH  35  37
ENDBRANCH  25  35
ENDBRANCH  17  18
BRANCH  17  47
HETATM   47  O2  UNL     1      12.788 -15.984   0.702  1.00  0.00    -0.346 OA
ATOM     48  H2  UNL     1      13.424 -16.005  -0.003  1.00  0.00     0.219 HD
ENDBRANCH  17  47
ENDBRANCH  15  17
ENDBRANCH  14  15
ENDBRANCH  13  14
ENDBRANCH  12  13
ENDBRANCH   9  12
ENDBRANCH   5   6
ENDBRANCH   4   5
ENDBRANCH   1   4
TORSDOF 15
ENDMDL
MODEL 2
REMARK VINA RESULT: -9.124037969      2.045     10.858
REMARK  15 active torsions:
REMARK  status: ('A' for Active; 'I' for Inactive)
REMARK    1  A    between atoms: C3_5  and  N2_6 
REMARK    2  A    between atoms: N2_6  and  C4_8 
REMARK    3  A    between atoms: C9_16  and  N4_17 
REMARK    4  A    between atoms: N4_17  and  C10_19 
REMARK    5  A    between atoms: C12_21  and  C13_22 
REMARK    6  A    between atoms: C16_29  and  C17_30 
REMARK    7  A    between atoms: C17_30  and  O2_31 
REMARK    8  A    between atoms: C17_30  and  N7_33 
REMARK    9  A    between atoms: N7_33  and  C18_35 
REMARK   10  A    between atoms: C18_35  and  C19_36 
REMARK   11  A    between atoms: C19_36  and  C20_37 
REMARK   12  A    between atoms: C20_37  and  N8_38 
REMARK   13  A    between atoms: C23_41  and  O3_42 
REMARK   14  A    between atoms: O3_42  and  C24_43 
REMARK   15  A    between atoms: C24_43  and  C25_44 
ROOT
HETATM    1  C25 UNL     1      10.280 -14.475   9.874  1.00  0.00     0.150 C 
HETATM    2  C26 UNL     1      10.883 -13.204   9.558  1.00  0.00     0.061 C 
HETATM    3  N9  UNL     1      11.371 -12.186   9.294  1.00  0.00    -0.197 NA
ENDROOT
BRANCH   1   4
HETATM    4  C24 UNL     1       9.416 -15.043   8.804  1.00  0.00     0.182 C 
BRANCH   4   5
HETATM    5  O3  UNL     1       9.943 -16.072   8.065  1.00  0.00    -0.385 OA
BRANCH   5   6
HETATM    6  C23 UNL     1      10.156 -15.735   6.761  1.00  0.00     0.127 C 
HETATM    7  C22 UNL     1       8.945 -15.050   6.136  1.00  0.00     0.076 C 
HETATM    8  C21 UNL     1       9.284 -13.952   5.198  1.00  0.00     0.060 C 
HETATM    9  N8  UNL     1      10.449 -14.094   4.420  1.00  0.00    -0.393 N 
HETATM   10  C28 UNL     1      11.521 -14.863   4.985  1.00  0.00     0.124 C 
HETATM   11  C27 UNL     1      11.336 -14.831   6.500  1.00  0.00     0.052 C 
BRANCH   9  12
HETATM   12  C20 UNL     1      10.232 -14.369   3.019  1.00  0.00     0.123 C 
BRANCH  12  13
HETATM   13  C19 UNL     1      10.162 -15.826   2.720  1.00  0.00     0.039 C 
BRANCH  13  14
HETATM   14  C18 UNL     1       8.801 -16.260   2.229  1.00  0.00     0.123 C 
BRANCH  14  15
HETATM   15  N7  UNL     1       7.949 -15.071   2.049  1.00  0.00    -0.370 N 
ATOM     16  H7  UNL     1       7.600 -14.564   2.862  1.00  0.00     0.161 HD
BRANCH  15  17
HETATM   17  C17 UNL     1       7.624 -14.644   0.769  1.00  0.00     0.152 C 
BRANCH  17  18
HETATM   18  C16 UNL     1       7.405 -15.354  -0.457  1.00  0.00     0.082 A 
HETATM   19  C2  UNL     1       6.484 -16.353  -0.638  1.00  0.00     0.041 A 
HETATM   20  C1  UNL     1       5.522 -16.704   0.434  1.00  0.00     0.070 C 
HETATM   21  N1  UNL     1       6.402 -17.018  -1.837  1.00  0.00    -0.195 N 
HETATM   22  C3  UNL     1       7.190 -16.742  -2.880  1.00  0.00     0.680 A 
ATOM     23  H1  UNL     1       5.707 -17.758  -1.935  1.00  0.00     0.184 HD
HETATM   24  N3  UNL     1       8.085 -15.770  -2.710  1.00  0.00    -0.176 N 
HETATM   25  C9  UNL     1       8.205 -15.093  -1.561  1.00  0.00     0.139 A 
ATOM     26  H3  UNL     1       8.703 -15.531  -3.486  1.00  0.00     0.186 HD
BRANCH  22  27
HETATM   27  N2  UNL     1       7.088 -17.392  -3.991  1.00  0.00    -0.221 N 
ATOM     28  H2  UNL     1       7.283 -18.392  -3.949  1.00  0.00     0.178 HD
BRANCH  27  29
HETATM   29  C4  UNL     1       6.735 -16.874  -5.269  1.00  0.00     0.103 C 
HETATM   30  C5  UNL     1       5.866 -17.788  -6.104  1.00  0.00     0.052 C 
HETATM   31  C6  UNL     1       5.861 -17.246  -7.533  1.00  0.00     0.169 C 
HETATM   32  O1  UNL     1       6.390 -15.971  -7.610  1.00  0.00    -0.391 OA
HETATM   33  C7  UNL     1       7.766 -16.098  -7.425  1.00  0.00     0.169 C 
HETATM   34  C8  UNL     1       8.035 -16.655  -6.069  1.00  0.00     0.052 C 
ENDBRANCH  27  29
ENDBRANCH  22  27
BRANCH  25  35
HETATM   35  N4  UNL     1       9.185 -14.079  -1.545  1.00  0.00    -0.326 N 
ATOM     36  H4  UNL     1       8.986 -13.177  -1.978  1.00  0.00     0.169 HD
BRANCH  35  37
HETATM   37  C10 UNL     1      10.355 -14.284  -0.976  1.00  0.00     0.123 A 
HETATM   38  C11 UNL     1      11.149 -13.289  -0.491  1.00  0.00     0.076 A 
HETATM   39  C12 UNL     1      12.301 -13.882  -0.008  1.00  0.00     0.033 A 
HETATM   40  N5  UNL     1      12.178 -15.202  -0.209  1.00  0.00    -0.303 N 
HETATM   41  N6  UNL     1      11.015 -15.424  -0.786  1.00  0.00    -0.285 N 
ATOM     42  H5  UNL     1      12.865 -15.912   0.042  1.00  0.00     0.186 HD
ATOM     43  H6  UNL     1      10.667 -16.346  -1.050  1.00  0.00     0.188 HD
BRANCH  39  44
HETATM   44  C13 UNL     1      13.474 -13.220   0.638  1.00  0.00     0.037 A 
HETATM   45  C14 UNL     1      14.169 -13.989   1.716  1.00  0.00     0.011 A 
HETATM   46  C15 UNL     1      13.315 -12.836   2.089  1.00  0.00     0.011 A 
ENDBRANCH  39  44
ENDBRANCH  35  37
ENDBRANCH  25  35
ENDBRANCH  17  18
BRANCH  17  47
HETATM   47  O2  UNL     1       7.496 -13.352   0.672  1.00  0.00    -0.346 OA
ATOM     48  H2  UNL     1       8.021 -12.956  -0.012  1.00  0.00     0.219 HD
ENDBRANCH  17  47
ENDBRANCH  15  17
ENDBRANCH  14  15
ENDBRANCH  13  14
ENDBRANCH  12  13
ENDBRANCH   9  12
ENDBRANCH   5   6
ENDBRANCH   4   5
ENDBRANCH   1   4
TORSDOF 15
ENDMDL
MODEL 3
REMARK VINA RESULT: -8.997159795      2.065     10.627
REMARK  15 active torsions:
REMARK  status: ('A' for Active; 'I' for Inactive)
REMARK    1  A    between atoms: C3_5  and  N2_6 
REMARK    2  A    between atoms: N2_6  and  C4_8 
REMARK    3  A    between atoms: C9_16  and  N4_17 
REMARK    4  A    between atoms: N4_17  and  C10_19 
REMARK    5  A    between atoms: C12_21  and  C13_22 
REMARK    6  A    between atoms: C16_29  and  C17_30 
REMARK    7  A    between atoms: C17_30  and  O2_31 
REMARK    8  A    between atoms: C17_30  and  N7_33 
REMARK    9  A    between atoms: N7_33  and  C18_35 
REMARK   10  A    between atoms: C18_35  and  C19_36 
REMARK   11  A    between atoms: C19_36  and  C20_37 
REMARK   12  A    between atoms: C20_37  and  N8_38 
REMARK   13  A    between atoms: C23_41  and  O3_42 
REMARK   14  A    between atoms: O3_42  and  C24_43 
REMARK   15  A    between atoms: C24_43  and  C25_44 
ROOT
HETATM    1  C25 UNL     1      10.683 -14.330   9.651  1.00  0.00     0.150 C 
HETATM    2  C26 UNL     1      10.950 -13.034   9.078  1.00  0.00     0.061 C 
HETATM    3  N9  UNL     1      11.167 -11.996   8.609  1.00  0.00    -0.197 NA
ENDROOT
BRANCH   1   4
HETATM    4  C24 UNL     1       9.830 -15.221   8.817  1.00  0.00     0.182 C 
BRANCH   4   5
HETATM    5  O3  UNL     1      10.459 -15.922   7.820  1.00  0.00    -0.385 OA
BRANCH   5   6
HETATM    6  C23 UNL     1      10.107 -15.503   6.571  1.00  0.00     0.127 C 
HETATM    7  C22 UNL     1       8.756 -14.796   6.559  1.00  0.00     0.076 C 
HETATM    8  C21 UNL     1       8.684 -13.638   5.635  1.00  0.00     0.060 C 
HETATM    9  N8  UNL     1       9.409 -13.717   4.430  1.00  0.00    -0.393 N 
HETATM   10  C28 UNL     1      10.608 -14.507   4.441  1.00  0.00     0.124 C 
HETATM   11  C27 UNL     1      11.080 -14.571   5.892  1.00  0.00     0.052 C 
BRANCH   9  12
HETATM   12  C20 UNL     1       8.617 -13.909   3.238  1.00  0.00     0.123 C 
BRANCH  12  13
HETATM   13  C19 UNL     1       9.093 -15.047   2.404  1.00  0.00     0.039 C 
BRANCH  13  14
HETATM   14  C18 UNL     1       8.358 -16.334   2.693  1.00  0.00     0.123 C 
BRANCH  14  15
HETATM   15  N7  UNL     1       7.076 -16.334   1.966  1.00  0.00    -0.370 N 
ATOM     16  H7  UNL     1       6.324 -15.708   2.255  1.00  0.00     0.161 HD
BRANCH  15  17
HETATM   17  C17 UNL     1       6.895 -17.189   0.887  1.00  0.00     0.152 C 
BRANCH  17  18
HETATM   18  C16 UNL     1       6.700 -16.947  -0.511  1.00  0.00     0.082 A 
HETATM   19  C2  UNL     1       5.523 -16.545  -1.087  1.00  0.00     0.041 A 
HETATM   20  C1  UNL     1       4.347 -16.199  -0.253  1.00  0.00     0.070 C 
HETATM   21  N1  UNL     1       5.424 -16.407  -2.450  1.00  0.00    -0.195 N 
HETATM   22  C3  UNL     1       6.440 -16.646  -3.284  1.00  0.00     0.680 A 
ATOM     23  H1  UNL     1       4.532 -16.109  -2.845  1.00  0.00     0.184 HD
HETATM   24  N3  UNL     1       7.588 -17.034  -2.729  1.00  0.00    -0.176 N 
HETATM   25  C9  UNL     1       7.734 -17.183  -1.406  1.00  0.00     0.139 A 
ATOM     26  H3  UNL     1       8.385 -17.224  -3.335  1.00  0.00     0.186 HD
BRANCH  22  27
HETATM   27  N2  UNL     1       6.310 -16.510  -4.561  1.00  0.00    -0.221 N 
ATOM     28  H2  UNL     1       5.358 -16.384  -4.906  1.00  0.00     0.178 HD
BRANCH  27  29
HETATM   29  C4  UNL     1       7.339 -16.516  -5.544  1.00  0.00     0.103 C 
HETATM   30  C5  UNL     1       8.642 -15.892  -5.099  1.00  0.00     0.052 C 
HETATM   31  C6  UNL     1       9.502 -15.678  -6.344  1.00  0.00     0.169 C 
HETATM   32  O1  UNL     1       9.001 -16.344  -7.447  1.00  0.00    -0.391 OA
HETATM   33  C7  UNL     1       7.859 -15.651  -7.845  1.00  0.00     0.169 C 
HETATM   34  C8  UNL     1       6.847 -15.692  -6.751  1.00  0.00     0.052 C 
ENDBRANCH  27  29
ENDBRANCH  22  27
BRANCH  25  35
HETATM   35  N4  UNL     1       9.016 -17.580  -0.971  1.00  0.00    -0.326 N 
ATOM     36  H4  UNL     1       9.234 -18.573  -0.882  1.00  0.00     0.169 HD
BRANCH  35  37
HETATM   37  C10 UNL     1       9.934 -16.683  -0.679  1.00  0.00     0.123 A 
HETATM   38  C11 UNL     1      10.029 -15.466  -1.287  1.00  0.00     0.076 A 
HETATM   39  C12 UNL     1      11.128 -14.823  -0.748  1.00  0.00     0.033 A 
HETATM   40  N5  UNL     1      11.664 -15.653   0.159  1.00  0.00    -0.303 N 
HETATM   41  N6  UNL     1      10.942 -16.754   0.187  1.00  0.00    -0.285 N 
ATOM     42  H5  UNL     1      12.488 -15.464   0.729  1.00  0.00     0.186 HD
ATOM     43  H6  UNL     1      11.130 -17.554   0.792  1.00  0.00     0.188 HD
BRANCH  39  44
HETATM   44  C13 UNL     1      11.645 -13.460  -1.071  1.00  0.00     0.037 A 
HETATM   45  C14 UNL     1      12.876 -13.019  -0.346  1.00  0.00     0.011 A 
HETATM   46  C15 UNL     1      11.568 -12.432   0.032  1.00  0.00     0.011 A 
ENDBRANCH  39  44
ENDBRANCH  35  37
ENDBRANCH  25  35
ENDBRANCH  17  18
BRANCH  17  47
HETATM   47  O2  UNL     1       6.904 -18.448   1.219  1.00  0.00    -0.346 OA
ATOM     48  H2  UNL     1       7.542 -18.973   0.750  1.00  0.00     0.219 HD
ENDBRANCH  17  47
ENDBRANCH  15  17
ENDBRANCH  14  15
ENDBRANCH  13  14
ENDBRANCH  12  13
ENDBRANCH   9  12
ENDBRANCH   5   6
ENDBRANCH   4   5
ENDBRANCH   1   4
TORSDOF 15
ENDMDL
MODEL 4
REMARK VINA RESULT: -8.824940374      1.835      2.140
REMARK  15 active torsions:
REMARK  status: ('A' for Active; 'I' for Inactive)
REMARK    1  A    between atoms: C3_5  and  N2_6 
REMARK    2  A    between atoms: N2_6  and  C4_8 
REMARK    3  A    between atoms: C9_16  and  N4_17 
REMARK    4  A    between atoms: N4_17  and  C10_19 
REMARK    5  A    between atoms: C12_21  and  C13_22 
REMARK    6  A    between atoms: C16_29  and  C17_30 
REMARK    7  A    between atoms: C17_30  and  O2_31 
REMARK    8  A    between atoms: C17_30  and  N7_33 
REMARK    9  A    between atoms: N7_33  and  C18_35 
REMARK   10  A    between atoms: C18_35  and  C19_36 
REMARK   11  A    between atoms: C19_36  and  C20_37 
REMARK   12  A    between atoms: C20_37  and  N8_38 
REMARK   13  A    between atoms: C23_41  and  O3_42 
REMARK   14  A    between atoms: O3_42  and  C24_43 
REMARK   15  A    between atoms: C24_43  and  C25_44 
ROOT
HETATM    1  C25 UNL     1       3.218 -18.473  -4.058  1.00  0.00     0.150 C 
HETATM    2  C26 UNL     1       2.474 -17.272  -3.770  1.00  0.00     0.061 C 
HETATM    3  N9  UNL     1       1.883 -16.303  -3.531  1.00  0.00    -0.197 NA
ENDROOT
BRANCH   1   4
HETATM    4  C24 UNL     1       4.690 -18.289  -4.169  1.00  0.00     0.182 C 
BRANCH   4   5
HETATM    5  O3  UNL     1       5.137 -17.481  -5.185  1.00  0.00    -0.385 OA
BRANCH   5   6
HETATM    6  C23 UNL     1       6.233 -16.748  -4.838  1.00  0.00     0.127 C 
HETATM    7  C22 UNL     1       6.459 -16.725  -3.329  1.00  0.00     0.076 C 
HETATM    8  C21 UNL     1       7.886 -16.777  -2.928  1.00  0.00     0.060 C 
HETATM    9  N8  UNL     1       8.822 -16.126  -3.755  1.00  0.00    -0.393 N 
HETATM   10  C28 UNL     1       8.510 -16.045  -5.155  1.00  0.00     0.124 C 
HETATM   11  C27 UNL     1       7.538 -17.184  -5.456  1.00  0.00     0.052 C 
BRANCH   9  12
HETATM   12  C20 UNL     1       9.374 -14.902  -3.227  1.00  0.00     0.123 C 
BRANCH  12  13
HETATM   13  C19 UNL     1       9.036 -14.687  -1.793  1.00  0.00     0.039 C 
BRANCH  13  14
HETATM   14  C18 UNL     1      10.149 -14.018  -1.021  1.00  0.00     0.123 C 
BRANCH  14  15
HETATM   15  N7  UNL     1      11.241 -14.985  -0.810  1.00  0.00    -0.370 N 
ATOM     16  H7  UNL     1      11.641 -15.487  -1.603  1.00  0.00     0.161 HD
BRANCH  15  17
HETATM   17  C17 UNL     1      11.724 -15.211   0.472  1.00  0.00     0.152 C 
BRANCH  17  18
HETATM   18  C16 UNL     1      11.315 -14.722   1.755  1.00  0.00     0.082 A 
HETATM   19  C2  UNL     1      11.872 -13.654   2.408  1.00  0.00     0.041 A 
HETATM   20  C1  UNL     1      12.903 -12.815   1.752  1.00  0.00     0.070 C 
HETATM   21  N1  UNL     1      11.451 -13.310   3.669  1.00  0.00    -0.195 N 
HETATM   22  C3  UNL     1      10.494 -13.971   4.326  1.00  0.00     0.680 A 
ATOM     23  H1  UNL     1      11.889 -12.510   4.127  1.00  0.00     0.184 HD
HETATM   24  N3  UNL     1       9.946 -15.009   3.694  1.00  0.00    -0.176 N 
HETATM   25  C9  UNL     1      10.323 -15.385   2.465  1.00  0.00     0.139 A 
ATOM     26  H3  UNL     1       9.211 -15.537   4.164  1.00  0.00     0.186 HD
BRANCH  22  27
HETATM   27  N2  UNL     1      10.125 -13.622   5.513  1.00  0.00    -0.221 N 
ATOM     28  H2  UNL     1       9.659 -12.718   5.592  1.00  0.00     0.178 HD
BRANCH  27  29
HETATM   29  C4  UNL     1      10.294 -14.350   6.723  1.00  0.00     0.103 C 
HETATM   30  C5  UNL     1       9.042 -15.025   7.236  1.00  0.00     0.052 C 
HETATM   31  C6  UNL     1       9.309 -15.464   8.676  1.00  0.00     0.169 C 
HETATM   32  O1  UNL     1      10.649 -15.389   9.006  1.00  0.00    -0.391 OA
HETATM   33  C7  UNL     1      10.953 -14.034   9.128  1.00  0.00     0.169 C 
HETATM   34  C8  UNL     1      10.736 -13.357   7.818  1.00  0.00     0.052 C 
ENDBRANCH  27  29
ENDBRANCH  22  27
BRANCH  25  35
HETATM   35  N4  UNL     1       9.635 -16.490   1.923  1.00  0.00    -0.326 N 
ATOM     36  H4  UNL     1      10.106 -17.392   1.849  1.00  0.00     0.169 HD
BRANCH  35  37
HETATM   37  C10 UNL     1       8.389 -16.370   1.511  1.00  0.00     0.123 A 
HETATM   38  C11 UNL     1       7.621 -17.417   1.097  1.00  0.00     0.076 A 
HETATM   39  C12 UNL     1       6.399 -16.900   0.708  1.00  0.00     0.033 A 
HETATM   40  N5  UNL     1       6.456 -15.574   0.893  1.00  0.00    -0.303 N 
HETATM   41  N6  UNL     1       7.647 -15.275   1.371  1.00  0.00    -0.285 N 
ATOM     42  H5  UNL     1       5.707 -14.910   0.698  1.00  0.00     0.186 HD
ATOM     43  H6  UNL     1       7.957 -14.331   1.602  1.00  0.00     0.188 HD
BRANCH  39  44
HETATM   44  C13 UNL     1       5.210 -17.643   0.193  1.00  0.00     0.037 A 
HETATM   45  C14 UNL     1       4.115 -16.822  -0.408  1.00  0.00     0.011 A 
HETATM   46  C15 UNL     1       3.910 -17.427   0.930  1.00  0.00     0.011 A 
ENDBRANCH  39  44
ENDBRANCH  35  37
ENDBRANCH  25  35
ENDBRANCH  17  18
BRANCH  17  47
HETATM   47  O2  UNL     1      12.743 -16.021   0.505  1.00  0.00    -0.346 OA
ATOM     48  H2  UNL     1      12.690 -16.743  -0.111  1.00  0.00     0.219 HD
ENDBRANCH  17  47
ENDBRANCH  15  17
ENDBRANCH  14  15
ENDBRANCH  13  14
ENDBRANCH  12  13
ENDBRANCH   9  12
ENDBRANCH   5   6
ENDBRANCH   4   5
ENDBRANCH   1   4
TORSDOF 15
ENDMDL
MODEL 5
REMARK VINA RESULT: -8.818187691      2.625      5.680
REMARK  15 active torsions:
REMARK  status: ('A' for Active; 'I' for Inactive)
REMARK    1  A    between atoms: C3_5  and  N2_6 
REMARK    2  A    between atoms: N2_6  and  C4_8 
REMARK    3  A    between atoms: C9_16  and  N4_17 
REMARK    4  A    between atoms: N4_17  and  C10_19 
REMARK    5  A    between atoms: C12_21  and  C13_22 
REMARK    6  A    between atoms: C16_29  and  C17_30 
REMARK    7  A    between atoms: C17_30  and  O2_31 
REMARK    8  A    between atoms: C17_30  and  N7_33 
REMARK    9  A    between atoms: N7_33  and  C18_35 
REMARK   10  A    between atoms: C18_35  and  C19_36 
REMARK   11  A    between atoms: C19_36  and  C20_37 
REMARK   12  A    between atoms: C20_37  and  N8_38 
REMARK   13  A    between atoms: C23_41  and  O3_42 
REMARK   14  A    between atoms: O3_42  and  C24_43 
REMARK   15  A    between atoms: C24_43  and  C25_44 
ROOT
HETATM    1  C25 UNL     1       7.837 -16.433  -4.757  1.00  0.00     0.150 C 
HETATM    2  C26 UNL     1       8.431 -16.709  -6.041  1.00  0.00     0.061 C 
HETATM    3  N9  UNL     1       8.903 -16.939  -7.075  1.00  0.00    -0.197 NA
ENDROOT
BRANCH   1   4
HETATM    4  C24 UNL     1       6.365 -16.638  -4.689  1.00  0.00     0.182 C 
BRANCH   4   5
HETATM    5  O3  UNL     1       5.931 -17.847  -4.206  1.00  0.00    -0.385 OA
BRANCH   5   6
HETATM    6  C23 UNL     1       5.716 -17.836  -2.859  1.00  0.00     0.127 C 
HETATM    7  C22 UNL     1       5.095 -16.526  -2.384  1.00  0.00     0.076 C 
HETATM    8  C21 UNL     1       4.088 -16.686  -1.307  1.00  0.00     0.060 C 
HETATM    9  N8  UNL     1       4.298 -17.709  -0.362  1.00  0.00    -0.393 N 
HETATM   10  C28 UNL     1       5.009 -18.874  -0.810  1.00  0.00     0.124 C 
HETATM   11  C27 UNL     1       4.836 -18.940  -2.326  1.00  0.00     0.052 C 
BRANCH   9  12
HETATM   12  C20 UNL     1       4.703 -17.269   0.951  1.00  0.00     0.123 C 
BRANCH  12  13
HETATM   13  C19 UNL     1       6.169 -17.400   1.179  1.00  0.00     0.039 C 
BRANCH  13  14
HETATM   14  C18 UNL     1       6.822 -16.094   1.565  1.00  0.00     0.123 C 
BRANCH  14  15
HETATM   15  N7  UNL     1       7.436 -15.489   0.370  1.00  0.00    -0.370 N 
ATOM     16  H7  UNL     1       7.257 -15.882  -0.553  1.00  0.00     0.161 HD
BRANCH  15  17
HETATM   17  C17 UNL     1       8.261 -14.380   0.506  1.00  0.00     0.152 C 
BRANCH  17  18
HETATM   18  C16 UNL     1       9.641 -14.245   0.867  1.00  0.00     0.082 A 
HETATM   19  C2  UNL     1      10.701 -14.433   0.020  1.00  0.00     0.041 A 
HETATM   20  C1  UNL     1      10.486 -14.683  -1.425  1.00  0.00     0.070 C 
HETATM   21  N1  UNL     1      11.991 -14.347   0.485  1.00  0.00    -0.195 N 
HETATM   22  C3  UNL     1      12.291 -14.077   1.759  1.00  0.00     0.680 A 
ATOM     23  H1  UNL     1      12.756 -14.495  -0.173  1.00  0.00     0.184 HD
HETATM   24  N3  UNL     1      11.264 -13.890   2.586  1.00  0.00    -0.176 N 
HETATM   25  C9  UNL     1       9.989 -13.965   2.181  1.00  0.00     0.139 A 
ATOM     26  H3  UNL     1      11.455 -13.681   3.566  1.00  0.00     0.186 HD
BRANCH  22  27
HETATM   27  N2  UNL     1      13.516 -14.008   2.162  1.00  0.00    -0.221 N 
ATOM     28  H2  UNL     1      14.230 -14.261   1.480  1.00  0.00     0.178 HD
BRANCH  27  29
HETATM   29  C4  UNL     1      13.985 -13.618   3.448  1.00  0.00     0.103 C 
HETATM   30  C5  UNL     1      13.913 -12.133   3.725  1.00  0.00     0.052 C 
HETATM   31  C6  UNL     1      14.746 -11.854   4.976  1.00  0.00     0.169 C 
HETATM   32  O1  UNL     1      15.084 -13.014   5.648  1.00  0.00    -0.391 OA
HETATM   33  C7  UNL     1      16.052 -13.654   4.876  1.00  0.00     0.169 C 
HETATM   34  C8  UNL     1      15.472 -14.012   3.550  1.00  0.00     0.052 C 
ENDBRANCH  27  29
ENDBRANCH  22  27
BRANCH  25  35
HETATM   35  N4  UNL     1       9.015 -13.722   3.172  1.00  0.00    -0.326 N 
ATOM     36  H4  UNL     1       8.288 -13.026   3.005  1.00  0.00     0.169 HD
BRANCH  35  37
HETATM   37  C10 UNL     1       9.035 -14.384   4.310  1.00  0.00     0.123 A 
HETATM   38  C11 UNL     1       9.188 -13.794   5.530  1.00  0.00     0.076 A 
HETATM   39  C12 UNL     1       9.196 -14.804   6.475  1.00  0.00     0.033 A 
HETATM   40  N5  UNL     1       9.050 -15.961   5.815  1.00  0.00    -0.303 N 
HETATM   41  N6  UNL     1       8.955 -15.694   4.529  1.00  0.00    -0.285 N 
ATOM     42  H5  UNL     1       9.016 -16.889   6.236  1.00  0.00     0.186 HD
ATOM     43  H6  UNL     1       8.837 -16.397   3.799  1.00  0.00     0.188 HD
BRANCH  39  44
HETATM   44  C13 UNL     1       9.322 -14.673   7.957  1.00  0.00     0.037 A 
HETATM   45  C14 UNL     1      10.396 -13.763   8.461  1.00  0.00     0.011 A 
HETATM   46  C15 UNL     1      10.581 -15.230   8.577  1.00  0.00     0.011 A 
ENDBRANCH  39  44
ENDBRANCH  35  37
ENDBRANCH  25  35
ENDBRANCH  17  18
BRANCH  17  47
HETATM   47  O2  UNL     1       7.658 -13.254   0.257  1.00  0.00    -0.346 OA
ATOM     48  H2  UNL     1       7.827 -12.901  -0.608  1.00  0.00     0.219 HD
ENDBRANCH  17  47
ENDBRANCH  15  17
ENDBRANCH  14  15
ENDBRANCH  13  14
ENDBRANCH  12  13
ENDBRANCH   9  12
ENDBRANCH   5   6
ENDBRANCH   4   5
ENDBRANCH   1   4
TORSDOF 15
ENDMDL
