MODEL 1
REMARK VINA RESULT: -8.482172321      0.000      0.000
REMARK  12 active torsions:
REMARK  status: ('A' for Active; 'I' for Inactive)
REMARK    1  A    between atoms: O1_2  and  C2_3 
REMARK    2  A    between atoms: C2_3  and  C3_5 
REMARK    3  A    between atoms: C3_5  and  C4_6 
REMARK    4  A    between atoms: C4_6  and  C5_7 
REMARK    5  A    between atoms: C5_7  and  C6_8 
REMARK    6  A    between atoms: C6_8  and  C7_9 
REMARK    7  A    between atoms: C7_9  and  N1_10 
REMARK    8  A    between atoms: N1_10  and  C8_12 
REMARK    9  A    between atoms: C16_24  and  O3_25 
REMARK   10  A    between atoms: N5_32  and  C21_34 
REMARK   11  A    between atoms: C21_34  and  C22_35 
REMARK   12  A    between atoms: C22_35  and  N6_36 
ROOT
HETATM    1  C8  UNL     1       9.344 -15.324   4.988  1.00  0.00     0.694 A 
HETATM    2  N2  UNL     1       8.692 -15.576   3.821  1.00  0.00    -0.175 N 
ATOM      3  H2  UNL     1       7.896 -16.215   3.843  1.00  0.00     0.186 HD
HETATM    4  C9  UNL     1       9.039 -15.029   2.631  1.00  0.00     0.147 A 
HETATM    5  C10 UNL     1       8.257 -15.263   1.436  1.00  0.00     0.023 A 
HETATM    6  C11 UNL     1       6.978 -15.783   1.618  1.00  0.00     0.033 A 
HETATM    7  C12 UNL     1       6.124 -16.085   0.582  1.00  0.00     0.089 A 
HETATM    8  N3  UNL     1       6.555 -15.862  -0.651  1.00  0.00    -0.365 N 
ATOM      9  H3  UNL     1       5.936 -16.077  -1.433  1.00  0.00     0.165 HD
HETATM   10  C13 UNL     1       7.767 -15.367  -0.908  1.00  0.00     0.043 A 
HETATM   11  C14 UNL     1       8.192 -15.161  -2.201  1.00  0.00     0.033 A 
HETATM   12  C15 UNL     1       9.436 -14.668  -2.488  1.00  0.00     0.039 A 
HETATM   13  C16 UNL     1      10.281 -14.374  -1.455  1.00  0.00     0.069 A 
HETATM   14  C18 UNL     1       9.899 -14.565  -0.120  1.00  0.00     0.051 A 
HETATM   15  C19 UNL     1       8.640 -15.060   0.138  1.00  0.00     0.007 A 
HETATM   16  N4  UNL     1      10.082 -14.209   2.687  1.00  0.00    -0.175 N 
ATOM     17  H4  UNL     1      10.383 -13.770   1.817  1.00  0.00     0.186 HD
HETATM   18  C20 UNL     1      10.769 -13.915   3.794  1.00  0.00     0.694 A 
HETATM   19  N5  UNL     1      11.770 -13.125   3.766  1.00  0.00    -0.224 N 
ATOM     20  H5  UNL     1      12.227 -12.963   4.663  1.00  0.00     0.177 HD
HETATM   21  N9  UNL     1      10.378 -14.496   4.978  1.00  0.00    -0.022 N 
ATOM     22  H9  UNL     1      10.881 -14.290   5.841  1.00  0.00     0.203 HD
ENDROOT
BRANCH  19  23
HETATM   23  C21 UNL     1      12.337 -12.438   2.655  1.00  0.00     0.157 C 
BRANCH  23  24
HETATM   24  C22 UNL     1      12.795 -11.016   2.988  1.00  0.00     0.141 C 
BRANCH  24  25
HETATM   25  N6  UNL     1      13.499 -11.085   4.224  1.00  0.00    -0.374 N 
HETATM   26  C23 UNL     1      13.477 -10.180   5.144  1.00  0.00     0.113 C 
HETATM   27  C24 UNL     1      14.345 -10.594   6.318  1.00  0.00     0.133 C 
HETATM   28  N8  UNL     1      12.643  -9.054   4.795  1.00  0.00    -0.366 N 
HETATM   29  N7  UNL     1      15.169  -9.603   6.849  1.00  0.00    -0.390 N 
HETATM   30  C25 UNL     1      16.583  -9.923   6.784  1.00  0.00     0.149 C 
HETATM   31  C26 UNL     1      14.902  -8.824   7.993  1.00  0.00     0.133 C 
HETATM   32  C27 UNL     1      14.181  -7.457   7.670  1.00  0.00     0.101 C 
HETATM   33  C28 UNL     1      13.412  -7.714   6.542  1.00  0.00    -0.162 C 
HETATM   34  C29 UNL     1      12.560  -7.675   5.413  1.00  0.00     0.201 C 
ATOM     35  H8  UNL     1      12.012  -9.212   4.010  1.00  0.00     0.162 HD
ATOM     36  H6  UNL     1      14.065 -11.916   4.396  1.00  0.00     0.161 HD
ENDBRANCH  24  25
ENDBRANCH  23  24
ENDBRANCH  19  23
BRANCH   1  37
HETATM   37  N1  UNL     1       8.949 -15.902   6.070  1.00  0.00    -0.226 N 
ATOM     38  H1  UNL     1       8.011 -16.299   6.122  1.00  0.00     0.177 HD
BRANCH  37  39
HETATM   39  C7  UNL     1       9.841 -15.990   7.226  1.00  0.00     0.138 C 
BRANCH  39  40
HETATM   40  C6  UNL     1       9.155 -15.533   8.467  1.00  0.00     0.020 C 
BRANCH  40  41
HETATM   41  C5  UNL     1       9.931 -14.765   9.457  1.00  0.00     0.002 C 
BRANCH  41  42
HETATM   42  C4  UNL     1      11.157 -14.042   9.106  1.00  0.00     0.010 C 
BRANCH  42  43
HETATM   43  C3  UNL     1      11.295 -12.597   9.344  1.00  0.00     0.111 C 
BRANCH  43  44
HETATM   44  C2  UNL     1      11.304 -11.882   7.990  1.00  0.00     0.258 C 
HETATM   45  O2  UNL     1      11.421 -12.579   6.964  1.00  0.00    -0.265 OA
BRANCH  44  46
HETATM   46  O1  UNL     1      11.187 -10.527   7.900  1.00  0.00    -0.326 OA
HETATM   47  C1  UNL     1      11.451  -9.721   9.054  1.00  0.00     0.213 C 
ENDBRANCH  44  46
ENDBRANCH  43  44
ENDBRANCH  42  43
ENDBRANCH  41  42
ENDBRANCH  40  41
ENDBRANCH  39  40
ENDBRANCH  37  39
ENDBRANCH   1  37
BRANCH  13  48
HETATM   48  O3  UNL     1      11.560 -13.870  -1.699  1.00  0.00    -0.356 OA
HETATM   49  C17 UNL     1      11.987 -12.727  -0.971  1.00  0.00     0.210 C 
ENDBRANCH  13  48
TORSDOF 12
ENDMDL
MODEL 2
REMARK VINA RESULT: -8.462369724      0.971      1.507
REMARK  12 active torsions:
REMARK  status: ('A' for Active; 'I' for Inactive)
REMARK    1  A    between atoms: O1_2  and  C2_3 
REMARK    2  A    between atoms: C2_3  and  C3_5 
REMARK    3  A    between atoms: C3_5  and  C4_6 
REMARK    4  A    between atoms: C4_6  and  C5_7 
REMARK    5  A    between atoms: C5_7  and  C6_8 
REMARK    6  A    between atoms: C6_8  and  C7_9 
REMARK    7  A    between atoms: C7_9  and  N1_10 
REMARK    8  A    between atoms: N1_10  and  C8_12 
REMARK    9  A    between atoms: C16_24  and  O3_25 
REMARK   10  A    between atoms: N5_32  and  C21_34 
REMARK   11  A    between atoms: C21_34  and  C22_35 
REMARK   12  A    between atoms: C22_35  and  N6_36 
ROOT
HETATM    1  C8  UNL     1       9.492 -15.371   5.153  1.00  0.00     0.694 A 
HETATM    2  N2  UNL     1       8.844 -15.598   3.979  1.00  0.00    -0.175 N 
ATOM      3  H2  UNL     1       8.061 -16.253   3.980  1.00  0.00     0.186 HD
HETATM    4  C9  UNL     1       9.178 -15.003   2.808  1.00  0.00     0.147 A 
HETATM    5  C10 UNL     1       8.400 -15.213   1.606  1.00  0.00     0.023 A 
HETATM    6  C11 UNL     1       7.132 -15.765   1.770  1.00  0.00     0.033 A 
HETATM    7  C12 UNL     1       6.283 -16.049   0.725  1.00  0.00     0.089 A 
HETATM    8  N3  UNL     1       6.709 -15.777  -0.499  1.00  0.00    -0.365 N 
ATOM      9  H3  UNL     1       6.094 -15.978  -1.288  1.00  0.00     0.165 HD
HETATM   10  C13 UNL     1       7.910 -15.248  -0.740  1.00  0.00     0.043 A 
HETATM   11  C14 UNL     1       8.330 -14.989  -2.025  1.00  0.00     0.033 A 
HETATM   12  C15 UNL     1       9.563 -14.462  -2.296  1.00  0.00     0.039 A 
HETATM   13  C16 UNL     1      10.403 -14.185  -1.254  1.00  0.00     0.069 A 
HETATM   14  C18 UNL     1      10.026 -14.429   0.074  1.00  0.00     0.051 A 
HETATM   15  C19 UNL     1       8.778 -14.958   0.316  1.00  0.00     0.007 A 
HETATM   16  N4  UNL     1      10.204 -14.164   2.891  1.00  0.00    -0.175 N 
ATOM     17  H4  UNL     1      10.495 -13.690   2.036  1.00  0.00     0.186 HD
HETATM   18  C20 UNL     1      10.885 -13.894   4.007  1.00  0.00     0.694 A 
HETATM   19  N5  UNL     1      11.870 -13.083   4.006  1.00  0.00    -0.224 N 
ATOM     20  H5  UNL     1      12.325 -12.942   4.908  1.00  0.00     0.177 HD
HETATM   21  N9  UNL     1      10.508 -14.522   5.171  1.00  0.00    -0.022 N 
ATOM     22  H9  UNL     1      11.007 -14.335   6.041  1.00  0.00     0.203 HD
ENDROOT
BRANCH  19  23
HETATM   23  C21 UNL     1      12.422 -12.347   2.918  1.00  0.00     0.157 C 
BRANCH  23  24
HETATM   24  C22 UNL     1      13.522 -11.370   3.341  1.00  0.00     0.141 C 
BRANCH  24  25
HETATM   25  N6  UNL     1      12.906 -10.380   4.159  1.00  0.00    -0.374 N 
HETATM   26  C23 UNL     1      13.516  -9.382   4.704  1.00  0.00     0.113 C 
HETATM   27  C24 UNL     1      12.542  -8.538   5.506  1.00  0.00     0.133 C 
HETATM   28  N8  UNL     1      14.926  -9.356   4.396  1.00  0.00    -0.366 N 
HETATM   29  N7  UNL     1      12.982  -8.123   6.763  1.00  0.00    -0.390 N 
HETATM   30  C25 UNL     1      12.155  -8.596   7.856  1.00  0.00     0.149 C 
HETATM   31  C26 UNL     1      13.525  -6.861   7.078  1.00  0.00     0.133 C 
HETATM   32  C27 UNL     1      15.100  -6.811   6.979  1.00  0.00     0.101 C 
HETATM   33  C28 UNL     1      15.426  -7.720   5.980  1.00  0.00    -0.162 C 
HETATM   34  C29 UNL     1      16.049  -8.572   5.038  1.00  0.00     0.201 C 
ATOM     35  H8  UNL     1      15.209  -9.962   3.626  1.00  0.00     0.162 HD
ATOM     36  H6  UNL     1      11.904 -10.468   4.328  1.00  0.00     0.161 HD
ENDBRANCH  24  25
ENDBRANCH  23  24
ENDBRANCH  19  23
BRANCH   1  37
HETATM   37  N1  UNL     1       9.110 -15.993   6.216  1.00  0.00    -0.226 N 
ATOM     38  H1  UNL     1       8.218 -16.488   6.223  1.00  0.00     0.177 HD
BRANCH  37  39
HETATM   39  C7  UNL     1       9.951 -15.994   7.412  1.00  0.00     0.138 C 
BRANCH  39  40
HETATM   40  C6  UNL     1       9.211 -15.449   8.586  1.00  0.00     0.020 C 
BRANCH  40  41
HETATM   41  C5  UNL     1       9.960 -14.677   9.592  1.00  0.00     0.002 C 
BRANCH  41  42
HETATM   42  C4  UNL     1      11.260 -14.063   9.305  1.00  0.00     0.010 C 
BRANCH  42  43
HETATM   43  C3  UNL     1      11.396 -12.614   9.083  1.00  0.00     0.111 C 
BRANCH  43  44
HETATM   44  C2  UNL     1      11.204 -12.332   7.590  1.00  0.00     0.258 C 
HETATM   45  O2  UNL     1      10.038 -12.280   7.153  1.00  0.00    -0.265 OA
BRANCH  44  46
HETATM   46  O1  UNL     1      12.267 -12.143   6.760  1.00  0.00    -0.326 OA
HETATM   47  C1  UNL     1      13.575 -11.979   7.318  1.00  0.00     0.213 C 
ENDBRANCH  44  46
ENDBRANCH  43  44
ENDBRANCH  42  43
ENDBRANCH  41  42
ENDBRANCH  40  41
ENDBRANCH  39  40
ENDBRANCH  37  39
ENDBRANCH   1  37
BRANCH  13  48
HETATM   48  O3  UNL     1      11.670 -13.647  -1.481  1.00  0.00    -0.356 OA
HETATM   49  C17 UNL     1      12.054 -12.488  -0.753  1.00  0.00     0.210 C 
ENDBRANCH  13  48
TORSDOF 12
ENDMDL
MODEL 3
REMARK VINA RESULT: -8.368498712      1.679      6.630
REMARK  12 active torsions:
REMARK  status: ('A' for Active; 'I' for Inactive)
REMARK    1  A    between atoms: O1_2  and  C2_3 
REMARK    2  A    between atoms: C2_3  and  C3_5 
REMARK    3  A    between atoms: C3_5  and  C4_6 
REMARK    4  A    between atoms: C4_6  and  C5_7 
REMARK    5  A    between atoms: C5_7  and  C6_8 
REMARK    6  A    between atoms: C6_8  and  C7_9 
REMARK    7  A    between atoms: C7_9  and  N1_10 
REMARK    8  A    between atoms: N1_10  and  C8_12 
REMARK    9  A    between atoms: C16_24  and  O3_25 
REMARK   10  A    between atoms: N5_32  and  C21_34 
REMARK   11  A    between atoms: C21_34  and  C22_35 
REMARK   12  A    between atoms: C22_35  and  N6_36 
ROOT
HETATM    1  C8  UNL     1       9.895 -16.080   2.720  1.00  0.00     0.694 A 
HETATM    2  N2  UNL     1       9.695 -15.868   4.048  1.00  0.00    -0.175 N 
ATOM      3  H2  UNL     1       8.908 -16.339   4.497  1.00  0.00     0.186 HD
HETATM    4  C9  UNL     1      10.479 -15.068   4.810  1.00  0.00     0.147 A 
HETATM    5  C10 UNL     1      10.273 -14.947   6.238  1.00  0.00     0.023 A 
HETATM    6  C11 UNL     1       9.476 -15.918   6.839  1.00  0.00     0.033 A 
HETATM    7  C12 UNL     1       9.166 -15.927   8.179  1.00  0.00     0.089 A 
HETATM    8  N3  UNL     1       9.660 -14.951   8.927  1.00  0.00    -0.365 N 
ATOM      9  H3  UNL     1       9.444 -14.940   9.924  1.00  0.00     0.165 HD
HETATM   10  C13 UNL     1      10.431 -13.984   8.426  1.00  0.00     0.043 A 
HETATM   11  C14 UNL     1      10.919 -12.976   9.227  1.00  0.00     0.033 A 
HETATM   12  C15 UNL     1      11.698 -11.966   8.732  1.00  0.00     0.039 A 
HETATM   13  C16 UNL     1      12.000 -11.961   7.399  1.00  0.00     0.069 A 
HETATM   14  C18 UNL     1      11.530 -12.964   6.539  1.00  0.00     0.051 A 
HETATM   15  C19 UNL     1      10.749 -13.968   7.066  1.00  0.00     0.007 A 
HETATM   16  N4  UNL     1      11.480 -14.494   4.153  1.00  0.00    -0.175 N 
ATOM     17  H4  UNL     1      12.101 -13.881   4.682  1.00  0.00     0.186 HD
HETATM   18  C20 UNL     1      11.737 -14.655   2.853  1.00  0.00     0.694 A 
HETATM   19  N5  UNL     1      12.713 -14.059   2.288  1.00  0.00    -0.224 N 
ATOM     20  H5  UNL     1      12.827 -14.248   1.292  1.00  0.00     0.177 HD
HETATM   21  N9  UNL     1      10.912 -15.478   2.121  1.00  0.00    -0.022 N 
ATOM     22  H9  UNL     1      11.083 -15.624   1.126  1.00  0.00     0.203 HD
ENDROOT
BRANCH  19  23
HETATM   23  C21 UNL     1      13.666 -13.166   2.857  1.00  0.00     0.157 C 
BRANCH  23  24
HETATM   24  C22 UNL     1      13.086 -11.791   3.194  1.00  0.00     0.141 C 
BRANCH  24  25
HETATM   25  N6  UNL     1      14.141 -11.023   3.764  1.00  0.00    -0.374 N 
HETATM   26  C23 UNL     1      14.038  -9.800   4.164  1.00  0.00     0.113 C 
HETATM   27  C24 UNL     1      15.364  -9.307   4.713  1.00  0.00     0.133 C 
HETATM   28  N8  UNL     1      12.710  -9.264   3.978  1.00  0.00    -0.366 N 
HETATM   29  N7  UNL     1      15.752  -8.027   4.319  1.00  0.00    -0.390 N 
HETATM   30  C25 UNL     1      17.009  -7.996   3.594  1.00  0.00     0.149 C 
HETATM   31  C26 UNL     1      15.597  -6.844   5.069  1.00  0.00     0.133 C 
HETATM   32  C27 UNL     1      14.255  -6.073   4.757  1.00  0.00     0.101 C 
HETATM   33  C28 UNL     1      13.342  -7.063   4.417  1.00  0.00    -0.162 C 
HETATM   34  C29 UNL     1      12.223  -7.833   4.022  1.00  0.00     0.201 C 
ATOM     35  H8  UNL     1      11.989  -9.959   3.787  1.00  0.00     0.162 HD
ATOM     36  H6  UNL     1      15.050 -11.475   3.863  1.00  0.00     0.161 HD
ENDBRANCH  24  25
ENDBRANCH  23  24
ENDBRANCH  19  23
BRANCH   1  37
HETATM   37  N1  UNL     1       9.088 -16.849   2.073  1.00  0.00    -0.226 N 
ATOM     38  H1  UNL     1       9.441 -17.695   1.625  1.00  0.00     0.177 HD
BRANCH  37  39
HETATM   39  C7  UNL     1       7.667 -16.515   1.980  1.00  0.00     0.138 C 
BRANCH  39  40
HETATM   40  C6  UNL     1       7.473 -15.173   1.362  1.00  0.00     0.020 C 
BRANCH  40  41
HETATM   41  C5  UNL     1       7.535 -15.060  -0.106  1.00  0.00     0.002 C 
BRANCH  41  42
HETATM   42  C4  UNL     1       8.299 -14.008  -0.782  1.00  0.00     0.010 C 
BRANCH  42  43
HETATM   43  C3  UNL     1       9.489 -14.316  -1.591  1.00  0.00     0.111 C 
BRANCH  43  44
HETATM   44  C2  UNL     1      10.735 -13.987  -0.764  1.00  0.00     0.258 C 
HETATM   45  O2  UNL     1      11.665 -14.817  -0.756  1.00  0.00    -0.265 OA
BRANCH  44  46
HETATM   46  O1  UNL     1      10.833 -12.827  -0.056  1.00  0.00    -0.326 OA
HETATM   47  C1  UNL     1      11.908 -11.923  -0.334  1.00  0.00     0.213 C 
ENDBRANCH  44  46
ENDBRANCH  43  44
ENDBRANCH  42  43
ENDBRANCH  41  42
ENDBRANCH  40  41
ENDBRANCH  39  40
ENDBRANCH  37  39
ENDBRANCH   1  37
BRANCH  13  48
HETATM   48  O3  UNL     1      12.791 -10.952   6.849  1.00  0.00    -0.356 OA
HETATM   49  C17 UNL     1      12.961  -9.748   7.585  1.00  0.00     0.210 C 
ENDBRANCH  13  48
TORSDOF 12
ENDMDL
MODEL 4
REMARK VINA RESULT: -8.354196059      2.119      6.905
REMARK  12 active torsions:
REMARK  status: ('A' for Active; 'I' for Inactive)
REMARK    1  A    between atoms: O1_2  and  C2_3 
REMARK    2  A    between atoms: C2_3  and  C3_5 
REMARK    3  A    between atoms: C3_5  and  C4_6 
REMARK    4  A    between atoms: C4_6  and  C5_7 
REMARK    5  A    between atoms: C5_7  and  C6_8 
REMARK    6  A    between atoms: C6_8  and  C7_9 
REMARK    7  A    between atoms: C7_9  and  N1_10 
REMARK    8  A    between atoms: N1_10  and  C8_12 
REMARK    9  A    between atoms: C16_24  and  O3_25 
REMARK   10  A    between atoms: N5_32  and  C21_34 
REMARK   11  A    between atoms: C21_34  and  C22_35 
REMARK   12  A    between atoms: C22_35  and  N6_36 
ROOT
HETATM    1  C8  UNL     1      13.304 -13.997   1.697  1.00  0.00     0.694 A 
HETATM    2  N2  UNL     1      12.258 -14.300   2.512  1.00  0.00    -0.175 N 
ATOM      3  H2  UNL     1      11.360 -14.523   2.080  1.00  0.00     0.186 HD
HETATM    4  C9  UNL     1      12.339 -14.323   3.864  1.00  0.00     0.147 A 
HETATM    5  C10 UNL     1      11.218 -14.737   4.680  1.00  0.00     0.023 A 
HETATM    6  C11 UNL     1      10.190 -15.418   4.032  1.00  0.00     0.033 A 
HETATM    7  C12 UNL     1       9.048 -15.853   4.663  1.00  0.00     0.089 A 
HETATM    8  N3  UNL     1       8.933 -15.605   5.960  1.00  0.00    -0.365 N 
ATOM      9  H3  UNL     1       8.095 -15.921   6.447  1.00  0.00     0.165 HD
HETATM   10  C13 UNL     1       9.873 -14.958   6.652  1.00  0.00     0.043 A 
HETATM   11  C14 UNL     1       9.719 -14.703   7.996  1.00  0.00     0.033 A 
HETATM   12  C15 UNL     1      10.662 -14.029   8.722  1.00  0.00     0.039 A 
HETATM   13  C16 UNL     1      11.793 -13.596   8.088  1.00  0.00     0.069 A 
HETATM   14  C18 UNL     1      12.001 -13.829   6.722  1.00  0.00     0.051 A 
HETATM   15  C19 UNL     1      11.035 -14.512   6.018  1.00  0.00     0.007 A 
HETATM   16  N4  UNL     1      13.539 -14.024   4.347  1.00  0.00    -0.175 N 
ATOM     17  H4  UNL     1      13.653 -14.028   5.361  1.00  0.00     0.186 HD
HETATM   18  C20 UNL     1      14.609 -13.717   3.610  1.00  0.00     0.694 A 
HETATM   19  N5  UNL     1      15.728 -13.429   4.148  1.00  0.00    -0.224 N 
ATOM     20  H5  UNL     1      16.485 -13.210   3.500  1.00  0.00     0.177 HD
HETATM   21  N9  UNL     1      14.477 -13.708   2.241  1.00  0.00    -0.022 N 
ATOM     22  H9  UNL     1      15.275 -13.479   1.649  1.00  0.00     0.203 HD
ENDROOT
BRANCH  19  23
HETATM   23  C21 UNL     1      16.068 -13.370   5.530  1.00  0.00     0.157 C 
BRANCH  23  24
HETATM   24  C22 UNL     1      16.267 -11.944   6.048  1.00  0.00     0.141 C 
BRANCH  24  25
HETATM   25  N6  UNL     1      14.974 -11.359   6.161  1.00  0.00    -0.374 N 
HETATM   26  C23 UNL     1      14.573 -10.312   5.522  1.00  0.00     0.113 C 
HETATM   27  C24 UNL     1      13.141  -9.978   5.894  1.00  0.00     0.133 C 
HETATM   28  N8  UNL     1      15.589  -9.770   4.650  1.00  0.00    -0.366 N 
HETATM   29  N7  UNL     1      12.868  -8.631   6.132  1.00  0.00    -0.390 N 
HETATM   30  C25 UNL     1      12.382  -8.362   7.473  1.00  0.00     0.149 C 
HETATM   31  C26 UNL     1      12.291  -7.726   5.218  1.00  0.00     0.133 C 
HETATM   32  C27 UNL     1      13.354  -6.923   4.371  1.00  0.00     0.101 C 
HETATM   33  C28 UNL     1      14.435  -7.786   4.241  1.00  0.00    -0.162 C 
HETATM   34  C29 UNL     1      15.666  -8.426   3.961  1.00  0.00     0.201 C 
ATOM     35  H8  UNL     1      16.378 -10.391   4.470  1.00  0.00     0.162 HD
ATOM     36  H6  UNL     1      14.313 -11.802   6.798  1.00  0.00     0.161 HD
ENDBRANCH  24  25
ENDBRANCH  23  24
ENDBRANCH  19  23
BRANCH   1  37
HETATM   37  N1  UNL     1      13.128 -13.988   0.420  1.00  0.00    -0.226 N 
ATOM     38  H1  UNL     1      13.321 -14.828  -0.126  1.00  0.00     0.177 HD
BRANCH  37  39
HETATM   39  C7  UNL     1      12.654 -12.778  -0.250  1.00  0.00     0.138 C 
BRANCH  39  40
HETATM   40  C6  UNL     1      11.240 -12.934  -0.698  1.00  0.00     0.020 C 
BRANCH  40  41
HETATM   41  C5  UNL     1      10.855 -14.178  -1.387  1.00  0.00     0.002 C 
BRANCH  41  42
HETATM   42  C4  UNL     1       9.751 -15.023  -0.925  1.00  0.00     0.010 C 
BRANCH  42  43
HETATM   43  C3  UNL     1       9.247 -14.948   0.456  1.00  0.00     0.111 C 
BRANCH  43  44
HETATM   44  C2  UNL     1       7.848 -14.328   0.428  1.00  0.00     0.258 C 
HETATM   45  O2  UNL     1       7.742 -13.145   0.051  1.00  0.00    -0.265 OA
BRANCH  44  46
HETATM   46  O1  UNL     1       6.748 -15.039   0.803  1.00  0.00    -0.326 OA
HETATM   47  C1  UNL     1       6.912 -16.243   1.560  1.00  0.00     0.213 C 
ENDBRANCH  44  46
ENDBRANCH  43  44
ENDBRANCH  42  43
ENDBRANCH  41  42
ENDBRANCH  40  41
ENDBRANCH  39  40
ENDBRANCH  37  39
ENDBRANCH   1  37
BRANCH  13  48
HETATM   48  O3  UNL     1      12.784 -12.904   8.787  1.00  0.00    -0.356 OA
HETATM   49  C17 UNL     1      12.518 -11.568   9.193  1.00  0.00     0.210 C 
ENDBRANCH  13  48
TORSDOF 12
ENDMDL
MODEL 5
REMARK VINA RESULT: -8.341290620      2.328      8.583
REMARK  12 active torsions:
REMARK  status: ('A' for Active; 'I' for Inactive)
REMARK    1  A    between atoms: O1_2  and  C2_3 
REMARK    2  A    between atoms: C2_3  and  C3_5 
REMARK    3  A    between atoms: C3_5  and  C4_6 
REMARK    4  A    between atoms: C4_6  and  C5_7 
REMARK    5  A    between atoms: C5_7  and  C6_8 
REMARK    6  A    between atoms: C6_8  and  C7_9 
REMARK    7  A    between atoms: C7_9  and  N1_10 
REMARK    8  A    between atoms: N1_10  and  C8_12 
REMARK    9  A    between atoms: C16_24  and  O3_25 
REMARK   10  A    between atoms: N5_32  and  C21_34 
REMARK   11  A    between atoms: C21_34  and  C22_35 
REMARK   12  A    between atoms: C22_35  and  N6_36 
ROOT
HETATM    1  C8  UNL     1       9.130 -15.149   4.987  1.00  0.00     0.694 A 
HETATM    2  N2  UNL     1      10.069 -14.342   4.423  1.00  0.00    -0.175 N 
ATOM      3  H2  UNL     1      10.538 -13.660   5.020  1.00  0.00     0.186 HD
HETATM    4  C9  UNL     1      10.416 -14.391   3.115  1.00  0.00     0.147 A 
HETATM    5  C10 UNL     1      11.484 -13.569   2.586  1.00  0.00     0.023 A 
HETATM    6  C11 UNL     1      12.344 -12.988   3.515  1.00  0.00     0.033 A 
HETATM    7  C12 UNL     1      13.389 -12.162   3.172  1.00  0.00     0.089 A 
HETATM    8  N3  UNL     1      13.576 -11.913   1.884  1.00  0.00    -0.365 N 
ATOM      9  H3  UNL     1      14.346 -11.304   1.608  1.00  0.00     0.165 HD
HETATM   10  C13 UNL     1      12.794 -12.430   0.934  1.00  0.00     0.043 A 
HETATM   11  C14 UNL     1      13.005 -12.142  -0.396  1.00  0.00     0.033 A 
HETATM   12  C15 UNL     1      12.208 -12.649  -1.386  1.00  0.00     0.039 A 
HETATM   13  C16 UNL     1      11.169 -13.467  -1.039  1.00  0.00     0.069 A 
HETATM   14  C18 UNL     1      10.910 -13.793   0.300  1.00  0.00     0.051 A 
HETATM   15  C19 UNL     1      11.731 -13.270   1.274  1.00  0.00     0.007 A 
HETATM   16  N4  UNL     1       9.762 -15.304   2.406  1.00  0.00    -0.175 N 
ATOM     17  H4  UNL     1       9.988 -15.382   1.415  1.00  0.00     0.186 HD
HETATM   18  C20 UNL     1       8.831 -16.129   2.891  1.00  0.00     0.694 A 
HETATM   19  N5  UNL     1       8.237 -16.975   2.144  1.00  0.00    -0.224 N 
ATOM     20  H5  UNL     1       7.542 -17.560   2.608  1.00  0.00     0.177 HD
HETATM   21  N9  UNL     1       8.513 -16.042   4.226  1.00  0.00    -0.022 N 
ATOM     22  H9  UNL     1       7.807 -16.659   4.628  1.00  0.00     0.203 HD
ENDROOT
BRANCH  19  23
HETATM   23  C21 UNL     1       8.409 -17.215   0.750  1.00  0.00     0.157 C 
BRANCH  23  24
HETATM   24  C22 UNL     1       7.177 -17.832   0.083  1.00  0.00     0.141 C 
BRANCH  24  25
HETATM   25  N6  UNL     1       7.018 -17.183  -1.175  1.00  0.00    -0.374 N 
HETATM   26  C23 UNL     1       6.202 -17.553  -2.104  1.00  0.00     0.113 C 
HETATM   27  C24 UNL     1       6.305 -16.627  -3.302  1.00  0.00     0.133 C 
HETATM   28  N8  UNL     1       5.439 -18.723  -1.739  1.00  0.00    -0.366 N 
HETATM   29  N7  UNL     1       6.334 -17.244  -4.552  1.00  0.00    -0.390 N 
HETATM   30  C25 UNL     1       7.540 -16.971  -5.310  1.00  0.00     0.149 C 
HETATM   31  C26 UNL     1       5.239 -17.401  -5.426  1.00  0.00     0.133 C 
HETATM   32  C27 UNL     1       4.476 -18.770  -5.239  1.00  0.00     0.101 C 
HETATM   33  C28 UNL     1       4.619 -19.080  -3.893  1.00  0.00    -0.162 C 
HETATM   34  C29 UNL     1       4.613 -19.654  -2.600  1.00  0.00     0.201 C 
ATOM     35  H8  UNL     1       5.460 -18.959  -0.748  1.00  0.00     0.162 HD
ATOM     36  H6  UNL     1       7.593 -16.361  -1.355  1.00  0.00     0.161 HD
ENDBRANCH  24  25
ENDBRANCH  23  24
ENDBRANCH  19  23
BRANCH   1  37
HETATM   37  N1  UNL     1       8.856 -15.021   6.240  1.00  0.00    -0.226 N 
ATOM     38  H1  UNL     1       8.230 -14.278   6.550  1.00  0.00     0.177 HD
BRANCH  37  39
HETATM   39  C7  UNL     1       9.440 -15.937   7.219  1.00  0.00     0.138 C 
BRANCH  39  40
HETATM   40  C6  UNL     1       9.027 -15.572   8.604  1.00  0.00     0.020 C 
BRANCH  40  41
HETATM   41  C5  UNL     1       9.965 -14.798   9.435  1.00  0.00     0.002 C 
BRANCH  41  42
HETATM   42  C4  UNL     1      11.312 -14.443   8.980  1.00  0.00     0.010 C 
BRANCH  42  43
HETATM   43  C3  UNL     1      11.812 -13.061   9.052  1.00  0.00     0.111 C 
BRANCH  43  44
HETATM   44  C2  UNL     1      11.301 -12.296   7.829  1.00  0.00     0.258 C 
HETATM   45  O2  UNL     1      11.164 -12.927   6.763  1.00  0.00    -0.265 OA
BRANCH  44  46
HETATM   46  O1  UNL     1      11.002 -10.969   7.894  1.00  0.00    -0.326 OA
HETATM   47  C1  UNL     1      12.064 -10.008   7.891  1.00  0.00     0.213 C 
ENDBRANCH  44  46
ENDBRANCH  43  44
ENDBRANCH  42  43
ENDBRANCH  41  42
ENDBRANCH  40  41
ENDBRANCH  39  40
ENDBRANCH  37  39
ENDBRANCH   1  37
BRANCH  13  48
HETATM   48  O3  UNL     1      10.328 -14.007  -2.013  1.00  0.00    -0.356 OA
HETATM   49  C17 UNL     1       8.991 -14.326  -1.653  1.00  0.00     0.210 C 
ENDBRANCH  13  48
TORSDOF 12
ENDMDL
