MODEL 1
REMARK VINA RESULT: -7.935322669      0.000      0.000
REMARK  13 active torsions:
REMARK  status: ('A' for Active; 'I' for Inactive)
REMARK    1  A    between atoms: C2_2  and  O1_3 
REMARK    2  A    between atoms: O1_3  and  C3_4 
REMARK    3  A    between atoms: C3_4  and  C4_6 
REMARK    4  A    between atoms: C4_6  and  C5_7 
REMARK    5  A    between atoms: C5_7  and  C6_8 
REMARK    6  A    between atoms: C6_8  and  C7_9 
REMARK    7  A    between atoms: C6_8  and  C21_36 
REMARK       I    between atoms: C7_9  and  N1_11 
REMARK    8  A    between atoms: N1_11  and  N2_13 
REMARK    9  A    between atoms: C8_14  and  O4_15 
REMARK   10  A    between atoms: C9_17  and  C10_18 
REMARK   11  A    between atoms: C10_18  and  C11_19 
REMARK       I    between atoms: C11_19  and  N3_21 
REMARK   12  A    between atoms: C15_28  and  O6_29 
REMARK   13  A    between atoms: C17_31  and  O7_32 
ROOT
HETATM    1  N2  UNL     1       9.988 -14.148   2.859  1.00  0.00    -0.231 N 
HETATM    2  C8  UNL     1       8.885 -14.466   2.059  1.00  0.00     0.161 C 
HETATM    3  C9  UNL     1       7.927 -15.532   2.441  1.00  0.00     0.167 C 
HETATM    4  N4  UNL     1       7.843 -15.660   3.854  1.00  0.00    -0.375 N 
ATOM      5  H4  UNL     1       6.968 -15.975   4.272  1.00  0.00     0.160 HD
HETATM    6  C13 UNL     1       8.933 -15.366   4.693  1.00  0.00     0.060 A 
HETATM    7  C14 UNL     1       8.895 -15.847   5.999  1.00  0.00     0.071 A 
HETATM    8  C15 UNL     1       9.966 -15.560   6.835  1.00  0.00     0.103 A 
HETATM    9  C17 UNL     1      11.046 -14.812   6.379  1.00  0.00     0.103 A 
HETATM   10  C19 UNL     1      11.037 -14.358   5.077  1.00  0.00     0.073 A 
HETATM   11  C20 UNL     1       9.993 -14.625   4.224  1.00  0.00     0.088 A 
ENDROOT
BRANCH   1  12
HETATM   12  N1  UNL     1      11.091 -13.432   2.461  1.00  0.00    -0.260 N 
HETATM   13  C7  UNL     1      12.256 -13.881   1.810  1.00  0.00     0.245 C 
HETATM   14  O3  UNL     1      12.482 -15.075   1.473  1.00  0.00    -0.271 OA
ATOM     15  H1  UNL     1      11.061 -12.433   2.665  1.00  0.00     0.190 HD
BRANCH  13  16
HETATM   16  C6  UNL     1      13.318 -12.837   1.499  1.00  0.00     0.113 C 
BRANCH  16  17
HETATM   17  C5  UNL     1      12.773 -12.005   0.392  1.00  0.00     0.028 C 
BRANCH  17  18
HETATM   18  C4  UNL     1      12.673 -12.719  -0.919  1.00  0.00     0.112 C 
BRANCH  18  19
HETATM   19  C3  UNL     1      11.419 -13.432  -1.159  1.00  0.00     0.258 C 
HETATM   20  O2  UNL     1      10.328 -12.838  -0.938  1.00  0.00    -0.265 OA
BRANCH  19  21
HETATM   21  O1  UNL     1      11.317 -14.729  -1.619  1.00  0.00    -0.322 OA
BRANCH  21  22
HETATM   22  C2  UNL     1      10.250 -15.601  -1.441  1.00  0.00     0.174 C 
HETATM   23  C1  UNL     1       9.547 -15.968  -2.726  1.00  0.00     0.034 C 
ENDBRANCH  21  22
ENDBRANCH  19  21
ENDBRANCH  18  19
ENDBRANCH  17  18
ENDBRANCH  16  17
BRANCH  16  24
HETATM   24  C21 UNL     1      13.719 -12.096   2.686  1.00  0.00    -0.038 A 
HETATM   25  C22 UNL     1      13.204 -10.829   2.870  1.00  0.00     0.015 A 
HETATM   26  C23 UNL     1      13.557 -10.088   4.003  1.00  0.00    -0.061 A 
HETATM   27  C24 UNL     1      12.978  -8.713   4.163  1.00  0.00     0.048 C 
HETATM   28  C25 UNL     1      14.404 -10.585   4.939  1.00  0.00     0.014 A 
HETATM   29  C26 UNL     1      14.919 -11.836   4.767  1.00  0.00    -0.055 A 
HETATM   30  C27 UNL     1      15.843 -12.388   5.785  1.00  0.00     0.049 C 
HETATM   31  C28 UNL     1      14.573 -12.582   3.643  1.00  0.00    -0.049 A 
HETATM   32  C29 UNL     1      15.160 -13.917   3.511  1.00  0.00     0.049 C 
ENDBRANCH  16  24
ENDBRANCH  13  16
ENDBRANCH   1  12
BRANCH   2  33
HETATM   33  O4  UNL     1       8.671 -13.827   0.946  1.00  0.00    -0.346 OA
ATOM     34  H4  UNL     1       8.633 -14.296   0.121  1.00  0.00     0.219 HD
ENDBRANCH   2  33
BRANCH   3  35
HETATM   35  C10 UNL     1       8.226 -16.816   1.695  1.00  0.00     0.136 C 
BRANCH  35  36
HETATM   36  C11 UNL     1       7.310 -17.122   0.597  1.00  0.00     0.219 C 
HETATM   37  O5  UNL     1       6.943 -16.235  -0.206  1.00  0.00    -0.274 OA
HETATM   38  N3  UNL     1       6.783 -18.432   0.369  1.00  0.00    -0.365 N 
HETATM   39  C12 UNL     1       5.892 -18.746  -0.714  1.00  0.00     0.149 C 
ATOM     40  H3  UNL     1       7.053 -19.181   1.006  1.00  0.00     0.161 HD
ENDBRANCH  35  36
ENDBRANCH   3  35
BRANCH   9  41
HETATM   41  O7  UNL     1      12.107 -14.523   7.198  1.00  0.00    -0.353 OA
HETATM   42  C18 UNL     1      12.380 -13.181   7.537  1.00  0.00     0.210 C 
ENDBRANCH   9  41
BRANCH   8  43
HETATM   43  O6  UNL     1      10.002 -15.998   8.133  1.00  0.00    -0.353 OA
HETATM   44  C16 UNL     1       9.543 -15.298   9.262  1.00  0.00     0.210 C 
ENDBRANCH   8  43
TORSDOF 13
ENDMDL
MODEL 2
REMARK VINA RESULT: -7.659481566      1.653      5.067
REMARK  13 active torsions:
REMARK  status: ('A' for Active; 'I' for Inactive)
REMARK    1  A    between atoms: C2_2  and  O1_3 
REMARK    2  A    between atoms: O1_3  and  C3_4 
REMARK    3  A    between atoms: C3_4  and  C4_6 
REMARK    4  A    between atoms: C4_6  and  C5_7 
REMARK    5  A    between atoms: C5_7  and  C6_8 
REMARK    6  A    between atoms: C6_8  and  C7_9 
REMARK    7  A    between atoms: C6_8  and  C21_36 
REMARK       I    between atoms: C7_9  and  N1_11 
REMARK    8  A    between atoms: N1_11  and  N2_13 
REMARK    9  A    between atoms: C8_14  and  O4_15 
REMARK   10  A    between atoms: C9_17  and  C10_18 
REMARK   11  A    between atoms: C10_18  and  C11_19 
REMARK       I    between atoms: C11_19  and  N3_21 
REMARK   12  A    between atoms: C15_28  and  O6_29 
REMARK   13  A    between atoms: C17_31  and  O7_32 
ROOT
HETATM    1  N2  UNL     1      10.719 -14.099   3.942  1.00  0.00    -0.231 N 
HETATM    2  C8  UNL     1      10.831 -14.800   5.148  1.00  0.00     0.161 C 
HETATM    3  C9  UNL     1       9.700 -15.585   5.700  1.00  0.00     0.167 C 
HETATM    4  N4  UNL     1       8.869 -16.082   4.660  1.00  0.00    -0.375 N 
ATOM      5  H4  UNL     1       8.368 -16.959   4.803  1.00  0.00     0.160 HD
HETATM    6  C13 UNL     1       8.716 -15.400   3.440  1.00  0.00     0.060 A 
HETATM    7  C14 UNL     1       7.637 -15.748   2.632  1.00  0.00     0.071 A 
HETATM    8  C15 UNL     1       7.479 -15.080   1.425  1.00  0.00     0.103 A 
HETATM    9  C17 UNL     1       8.376 -14.093   1.034  1.00  0.00     0.103 A 
HETATM   10  C19 UNL     1       9.429 -13.785   1.869  1.00  0.00     0.073 A 
HETATM   11  C20 UNL     1       9.614 -14.426   3.070  1.00  0.00     0.088 A 
ENDROOT
BRANCH   1  12
HETATM   12  N1  UNL     1      11.560 -13.101   3.511  1.00  0.00    -0.260 N 
HETATM   13  C7  UNL     1      12.948 -13.144   3.281  1.00  0.00     0.245 C 
HETATM   14  O3  UNL     1      13.677 -14.160   3.442  1.00  0.00    -0.271 OA
ATOM     15  H1  UNL     1      11.114 -12.201   3.333  1.00  0.00     0.190 HD
BRANCH  13  16
HETATM   16  C6  UNL     1      13.608 -11.859   2.804  1.00  0.00     0.113 C 
BRANCH  16  17
HETATM   17  C5  UNL     1      12.931 -11.489   1.531  1.00  0.00     0.028 C 
BRANCH  17  18
HETATM   18  C4  UNL     1      13.271 -12.378   0.376  1.00  0.00     0.112 C 
BRANCH  18  19
HETATM   19  C3  UNL     1      12.133 -12.986  -0.312  1.00  0.00     0.258 C 
HETATM   20  O2  UNL     1      11.227 -12.238  -0.772  1.00  0.00    -0.265 OA
BRANCH  19  21
HETATM   21  O1  UNL     1      11.956 -14.340  -0.512  1.00  0.00    -0.322 OA
BRANCH  21  22
HETATM   22  C2  UNL     1      12.293 -15.368   0.360  1.00  0.00     0.174 C 
HETATM   23  C1  UNL     1      11.214 -16.413   0.511  1.00  0.00     0.034 C 
ENDBRANCH  21  22
ENDBRANCH  19  21
ENDBRANCH  18  19
ENDBRANCH  17  18
ENDBRANCH  16  17
BRANCH  16  24
HETATM   24  C21 UNL     1      13.597 -10.827   3.829  1.00  0.00    -0.038 A 
HETATM   25  C22 UNL     1      12.868  -9.678   3.593  1.00  0.00     0.015 A 
HETATM   26  C23 UNL     1      12.823  -8.666   4.558  1.00  0.00    -0.061 A 
HETATM   27  C24 UNL     1      12.023  -7.433   4.259  1.00  0.00     0.048 C 
HETATM   28  C25 UNL     1      13.485  -8.781   5.736  1.00  0.00     0.014 A 
HETATM   29  C26 UNL     1      14.208  -9.912   5.981  1.00  0.00    -0.055 A 
HETATM   30  C27 UNL     1      14.932 -10.047   7.266  1.00  0.00     0.049 C 
HETATM   31  C28 UNL     1      14.258 -10.925   5.027  1.00  0.00    -0.049 A 
HETATM   32  C29 UNL     1      15.053 -12.113   5.344  1.00  0.00     0.049 C 
ENDBRANCH  16  24
ENDBRANCH  13  16
ENDBRANCH   1  12
BRANCH   2  33
HETATM   33  O4  UNL     1      11.944 -14.779   5.823  1.00  0.00    -0.346 OA
ATOM     34  H4  UNL     1      11.955 -14.478   6.723  1.00  0.00     0.219 HD
ENDBRANCH   2  33
BRANCH   3  35
HETATM   35  C10 UNL     1       8.982 -14.805   6.781  1.00  0.00     0.136 C 
BRANCH  35  36
HETATM   36  C11 UNL     1       9.624 -14.831   8.094  1.00  0.00     0.219 C 
HETATM   37  O5  UNL     1       9.420 -15.769   8.896  1.00  0.00    -0.274 OA
HETATM   38  N3  UNL     1      10.515 -13.806   8.544  1.00  0.00    -0.365 N 
HETATM   39  C12 UNL     1      11.161 -13.828   9.827  1.00  0.00     0.149 C 
ATOM     40  H3  UNL     1      10.702 -13.019   7.921  1.00  0.00     0.161 HD
ENDBRANCH  35  36
ENDBRANCH   3  35
BRANCH   9  41
HETATM   41  O7  UNL     1       8.229 -13.430  -0.157  1.00  0.00    -0.353 OA
HETATM   42  C18 UNL     1       8.543 -14.089  -1.365  1.00  0.00     0.210 C 
ENDBRANCH   9  41
BRANCH   8  43
HETATM   43  O6  UNL     1       6.442 -15.366   0.576  1.00  0.00    -0.353 OA
HETATM   44  C16 UNL     1       5.401 -16.281   0.809  1.00  0.00     0.210 C 
ENDBRANCH   8  43
TORSDOF 13
ENDMDL
MODEL 3
REMARK VINA RESULT: -7.498786247      3.299      7.420
REMARK  13 active torsions:
REMARK  status: ('A' for Active; 'I' for Inactive)
REMARK    1  A    between atoms: C2_2  and  O1_3 
REMARK    2  A    between atoms: O1_3  and  C3_4 
REMARK    3  A    between atoms: C3_4  and  C4_6 
REMARK    4  A    between atoms: C4_6  and  C5_7 
REMARK    5  A    between atoms: C5_7  and  C6_8 
REMARK    6  A    between atoms: C6_8  and  C7_9 
REMARK    7  A    between atoms: C6_8  and  C21_36 
REMARK       I    between atoms: C7_9  and  N1_11 
REMARK    8  A    between atoms: N1_11  and  N2_13 
REMARK    9  A    between atoms: C8_14  and  O4_15 
REMARK   10  A    between atoms: C9_17  and  C10_18 
REMARK   11  A    between atoms: C10_18  and  C11_19 
REMARK       I    between atoms: C11_19  and  N3_21 
REMARK   12  A    between atoms: C15_28  and  O6_29 
REMARK   13  A    between atoms: C17_31  and  O7_32 
ROOT
HETATM    1  N2  UNL     1      12.961 -13.242   6.268  1.00  0.00    -0.231 N 
HETATM    2  C8  UNL     1      12.752 -14.103   5.186  1.00  0.00     0.161 C 
HETATM    3  C9  UNL     1      13.048 -13.690   3.793  1.00  0.00     0.167 C 
HETATM    4  N4  UNL     1      14.107 -12.743   3.756  1.00  0.00    -0.375 N 
ATOM      5  H4  UNL     1      14.715 -12.711   2.938  1.00  0.00     0.160 HD
HETATM    6  C13 UNL     1      14.342 -11.849   4.816  1.00  0.00     0.060 A 
HETATM    7  C14 UNL     1      15.146 -10.741   4.565  1.00  0.00     0.071 A 
HETATM    8  C15 UNL     1      15.384  -9.853   5.606  1.00  0.00     0.103 A 
HETATM    9  C17 UNL     1      14.835 -10.067   6.864  1.00  0.00     0.103 A 
HETATM   10  C19 UNL     1      14.045 -11.180   7.064  1.00  0.00     0.073 A 
HETATM   11  C20 UNL     1      13.790 -12.077   6.055  1.00  0.00     0.088 A 
ENDROOT
BRANCH   1  12
HETATM   12  N1  UNL     1      12.430 -13.389   7.527  1.00  0.00    -0.260 N 
HETATM   13  C7  UNL     1      11.311 -12.755   8.102  1.00  0.00     0.245 C 
HETATM   14  O3  UNL     1      10.581 -11.908   7.518  1.00  0.00    -0.271 OA
ATOM     15  H1  UNL     1      12.915 -14.052   8.132  1.00  0.00     0.190 HD
BRANCH  13  16
HETATM   16  C6  UNL     1      10.969 -13.127   9.536  1.00  0.00     0.113 C 
BRANCH  16  17
HETATM   17  C5  UNL     1      10.655 -14.582   9.526  1.00  0.00     0.028 C 
BRANCH  17  18
HETATM   18  C4  UNL     1       9.367 -14.926   8.848  1.00  0.00     0.112 C 
BRANCH  18  19
HETATM   19  C3  UNL     1       9.489 -15.683   7.603  1.00  0.00     0.258 C 
HETATM   20  O2  UNL     1      10.507 -16.406   7.425  1.00  0.00    -0.265 OA
BRANCH  19  21
HETATM   21  O1  UNL     1       8.566 -15.679   6.577  1.00  0.00    -0.322 OA
BRANCH  21  22
HETATM   22  C2  UNL     1       8.762 -15.242   5.272  1.00  0.00     0.174 C 
HETATM   23  C1  UNL     1       8.807 -13.739   5.137  1.00  0.00     0.034 C 
ENDBRANCH  21  22
ENDBRANCH  19  21
ENDBRANCH  18  19
ENDBRANCH  17  18
ENDBRANCH  16  17
BRANCH  16  24
HETATM   24  C21 UNL     1      12.014 -12.729  10.467  1.00  0.00    -0.038 A 
HETATM   25  C22 UNL     1      12.971 -13.661  10.814  1.00  0.00     0.015 A 
HETATM   26  C23 UNL     1      13.998 -13.315  11.698  1.00  0.00    -0.061 A 
HETATM   27  C24 UNL     1      15.015 -14.360  12.051  1.00  0.00     0.048 C 
HETATM   28  C25 UNL     1      14.082 -12.072  12.234  1.00  0.00     0.014 A 
HETATM   29  C26 UNL     1      13.142 -11.142  11.899  1.00  0.00    -0.055 A 
HETATM   30  C27 UNL     1      13.227  -9.781  12.477  1.00  0.00     0.049 C 
HETATM   31  C28 UNL     1      12.116 -11.477  11.018  1.00  0.00    -0.049 A 
HETATM   32  C29 UNL     1      11.134 -10.439  10.699  1.00  0.00     0.049 C 
ENDBRANCH  16  24
ENDBRANCH  13  16
ENDBRANCH   1  12
BRANCH   2  33
HETATM   33  O4  UNL     1      12.285 -15.303   5.378  1.00  0.00    -0.346 OA
ATOM     34  H4  UNL     1      12.338 -15.956   4.690  1.00  0.00     0.219 HD
ENDBRANCH   2  33
BRANCH   3  35
HETATM   35  C10 UNL     1      11.782 -13.267   3.077  1.00  0.00     0.136 C 
BRANCH  35  36
HETATM   36  C11 UNL     1      11.253 -14.243   2.126  1.00  0.00     0.219 C 
HETATM   37  O5  UNL     1      11.000 -13.922   0.943  1.00  0.00    -0.274 OA
HETATM   38  N3  UNL     1      10.996 -15.606   2.473  1.00  0.00    -0.365 N 
HETATM   39  C12 UNL     1      10.488 -16.576   1.543  1.00  0.00     0.149 C 
ATOM     40  H3  UNL     1      11.183 -15.906   3.431  1.00  0.00     0.161 HD
ENDBRANCH  35  36
ENDBRANCH   3  35
BRANCH   9  41
HETATM   41  O7  UNL     1      15.066  -9.197   7.898  1.00  0.00    -0.353 OA
HETATM   42  C18 UNL     1      14.019  -8.878   8.789  1.00  0.00     0.210 C 
ENDBRANCH   9  41
BRANCH   8  43
HETATM   43  O6  UNL     1      16.164  -8.739   5.436  1.00  0.00    -0.353 OA
HETATM   44  C16 UNL     1      16.038  -7.780   4.416  1.00  0.00     0.210 C 
ENDBRANCH   8  43
TORSDOF 13
ENDMDL
MODEL 4
REMARK VINA RESULT: -7.387799223      2.292      7.121
REMARK  13 active torsions:
REMARK  status: ('A' for Active; 'I' for Inactive)
REMARK    1  A    between atoms: C2_2  and  O1_3 
REMARK    2  A    between atoms: O1_3  and  C3_4 
REMARK    3  A    between atoms: C3_4  and  C4_6 
REMARK    4  A    between atoms: C4_6  and  C5_7 
REMARK    5  A    between atoms: C5_7  and  C6_8 
REMARK    6  A    between atoms: C6_8  and  C7_9 
REMARK    7  A    between atoms: C6_8  and  C21_36 
REMARK       I    between atoms: C7_9  and  N1_11 
REMARK    8  A    between atoms: N1_11  and  N2_13 
REMARK    9  A    between atoms: C8_14  and  O4_15 
REMARK   10  A    between atoms: C9_17  and  C10_18 
REMARK   11  A    between atoms: C10_18  and  C11_19 
REMARK       I    between atoms: C11_19  and  N3_21 
REMARK   12  A    between atoms: C15_28  and  O6_29 
REMARK   13  A    between atoms: C17_31  and  O7_32 
ROOT
HETATM    1  N2  UNL     1      10.004 -14.125   4.038  1.00  0.00    -0.231 N 
HETATM    2  C8  UNL     1       9.471 -13.889   5.310  1.00  0.00     0.161 C 
HETATM    3  C9  UNL     1      10.340 -13.712   6.499  1.00  0.00     0.167 C 
HETATM    4  N4  UNL     1      11.593 -13.148   6.135  1.00  0.00    -0.375 N 
ATOM      5  H4  UNL     1      12.087 -12.563   6.808  1.00  0.00     0.160 HD
HETATM    6  C13 UNL     1      12.171 -13.373   4.873  1.00  0.00     0.060 A 
HETATM    7  C14 UNL     1      13.527 -13.096   4.721  1.00  0.00     0.071 A 
HETATM    8  C15 UNL     1      14.106 -13.314   3.479  1.00  0.00     0.103 A 
HETATM    9  C17 UNL     1      13.352 -13.796   2.415  1.00  0.00     0.103 A 
HETATM   10  C19 UNL     1      12.013 -14.056   2.616  1.00  0.00     0.073 A 
HETATM   11  C20 UNL     1      11.409 -13.851   3.833  1.00  0.00     0.088 A 
ENDROOT
BRANCH   1  12
HETATM   12  N1  UNL     1       9.316 -14.619   2.956  1.00  0.00    -0.260 N 
HETATM   13  C7  UNL     1       9.295 -15.927   2.436  1.00  0.00     0.245 C 
HETATM   14  O3  UNL     1       9.938 -16.904   2.908  1.00  0.00    -0.271 OA
ATOM     15  H1  UNL     1       8.738 -13.941   2.459  1.00  0.00     0.190 HD
BRANCH  13  16
HETATM   16  C6  UNL     1       8.428 -16.168   1.210  1.00  0.00     0.113 C 
BRANCH  16  17
HETATM   17  C5  UNL     1       7.059 -15.704   1.569  1.00  0.00     0.028 C 
BRANCH  17  18
HETATM   18  C4  UNL     1       6.043 -16.800   1.648  1.00  0.00     0.112 C 
BRANCH  18  19
HETATM   19  C3  UNL     1       4.791 -16.556   0.935  1.00  0.00     0.258 C 
HETATM   20  O2  UNL     1       3.704 -16.908   1.471  1.00  0.00    -0.265 OA
BRANCH  19  21
HETATM   21  O1  UNL     1       4.685 -15.958  -0.305  1.00  0.00    -0.322 OA
BRANCH  21  22
HETATM   22  C2  UNL     1       4.085 -16.485  -1.442  1.00  0.00     0.174 C 
HETATM   23  C1  UNL     1       4.455 -17.924  -1.711  1.00  0.00     0.034 C 
ENDBRANCH  21  22
ENDBRANCH  19  21
ENDBRANCH  18  19
ENDBRANCH  17  18
ENDBRANCH  16  17
BRANCH  16  24
HETATM   24  C21 UNL     1       8.990 -15.556   0.015  1.00  0.00    -0.038 A 
HETATM   25  C22 UNL     1       9.800 -14.448   0.167  1.00  0.00     0.015 A 
HETATM   26  C23 UNL     1      10.369 -13.838  -0.956  1.00  0.00    -0.061 A 
HETATM   27  C24 UNL     1      11.239 -12.634  -0.747  1.00  0.00     0.048 C 
HETATM   28  C25 UNL     1      10.143 -14.308  -2.208  1.00  0.00     0.014 A 
HETATM   29  C26 UNL     1       9.345 -15.402  -2.370  1.00  0.00    -0.055 A 
HETATM   30  C27 UNL     1       9.096 -15.924  -3.734  1.00  0.00     0.049 C 
HETATM   31  C28 UNL     1       8.775 -16.018  -1.259  1.00  0.00    -0.049 A 
HETATM   32  C29 UNL     1       7.925 -17.186  -1.495  1.00  0.00     0.049 C 
ENDBRANCH  16  24
ENDBRANCH  13  16
ENDBRANCH   1  12
BRANCH   2  33
HETATM   33  O4  UNL     1       8.183 -13.820   5.483  1.00  0.00    -0.346 OA
ATOM     34  H4  UNL     1       7.772 -12.996   5.715  1.00  0.00     0.219 HD
ENDBRANCH   2  33
BRANCH   3  35
HETATM   35  C10 UNL     1      10.420 -14.994   7.301  1.00  0.00     0.136 C 
BRANCH  35  36
HETATM   36  C11 UNL     1      10.219 -14.837   8.741  1.00  0.00     0.219 C 
HETATM   37  O5  UNL     1       9.450 -15.595   9.373  1.00  0.00    -0.274 OA
HETATM   38  N3  UNL     1      10.876 -13.827   9.512  1.00  0.00    -0.365 N 
HETATM   39  C12 UNL     1      10.694 -13.671  10.928  1.00  0.00     0.149 C 
ATOM     40  H3  UNL     1      11.505 -13.184   9.031  1.00  0.00     0.161 HD
ENDBRANCH  35  36
ENDBRANCH   3  35
BRANCH   9  41
HETATM   41  O7  UNL     1      13.916 -14.013   1.185  1.00  0.00    -0.353 OA
HETATM   42  C18 UNL     1      13.468 -15.093   0.394  1.00  0.00     0.210 C 
ENDBRANCH   9  41
BRANCH   8  43
HETATM   43  O6  UNL     1      15.435 -13.065   3.251  1.00  0.00    -0.353 OA
HETATM   44  C16 UNL     1      16.517 -13.842   3.700  1.00  0.00     0.210 C 
ENDBRANCH   8  43
TORSDOF 13
ENDMDL
MODEL 5
REMARK VINA RESULT: -7.369526365      2.682      6.793
REMARK  13 active torsions:
REMARK  status: ('A' for Active; 'I' for Inactive)
REMARK    1  A    between atoms: C2_2  and  O1_3 
REMARK    2  A    between atoms: O1_3  and  C3_4 
REMARK    3  A    between atoms: C3_4  and  C4_6 
REMARK    4  A    between atoms: C4_6  and  C5_7 
REMARK    5  A    between atoms: C5_7  and  C6_8 
REMARK    6  A    between atoms: C6_8  and  C7_9 
REMARK    7  A    between atoms: C6_8  and  C21_36 
REMARK       I    between atoms: C7_9  and  N1_11 
REMARK    8  A    between atoms: N1_11  and  N2_13 
REMARK    9  A    between atoms: C8_14  and  O4_15 
REMARK   10  A    between atoms: C9_17  and  C10_18 
REMARK   11  A    between atoms: C10_18  and  C11_19 
REMARK       I    between atoms: C11_19  and  N3_21 
REMARK   12  A    between atoms: C15_28  and  O6_29 
REMARK   13  A    between atoms: C17_31  and  O7_32 
ROOT
HETATM    1  N2  UNL     1      12.016 -13.881   4.408  1.00  0.00    -0.231 N 
HETATM    2  C8  UNL     1      11.539 -14.841   5.308  1.00  0.00     0.161 C 
HETATM    3  C9  UNL     1      10.227 -15.505   5.116  1.00  0.00     0.167 C 
HETATM    4  N4  UNL     1       9.899 -15.596   3.737  1.00  0.00    -0.375 N 
ATOM      5  H4  UNL     1       9.323 -16.374   3.415  1.00  0.00     0.160 HD
HETATM    6  C13 UNL     1      10.344 -14.645   2.802  1.00  0.00     0.060 A 
HETATM    7  C14 UNL     1       9.703 -14.598   1.567  1.00  0.00     0.071 A 
HETATM    8  C15 UNL     1      10.137 -13.663   0.637  1.00  0.00     0.103 A 
HETATM    9  C17 UNL     1      11.184 -12.797   0.932  1.00  0.00     0.103 A 
HETATM   10  C19 UNL     1      11.787 -12.882   2.169  1.00  0.00     0.073 A 
HETATM   11  C20 UNL     1      11.382 -13.796   3.112  1.00  0.00     0.088 A 
ENDROOT
BRANCH   1  12
HETATM   12  N1  UNL     1      13.031 -12.986   4.649  1.00  0.00    -0.260 N 
HETATM   13  C7  UNL     1      13.254 -12.176   5.778  1.00  0.00     0.245 C 
HETATM   14  O3  UNL     1      12.519 -12.144   6.802  1.00  0.00    -0.271 OA
ATOM     15  H1  UNL     1      13.720 -12.897   3.902  1.00  0.00     0.190 HD
BRANCH  13  16
HETATM   16  C6  UNL     1      14.478 -11.274   5.749  1.00  0.00     0.113 C 
BRANCH  16  17
HETATM   17  C5  UNL     1      15.246 -11.651   4.530  1.00  0.00     0.028 C 
BRANCH  17  18
HETATM   18  C4  UNL     1      16.577 -12.271   4.813  1.00  0.00     0.112 C 
BRANCH  18  19
HETATM   19  C3  UNL     1      17.670 -11.336   5.075  1.00  0.00     0.258 C 
HETATM   20  O2  UNL     1      18.489 -11.598   5.998  1.00  0.00    -0.265 OA
BRANCH  19  21
HETATM   21  O1  UNL     1      17.893 -10.161   4.386  1.00  0.00    -0.322 OA
BRANCH  21  22
HETATM   22  C2  UNL     1      17.614  -8.869   4.817  1.00  0.00     0.174 C 
HETATM   23  C1  UNL     1      16.706  -8.103   3.885  1.00  0.00     0.034 C 
ENDBRANCH  21  22
ENDBRANCH  19  21
ENDBRANCH  18  19
ENDBRANCH  17  18
ENDBRANCH  16  17
BRANCH  16  24
HETATM   24  C21 UNL     1      14.120  -9.866   5.839  1.00  0.00    -0.038 A 
HETATM   25  C22 UNL     1      13.278  -9.342   4.879  1.00  0.00     0.015 A 
HETATM   26  C23 UNL     1      12.902  -7.996   4.936  1.00  0.00    -0.061 A 
HETATM   27  C24 UNL     1      11.989  -7.466   3.871  1.00  0.00     0.048 C 
HETATM   28  C25 UNL     1      13.349  -7.178   5.921  1.00  0.00     0.014 A 
HETATM   29  C26 UNL     1      14.182  -7.684   6.876  1.00  0.00    -0.055 A 
HETATM   30  C27 UNL     1      14.672  -6.798   7.957  1.00  0.00     0.049 C 
HETATM   31  C28 UNL     1      14.560  -9.023   6.828  1.00  0.00    -0.049 A 
HETATM   32  C29 UNL     1      15.459  -9.509   7.877  1.00  0.00     0.049 C 
ENDBRANCH  16  24
ENDBRANCH  13  16
ENDBRANCH   1  12
BRANCH   2  33
HETATM   33  O4  UNL     1      12.244 -15.176   6.349  1.00  0.00    -0.346 OA
ATOM     34  H4  UNL     1      11.871 -15.122   7.221  1.00  0.00     0.219 HD
ENDBRANCH   2  33
BRANCH   3  35
HETATM   35  C10 UNL     1       9.168 -14.863   5.989  1.00  0.00     0.136 C 
BRANCH  35  36
HETATM   36  C11 UNL     1       9.442 -14.902   7.424  1.00  0.00     0.219 C 
HETATM   37  O5  UNL     1       9.031 -15.845   8.136  1.00  0.00    -0.274 OA
HETATM   38  N3  UNL     1      10.186 -13.884   8.101  1.00  0.00    -0.365 N 
HETATM   39  C12 UNL     1      10.471 -13.919   9.508  1.00  0.00     0.149 C 
ATOM     40  H3  UNL     1      10.532 -13.094   7.556  1.00  0.00     0.161 HD
ENDBRANCH  35  36
ENDBRANCH   3  35
BRANCH   9  41
HETATM   41  O7  UNL     1      11.620 -11.871   0.020  1.00  0.00    -0.353 OA
HETATM   42  C18 UNL     1      12.841 -12.081  -0.657  1.00  0.00     0.210 C 
ENDBRANCH   9  41
BRANCH   8  43
HETATM   43  O6  UNL     1       9.557 -13.555  -0.600  1.00  0.00    -0.353 OA
HETATM   44  C16 UNL     1       9.746 -14.425  -1.688  1.00  0.00     0.210 C 
ENDBRANCH   8  43
TORSDOF 13
ENDMDL
