MODEL 1
REMARK VINA RESULT: -7.323956712      0.000      0.000
REMARK  7 active torsions:
REMARK  status: ('A' for Active; 'I' for Inactive)
REMARK    1  A    between atoms: C2_7  and  C3_8 
REMARK    2  A    between atoms: C3_8  and  N4_9 
REMARK       I    between atoms: N4_9  and  C4_11 
REMARK    3  A    between atoms: C5_14  and  C6_15 
REMARK    4  A    between atoms: C8_17  and  N5_18 
REMARK    5  A    between atoms: C9_25  and  N7_26 
REMARK    6  A    between atoms: N8_29  and  C11_30 
REMARK    7  A    between atoms: C13_33  and  N9_34 
ROOT
HETATM    1  C6  UNL     1     -24.484  -7.219   7.807  1.00  0.00     0.183 C 
HETATM    2  C7  UNL     1     -24.622  -8.187   8.950  1.00  0.00     0.101 C 
HETATM    3  C8  UNL     1     -26.136  -8.445   9.090  1.00  0.00     0.388 C 
HETATM    4  N6  UNL     1     -26.516  -9.089   7.865  1.00  0.00    -0.001 N 
ATOM      5  H61 UNL     1     -27.472  -9.444   7.882  1.00  0.00     0.284 HD
ATOM      6  H62 UNL     1     -26.046  -9.982   7.722  1.00  0.00     0.284 HD
HETATM    7  C9  UNL     1     -26.277  -8.126   6.763  1.00  0.00     0.444 C 
HETATM    8  O5  UNL     1     -24.924  -7.933   6.658  1.00  0.00    -0.332 OA
ENDROOT
BRANCH   7   9
HETATM    9  N7  UNL     1     -26.930  -8.644   5.576  1.00  0.00    -0.230 N 
HETATM   10  C10 UNL     1     -28.168  -9.148   5.545  1.00  0.00     0.341 A 
HETATM   11  O3  UNL     1     -28.943  -9.273   6.535  1.00  0.00    -0.246 OA
HETATM   12  N8  UNL     1     -28.548  -9.532   4.315  1.00  0.00    -0.233 N 
HETATM   13  C12 UNL     1     -27.493  -9.256   3.527  1.00  0.00     0.135 A 
HETATM   14  C13 UNL     1     -27.281  -9.425   2.157  1.00  0.00     0.146 A 
HETATM   15  C15 UNL     1     -26.480  -8.698   4.328  1.00  0.00     0.162 A 
HETATM   16  N10 UNL     1     -26.092  -9.037   1.662  1.00  0.00    -0.175 N 
HETATM   17  C14 UNL     1     -25.127  -8.505   2.424  1.00  0.00     0.679 A 
ATOM     18  H10 UNL     1     -25.918  -9.152   0.664  1.00  0.00     0.186 HD
HETATM   19  N11 UNL     1     -24.011  -8.155   1.872  1.00  0.00    -0.234 N 
HETATM   20  N12 UNL     1     -25.310  -8.335   3.745  1.00  0.00    -0.174 N 
ATOM     21 2H11 UNL     1     -23.872  -8.284   0.870  1.00  0.00     0.174 HD
ATOM     22 1H11 UNL     1     -23.276  -7.750   2.452  1.00  0.00     0.174 HD
ATOM     23  H12 UNL     1     -24.565  -7.930   4.312  1.00  0.00     0.186 HD
BRANCH  12  24
HETATM   24  C11 UNL     1     -29.795 -10.095   3.929  1.00  0.00     0.364 C 
HETATM   25  O4  UNL     1     -30.612  -9.322   3.329  1.00  0.00    -0.283 OA
ENDBRANCH  12  24
BRANCH  14  26
HETATM   26  N9  UNL     1     -28.190  -9.925   1.414  1.00  0.00    -0.383 N 
ATOM     27  H92 UNL     1     -28.958 -10.474   1.799  1.00  0.00     0.157 HD
ATOM     28  H91 UNL     1     -28.168  -9.791   0.403  1.00  0.00     0.157 HD
ENDBRANCH  14  26
ENDBRANCH   7   9
BRANCH   3  29
HETATM   29  N5  UNL     1     -26.889  -7.336   9.507  1.00  0.00    -0.050 N 
ATOM     30  H53 UNL     1     -27.216  -7.472  10.464  1.00  0.00     0.276 HD
ATOM     31  H52 UNL     1     -26.282  -6.527   9.641  1.00  0.00     0.276 HD
ATOM     32  H51 UNL     1     -27.671  -7.094   8.899  1.00  0.00     0.276 HD
ENDBRANCH   3  29
BRANCH   1  33
HETATM   33  C5  UNL     1     -23.110  -6.697   7.668  1.00  0.00     0.084 A 
HETATM   34  N1  UNL     1     -21.936  -7.339   7.749  1.00  0.00    -0.282 N 
HETATM   35  C1  UNL     1     -21.711  -8.732   7.993  1.00  0.00     0.179 C 
HETATM   36  N2  UNL     1     -20.939  -6.449   7.525  1.00  0.00    -0.240 N 
HETATM   37  N3  UNL     1     -21.459  -5.272   7.305  1.00  0.00    -0.287 N 
ATOM     38  H2  UNL     1     -19.942  -6.664   7.527  1.00  0.00     0.208 HD
HETATM   39  C2  UNL     1     -22.814  -5.376   7.382  1.00  0.00     0.071 A 
ATOM     40  H3  UNL     1     -20.937  -4.418   7.108  1.00  0.00     0.188 HD
BRANCH  39  41
HETATM   41  C3  UNL     1     -23.795  -4.267   7.176  1.00  0.00     0.186 C 
BRANCH  41  42
HETATM   42  N4  UNL     1     -23.763  -3.441   8.361  1.00  0.00    -0.330 N 
HETATM   43  C4  UNL     1     -24.825  -3.616   9.305  1.00  0.00     0.283 C 
HETATM   44  O1  UNL     1     -25.770  -4.447   9.123  1.00  0.00    -0.630 OA
HETATM   45  O2  UNL     1     -24.898  -2.894  10.487  1.00  0.00    -0.630 OA
ATOM     46  H4  UNL     1     -23.017  -2.764   8.518  1.00  0.00     0.165 HD
ENDBRANCH  41  42
ENDBRANCH  39  41
ENDBRANCH   1  33
TORSDOF 7
ENDMDL
MODEL 2
REMARK VINA RESULT: -7.080805589      1.422      1.478
REMARK  7 active torsions:
REMARK  status: ('A' for Active; 'I' for Inactive)
REMARK    1  A    between atoms: C2_7  and  C3_8 
REMARK    2  A    between atoms: C3_8  and  N4_9 
REMARK       I    between atoms: N4_9  and  C4_11 
REMARK    3  A    between atoms: C5_14  and  C6_15 
REMARK    4  A    between atoms: C8_17  and  N5_18 
REMARK    5  A    between atoms: C9_25  and  N7_26 
REMARK    6  A    between atoms: N8_29  and  C11_30 
REMARK    7  A    between atoms: C13_33  and  N9_34 
ROOT
HETATM    1  C6  UNL     1     -23.950  -7.163   8.358  1.00  0.00     0.183 C 
HETATM    2  C7  UNL     1     -24.228  -8.102   9.500  1.00  0.00     0.101 C 
HETATM    3  C8  UNL     1     -25.761  -8.263   9.536  1.00  0.00     0.388 C 
HETATM    4  N6  UNL     1     -26.095  -8.902   8.296  1.00  0.00    -0.001 N 
ATOM      5  H61 UNL     1     -27.071  -9.196   8.250  1.00  0.00     0.284 HD
ATOM      6  H62 UNL     1     -25.673  -9.825   8.197  1.00  0.00     0.284 HD
HETATM    7  C9  UNL     1     -25.720  -7.973   7.202  1.00  0.00     0.444 C 
HETATM    8  O5  UNL     1     -24.353  -7.868   7.190  1.00  0.00    -0.332 OA
ENDROOT
BRANCH   7   9
HETATM    9  N7  UNL     1     -26.321  -8.470   5.978  1.00  0.00    -0.230 N 
HETATM   10  C10 UNL     1     -27.533  -9.026   5.895  1.00  0.00     0.341 A 
HETATM   11  O3  UNL     1     -28.325  -9.227   6.860  1.00  0.00    -0.246 OA
HETATM   12  N8  UNL     1     -27.867  -9.373   4.641  1.00  0.00    -0.233 N 
HETATM   13  C12 UNL     1     -26.807  -9.019   3.892  1.00  0.00     0.135 A 
HETATM   14  C13 UNL     1     -26.555  -9.120   2.523  1.00  0.00     0.146 A 
HETATM   15  C15 UNL     1     -25.840  -8.451   4.741  1.00  0.00     0.162 A 
HETATM   16  N10 UNL     1     -25.374  -8.659   2.074  1.00  0.00    -0.175 N 
HETATM   17  C14 UNL     1     -24.452  -8.118   2.881  1.00  0.00     0.679 A 
ATOM     18  H10 UNL     1     -25.172  -8.724   1.077  1.00  0.00     0.186 HD
HETATM   19  N11 UNL     1     -23.340  -7.696   2.373  1.00  0.00    -0.234 N 
HETATM   20  N12 UNL     1     -24.674  -8.012   4.203  1.00  0.00    -0.174 N 
ATOM     21 2H11 UNL     1     -23.172  -7.776   1.370  1.00  0.00     0.174 HD
ATOM     22 1H11 UNL     1     -22.639  -7.283   2.988  1.00  0.00     0.174 HD
ATOM     23  H12 UNL     1     -23.961  -7.599   4.805  1.00  0.00     0.186 HD
BRANCH  12  24
HETATM   24  C11 UNL     1     -29.077  -9.974   4.201  1.00  0.00     0.364 C 
HETATM   25  O4  UNL     1     -29.029 -11.214   3.906  1.00  0.00    -0.283 OA
ENDBRANCH  12  24
BRANCH  14  26
HETATM   26  N9  UNL     1     -27.423  -9.628   1.737  1.00  0.00    -0.383 N 
ATOM     27  H92 UNL     1     -28.401  -9.338   1.754  1.00  0.00     0.157 HD
ATOM     28  H91 UNL     1     -27.158 -10.348   1.065  1.00  0.00     0.157 HD
ENDBRANCH  14  26
ENDBRANCH   7   9
BRANCH   3  29
HETATM   29  N5  UNL     1     -26.469  -7.103   9.887  1.00  0.00    -0.050 N 
ATOM     30  H53 UNL     1     -25.821  -6.345  10.100  1.00  0.00     0.276 HD
ATOM     31  H52 UNL     1     -26.935  -6.712   9.068  1.00  0.00     0.276 HD
ATOM     32  H51 UNL     1     -27.137  -7.220  10.649  1.00  0.00     0.276 HD
ENDBRANCH   3  29
BRANCH   1  33
HETATM   33  C5  UNL     1     -22.539  -6.730   8.309  1.00  0.00     0.084 A 
HETATM   34  N1  UNL     1     -21.422  -7.459   8.167  1.00  0.00    -0.282 N 
HETATM   35  C1  UNL     1     -21.312  -8.879   8.019  1.00  0.00     0.179 C 
HETATM   36  N2  UNL     1     -20.358  -6.621   8.151  1.00  0.00    -0.240 N 
HETATM   37  N3  UNL     1     -20.780  -5.392   8.277  1.00  0.00    -0.287 N 
ATOM     38  H2  UNL     1     -19.383  -6.904   8.056  1.00  0.00     0.208 HD
HETATM   39  C2  UNL     1     -22.137  -5.408   8.378  1.00  0.00     0.071 A 
ATOM     40  H3  UNL     1     -20.191  -4.560   8.296  1.00  0.00     0.188 HD
BRANCH  39  41
HETATM   41  C3  UNL     1     -23.024  -4.214   8.517  1.00  0.00     0.186 C 
BRANCH  41  42
HETATM   42  N4  UNL     1     -22.553  -3.218   7.582  1.00  0.00    -0.330 N 
HETATM   43  C4  UNL     1     -23.540  -2.383   6.968  1.00  0.00     0.283 C 
HETATM   44  O1  UNL     1     -24.782  -2.503   7.212  1.00  0.00    -0.630 OA
HETATM   45  O2  UNL     1     -23.212  -1.382   6.066  1.00  0.00    -0.630 OA
ATOM     46  H4  UNL     1     -21.561  -3.115   7.370  1.00  0.00     0.165 HD
ENDBRANCH  41  42
ENDBRANCH  39  41
ENDBRANCH   1  33
TORSDOF 7
ENDMDL
MODEL 3
REMARK VINA RESULT: -7.055012572      1.745      3.192
REMARK  7 active torsions:
REMARK  status: ('A' for Active; 'I' for Inactive)
REMARK    1  A    between atoms: C2_7  and  C3_8 
REMARK    2  A    between atoms: C3_8  and  N4_9 
REMARK       I    between atoms: N4_9  and  C4_11 
REMARK    3  A    between atoms: C5_14  and  C6_15 
REMARK    4  A    between atoms: C8_17  and  N5_18 
REMARK    5  A    between atoms: C9_25  and  N7_26 
REMARK    6  A    between atoms: N8_29  and  C11_30 
REMARK    7  A    between atoms: C13_33  and  N9_34 
ROOT
HETATM    1  C6  UNL     1     -24.484  -7.126   7.763  1.00  0.00     0.183 C 
HETATM    2  C7  UNL     1     -24.557  -8.108   8.901  1.00  0.00     0.101 C 
HETATM    3  C8  UNL     1     -26.055  -8.430   9.071  1.00  0.00     0.388 C 
HETATM    4  N6  UNL     1     -26.435  -9.080   7.850  1.00  0.00    -0.001 N 
ATOM      5  H61 UNL     1     -27.375  -9.475   7.885  1.00  0.00     0.284 HD
ATOM      6  H62 UNL     1     -25.931  -9.951   7.689  1.00  0.00     0.284 HD
HETATM    7  C9  UNL     1     -26.261  -8.099   6.751  1.00  0.00     0.444 C 
HETATM    8  O5  UNL     1     -24.919  -7.850   6.618  1.00  0.00    -0.332 OA
ENDROOT
BRANCH   7   9
HETATM    9  N7  UNL     1     -26.918  -8.636   5.574  1.00  0.00    -0.230 N 
HETATM   10  C10 UNL     1     -28.150  -9.154   5.558  1.00  0.00     0.341 A 
HETATM   11  O3  UNL     1     -28.915  -9.279   6.556  1.00  0.00    -0.246 OA
HETATM   12  N8  UNL     1     -28.536  -9.553   4.335  1.00  0.00    -0.233 N 
HETATM   13  C12 UNL     1     -27.490  -9.272   3.535  1.00  0.00     0.135 A 
HETATM   14  C13 UNL     1     -27.288  -9.451   2.166  1.00  0.00     0.146 A 
HETATM   15  C15 UNL     1     -26.478  -8.696   4.323  1.00  0.00     0.162 A 
HETATM   16  N10 UNL     1     -26.108  -9.053   1.657  1.00  0.00    -0.175 N 
HETATM   17  C14 UNL     1     -25.143  -8.504   2.406  1.00  0.00     0.679 A 
ATOM     18  H10 UNL     1     -25.941  -9.175   0.658  1.00  0.00     0.186 HD
HETATM   19  N11 UNL     1     -24.036  -8.146   1.842  1.00  0.00    -0.234 N 
HETATM   20  N12 UNL     1     -25.317  -8.324   3.727  1.00  0.00    -0.174 N 
ATOM     21 2H11 UNL     1     -23.904  -8.283   0.839  1.00  0.00     0.174 HD
ATOM     22 1H11 UNL     1     -23.301  -7.727   2.412  1.00  0.00     0.174 HD
ATOM     23  H12 UNL     1     -24.572  -7.906   4.284  1.00  0.00     0.186 HD
BRANCH  12  24
HETATM   24  C11 UNL     1     -29.779 -10.133   3.965  1.00  0.00     0.364 C 
HETATM   25  O4  UNL     1     -30.621  -9.368   3.388  1.00  0.00    -0.283 OA
ENDBRANCH  12  24
BRANCH  14  26
HETATM   26  N9  UNL     1     -28.197  -9.968   1.435  1.00  0.00    -0.383 N 
ATOM     27  H92 UNL     1     -28.187  -9.880   0.419  1.00  0.00     0.157 HD
ATOM     28  H91 UNL     1     -28.970 -10.485   1.853  1.00  0.00     0.157 HD
ENDBRANCH  14  26
ENDBRANCH   7   9
BRANCH   3  29
HETATM   29  N5  UNL     1     -26.844  -7.357   9.515  1.00  0.00    -0.050 N 
ATOM     30  H53 UNL     1     -27.634  -7.702  10.060  1.00  0.00     0.276 HD
ATOM     31  H52 UNL     1     -26.350  -6.830  10.235  1.00  0.00     0.276 HD
ATOM     32  H51 UNL     1     -27.170  -6.730   8.779  1.00  0.00     0.276 HD
ENDBRANCH   3  29
BRANCH   1  33
HETATM   33  C5  UNL     1     -23.137  -6.546   7.598  1.00  0.00     0.084 A 
HETATM   34  N1  UNL     1     -22.772  -5.278   7.359  1.00  0.00    -0.282 N 
HETATM   35  C1  UNL     1     -23.619  -4.134   7.201  1.00  0.00     0.179 C 
HETATM   36  N2  UNL     1     -21.419  -5.218   7.314  1.00  0.00    -0.240 N 
HETATM   37  N3  UNL     1     -20.931  -6.412   7.521  1.00  0.00    -0.287 N 
ATOM     38  H2  UNL     1     -20.869  -4.376   7.146  1.00  0.00     0.208 HD
HETATM   39  C2  UNL     1     -21.967  -7.276   7.706  1.00  0.00     0.071 A 
ATOM     40  H3  UNL     1     -19.941  -6.655   7.541  1.00  0.00     0.188 HD
BRANCH  39  41
HETATM   41  C3  UNL     1     -21.852  -8.739   7.990  1.00  0.00     0.186 C 
BRANCH  41  42
HETATM   42  N4  UNL     1     -20.915  -8.892   9.079  1.00  0.00    -0.330 N 
HETATM   43  C4  UNL     1     -20.244 -10.151   9.189  1.00  0.00     0.283 C 
HETATM   44  O1  UNL     1     -20.457 -11.110   8.381  1.00  0.00    -0.630 OA
HETATM   45  O2  UNL     1     -19.312 -10.415  10.181  1.00  0.00    -0.630 OA
ATOM     46  H4  UNL     1     -20.739  -8.135   9.740  1.00  0.00     0.165 HD
ENDBRANCH  41  42
ENDBRANCH  39  41
ENDBRANCH   1  33
TORSDOF 7
ENDMDL
MODEL 4
REMARK VINA RESULT: -6.863883642      1.342      1.411
REMARK  7 active torsions:
REMARK  status: ('A' for Active; 'I' for Inactive)
REMARK    1  A    between atoms: C2_7  and  C3_8 
REMARK    2  A    between atoms: C3_8  and  N4_9 
REMARK       I    between atoms: N4_9  and  C4_11 
REMARK    3  A    between atoms: C5_14  and  C6_15 
REMARK    4  A    between atoms: C8_17  and  N5_18 
REMARK    5  A    between atoms: C9_25  and  N7_26 
REMARK    6  A    between atoms: N8_29  and  C11_30 
REMARK    7  A    between atoms: C13_33  and  N9_34 
ROOT
HETATM    1  C6  UNL     1     -25.215  -7.315   8.106  1.00  0.00     0.183 C 
HETATM    2  C7  UNL     1     -25.279  -8.483   9.052  1.00  0.00     0.101 C 
HETATM    3  C8  UNL     1     -26.698  -9.065   8.892  1.00  0.00     0.388 C 
HETATM    4  N6  UNL     1     -26.753  -9.538   7.538  1.00  0.00    -0.001 N 
ATOM      5  H61 UNL     1     -27.596 -10.077   7.339  1.00  0.00     0.284 HD
ATOM      6  H62 UNL     1     -26.076 -10.275   7.346  1.00  0.00     0.284 HD
HETATM    7  C9  UNL     1     -26.596  -8.362   6.649  1.00  0.00     0.444 C 
HETATM    8  O5  UNL     1     -25.321  -7.882   6.806  1.00  0.00    -0.332 OA
ENDROOT
BRANCH   7   9
HETATM    9  N7  UNL     1     -26.948  -8.777   5.305  1.00  0.00    -0.230 N 
HETATM   10  C10 UNL     1     -28.112  -9.335   4.958  1.00  0.00     0.341 A 
HETATM   11  O3  UNL     1     -29.066  -9.608   5.742  1.00  0.00    -0.246 OA
HETATM   12  N8  UNL     1     -28.199  -9.598   3.644  1.00  0.00    -0.233 N 
HETATM   13  C12 UNL     1     -27.025  -9.184   3.132  1.00  0.00     0.135 A 
HETATM   14  C13 UNL     1     -26.521  -9.188   1.831  1.00  0.00     0.146 A 
HETATM   15  C15 UNL     1     -26.245  -8.669   4.183  1.00  0.00     0.162 A 
HETATM   16  N10 UNL     1     -25.286  -8.688   1.643  1.00  0.00    -0.175 N 
HETATM   17  C14 UNL     1     -24.542  -8.197   2.643  1.00  0.00     0.679 A 
ATOM     18  H10 UNL     1     -24.900  -8.683   0.699  1.00  0.00     0.186 HD
HETATM   19  N11 UNL     1     -23.364  -7.733   2.381  1.00  0.00    -0.234 N 
HETATM   20  N12 UNL     1     -25.009  -8.185   3.904  1.00  0.00    -0.174 N 
ATOM     21 2H11 UNL     1     -23.010  -7.743   1.425  1.00  0.00     0.174 HD
ATOM     22 1H11 UNL     1     -22.798  -7.359   3.143  1.00  0.00     0.174 HD
ATOM     23  H12 UNL     1     -24.430  -7.809   4.655  1.00  0.00     0.186 HD
BRANCH  12  24
HETATM   24  C11 UNL     1     -29.294 -10.176   2.946  1.00  0.00     0.364 C 
HETATM   25  O4  UNL     1     -29.144 -11.374   2.536  1.00  0.00    -0.283 OA
ENDBRANCH  12  24
BRANCH  14  26
HETATM   26  N9  UNL     1     -27.216  -9.647   0.864  1.00  0.00    -0.383 N 
ATOM     27  H92 UNL     1     -27.666  -9.034   0.185  1.00  0.00     0.157 HD
ATOM     28  H91 UNL     1     -27.345 -10.652   0.746  1.00  0.00     0.157 HD
ENDBRANCH  14  26
ENDBRANCH   7   9
BRANCH   3  29
HETATM   29  N5  UNL     1     -27.735  -8.228   9.335  1.00  0.00    -0.050 N 
ATOM     30  H53 UNL     1     -27.872  -8.339  10.340  1.00  0.00     0.276 HD
ATOM     31  H52 UNL     1     -27.438  -7.252   9.304  1.00  0.00     0.276 HD
ATOM     32  H51 UNL     1     -28.621  -8.343   8.844  1.00  0.00     0.276 HD
ENDBRANCH   3  29
BRANCH   1  33
HETATM   33  C5  UNL     1     -23.992  -6.508   8.283  1.00  0.00     0.084 A 
HETATM   34  N1  UNL     1     -22.708  -6.840   8.082  1.00  0.00    -0.282 N 
HETATM   35  C1  UNL     1     -22.185  -8.095   7.630  1.00  0.00     0.179 C 
HETATM   36  N2  UNL     1     -21.934  -5.761   8.350  1.00  0.00    -0.240 N 
HETATM   37  N3  UNL     1     -22.699  -4.766   8.709  1.00  0.00    -0.287 N 
ATOM     38  H2  UNL     1     -20.917  -5.730   8.282  1.00  0.00     0.208 HD
HETATM   39  C2  UNL     1     -23.994  -5.183   8.681  1.00  0.00     0.071 A 
ATOM     40  H3  UNL     1     -22.379  -3.832   8.967  1.00  0.00     0.188 HD
BRANCH  39  41
HETATM   41  C3  UNL     1     -25.194  -4.353   9.005  1.00  0.00     0.186 C 
BRANCH  41  42
HETATM   42  N4  UNL     1     -25.120  -4.021  10.409  1.00  0.00    -0.330 N 
HETATM   43  C4  UNL     1     -25.879  -4.835  11.310  1.00  0.00     0.283 C 
HETATM   44  O1  UNL     1     -26.601  -5.803  10.912  1.00  0.00    -0.630 OA
HETATM   45  O2  UNL     1     -25.878  -4.627  12.682  1.00  0.00    -0.630 OA
ATOM     46  H4  UNL     1     -24.553  -3.243  10.743  1.00  0.00     0.165 HD
ENDBRANCH  41  42
ENDBRANCH  39  41
ENDBRANCH   1  33
TORSDOF 7
ENDMDL
MODEL 5
REMARK VINA RESULT: -6.384367841      1.827      2.949
REMARK  7 active torsions:
REMARK  status: ('A' for Active; 'I' for Inactive)
REMARK    1  A    between atoms: C2_7  and  C3_8 
REMARK    2  A    between atoms: C3_8  and  N4_9 
REMARK       I    between atoms: N4_9  and  C4_11 
REMARK    3  A    between atoms: C5_14  and  C6_15 
REMARK    4  A    between atoms: C8_17  and  N5_18 
REMARK    5  A    between atoms: C9_25  and  N7_26 
REMARK    6  A    between atoms: N8_29  and  C11_30 
REMARK    7  A    between atoms: C13_33  and  N9_34 
ROOT
HETATM    1  C6  UNL     1     -25.260  -7.453   8.319  1.00  0.00     0.183 C 
HETATM    2  C7  UNL     1     -25.556  -8.649   9.182  1.00  0.00     0.101 C 
HETATM    3  C8  UNL     1     -26.974  -9.105   8.780  1.00  0.00     0.388 C 
HETATM    4  N6  UNL     1     -26.855  -9.517   7.410  1.00  0.00    -0.001 N 
ATOM      5  H61 UNL     1     -27.695  -9.977   7.059  1.00  0.00     0.284 HD
ATOM      6  H62 UNL     1     -26.213 -10.299   7.284  1.00  0.00     0.284 HD
HETATM    7  C9  UNL     1     -26.475  -8.323   6.618  1.00  0.00     0.444 C 
HETATM    8  O5  UNL     1     -25.207  -7.957   6.990  1.00  0.00    -0.332 OA
ENDROOT
BRANCH   7   9
HETATM    9  N7  UNL     1     -26.645  -8.652   5.216  1.00  0.00    -0.230 N 
HETATM   10  C10 UNL     1     -25.682  -8.579   4.292  1.00  0.00     0.341 A 
HETATM   11  O3  UNL     1     -24.494  -8.191   4.488  1.00  0.00    -0.246 OA
HETATM   12  N8  UNL     1     -26.091  -8.970   3.073  1.00  0.00    -0.233 N 
HETATM   13  C12 UNL     1     -27.384  -9.307   3.237  1.00  0.00     0.135 A 
HETATM   14  C13 UNL     1     -28.343  -9.787   2.344  1.00  0.00     0.146 A 
HETATM   15  C15 UNL     1     -27.723  -9.105   4.587  1.00  0.00     0.162 A 
HETATM   16  N10 UNL     1     -29.571 -10.039   2.830  1.00  0.00    -0.175 N 
HETATM   17  C14 UNL     1     -29.896  -9.847   4.115  1.00  0.00     0.679 A 
ATOM     18  H10 UNL     1     -30.286 -10.391   2.193  1.00  0.00     0.186 HD
HETATM   19  N11 UNL     1     -31.099 -10.113   4.507  1.00  0.00    -0.234 N 
HETATM   20  N12 UNL     1     -28.988  -9.384   4.992  1.00  0.00    -0.174 N 
ATOM     21 2H11 UNL     1     -31.789 -10.464   3.842  1.00  0.00     0.174 HD
ATOM     22 1H11 UNL     1     -31.347  -9.968   5.485  1.00  0.00     0.174 HD
ATOM     23  H12 UNL     1     -29.251  -9.241   5.967  1.00  0.00     0.186 HD
BRANCH  12  24
HETATM   24  C11 UNL     1     -25.325  -9.024   1.878  1.00  0.00     0.364 C 
HETATM   25  O4  UNL     1     -25.469  -8.058   1.059  1.00  0.00    -0.283 OA
ENDBRANCH  12  24
BRANCH  14  26
HETATM   26  N9  UNL     1     -28.051  -9.981   1.116  1.00  0.00    -0.383 N 
ATOM     27  H92 UNL     1     -27.870 -10.915   0.747  1.00  0.00     0.157 HD
ATOM     28  H91 UNL     1     -27.986  -9.198   0.467  1.00  0.00     0.157 HD
ENDBRANCH  14  26
ENDBRANCH   7   9
BRANCH   3  29
HETATM   29  N5  UNL     1     -28.000  -8.204   9.106  1.00  0.00    -0.050 N 
ATOM     30  H53 UNL     1     -27.633  -7.253   9.147  1.00  0.00     0.276 HD
ATOM     31  H52 UNL     1     -28.648  -8.110   8.324  1.00  0.00     0.276 HD
ATOM     32  H51 UNL     1     -28.509  -8.423   9.962  1.00  0.00     0.276 HD
ENDBRANCH   3  29
BRANCH   1  33
HETATM   33  C5  UNL     1     -24.021  -6.758   8.720  1.00  0.00     0.084 A 
HETATM   34  N1  UNL     1     -22.740  -7.105   8.525  1.00  0.00    -0.282 N 
HETATM   35  C1  UNL     1     -22.236  -8.268   7.858  1.00  0.00     0.179 C 
HETATM   36  N2  UNL     1     -21.945  -6.139   9.045  1.00  0.00    -0.240 N 
HETATM   37  N3  UNL     1     -22.694  -5.199   9.557  1.00  0.00    -0.287 N 
ATOM     38  H2  UNL     1     -20.925  -6.144   9.039  1.00  0.00     0.208 HD
HETATM   39  C2  UNL     1     -23.999  -5.540   9.377  1.00  0.00     0.071 A 
ATOM     40  H3  UNL     1     -22.357  -4.353  10.015  1.00  0.00     0.188 HD
BRANCH  39  41
HETATM   41  C3  UNL     1     -25.186  -4.734   9.796  1.00  0.00     0.186 C 
BRANCH  41  42
HETATM   42  N4  UNL     1     -25.436  -3.764   8.754  1.00  0.00    -0.330 N 
HETATM   43  C4  UNL     1     -24.766  -2.504   8.864  1.00  0.00     0.283 C 
HETATM   44  O1  UNL     1     -23.990  -2.225   9.832  1.00  0.00    -0.630 OA
HETATM   45  O2  UNL     1     -24.912  -1.498   7.920  1.00  0.00    -0.630 OA
ATOM     46  H4  UNL     1     -26.061  -3.969   7.976  1.00  0.00     0.165 HD
ENDBRANCH  41  42
ENDBRANCH  39  41
ENDBRANCH   1  33
TORSDOF 7
ENDMDL
