MODEL 1
REMARK VINA RESULT: -5.333503404      0.000      0.000
REMARK  13 active torsions:
REMARK  status: ('A' for Active; 'I' for Inactive)
REMARK    1  A    between atoms: C3_3  and  C4_4 
REMARK    2  A    between atoms: C4_4  and  O1_5 
REMARK    3  A    between atoms: C5_7  and  O2_8 
REMARK    4  A    between atoms: C6_10  and  O3_11 
REMARK    5  A    between atoms: O3_11  and  C7_12 
REMARK    6  A    between atoms: C8_14  and  C9_15 
REMARK    7  A    between atoms: C9_15  and  N1_16 
REMARK    8  A    between atoms: C10_20  and  O5_21 
REMARK    9  A    between atoms: C11_23  and  S1_24 
REMARK   10  A    between atoms: C12_27  and  N2_28 
REMARK   11  A    between atoms: C13_32  and  O7_33 
REMARK   12  A    between atoms: C14_35  and  N3_36 
REMARK   13  A    between atoms: N3_36  and  C15_38 
ROOT
HETATM    1  C1  UNL     1     -24.334  -0.640  11.564  1.00  0.00     0.112 C 
HETATM    2  C2  UNL     1     -24.254  -1.575  10.447  1.00  0.00    -0.108 C 
HETATM    3  C3  UNL     1     -24.189  -2.365   9.536  1.00  0.00    -0.064 C 
ENDROOT
BRANCH   3   4
HETATM    4  C4  UNL     1     -24.136  -3.342   8.419  1.00  0.00     0.171 C 
HETATM    5  C5  UNL     1     -24.547  -4.643   8.958  1.00  0.00     0.198 C 
HETATM    6  C6  UNL     1     -23.832  -5.866   8.494  1.00  0.00     0.192 C 
HETATM    7  C12 UNL     1     -22.347  -5.579   8.408  1.00  0.00     0.245 C 
HETATM    8  C13 UNL     1     -22.243  -4.550   7.281  1.00  0.00     0.177 C 
HETATM    9  C14 UNL     1     -22.835  -3.257   7.690  1.00  0.00     0.158 C 
BRANCH   4  10
HETATM   10  O1  UNL     1     -25.134  -2.895   7.529  1.00  0.00    -0.373 OA
ATOM     11  H1  UNL     1     -25.639  -3.677   7.339  1.00  0.00     0.212 HD
ENDBRANCH   4  10
BRANCH   5  12
HETATM   12  O2  UNL     1     -24.466  -4.666  10.376  1.00  0.00    -0.389 OA
ATOM     13  H2  UNL     1     -25.297  -4.435  10.774  1.00  0.00     0.210 HD
ENDBRANCH   5  12
BRANCH   6  14
HETATM   14  O3  UNL     1     -24.006  -6.928   9.374  1.00  0.00    -0.329 OA
BRANCH  14  15
HETATM   15  C7  UNL     1     -24.866  -7.910   8.901  1.00  0.00     0.415 C 
HETATM   16  O4  UNL     1     -24.595  -8.067   7.547  1.00  0.00    -0.329 OA
HETATM   17  C8  UNL     1     -25.688  -8.064   6.723  1.00  0.00     0.184 C 
HETATM   18  C10 UNL     1     -26.831  -8.927   7.225  1.00  0.00     0.188 C 
HETATM   19  C11 UNL     1     -26.915  -8.760   8.728  1.00  0.00     0.231 C 
HETATM   20  O6  UNL     1     -26.210  -7.577   9.046  1.00  0.00    -0.319 OA
BRANCH  17  21
HETATM   21  C9  UNL     1     -25.213  -8.542   5.359  1.00  0.00     0.264 C 
BRANCH  21  22
HETATM   22  N1  UNL     1     -23.893  -8.012   5.099  1.00  0.00    -0.077 N 
ATOM     23  H13 UNL     1     -23.835  -7.011   5.287  1.00  0.00     0.274 HD
ATOM     24  H12 UNL     1     -23.208  -8.328   5.785  1.00  0.00     0.274 HD
ATOM     25  H11 UNL     1     -23.618  -8.243   4.144  1.00  0.00     0.274 HD
ENDBRANCH  21  22
ENDBRANCH  17  21
BRANCH  18  26
HETATM   26  O5  UNL     1     -26.637 -10.264   6.882  1.00  0.00    -0.389 OA
ATOM     27  H5  UNL     1     -27.386 -10.608   6.408  1.00  0.00     0.210 HD
ENDBRANCH  18  26
BRANCH  19  28
HETATM   28  S1  UNL     1     -28.606  -8.649   9.315  1.00  0.00    -0.050 SA
HETATM   29  S2  UNL     1     -29.977  -8.510   7.723  1.00  0.00    -0.011 SA
ENDBRANCH  19  28
ENDBRANCH  14  15
ENDBRANCH   6  14
BRANCH   7  30
HETATM   30  N2  UNL     1     -21.694  -6.800   7.989  1.00  0.00    -0.070 N 
ATOM     31  H23 UNL     1     -22.138  -7.638   8.364  1.00  0.00     0.274 HD
ATOM     32  H22 UNL     1     -21.833  -7.007   7.000  1.00  0.00     0.274 HD
ATOM     33  H21 UNL     1     -20.710  -6.723   8.245  1.00  0.00     0.274 HD
ENDBRANCH   7  30
BRANCH   8  34
HETATM   34  O7  UNL     1     -23.023  -5.107   6.238  1.00  0.00    -0.391 OA
ATOM     35  H7  UNL     1     -23.741  -5.532   6.692  1.00  0.00     0.210 HD
ENDBRANCH   8  34
BRANCH   9  36
HETATM   36  N3  UNL     1     -21.947  -2.445   8.492  1.00  0.00    -0.399 N 
ATOM     37  H3  UNL     1     -21.854  -2.581   9.498  1.00  0.00     0.154 HD
BRANCH  36  38
HETATM   38  C15 UNL     1     -21.212  -1.447   7.799  1.00  0.00     0.239 C 
HETATM   39  C16 UNL     1     -21.900  -0.887   6.650  1.00  0.00     0.078 C 
HETATM   40  N4  UNL     1     -22.440  -0.456   5.724  1.00  0.00    -0.196 NA
ENDBRANCH  36  38
ENDBRANCH   9  36
ENDBRANCH   3   4
TORSDOF 13
ENDMDL
MODEL 2
REMARK VINA RESULT: -5.184258402      5.196      6.918
REMARK  13 active torsions:
REMARK  status: ('A' for Active; 'I' for Inactive)
REMARK    1  A    between atoms: C3_3  and  C4_4 
REMARK    2  A    between atoms: C4_4  and  O1_5 
REMARK    3  A    between atoms: C5_7  and  O2_8 
REMARK    4  A    between atoms: C6_10  and  O3_11 
REMARK    5  A    between atoms: O3_11  and  C7_12 
REMARK    6  A    between atoms: C8_14  and  C9_15 
REMARK    7  A    between atoms: C9_15  and  N1_16 
REMARK    8  A    between atoms: C10_20  and  O5_21 
REMARK    9  A    between atoms: C11_23  and  S1_24 
REMARK   10  A    between atoms: C12_27  and  N2_28 
REMARK   11  A    between atoms: C13_32  and  O7_33 
REMARK   12  A    between atoms: C14_35  and  N3_36 
REMARK   13  A    between atoms: N3_36  and  C15_38 
ROOT
HETATM    1  C1  UNL     1     -26.895  -8.631   8.935  1.00  0.00     0.112 C 
HETATM    2  C2  UNL     1     -25.697  -7.994   8.399  1.00  0.00    -0.108 C 
HETATM    3  C3  UNL     1     -24.709  -7.477   7.937  1.00  0.00    -0.064 C 
ENDROOT
BRANCH   3   4
HETATM    4  C4  UNL     1     -23.509  -6.824   7.352  1.00  0.00     0.171 C 
HETATM    5  C5  UNL     1     -22.341  -7.608   7.766  1.00  0.00     0.198 C 
HETATM    6  C6  UNL     1     -21.092  -6.886   8.139  1.00  0.00     0.192 C 
HETATM    7  C12 UNL     1     -21.444  -5.664   8.962  1.00  0.00     0.245 C 
HETATM    8  C13 UNL     1     -22.196  -4.768   7.975  1.00  0.00     0.177 C 
HETATM    9  C14 UNL     1     -23.509  -5.355   7.625  1.00  0.00     0.158 C 
BRANCH   4  10
HETATM   10  O1  UNL     1     -23.681  -6.982   5.962  1.00  0.00    -0.373 OA
ATOM     11  H1  UNL     1     -23.270  -6.209   5.591  1.00  0.00     0.212 HD
ENDBRANCH   4  10
BRANCH   5  12
HETATM   12  O2  UNL     1     -22.645  -8.447   8.872  1.00  0.00    -0.389 OA
ATOM     13  H2  UNL     1     -23.533  -8.779   8.821  1.00  0.00     0.210 HD
ENDBRANCH   5  12
BRANCH   6  14
HETATM   14  O3  UNL     1     -20.248  -7.681   8.906  1.00  0.00    -0.329 OA
BRANCH  14  15
HETATM   15  C7  UNL     1     -19.160  -8.180   8.202  1.00  0.00     0.415 C 
HETATM   16  O4  UNL     1     -18.522  -9.092   9.034  1.00  0.00    -0.329 OA
HETATM   17  C8  UNL     1     -17.166  -8.944   9.140  1.00  0.00     0.184 C 
HETATM   18  C10 UNL     1     -16.470  -8.738   7.807  1.00  0.00     0.188 C 
HETATM   19  C11 UNL     1     -17.347  -7.840   6.958  1.00  0.00     0.231 C 
HETATM   20  O6  UNL     1     -18.244  -7.196   7.841  1.00  0.00    -0.319 OA
BRANCH  17  21
HETATM   21  C9  UNL     1     -16.639 -10.192   9.833  1.00  0.00     0.264 C 
BRANCH  21  22
HETATM   22  N1  UNL     1     -17.517 -11.304   9.548  1.00  0.00    -0.077 N 
ATOM     23  H13 UNL     1     -17.268 -11.782   8.682  1.00  0.00     0.274 HD
ATOM     24  H12 UNL     1     -17.374 -12.085  10.190  1.00  0.00     0.274 HD
ATOM     25  H11 UNL     1     -18.484 -10.979   9.546  1.00  0.00     0.274 HD
ENDBRANCH  21  22
ENDBRANCH  17  21
BRANCH  18  26
HETATM   26  O5  UNL     1     -16.239  -9.955   7.169  1.00  0.00    -0.389 OA
ATOM     27  H5  UNL     1     -16.953 -10.563   7.322  1.00  0.00     0.210 HD
ENDBRANCH  18  26
BRANCH  19  28
HETATM   28  S1  UNL     1     -16.401  -6.624   6.041  1.00  0.00    -0.050 SA
HETATM   29  S2  UNL     1     -16.169  -7.176   4.022  1.00  0.00    -0.011 SA
ENDBRANCH  19  28
ENDBRANCH  14  15
ENDBRANCH   6  14
BRANCH   7  30
HETATM   30  N2  UNL     1     -20.204  -5.016   9.329  1.00  0.00    -0.070 N 
ATOM     31  H23 UNL     1     -19.999  -5.085  10.326  1.00  0.00     0.274 HD
ATOM     32  H22 UNL     1     -19.380  -5.513   8.990  1.00  0.00     0.274 HD
ATOM     33  H21 UNL     1     -20.253  -4.053   8.998  1.00  0.00     0.274 HD
ENDBRANCH   7  30
BRANCH   8  34
HETATM   34  O7  UNL     1     -21.370  -4.761   6.825  1.00  0.00    -0.391 OA
ATOM     35  H7  UNL     1     -21.742  -5.439   6.272  1.00  0.00     0.210 HD
ENDBRANCH   8  34
BRANCH   9  36
HETATM   36  N3  UNL     1     -24.535  -5.103   8.612  1.00  0.00    -0.399 N 
ATOM     37  H3  UNL     1     -25.262  -5.787   8.821  1.00  0.00     0.154 HD
BRANCH  36  38
HETATM   38  C15 UNL     1     -24.474  -3.848   9.273  1.00  0.00     0.239 C 
HETATM   39  C16 UNL     1     -24.641  -2.701   8.399  1.00  0.00     0.078 C 
HETATM   40  N4  UNL     1     -24.755  -1.789   7.698  1.00  0.00    -0.196 NA
ENDBRANCH  36  38
ENDBRANCH   9  36
ENDBRANCH   3   4
TORSDOF 13
ENDMDL
MODEL 3
REMARK VINA RESULT: -4.829142034      4.212      5.911
REMARK  13 active torsions:
REMARK  status: ('A' for Active; 'I' for Inactive)
REMARK    1  A    between atoms: C3_3  and  C4_4 
REMARK    2  A    between atoms: C4_4  and  O1_5 
REMARK    3  A    between atoms: C5_7  and  O2_8 
REMARK    4  A    between atoms: C6_10  and  O3_11 
REMARK    5  A    between atoms: O3_11  and  C7_12 
REMARK    6  A    between atoms: C8_14  and  C9_15 
REMARK    7  A    between atoms: C9_15  and  N1_16 
REMARK    8  A    between atoms: C10_20  and  O5_21 
REMARK    9  A    between atoms: C11_23  and  S1_24 
REMARK   10  A    between atoms: C12_27  and  N2_28 
REMARK   11  A    between atoms: C13_32  and  O7_33 
REMARK   12  A    between atoms: C14_35  and  N3_36 
REMARK   13  A    between atoms: N3_36  and  C15_38 
ROOT
HETATM    1  C1  UNL     1     -24.851  -8.753  12.522  1.00  0.00     0.112 C 
HETATM    2  C2  UNL     1     -24.884  -8.232  11.160  1.00  0.00    -0.108 C 
HETATM    3  C3  UNL     1     -24.911  -7.781  10.040  1.00  0.00    -0.064 C 
ENDROOT
BRANCH   3   4
HETATM    4  C4  UNL     1     -24.918  -7.217   8.666  1.00  0.00     0.171 C 
HETATM    5  C5  UNL     1     -25.932  -7.949   7.899  1.00  0.00     0.198 C 
HETATM    6  C6  UNL     1     -25.640  -8.298   6.480  1.00  0.00     0.192 C 
HETATM    7  C12 UNL     1     -24.202  -8.759   6.361  1.00  0.00     0.245 C 
HETATM    8  C13 UNL     1     -23.392  -7.502   6.684  1.00  0.00     0.177 C 
HETATM    9  C14 UNL     1     -23.533  -7.135   8.110  1.00  0.00     0.158 C 
BRANCH   4  10
HETATM   10  O1  UNL     1     -25.367  -5.893   8.845  1.00  0.00    -0.373 OA
ATOM     11  H1  UNL     1     -24.566  -5.394   8.965  1.00  0.00     0.212 HD
ENDBRANCH   4  10
BRANCH   5  12
HETATM   12  O2  UNL     1     -26.277  -9.173   8.533  1.00  0.00    -0.389 OA
ATOM     13  H2  UNL     1     -27.207  -9.349   8.461  1.00  0.00     0.210 HD
ENDBRANCH   5  12
BRANCH   6  14
HETATM   14  O3  UNL     1     -26.452  -9.331   6.027  1.00  0.00    -0.329 OA
BRANCH  14  15
HETATM   15  C7  UNL     1     -27.141  -9.028   4.860  1.00  0.00     0.415 C 
HETATM   16  O4  UNL     1     -28.458  -9.427   5.052  1.00  0.00    -0.329 OA
HETATM   17  C8  UNL     1     -29.001 -10.173   4.041  1.00  0.00     0.184 C 
HETATM   18  C10 UNL     1     -28.723  -9.617   2.657  1.00  0.00     0.188 C 
HETATM   19  C11 UNL     1     -27.301  -9.095   2.642  1.00  0.00     0.231 C 
HETATM   20  O6  UNL     1     -26.639  -9.687   3.741  1.00  0.00    -0.319 OA
BRANCH  17  21
HETATM   21  C9  UNL     1     -30.499 -10.244   4.301  1.00  0.00     0.264 C 
BRANCH  21  22
HETATM   22  N1  UNL     1     -31.056 -11.365   3.577  1.00  0.00    -0.077 N 
ATOM     23  H13 UNL     1     -31.861 -11.772   4.055  1.00  0.00     0.274 HD
ATOM     24  H12 UNL     1     -31.529 -11.077   2.720  1.00  0.00     0.274 HD
ATOM     25  H11 UNL     1     -30.323 -12.052   3.402  1.00  0.00     0.274 HD
ENDBRANCH  21  22
ENDBRANCH  17  21
BRANCH  18  26
HETATM   26  O5  UNL     1     -29.627  -8.607   2.332  1.00  0.00    -0.389 OA
ATOM     27  H5  UNL     1     -30.299  -8.928   1.740  1.00  0.00     0.210 HD
ENDBRANCH  18  26
BRANCH  19  28
HETATM   28  S1  UNL     1     -26.441  -9.486   1.118  1.00  0.00    -0.050 SA
HETATM   29  S2  UNL     1     -24.532  -8.599   1.048  1.00  0.00    -0.011 SA
ENDBRANCH  19  28
ENDBRANCH  14  15
ENDBRANCH   6  14
BRANCH   7  30
HETATM   30  N2  UNL     1     -23.975  -9.118   4.978  1.00  0.00    -0.070 N 
ATOM     31  H23 UNL     1     -24.080  -8.330   4.340  1.00  0.00     0.274 HD
ATOM     32  H22 UNL     1     -22.996  -9.325   4.775  1.00  0.00     0.274 HD
ATOM     33  H21 UNL     1     -24.600  -9.894   4.758  1.00  0.00     0.274 HD
ENDBRANCH   7  30
BRANCH   8  34
HETATM   34  O7  UNL     1     -23.990  -6.496   5.885  1.00  0.00    -0.391 OA
ATOM     35  H7  UNL     1     -23.669  -6.679   5.010  1.00  0.00     0.210 HD
ENDBRANCH   8  34
BRANCH   9  36
HETATM   36  N3  UNL     1     -22.673  -7.896   8.990  1.00  0.00    -0.399 N 
ATOM     37  H3  UNL     1     -23.026  -8.335   9.840  1.00  0.00     0.154 HD
BRANCH  36  38
HETATM   38  C15 UNL     1     -21.312  -7.996   8.603  1.00  0.00     0.239 C 
HETATM   39  C16 UNL     1     -20.817  -9.358   8.497  1.00  0.00     0.078 C 
HETATM   40  N4  UNL     1     -20.421 -10.441   8.433  1.00  0.00    -0.196 NA
ENDBRANCH  36  38
ENDBRANCH   9  36
ENDBRANCH   3   4
TORSDOF 13
ENDMDL
MODEL 4
REMARK VINA RESULT: -4.641684552      4.595      6.167
REMARK  13 active torsions:
REMARK  status: ('A' for Active; 'I' for Inactive)
REMARK    1  A    between atoms: C3_3  and  C4_4 
REMARK    2  A    between atoms: C4_4  and  O1_5 
REMARK    3  A    between atoms: C5_7  and  O2_8 
REMARK    4  A    between atoms: C6_10  and  O3_11 
REMARK    5  A    between atoms: O3_11  and  C7_12 
REMARK    6  A    between atoms: C8_14  and  C9_15 
REMARK    7  A    between atoms: C9_15  and  N1_16 
REMARK    8  A    between atoms: C10_20  and  O5_21 
REMARK    9  A    between atoms: C11_23  and  S1_24 
REMARK   10  A    between atoms: C12_27  and  N2_28 
REMARK   11  A    between atoms: C13_32  and  O7_33 
REMARK   12  A    between atoms: C14_35  and  N3_36 
REMARK   13  A    between atoms: N3_36  and  C15_38 
ROOT
HETATM    1  C1  UNL     1     -27.397  -7.944   8.671  1.00  0.00     0.112 C 
HETATM    2  C2  UNL     1     -25.991  -7.693   8.375  1.00  0.00    -0.108 C 
HETATM    3  C3  UNL     1     -24.822  -7.493   8.148  1.00  0.00    -0.064 C 
ENDROOT
BRANCH   3   4
HETATM    4  C4  UNL     1     -23.379  -7.274   7.870  1.00  0.00     0.171 C 
HETATM    5  C5  UNL     1     -22.622  -8.071   8.840  1.00  0.00     0.198 C 
HETATM    6  C6  UNL     1     -21.382  -7.491   9.429  1.00  0.00     0.192 C 
HETATM    7  C12 UNL     1     -21.615  -6.029   9.753  1.00  0.00     0.245 C 
HETATM    8  C13 UNL     1     -21.799  -5.381   8.379  1.00  0.00     0.177 C 
HETATM    9  C14 UNL     1     -23.068  -5.817   7.755  1.00  0.00     0.158 C 
BRANCH   4  10
HETATM   10  O1  UNL     1     -23.191  -7.835   6.590  1.00  0.00    -0.373 OA
ATOM     11  H1  UNL     1     -22.788  -7.134   6.090  1.00  0.00     0.212 HD
ENDBRANCH   4  10
BRANCH   5  12
HETATM   12  O2  UNL     1     -23.431  -8.450   9.945  1.00  0.00    -0.389 OA
ATOM     13  H2  UNL     1     -24.309  -8.095   9.868  1.00  0.00     0.210 HD
ENDBRANCH   5  12
BRANCH   6  14
HETATM   14  O3  UNL     1     -21.025  -8.131  10.611  1.00  0.00    -0.329 OA
BRANCH  14  15
HETATM   15  C7  UNL     1     -19.946  -8.994  10.473  1.00  0.00     0.415 C 
HETATM   16  O4  UNL     1     -19.137  -8.475   9.470  1.00  0.00    -0.329 OA
HETATM   17  C8  UNL     1     -18.744  -9.367   8.510  1.00  0.00     0.184 C 
HETATM   18  C10 UNL     1     -18.254 -10.689   9.071  1.00  0.00     0.188 C 
HETATM   19  C11 UNL     1     -19.143 -11.056  10.241  1.00  0.00     0.231 C 
HETATM   20  O6  UNL     1     -20.321 -10.286  10.113  1.00  0.00    -0.319 OA
BRANCH  17  21
HETATM   21  C9  UNL     1     -17.649  -8.689   7.699  1.00  0.00     0.264 C 
BRANCH  21  22
HETATM   22  N1  UNL     1     -18.108  -7.385   7.273  1.00  0.00    -0.077 N 
ATOM     23  H13 UNL     1     -18.682  -6.927   7.981  1.00  0.00     0.274 HD
ATOM     24  H12 UNL     1     -17.351  -6.702   7.236  1.00  0.00     0.274 HD
ATOM     25  H11 UNL     1     -18.592  -7.473   6.379  1.00  0.00     0.274 HD
ENDBRANCH  21  22
ENDBRANCH  17  21
BRANCH  18  26
HETATM   26  O5  UNL     1     -16.920 -10.602   9.467  1.00  0.00    -0.389 OA
ATOM     27  H5  UNL     1     -16.830 -10.069  10.249  1.00  0.00     0.210 HD
ENDBRANCH  18  26
BRANCH  19  28
HETATM   28  S1  UNL     1     -19.547 -12.803  10.276  1.00  0.00    -0.050 SA
HETATM   29  S2  UNL     1     -17.971 -13.953  11.070  1.00  0.00    -0.011 SA
ENDBRANCH  19  28
ENDBRANCH  14  15
ENDBRANCH   6  14
BRANCH   7  30
HETATM   30  N2  UNL     1     -20.402  -5.519  10.352  1.00  0.00    -0.070 N 
ATOM     31  H23 UNL     1     -19.664  -6.220  10.415  1.00  0.00     0.274 HD
ATOM     32  H22 UNL     1     -19.907  -4.860   9.750  1.00  0.00     0.274 HD
ATOM     33  H21 UNL     1     -20.652  -5.121  11.257  1.00  0.00     0.274 HD
ENDBRANCH   7  30
BRANCH   8  34
HETATM   34  O7  UNL     1     -20.714  -5.880   7.619  1.00  0.00    -0.391 OA
ATOM     35  H7  UNL     1     -21.058  -5.930   6.734  1.00  0.00     0.210 HD
ENDBRANCH   8  34
BRANCH   9  36
HETATM   36  N3  UNL     1     -24.225  -5.093   8.234  1.00  0.00    -0.399 N 
ATOM     37  H3  UNL     1     -25.129  -5.546   8.361  1.00  0.00     0.154 HD
BRANCH  36  38
HETATM   38  C15 UNL     1     -24.030  -3.716   8.517  1.00  0.00     0.239 C 
HETATM   39  C16 UNL     1     -23.805  -2.889   7.344  1.00  0.00     0.078 C 
HETATM   40  N4  UNL     1     -23.607  -2.237   6.411  1.00  0.00    -0.196 NA
ENDBRANCH  36  38
ENDBRANCH   9  36
ENDBRANCH   3   4
TORSDOF 13
ENDMDL
MODEL 5
REMARK VINA RESULT: -4.509229179      3.108      6.932
REMARK  13 active torsions:
REMARK  status: ('A' for Active; 'I' for Inactive)
REMARK    1  A    between atoms: C3_3  and  C4_4 
REMARK    2  A    between atoms: C4_4  and  O1_5 
REMARK    3  A    between atoms: C5_7  and  O2_8 
REMARK    4  A    between atoms: C6_10  and  O3_11 
REMARK    5  A    between atoms: O3_11  and  C7_12 
REMARK    6  A    between atoms: C8_14  and  C9_15 
REMARK    7  A    between atoms: C9_15  and  N1_16 
REMARK    8  A    between atoms: C10_20  and  O5_21 
REMARK    9  A    between atoms: C11_23  and  S1_24 
REMARK   10  A    between atoms: C12_27  and  N2_28 
REMARK   11  A    between atoms: C13_32  and  O7_33 
REMARK   12  A    between atoms: C14_35  and  N3_36 
REMARK   13  A    between atoms: N3_36  and  C15_38 
ROOT
HETATM    1  C1  UNL     1     -29.856  -8.183   8.389  1.00  0.00     0.112 C 
HETATM    2  C2  UNL     1     -28.408  -8.086   8.539  1.00  0.00    -0.108 C 
HETATM    3  C3  UNL     1     -27.211  -8.014   8.682  1.00  0.00    -0.064 C 
ENDROOT
BRANCH   3   4
HETATM    4  C4  UNL     1     -25.737  -7.954   8.857  1.00  0.00     0.171 C 
HETATM    5  C5  UNL     1     -25.411  -6.613   9.354  1.00  0.00     0.198 C 
HETATM    6  C6  UNL     1     -24.189  -5.936   8.834  1.00  0.00     0.192 C 
HETATM    7  C12 UNL     1     -24.075  -6.178   7.344  1.00  0.00     0.245 C 
HETATM    8  C13 UNL     1     -23.825  -7.685   7.240  1.00  0.00     0.177 C 
HETATM    9  C14 UNL     1     -25.030  -8.448   7.637  1.00  0.00     0.158 C 
BRANCH   4  10
HETATM   10  O1  UNL     1     -25.478  -8.884   9.884  1.00  0.00    -0.373 OA
ATOM     11  H1  UNL     1     -24.603  -9.202   9.690  1.00  0.00     0.212 HD
ENDBRANCH   4  10
BRANCH   5  12
HETATM   12  O2  UNL     1     -26.479  -5.703   9.130  1.00  0.00    -0.389 OA
ATOM     13  H2  UNL     1     -26.542  -5.463   8.213  1.00  0.00     0.210 HD
ENDBRANCH   5  12
BRANCH   6  14
HETATM   14  O3  UNL     1     -24.238  -4.561   9.035  1.00  0.00    -0.329 OA
BRANCH  14  15
HETATM   15  C7  UNL     1     -23.154  -4.063   9.746  1.00  0.00     0.415 C 
HETATM   16  O4  UNL     1     -22.638  -3.005   9.008  1.00  0.00    -0.329 OA
HETATM   17  C8  UNL     1     -21.282  -3.024   8.821  1.00  0.00     0.184 C 
HETATM   18  C10 UNL     1     -20.498  -3.333  10.083  1.00  0.00     0.188 C 
HETATM   19  C11 UNL     1     -21.252  -4.400  10.850  1.00  0.00     0.231 C 
HETATM   20  O6  UNL     1     -22.145  -5.003   9.936  1.00  0.00    -0.319 OA
BRANCH  17  21
HETATM   21  C9  UNL     1     -20.894  -1.660   8.269  1.00  0.00     0.264 C 
BRANCH  21  22
HETATM   22  N1  UNL     1     -21.852  -0.673   8.715  1.00  0.00    -0.077 N 
ATOM     23  H13 UNL     1     -22.622  -1.090   9.237  1.00  0.00     0.274 HD
ATOM     24  H12 UNL     1     -21.479  -0.080   9.457  1.00  0.00     0.274 HD
ATOM     25  H11 UNL     1     -22.176  -0.132   7.914  1.00  0.00     0.274 HD
ENDBRANCH  21  22
ENDBRANCH  17  21
BRANCH  18  26
HETATM   26  O5  UNL     1     -20.326  -2.189  10.860  1.00  0.00    -0.389 OA
ATOM     27  H5  UNL     1     -20.085  -1.443  10.322  1.00  0.00     0.210 HD
ENDBRANCH  18  26
BRANCH  19  28
HETATM   28  S1  UNL     1     -20.165  -5.636  11.560  1.00  0.00    -0.050 SA
HETATM   29  S2  UNL     1     -21.051  -7.546  11.566  1.00  0.00    -0.011 SA
ENDBRANCH  19  28
ENDBRANCH  14  15
ENDBRANCH   6  14
BRANCH   7  30
HETATM   30  N2  UNL     1     -22.898  -5.477   6.879  1.00  0.00    -0.070 N 
ATOM     31  H23 UNL     1     -22.877  -4.500   7.172  1.00  0.00     0.274 HD
ATOM     32  H22 UNL     1     -22.044  -5.776   7.352  1.00  0.00     0.274 HD
ATOM     33  H21 UNL     1     -22.855  -5.591   5.867  1.00  0.00     0.274 HD
ENDBRANCH   7  30
BRANCH   8  34
HETATM   34  O7  UNL     1     -22.795  -7.924   8.182  1.00  0.00    -0.391 OA
ATOM     35  H7  UNL     1     -22.204  -8.515   7.729  1.00  0.00     0.210 HD
ENDBRANCH   8  34
BRANCH   9  36
HETATM   36  N3  UNL     1     -26.016  -8.555   6.584  1.00  0.00    -0.399 N 
ATOM     37  H3  UNL     1     -27.011  -8.421   6.763  1.00  0.00     0.154 HD
BRANCH  36  38
HETATM   38  C15 UNL     1     -25.521  -8.858   5.289  1.00  0.00     0.239 C 
HETATM   39  C16 UNL     1     -26.551  -9.056   4.285  1.00  0.00     0.078 C 
HETATM   40  N4  UNL     1     -27.373  -9.232   3.492  1.00  0.00    -0.196 NA
ENDBRANCH  36  38
ENDBRANCH   9  36
ENDBRANCH   3   4
TORSDOF 13
ENDMDL
