MODEL 1
REMARK VINA RESULT: -6.413647269      0.000      0.000
REMARK  10 active torsions:
REMARK  status: ('A' for Active; 'I' for Inactive)
REMARK    1  A    between atoms: N1_1  and  C1_4 
REMARK    2  A    between atoms: C2_7  and  N3_8 
REMARK    3  A    between atoms: N4_11  and  C3_12 
REMARK    4  A    between atoms: C5_16  and  N6_17 
REMARK       I    between atoms: N9_26  and  C8_27 
REMARK       I    between atoms: C8_27  and  N10_29 
REMARK    5  A    between atoms: N10_29  and  C9_31 
REMARK    6  A    between atoms: C9_31  and  C10_32 
REMARK    7  A    between atoms: N13_36  and  C11_37 
REMARK    8  A    between atoms: C11_37  and  C12_38 
REMARK    9  A    between atoms: C12_38  and  O2_39 
REMARK   10  A    between atoms: C13_41  and  O3_42 
ROOT
HETATM    1  C3  UNL     1     -25.548  -5.966  10.568  1.00  0.00     0.720 A 
HETATM    2  N5  UNL     1     -25.688  -5.246  11.741  1.00  0.00    -0.182 N 
ATOM      3  H5  UNL     1     -25.071  -4.491  12.039  1.00  0.00     0.184 HD
HETATM    4  C4  UNL     1     -26.734  -5.675  12.417  1.00  0.00     0.138 A 
HETATM    5  C5  UNL     1     -27.293  -5.297  13.625  1.00  0.00     0.131 A 
HETATM    6  N7  UNL     1     -28.391  -5.936  14.072  1.00  0.00    -0.337 N 
ATOM      7  H7  UNL     1     -28.799  -5.654  14.963  1.00  0.00     0.168 HD
HETATM    8  C6  UNL     1     -28.964  -6.935  13.377  1.00  0.00     0.183 A 
HETATM    9  N8  UNL     1     -28.408  -7.290  12.207  1.00  0.00    -0.336 N 
ATOM     10  H8  UNL     1     -28.835  -8.047  11.673  1.00  0.00     0.168 HD
HETATM   11  C7  UNL     1     -27.314  -6.690  11.710  1.00  0.00     0.166 A 
HETATM   12  N9  UNL     1     -26.554  -6.850  10.560  1.00  0.00    -0.077 N 
HETATM   13  C8  UNL     1     -26.901  -7.824   9.626  1.00  0.00     0.343 C 
HETATM   14  O1  UNL     1     -27.930  -8.557   9.858  1.00  0.00    -0.246 OA
HETATM   15  N10 UNL     1     -26.236  -8.102   8.431  1.00  0.00    -0.336 N 
ATOM     16  H10 UNL     1     -25.407  -7.578   8.154  1.00  0.00     0.164 HD
ENDROOT
BRANCH   1  17
HETATM   17  N4  UNL     1     -24.503  -5.718   9.641  1.00  0.00     0.078 N 
HETATM   18  C2  UNL     1     -23.398  -6.499   9.618  1.00  0.00     0.716 A 
HETATM   19  N2  UNL     1     -22.418  -6.300   8.715  1.00  0.00    -0.022 N 
HETATM   20  C1  UNL     1     -22.517  -5.305   7.802  1.00  0.00     0.694 A 
ATOM     21  H2  UNL     1     -21.596  -6.904   8.719  1.00  0.00     0.203 HD
HETATM   22  N14 UNL     1     -23.606  -4.526   7.815  1.00  0.00    -0.140 N 
HETATM   23  C14 UNL     1     -24.570  -4.737   8.719  1.00  0.00     0.376 A 
ATOM     24  H14 UNL     1     -23.701  -3.772   7.135  1.00  0.00     0.189 HD
HETATM   25  O4  UNL     1     -25.580  -3.979   8.696  1.00  0.00    -0.244 OA
BRANCH  18  26
HETATM   26  N3  UNL     1     -23.301  -7.446  10.486  1.00  0.00    -0.233 N 
ATOM     27  H32 UNL     1     -22.597  -7.361  11.220  1.00  0.00     0.174 HD
ATOM     28  H31 UNL     1     -23.916  -8.257  10.435  1.00  0.00     0.174 HD
ENDBRANCH  18  26
BRANCH  20  29
HETATM   29  N1  UNL     1     -21.595  -5.093   6.928  1.00  0.00    -0.234 N 
ATOM     30  H12 UNL     1     -20.739  -5.646   6.957  1.00  0.00     0.174 HD
ATOM     31  H11 UNL     1     -21.696  -4.382   6.203  1.00  0.00     0.174 HD
ENDBRANCH  20  29
ENDBRANCH   1  17
BRANCH  15  32
HETATM   32  C9  UNL     1     -26.775  -9.183   7.580  1.00  0.00     0.187 C 
BRANCH  32  33
HETATM   33  C10 UNL     1     -26.425  -8.958   6.157  1.00  0.00     0.093 A 
HETATM   34  N11 UNL     1     -25.269  -8.442   5.692  1.00  0.00    -0.282 N 
HETATM   35  N12 UNL     1     -25.332  -8.397   4.368  1.00  0.00    -0.018 NA
ATOM     36  H11 UNL     1     -24.480  -8.138   6.262  1.00  0.00     0.184 HD
HETATM   37  N13 UNL     1     -26.490  -8.864   3.933  1.00  0.00    -0.251 N 
HETATM   38  C13 UNL     1     -27.177  -9.216   5.035  1.00  0.00     0.181 A 
BRANCH  37  39
HETATM   39  C11 UNL     1     -26.930  -8.976   2.537  1.00  0.00     0.175 C 
BRANCH  39  40
HETATM   40  C12 UNL     1     -25.693  -8.726   1.685  1.00  0.00     0.185 C 
BRANCH  40  41
HETATM   41  O2  UNL     1     -25.613  -9.594   0.609  1.00  0.00    -0.399 OA
ATOM     42  H2  UNL     1     -25.344 -10.467   0.869  1.00  0.00     0.209 HD
ENDBRANCH  40  41
ENDBRANCH  39  40
ENDBRANCH  37  39
BRANCH  38  43
HETATM   43  O3  UNL     1     -28.454  -9.757   5.027  1.00  0.00    -0.344 OA
ATOM     44  H3  UNL     1     -28.674 -10.650   4.790  1.00  0.00     0.219 HD
ENDBRANCH  38  43
ENDBRANCH  32  33
ENDBRANCH  15  32
BRANCH   5  45
HETATM   45  N6  UNL     1     -26.729  -4.340  14.272  1.00  0.00    -0.383 N 
ATOM     46  H62 UNL     1     -25.982  -3.769  13.878  1.00  0.00     0.157 HD
ATOM     47  H61 UNL     1     -27.052  -4.154  15.222  1.00  0.00     0.157 HD
ENDBRANCH   5  45
TORSDOF 10
ENDMDL
MODEL 2
REMARK VINA RESULT: -6.280058323      4.374      5.777
REMARK  10 active torsions:
REMARK  status: ('A' for Active; 'I' for Inactive)
REMARK    1  A    between atoms: N1_1  and  C1_4 
REMARK    2  A    between atoms: C2_7  and  N3_8 
REMARK    3  A    between atoms: N4_11  and  C3_12 
REMARK    4  A    between atoms: C5_16  and  N6_17 
REMARK       I    between atoms: N9_26  and  C8_27 
REMARK       I    between atoms: C8_27  and  N10_29 
REMARK    5  A    between atoms: N10_29  and  C9_31 
REMARK    6  A    between atoms: C9_31  and  C10_32 
REMARK    7  A    between atoms: N13_36  and  C11_37 
REMARK    8  A    between atoms: C11_37  and  C12_38 
REMARK    9  A    between atoms: C12_38  and  O2_39 
REMARK   10  A    between atoms: C13_41  and  O3_42 
ROOT
HETATM    1  C3  UNL     1     -20.574  -9.857  10.727  1.00  0.00     0.720 A 
HETATM    2  N5  UNL     1     -20.360 -10.787  11.728  1.00  0.00    -0.182 N 
ATOM      3  H5  UNL     1     -19.494 -11.308  11.865  1.00  0.00     0.184 HD
HETATM    4  C4  UNL     1     -21.436 -10.904  12.478  1.00  0.00     0.138 A 
HETATM    5  C5  UNL     1     -21.732 -11.682  13.584  1.00  0.00     0.131 A 
HETATM    6  N7  UNL     1     -22.948 -11.582  14.154  1.00  0.00    -0.337 N 
ATOM      7  H7  UNL     1     -23.161 -12.157  14.969  1.00  0.00     0.168 HD
HETATM    8  C6  UNL     1     -23.888 -10.746  13.680  1.00  0.00     0.183 A 
HETATM    9  N8  UNL     1     -23.584  -9.999  12.606  1.00  0.00    -0.336 N 
ATOM     10  H8  UNL     1     -24.292  -9.362  12.239  1.00  0.00     0.168 HD
HETATM   11  C7  UNL     1     -22.389 -10.054  11.995  1.00  0.00     0.166 A 
HETATM   12  N9  UNL     1     -21.825  -9.413  10.902  1.00  0.00    -0.077 N 
HETATM   13  C8  UNL     1     -22.565  -8.473  10.188  1.00  0.00     0.343 C 
HETATM   14  O1  UNL     1     -23.766  -8.222  10.566  1.00  0.00    -0.246 OA
HETATM   15  N10 UNL     1     -22.135  -7.751   9.073  1.00  0.00    -0.336 N 
ATOM     16  H10 UNL     1     -21.197  -7.878   8.693  1.00  0.00     0.164 HD
ENDROOT
BRANCH   1  17
HETATM   17  N4  UNL     1     -19.582  -9.528   9.767  1.00  0.00     0.078 N 
HETATM   18  C2  UNL     1     -18.758  -8.472   9.957  1.00  0.00     0.716 A 
HETATM   19  N2  UNL     1     -17.785  -8.174   9.074  1.00  0.00    -0.022 N 
HETATM   20  C1  UNL     1     -17.608  -8.932   7.967  1.00  0.00     0.694 A 
ATOM     21  H2  UNL     1     -17.177  -7.372   9.242  1.00  0.00     0.203 HD
HETATM   22  N14 UNL     1     -18.417  -9.981   7.768  1.00  0.00    -0.140 N 
HETATM   23  C14 UNL     1     -19.378 -10.261   8.655  1.00  0.00     0.376 A 
ATOM     24  H14 UNL     1     -18.300 -10.565   6.940  1.00  0.00     0.189 HD
HETATM   25  O4  UNL     1     -20.119 -11.259   8.429  1.00  0.00    -0.244 OA
BRANCH  18  26
HETATM   26  N3  UNL     1     -18.925  -7.748  11.011  1.00  0.00    -0.233 N 
ATOM     27  H32 UNL     1     -18.114  -7.267  11.402  1.00  0.00     0.174 HD
ATOM     28  H31 UNL     1     -19.847  -7.663  11.437  1.00  0.00     0.174 HD
ENDBRANCH  18  26
BRANCH  20  29
HETATM   29  N1  UNL     1     -16.686  -8.670   7.106  1.00  0.00    -0.234 N 
ATOM     30  H12 UNL     1     -16.519  -7.704   6.827  1.00  0.00     0.174 HD
ATOM     31  H11 UNL     1     -16.114  -9.406   6.691  1.00  0.00     0.174 HD
ENDBRANCH  20  29
ENDBRANCH   1  17
BRANCH  15  32
HETATM   32  C9  UNL     1     -23.084  -6.798   8.463  1.00  0.00     0.187 C 
BRANCH  32  33
HETATM   33  C10 UNL     1     -23.882  -7.457   7.400  1.00  0.00     0.093 A 
HETATM   34  N11 UNL     1     -23.478  -7.703   6.137  1.00  0.00    -0.282 N 
HETATM   35  N12 UNL     1     -24.467  -8.304   5.489  1.00  0.00    -0.018 NA
ATOM     36  H11 UNL     1     -22.565  -7.467   5.746  1.00  0.00     0.184 HD
HETATM   37  N13 UNL     1     -25.517  -8.467   6.276  1.00  0.00    -0.251 N 
HETATM   38  C13 UNL     1     -25.165  -7.945   7.465  1.00  0.00     0.181 A 
BRANCH  37  39
HETATM   39  C11 UNL     1     -26.798  -9.089   5.921  1.00  0.00     0.175 C 
BRANCH  39  40
HETATM   40  C12 UNL     1     -26.579  -9.763   4.574  1.00  0.00     0.185 C 
BRANCH  40  41
HETATM   41  O2  UNL     1     -26.632  -8.864   3.522  1.00  0.00    -0.399 OA
ATOM     42  H2  UNL     1     -26.191  -9.190   2.746  1.00  0.00     0.209 HD
ENDBRANCH  40  41
ENDBRANCH  39  40
ENDBRANCH  37  39
BRANCH  38  43
HETATM   43  O3  UNL     1     -25.985  -7.910   8.582  1.00  0.00    -0.344 OA
ATOM     44  H3  UNL     1     -26.430  -7.141   8.917  1.00  0.00     0.219 HD
ENDBRANCH  38  43
ENDBRANCH  32  33
ENDBRANCH  15  32
BRANCH   5  45
HETATM   45  N6  UNL     1     -20.818 -12.474  14.021  1.00  0.00    -0.383 N 
ATOM     46  H62 UNL     1     -19.890 -12.535  13.602  1.00  0.00     0.157 HD
ATOM     47  H61 UNL     1     -21.043 -13.063  14.823  1.00  0.00     0.157 HD
ENDBRANCH   5  45
TORSDOF 10
ENDMDL
MODEL 3
REMARK VINA RESULT: -6.250759017      2.525      4.993
REMARK  10 active torsions:
REMARK  status: ('A' for Active; 'I' for Inactive)
REMARK    1  A    between atoms: N1_1  and  C1_4 
REMARK    2  A    between atoms: C2_7  and  N3_8 
REMARK    3  A    between atoms: N4_11  and  C3_12 
REMARK    4  A    between atoms: C5_16  and  N6_17 
REMARK       I    between atoms: N9_26  and  C8_27 
REMARK       I    between atoms: C8_27  and  N10_29 
REMARK    5  A    between atoms: N10_29  and  C9_31 
REMARK    6  A    between atoms: C9_31  and  C10_32 
REMARK    7  A    between atoms: N13_36  and  C11_37 
REMARK    8  A    between atoms: C11_37  and  C12_38 
REMARK    9  A    between atoms: C12_38  and  O2_39 
REMARK   10  A    between atoms: C13_41  and  O3_42 
ROOT
HETATM    1  C3  UNL     1     -24.318  -4.340   9.953  1.00  0.00     0.720 A 
HETATM    2  N5  UNL     1     -24.610  -3.035  10.307  1.00  0.00    -0.182 N 
ATOM      3  H5  UNL     1     -24.948  -2.741  11.223  1.00  0.00     0.184 HD
HETATM    4  C4  UNL     1     -24.390  -2.228   9.290  1.00  0.00     0.138 A 
HETATM    5  C5  UNL     1     -24.524  -0.859   9.129  1.00  0.00     0.131 A 
HETATM    6  N7  UNL     1     -24.215  -0.302   7.943  1.00  0.00    -0.337 N 
ATOM      7  H7  UNL     1     -24.315   0.707   7.830  1.00  0.00     0.168 HD
HETATM    8  C6  UNL     1     -23.777  -1.036   6.905  1.00  0.00     0.183 A 
HETATM    9  N8  UNL     1     -23.652  -2.362   7.079  1.00  0.00    -0.336 N 
ATOM     10  H8  UNL     1     -23.321  -2.928   6.297  1.00  0.00     0.168 HD
HETATM   11  C7  UNL     1     -23.945  -2.975   8.237  1.00  0.00     0.166 A 
HETATM   12  N9  UNL     1     -23.909  -4.290   8.678  1.00  0.00    -0.077 N 
HETATM   13  C8  UNL     1     -23.491  -5.302   7.817  1.00  0.00     0.343 C 
HETATM   14  O1  UNL     1     -23.145  -4.986   6.621  1.00  0.00    -0.246 OA
HETATM   15  N10 UNL     1     -23.403  -6.663   8.116  1.00  0.00    -0.336 N 
ATOM     16  H10 UNL     1     -23.656  -7.018   9.038  1.00  0.00     0.164 HD
ENDROOT
BRANCH   1  17
HETATM   17  N4  UNL     1     -24.463  -5.426  10.855  1.00  0.00     0.078 N 
HETATM   18  C2  UNL     1     -25.513  -6.273  10.754  1.00  0.00     0.716 A 
HETATM   19  N2  UNL     1     -25.640  -7.333  11.577  1.00  0.00    -0.022 N 
HETATM   20  C1  UNL     1     -24.712  -7.574  12.533  1.00  0.00     0.694 A 
ATOM     21  H2  UNL     1     -26.441  -7.957  11.479  1.00  0.00     0.203 HD
HETATM   22  N14 UNL     1     -23.668  -6.742  12.642  1.00  0.00    -0.140 N 
HETATM   23  C14 UNL     1     -23.558  -5.695  11.816  1.00  0.00     0.376 A 
ATOM     24  H14 UNL     1     -22.957  -6.907  13.354  1.00  0.00     0.189 HD
HETATM   25  O4  UNL     1     -22.558  -4.936  11.954  1.00  0.00    -0.244 OA
BRANCH  18  26
HETATM   26  N3  UNL     1     -26.398  -6.045   9.845  1.00  0.00    -0.233 N 
ATOM     27  H32 UNL     1     -27.260  -6.592   9.860  1.00  0.00     0.174 HD
ATOM     28  H31 UNL     1     -26.234  -5.334   9.133  1.00  0.00     0.174 HD
ENDBRANCH  18  26
BRANCH  20  29
HETATM   29  N1  UNL     1     -24.809  -8.579  13.333  1.00  0.00    -0.234 N 
ATOM     30  H12 UNL     1     -25.456  -8.534  14.120  1.00  0.00     0.174 HD
ATOM     31  H11 UNL     1     -24.253  -9.425  13.203  1.00  0.00     0.174 HD
ENDBRANCH  20  29
ENDBRANCH   1  17
BRANCH  15  32
HETATM   32  C9  UNL     1     -22.933  -7.572   7.051  1.00  0.00     0.187 C 
BRANCH  32  33
HETATM   33  C10 UNL     1     -24.060  -7.999   6.186  1.00  0.00     0.093 A 
HETATM   34  N11 UNL     1     -24.038  -8.105   4.843  1.00  0.00    -0.282 N 
HETATM   35  N12 UNL     1     -25.231  -8.515   4.434  1.00  0.00    -0.018 NA
ATOM     36  H11 UNL     1     -23.238  -7.904   4.241  1.00  0.00     0.184 HD
HETATM   37  N13 UNL     1     -26.049  -8.687   5.459  1.00  0.00    -0.251 N 
HETATM   38  C13 UNL     1     -25.332  -8.370   6.552  1.00  0.00     0.181 A 
BRANCH  37  39
HETATM   39  C11 UNL     1     -27.447  -9.131   5.410  1.00  0.00     0.175 C 
BRANCH  39  40
HETATM   40  C12 UNL     1     -27.583  -9.947   4.131  1.00  0.00     0.185 C 
BRANCH  40  41
HETATM   41  O2  UNL     1     -27.700  -9.146   3.007  1.00  0.00    -0.399 OA
ATOM     42  H2  UNL     1     -27.030  -9.334   2.360  1.00  0.00     0.209 HD
ENDBRANCH  40  41
ENDBRANCH  39  40
ENDBRANCH  37  39
BRANCH  38  43
HETATM   43  O3  UNL     1     -25.817  -8.413   7.851  1.00  0.00    -0.344 OA
ATOM     44  H3  UNL     1     -25.418  -7.994   8.604  1.00  0.00     0.219 HD
ENDBRANCH  38  43
ENDBRANCH  32  33
ENDBRANCH  15  32
BRANCH   5  45
HETATM   45  N6  UNL     1     -24.944  -0.177  10.134  1.00  0.00    -0.383 N 
ATOM     46  H62 UNL     1     -25.671  -0.511  10.767  1.00  0.00     0.157 HD
ATOM     47  H61 UNL     1     -24.525   0.739  10.295  1.00  0.00     0.157 HD
ENDBRANCH   5  45
TORSDOF 10
ENDMDL
MODEL 4
REMARK VINA RESULT: -6.210674864      2.461      5.011
REMARK  10 active torsions:
REMARK  status: ('A' for Active; 'I' for Inactive)
REMARK    1  A    between atoms: N1_1  and  C1_4 
REMARK    2  A    between atoms: C2_7  and  N3_8 
REMARK    3  A    between atoms: N4_11  and  C3_12 
REMARK    4  A    between atoms: C5_16  and  N6_17 
REMARK       I    between atoms: N9_26  and  C8_27 
REMARK       I    between atoms: C8_27  and  N10_29 
REMARK    5  A    between atoms: N10_29  and  C9_31 
REMARK    6  A    between atoms: C9_31  and  C10_32 
REMARK    7  A    between atoms: N13_36  and  C11_37 
REMARK    8  A    between atoms: C11_37  and  C12_38 
REMARK    9  A    between atoms: C12_38  and  O2_39 
REMARK   10  A    between atoms: C13_41  and  O3_42 
ROOT
HETATM    1  C3  UNL     1     -24.502  -4.161   9.849  1.00  0.00     0.720 A 
HETATM    2  N5  UNL     1     -24.756  -2.835  10.147  1.00  0.00    -0.182 N 
ATOM      3  H5  UNL     1     -25.143  -2.499  11.029  1.00  0.00     0.184 HD
HETATM    4  C4  UNL     1     -24.428  -2.067   9.129  1.00  0.00     0.138 A 
HETATM    5  C5  UNL     1     -24.486  -0.699   8.924  1.00  0.00     0.131 A 
HETATM    6  N7  UNL     1     -24.069  -0.190   7.750  1.00  0.00    -0.337 N 
ATOM      7  H7  UNL     1     -24.113   0.818   7.604  1.00  0.00     0.168 HD
HETATM    8  C6  UNL     1     -23.594  -0.973   6.764  1.00  0.00     0.183 A 
HETATM    9  N8  UNL     1     -23.545  -2.298   6.980  1.00  0.00    -0.336 N 
ATOM     10  H8  UNL     1     -23.187  -2.900   6.238  1.00  0.00     0.168 HD
HETATM   11  C7  UNL     1     -23.947  -2.864   8.130  1.00  0.00     0.166 A 
HETATM   12  N9  UNL     1     -24.004  -4.166   8.605  1.00  0.00    -0.077 N 
HETATM   13  C8  UNL     1     -23.574  -5.220   7.802  1.00  0.00     0.343 C 
HETATM   14  O1  UNL     1     -23.131  -4.954   6.626  1.00  0.00    -0.246 OA
HETATM   15  N10 UNL     1     -23.572  -6.574   8.141  1.00  0.00    -0.336 N 
ATOM     16  H10 UNL     1     -23.904  -6.890   9.051  1.00  0.00     0.164 HD
ENDROOT
BRANCH   1  17
HETATM   17  N4  UNL     1     -24.761  -5.213  10.765  1.00  0.00     0.078 N 
HETATM   18  C2  UNL     1     -24.025  -5.345  11.892  1.00  0.00     0.716 A 
HETATM   19  N2  UNL     1     -24.288  -6.314  12.792  1.00  0.00    -0.022 N 
HETATM   20  C1  UNL     1     -25.304  -7.184  12.585  1.00  0.00     0.694 A 
ATOM     21  H2  UNL     1     -23.718  -6.391  13.634  1.00  0.00     0.203 HD
HETATM   22  N14 UNL     1     -26.040  -7.062  11.473  1.00  0.00    -0.140 N 
HETATM   23  C14 UNL     1     -25.764  -6.095  10.591  1.00  0.00     0.376 A 
ATOM     24  H14 UNL     1     -26.811  -7.707  11.298  1.00  0.00     0.189 HD
HETATM   25  O4  UNL     1     -26.483  -6.016   9.555  1.00  0.00    -0.244 OA
BRANCH  18  26
HETATM   26  N3  UNL     1     -23.057  -4.518  12.092  1.00  0.00    -0.233 N 
ATOM     27  H32 UNL     1     -22.114  -4.892  12.202  1.00  0.00     0.174 HD
ATOM     28  H31 UNL     1     -23.237  -3.515  12.136  1.00  0.00     0.174 HD
ENDBRANCH  18  26
BRANCH  20  29
HETATM   29  N1  UNL     1     -25.577  -8.119  13.427  1.00  0.00    -0.234 N 
ATOM     30  H12 UNL     1     -25.878  -7.874  14.370  1.00  0.00     0.174 HD
ATOM     31  H11 UNL     1     -25.500  -9.106  13.179  1.00  0.00     0.174 HD
ENDBRANCH  20  29
ENDBRANCH   1  17
BRANCH  15  32
HETATM   32  C9  UNL     1     -23.071  -7.534   7.135  1.00  0.00     0.187 C 
BRANCH  32  33
HETATM   33  C10 UNL     1     -24.167  -7.979   6.241  1.00  0.00     0.093 A 
HETATM   34  N11 UNL     1     -24.113  -8.067   4.897  1.00  0.00    -0.282 N 
HETATM   35  N12 UNL     1     -25.286  -8.504   4.457  1.00  0.00    -0.018 NA
ATOM     36  H11 UNL     1     -23.306  -7.837   4.316  1.00  0.00     0.184 HD
HETATM   37  N13 UNL     1     -26.121  -8.710   5.461  1.00  0.00    -0.251 N 
HETATM   38  C13 UNL     1     -25.437  -8.388   6.574  1.00  0.00     0.181 A 
BRANCH  37  39
HETATM   39  C11 UNL     1     -27.505  -9.191   5.375  1.00  0.00     0.175 C 
BRANCH  39  40
HETATM   40  C12 UNL     1     -27.597  -9.975   4.073  1.00  0.00     0.185 C 
BRANCH  40  41
HETATM   41  O2  UNL     1     -27.742  -9.148   2.971  1.00  0.00    -0.399 OA
ATOM     42  H2  UNL     1     -26.907  -8.834   2.644  1.00  0.00     0.209 HD
ENDBRANCH  40  41
ENDBRANCH  39  40
ENDBRANCH  37  39
BRANCH  38  43
HETATM   43  O3  UNL     1     -25.948  -8.462   7.861  1.00  0.00    -0.344 OA
ATOM     44  H3  UNL     1     -26.862  -8.593   8.085  1.00  0.00     0.219 HD
ENDBRANCH  38  43
ENDBRANCH  32  33
ENDBRANCH  15  32
BRANCH   5  45
HETATM   45  N6  UNL     1     -24.943   0.030   9.879  1.00  0.00    -0.383 N 
ATOM     46  H62 UNL     1     -25.518  -0.342  10.635  1.00  0.00     0.157 HD
ATOM     47  H61 UNL     1     -24.714   1.024   9.869  1.00  0.00     0.157 HD
ENDBRANCH   5  45
TORSDOF 10
ENDMDL
MODEL 5
REMARK VINA RESULT: -6.139821682      2.444      3.623
REMARK  10 active torsions:
REMARK  status: ('A' for Active; 'I' for Inactive)
REMARK    1  A    between atoms: N1_1  and  C1_4 
REMARK    2  A    between atoms: C2_7  and  N3_8 
REMARK    3  A    between atoms: N4_11  and  C3_12 
REMARK    4  A    between atoms: C5_16  and  N6_17 
REMARK       I    between atoms: N9_26  and  C8_27 
REMARK       I    between atoms: C8_27  and  N10_29 
REMARK    5  A    between atoms: N10_29  and  C9_31 
REMARK    6  A    between atoms: C9_31  and  C10_32 
REMARK    7  A    between atoms: N13_36  and  C11_37 
REMARK    8  A    between atoms: C11_37  and  C12_38 
REMARK    9  A    between atoms: C12_38  and  O2_39 
REMARK   10  A    between atoms: C13_41  and  O3_42 
ROOT
HETATM    1  C3  UNL     1     -22.990  -6.639   9.989  1.00  0.00     0.720 A 
HETATM    2  N5  UNL     1     -22.435  -5.601  10.716  1.00  0.00    -0.182 N 
ATOM      3  H5  UNL     1     -21.480  -5.584  11.072  1.00  0.00     0.184 HD
HETATM    4  C4  UNL     1     -23.319  -4.639  10.881  1.00  0.00     0.138 A 
HETATM    5  C5  UNL     1     -23.265  -3.412  11.521  1.00  0.00     0.131 A 
HETATM    6  N7  UNL     1     -24.355  -2.622  11.524  1.00  0.00    -0.337 N 
ATOM      7  H7  UNL     1     -24.311  -1.719  11.996  1.00  0.00     0.168 HD
HETATM    8  C6  UNL     1     -25.500  -2.988  10.921  1.00  0.00     0.183 A 
HETATM    9  N8  UNL     1     -25.535  -4.182  10.305  1.00  0.00    -0.336 N 
ATOM     10  H8  UNL     1     -26.399  -4.469   9.845  1.00  0.00     0.168 HD
HETATM   11  C7  UNL     1     -24.480  -5.013  10.268  1.00  0.00     0.166 A 
HETATM   12  N9  UNL     1     -24.247  -6.265   9.720  1.00  0.00    -0.077 N 
HETATM   13  C8  UNL     1     -25.260  -6.919   9.020  1.00  0.00     0.343 C 
HETATM   14  O1  UNL     1     -26.398  -6.335   8.901  1.00  0.00    -0.246 OA
HETATM   15  N10 UNL     1     -25.176  -8.174   8.416  1.00  0.00    -0.336 N 
ATOM     16  H10 UNL     1     -24.316  -8.720   8.454  1.00  0.00     0.164 HD
ENDROOT
BRANCH   1  17
HETATM   17  N4  UNL     1     -22.264  -7.813   9.660  1.00  0.00     0.078 N 
HETATM   18  C2  UNL     1     -21.684  -7.950   8.446  1.00  0.00     0.716 A 
HETATM   19  N2  UNL     1     -20.956  -9.042   8.136  1.00  0.00    -0.022 N 
HETATM   20  C1  UNL     1     -20.788 -10.034   9.041  1.00  0.00     0.694 A 
ATOM     21  H2  UNL     1     -20.529  -9.120   7.213  1.00  0.00     0.203 HD
HETATM   22  N14 UNL     1     -21.357  -9.909  10.247  1.00  0.00    -0.140 N 
HETATM   23  C14 UNL     1     -22.076  -8.819  10.537  1.00  0.00     0.376 A 
ATOM     24  H14 UNL     1     -21.241 -10.644  10.944  1.00  0.00     0.189 HD
HETATM   25  O4  UNL     1     -22.595  -8.741  11.686  1.00  0.00    -0.244 OA
BRANCH  18  26
HETATM   26  N3  UNL     1     -21.843  -7.008   7.582  1.00  0.00    -0.233 N 
ATOM     27  H32 UNL     1     -21.054  -6.760   6.983  1.00  0.00     0.174 HD
ATOM     28  H31 UNL     1     -22.738  -6.526   7.504  1.00  0.00     0.174 HD
ENDBRANCH  18  26
BRANCH  20  29
HETATM   29  N1  UNL     1     -20.098 -11.087   8.771  1.00  0.00    -0.234 N 
ATOM     30  H12 UNL     1     -20.134 -11.486   7.833  1.00  0.00     0.174 HD
ATOM     31  H11 UNL     1     -19.512 -11.540   9.474  1.00  0.00     0.174 HD
ENDBRANCH  20  29
ENDBRANCH   1  17
BRANCH  15  32
HETATM   32  C9  UNL     1     -26.375  -8.685   7.721  1.00  0.00     0.187 C 
BRANCH  32  33
HETATM   33  C10 UNL     1     -26.163  -8.707   6.253  1.00  0.00     0.093 A 
HETATM   34  N11 UNL     1     -25.034  -8.357   5.605  1.00  0.00    -0.282 N 
HETATM   35  N12 UNL     1     -25.232  -8.510   4.303  1.00  0.00    -0.018 NA
ATOM     36  H11 UNL     1     -24.172  -8.030   6.043  1.00  0.00     0.184 HD
HETATM   37  N13 UNL     1     -26.455  -8.951   4.059  1.00  0.00    -0.251 N 
HETATM   38  C13 UNL     1     -27.042  -9.077   5.263  1.00  0.00     0.181 A 
BRANCH  37  39
HETATM   39  C11 UNL     1     -27.045  -9.241   2.746  1.00  0.00     0.175 C 
BRANCH  39  40
HETATM   40  C12 UNL     1     -25.995  -8.843   1.718  1.00  0.00     0.185 C 
BRANCH  40  41
HETATM   41  O2  UNL     1     -25.970  -9.704   0.633  1.00  0.00    -0.399 OA
ATOM     42  H2  UNL     1     -25.382  -9.405  -0.051  1.00  0.00     0.209 HD
ENDBRANCH  40  41
ENDBRANCH  39  40
ENDBRANCH  37  39
BRANCH  38  43
HETATM   43  O3  UNL     1     -28.343  -9.515   5.462  1.00  0.00    -0.344 OA
ATOM     44  H3  UNL     1     -28.595 -10.293   5.945  1.00  0.00     0.219 HD
ENDBRANCH  38  43
ENDBRANCH  32  33
ENDBRANCH  15  32
BRANCH   5  45
HETATM   45  N6  UNL     1     -22.161  -3.082  12.091  1.00  0.00    -0.383 N 
ATOM     46  H62 UNL     1     -21.448  -2.515  11.632  1.00  0.00     0.157 HD
ATOM     47  H61 UNL     1     -22.002  -3.408  13.044  1.00  0.00     0.157 HD
ENDBRANCH   5  45
TORSDOF 10
ENDMDL
