MODEL 1
REMARK VINA RESULT: -4.968794350      0.000      0.000
REMARK  0 active torsions:
REMARK  status: ('A' for Active; 'I' for Inactive)
ROOT
HETATM    1  C1  UNL     1      14.559   4.002  18.788  1.00  0.00     0.098 C 
HETATM    2  C2  UNL     1      15.215   3.878  17.444  1.00  0.00     0.125 A 
HETATM    3  N1  UNL     1      15.181   4.870  16.544  1.00  0.00    -0.317 N 
ATOM      4  H1  UNL     1      14.693   5.732  16.786  1.00  0.00     0.170 HD
HETATM    5  C3  UNL     1      15.765   4.776  15.330  1.00  0.00     0.180 A 
HETATM    6  S1  UNL     1      15.719   5.995  14.237  1.00  0.00    -0.040 SA
HETATM    7  N2  UNL     1      16.411   3.642  15.003  1.00  0.00    -0.299 N 
ATOM      8  H2  UNL     1      16.866   3.530  14.097  1.00  0.00     0.171 HD
HETATM    9  C4  UNL     1      16.430   2.658  15.927  1.00  0.00     0.225 A 
HETATM   10  N3  UNL     1      17.041   1.567  15.637  1.00  0.00    -0.365 N 
ATOM     11  H31 UNL     1      17.056   0.823  16.336  1.00  0.00     0.159 HD
ATOM     12  H32 UNL     1      17.493   1.466  14.728  1.00  0.00     0.159 HD
HETATM   13  O1  UNL     1      15.854   2.787  17.089  1.00  0.00    -0.267 OA
ENDROOT
TORSDOF 0
ENDMDL
MODEL 2
REMARK VINA RESULT: -4.784590249      2.623      3.878
REMARK  0 active torsions:
REMARK  status: ('A' for Active; 'I' for Inactive)
ROOT
HETATM    1  C1  UNL     1      16.735   1.894  11.110  1.00  0.00     0.098 C 
HETATM    2  C2  UNL     1      16.677   2.602  12.432  1.00  0.00     0.125 A 
HETATM    3  N1  UNL     1      16.503   3.928  12.518  1.00  0.00    -0.317 N 
ATOM      4  H1  UNL     1      16.408   4.465  11.657  1.00  0.00     0.170 HD
HETATM    5  C3  UNL     1      16.449   4.583  13.698  1.00  0.00     0.180 A 
HETATM    6  S1  UNL     1      16.235   6.204  13.795  1.00  0.00    -0.040 SA
HETATM    7  N2  UNL     1      16.575   3.881  14.840  1.00  0.00    -0.299 N 
ATOM      8  H2  UNL     1      16.540   4.336  15.752  1.00  0.00     0.171 HD
HETATM    9  C4  UNL     1      16.749   2.547  14.725  1.00  0.00     0.225 A 
HETATM   10  N3  UNL     1      16.871   1.857  15.800  1.00  0.00    -0.365 N 
ATOM     11  H31 UNL     1      17.002   0.849  15.713  1.00  0.00     0.159 HD
ATOM     12  H32 UNL     1      16.834   2.323  16.707  1.00  0.00     0.159 HD
HETATM   13  O1  UNL     1      16.796   1.952  13.566  1.00  0.00    -0.267 OA
ENDROOT
TORSDOF 0
ENDMDL
MODEL 3
REMARK VINA RESULT: -4.571399562      2.470      2.615
REMARK  0 active torsions:
REMARK  status: ('A' for Active; 'I' for Inactive)
ROOT
HETATM    1  C1  UNL     1      14.966   6.312  15.477  1.00  0.00     0.098 C 
HETATM    2  C2  UNL     1      15.622   5.101  14.882  1.00  0.00     0.125 A 
HETATM    3  N1  UNL     1      15.883   5.008  13.571  1.00  0.00    -0.317 N 
ATOM      4  H1  UNL     1      15.626   5.787  12.965  1.00  0.00     0.170 HD
HETATM    5  C3  UNL     1      16.473   3.926  13.018  1.00  0.00     0.180 A 
HETATM    6  S1  UNL     1      16.789   3.821  11.414  1.00  0.00    -0.040 SA
HETATM    7  N2  UNL     1      16.815   2.893  13.811  1.00  0.00    -0.299 N 
ATOM      8  H2  UNL     1      17.262   2.057  13.434  1.00  0.00     0.171 HD
HETATM    9  C4  UNL     1      16.541   3.012  15.127  1.00  0.00     0.225 A 
HETATM   10  N3  UNL     1      16.858   2.040  15.903  1.00  0.00    -0.365 N 
ATOM     11  H31 UNL     1      16.652   2.130  16.897  1.00  0.00     0.159 HD
ATOM     12  H32 UNL     1      17.305   1.209  15.515  1.00  0.00     0.159 HD
HETATM   13  O1  UNL     1      15.970   4.074  15.623  1.00  0.00    -0.267 OA
ENDROOT
TORSDOF 0
ENDMDL
MODEL 4
REMARK VINA RESULT: -4.514018992      1.289      1.295
REMARK  0 active torsions:
REMARK  status: ('A' for Active; 'I' for Inactive)
ROOT
HETATM    1  C1  UNL     1      14.077   5.278  17.229  1.00  0.00     0.098 C 
HETATM    2  C2  UNL     1      15.044   4.706  16.235  1.00  0.00     0.125 A 
HETATM    3  N1  UNL     1      15.419   5.383  15.141  1.00  0.00    -0.317 N 
ATOM      4  H1  UNL     1      15.032   6.314  14.986  1.00  0.00     0.170 HD
HETATM    5  C3  UNL     1      16.288   4.884  14.235  1.00  0.00     0.180 A 
HETATM    6  S1  UNL     1      16.741   5.719  12.901  1.00  0.00    -0.040 SA
HETATM    7  N2  UNL     1      16.802   3.655  14.432  1.00  0.00    -0.299 N 
ATOM      8  H2  UNL     1      17.461   3.242  13.772  1.00  0.00     0.171 HD
HETATM    9  C4  UNL     1      16.408   2.996  15.541  1.00  0.00     0.225 A 
HETATM   10  N3  UNL     1      16.886   1.823  15.751  1.00  0.00    -0.365 N 
ATOM     11  H31 UNL     1      16.588   1.324  16.589  1.00  0.00     0.159 HD
ATOM     12  H32 UNL     1      17.544   1.419  15.085  1.00  0.00     0.159 HD
HETATM   13  O1  UNL     1      15.567   3.512  16.393  1.00  0.00    -0.267 OA
ENDROOT
TORSDOF 0
ENDMDL
MODEL 5
REMARK VINA RESULT: -4.507623921      1.633      1.771
REMARK  0 active torsions:
REMARK  status: ('A' for Active; 'I' for Inactive)
ROOT
HETATM    1  C1  UNL     1      15.405   2.592  17.414  1.00  0.00     0.098 C 
HETATM    2  C2  UNL     1      15.924   3.214  16.152  1.00  0.00     0.125 A 
HETATM    3  N1  UNL     1      16.055   4.542  16.017  1.00  0.00    -0.317 N 
ATOM      4  H1  UNL     1      15.792   5.140  16.800  1.00  0.00     0.170 HD
HETATM    5  C3  UNL     1      16.520   5.120  14.889  1.00  0.00     0.180 A 
HETATM    6  S1  UNL     1      16.678   6.743  14.734  1.00  0.00    -0.040 SA
HETATM    7  N2  UNL     1      16.869   4.337  13.851  1.00  0.00    -0.299 N 
ATOM      8  H2  UNL     1      17.225   4.733  12.981  1.00  0.00     0.171 HD
HETATM    9  C4  UNL     1      16.727   3.004  14.012  1.00  0.00     0.225 A 
HETATM   10  N3  UNL     1      17.054   2.237  13.036  1.00  0.00    -0.365 N 
ATOM     11  H31 UNL     1      16.947   1.230  13.158  1.00  0.00     0.159 HD
ATOM     12  H32 UNL     1      17.409   2.644  12.171  1.00  0.00     0.159 HD
HETATM   13  O1  UNL     1      16.274   2.484  15.118  1.00  0.00    -0.267 OA
ENDROOT
TORSDOF 0
ENDMDL
