MODEL 1
REMARK VINA RESULT: -4.865888544      0.000      0.000
REMARK  0 active torsions:
REMARK  status: ('A' for Active; 'I' for Inactive)
ROOT
HETATM    1  C1  UNL     1      14.917   6.968  15.076  1.00  0.00     0.066 C 
HETATM    2  C2  UNL     1      15.035   5.655  15.816  1.00  0.00     0.025 C 
HETATM    3  N1  UNL     1      14.147   5.189  16.600  1.00  0.00    -0.363 N 
ATOM      4  H1  UNL     1      13.270   5.668  16.799  1.00  0.00     0.161 HD
HETATM    5  C3  UNL     1      14.498   3.931  17.175  1.00  0.00     0.192 C 
HETATM    6  C4  UNL     1      13.333   2.980  17.100  1.00  0.00     0.070 C 
HETATM    7  C5  UNL     1      15.094   4.044  18.542  1.00  0.00     0.070 C 
HETATM    8  N2  UNL     1      15.581   3.474  16.278  1.00  0.00    -0.028 N 
ATOM      9  H21 UNL     1      15.281   2.824  15.552  1.00  0.00     0.282 HD
ATOM     10  H22 UNL     1      16.252   2.844  16.716  1.00  0.00     0.282 HD
HETATM   11  C6  UNL     1      16.153   4.704  15.780  1.00  0.00     0.339 C 
HETATM   12  C7  UNL     1      16.740   4.550  14.459  1.00  0.00     0.099 C 
HETATM   13  N3  UNL     1      17.194   4.417  13.388  1.00  0.00    -0.195 NA
ENDROOT
TORSDOF 0
ENDMDL
MODEL 2
REMARK VINA RESULT: -4.849465179      2.620      4.827
REMARK  0 active torsions:
REMARK  status: ('A' for Active; 'I' for Inactive)
ROOT
HETATM    1  C1  UNL     1      17.063   5.824  14.762  1.00  0.00     0.066 C 
HETATM    2  C2  UNL     1      17.031   4.633  13.831  1.00  0.00     0.025 C 
HETATM    3  N1  UNL     1      17.531   4.620  12.661  1.00  0.00    -0.363 N 
ATOM      4  H1  UNL     1      18.002   5.424  12.247  1.00  0.00     0.161 HD
HETATM    5  C3  UNL     1      17.370   3.374  11.986  1.00  0.00     0.192 C 
HETATM    6  C4  UNL     1      18.662   2.965  11.330  1.00  0.00     0.070 C 
HETATM    7  C5  UNL     1      16.192   3.342  11.064  1.00  0.00     0.070 C 
HETATM    8  N2  UNL     1      17.058   2.457  13.102  1.00  0.00    -0.028 N 
ATOM      9  H21 UNL     1      17.858   1.928  13.450  1.00  0.00     0.282 HD
ATOM     10  H22 UNL     1      16.499   1.645  12.837  1.00  0.00     0.282 HD
HETATM   11  C6  UNL     1      16.436   3.314  14.085  1.00  0.00     0.339 C 
HETATM   12  C7  UNL     1      16.636   2.840  15.444  1.00  0.00     0.099 C 
HETATM   13  N3  UNL     1      16.818   2.457  16.535  1.00  0.00    -0.195 NA
ENDROOT
TORSDOF 0
ENDMDL
MODEL 3
REMARK VINA RESULT: -4.802545736      1.807      3.748
REMARK  0 active torsions:
REMARK  status: ('A' for Active; 'I' for Inactive)
ROOT
HETATM    1  C1  UNL     1      14.396   4.742  16.865  1.00  0.00     0.066 C 
HETATM    2  C2  UNL     1      15.385   5.048  15.763  1.00  0.00     0.025 C 
HETATM    3  N1  UNL     1      15.746   6.221  15.425  1.00  0.00    -0.363 N 
ATOM      4  H1  UNL     1      15.394   7.065  15.876  1.00  0.00     0.161 HD
HETATM    5  C3  UNL     1      16.690   6.241  14.357  1.00  0.00     0.192 C 
HETATM    6  C4  UNL     1      17.812   7.195  14.669  1.00  0.00     0.070 C 
HETATM    7  C5  UNL     1      16.069   6.464  13.014  1.00  0.00     0.070 C 
HETATM    8  N2  UNL     1      17.193   4.851  14.363  1.00  0.00    -0.028 N 
ATOM      9  H21 UNL     1      18.074   4.723  14.863  1.00  0.00     0.282 HD
ATOM     10  H22 UNL     1      17.533   4.522  13.460  1.00  0.00     0.282 HD
HETATM   11  C6  UNL     1      16.087   4.091  14.899  1.00  0.00     0.339 C 
HETATM   12  C7  UNL     1      16.521   2.892  15.596  1.00  0.00     0.099 C 
HETATM   13  N3  UNL     1      16.884   1.938  16.170  1.00  0.00    -0.195 NA
ENDROOT
TORSDOF 0
ENDMDL
MODEL 4
REMARK VINA RESULT: -4.782546420      1.770      3.718
REMARK  0 active torsions:
REMARK  status: ('A' for Active; 'I' for Inactive)
ROOT
HETATM    1  C1  UNL     1      14.138   5.446  17.034  1.00  0.00     0.066 C 
HETATM    2  C2  UNL     1      15.197   5.111  16.008  1.00  0.00     0.025 C 
HETATM    3  N1  UNL     1      15.891   5.975  15.382  1.00  0.00    -0.363 N 
ATOM      4  H1  UNL     1      15.791   6.980  15.522  1.00  0.00     0.161 HD
HETATM    5  C3  UNL     1      16.824   5.402  14.468  1.00  0.00     0.192 C 
HETATM    6  C4  UNL     1      18.168   6.066  14.608  1.00  0.00     0.070 C 
HETATM    7  C5  UNL     1      16.325   5.351  13.059  1.00  0.00     0.070 C 
HETATM    8  N2  UNL     1      16.900   4.004  14.940  1.00  0.00    -0.028 N 
ATOM      9  H21 UNL     1      17.694   3.807  15.550  1.00  0.00     0.282 HD
ATOM     10  H22 UNL     1      17.149   3.328  14.218  1.00  0.00     0.282 HD
HETATM   11  C6  UNL     1      15.609   3.779  15.549  1.00  0.00     0.339 C 
HETATM   12  C7  UNL     1      15.659   2.790  16.613  1.00  0.00     0.099 C 
HETATM   13  N3  UNL     1      15.716   2.004  17.479  1.00  0.00    -0.195 NA
ENDROOT
TORSDOF 0
ENDMDL
MODEL 5
REMARK VINA RESULT: -4.766372841      1.372      3.378
REMARK  0 active torsions:
REMARK  status: ('A' for Active; 'I' for Inactive)
ROOT
HETATM    1  C1  UNL     1      14.134   3.986  17.636  1.00  0.00     0.066 C 
HETATM    2  C2  UNL     1      14.798   4.698  16.479  1.00  0.00     0.025 C 
HETATM    3  N1  UNL     1      14.772   5.958  16.299  1.00  0.00    -0.363 N 
ATOM      4  H1  UNL     1      14.293   6.602  16.928  1.00  0.00     0.161 HD
HETATM    5  C3  UNL     1      15.475   6.382  15.133  1.00  0.00     0.192 C 
HETATM    6  C4  UNL     1      16.342   7.571  15.450  1.00  0.00     0.070 C 
HETATM    7  C5  UNL     1      14.593   6.582  13.942  1.00  0.00     0.070 C 
HETATM    8  N2  UNL     1      16.321   5.206  14.839  1.00  0.00    -0.028 N 
ATOM      9  H21 UNL     1      17.277   5.275  15.188  1.00  0.00     0.282 HD
ATOM     10  H22 UNL     1      16.572   5.103  13.856  1.00  0.00     0.282 HD
HETATM   11  C6  UNL     1      15.566   4.099  15.381  1.00  0.00     0.339 C 
HETATM   12  C7  UNL     1      16.417   2.998  15.802  1.00  0.00     0.099 C 
HETATM   13  N3  UNL     1      17.113   2.125  16.154  1.00  0.00    -0.195 NA
ENDROOT
TORSDOF 0
ENDMDL
