MODEL 1
REMARK VINA RESULT: -4.672731481      0.000      0.000
REMARK  0 active torsions:
REMARK  status: ('A' for Active; 'I' for Inactive)
ROOT
HETATM    1  C1  UNL     1      19.013   2.341  10.841  1.00  0.00     0.068 C 
HETATM    2  C2  UNL     1      17.729   2.722  11.542  1.00  0.00     0.216 C 
HETATM    3  C3  UNL     1      17.095   1.464  12.062  1.00  0.00     0.068 C 
HETATM    4  N1  UNL     1      16.815   3.386  10.620  1.00  0.00    -0.059 NA
HETATM    5  O1  UNL     1      15.998   4.084  11.427  1.00  0.00    -0.244 OA
HETATM    6  C4  UNL     1      16.827   4.640  12.392  1.00  0.00     0.242 C 
HETATM    7  C5  UNL     1      16.010   4.839  13.638  1.00  0.00     0.080 C 
HETATM    8  C6  UNL     1      17.249   6.010  11.923  1.00  0.00     0.080 C 
HETATM    9  N2  UNL     1      17.920   3.728  12.556  1.00  0.00    -0.017 N 
ATOM     10  H21 UNL     1      18.837   4.174  12.525  1.00  0.00     0.283 HD
ATOM     11  H22 UNL     1      18.003   3.350  13.499  1.00  0.00     0.283 HD
ENDROOT
TORSDOF 0
ENDMDL
MODEL 2
REMARK VINA RESULT: -4.613357348      0.874      3.346
REMARK  0 active torsions:
REMARK  status: ('A' for Active; 'I' for Inactive)
ROOT
HETATM    1  C1  UNL     1      16.013   4.916  13.685  1.00  0.00     0.068 C 
HETATM    2  C2  UNL     1      17.015   4.657  12.583  1.00  0.00     0.216 C 
HETATM    3  C3  UNL     1      18.002   5.788  12.581  1.00  0.00     0.068 C 
HETATM    4  N1  UNL     1      16.350   4.583  11.287  1.00  0.00    -0.059 NA
HETATM    5  O1  UNL     1      17.210   3.884  10.527  1.00  0.00    -0.244 OA
HETATM    6  C4  UNL     1      17.661   2.853  11.340  1.00  0.00     0.242 C 
HETATM    7  C5  UNL     1      19.034   2.464  10.866  1.00  0.00     0.080 C 
HETATM    8  C6  UNL     1      16.769   1.656  11.127  1.00  0.00     0.080 C 
HETATM    9  N2  UNL     1      17.633   3.359  12.680  1.00  0.00    -0.017 N 
ATOM     10  H21 UNL     1      17.176   2.735  13.346  1.00  0.00     0.283 HD
ATOM     11  H22 UNL     1      18.545   3.370  13.136  1.00  0.00     0.283 HD
ENDROOT
TORSDOF 0
ENDMDL
MODEL 3
REMARK VINA RESULT: -4.609532340      3.790      5.182
REMARK  0 active torsions:
REMARK  status: ('A' for Active; 'I' for Inactive)
ROOT
HETATM    1  C1  UNL     1      15.922   4.295  13.641  1.00  0.00     0.068 C 
HETATM    2  C2  UNL     1      16.113   4.449  15.133  1.00  0.00     0.216 C 
HETATM    3  C3  UNL     1      17.206   5.454  15.358  1.00  0.00     0.068 C 
HETATM    4  N1  UNL     1      16.485   3.176  15.739  1.00  0.00    -0.059 NA
HETATM    5  O1  UNL     1      16.138   3.324  17.029  1.00  0.00    -0.244 OA
HETATM    6  C4  UNL     1      14.902   3.954  17.004  1.00  0.00     0.242 C 
HETATM    7  C5  UNL     1      14.760   4.733  18.282  1.00  0.00     0.080 C 
HETATM    8  C6  UNL     1      13.828   2.894  17.016  1.00  0.00     0.080 C 
HETATM    9  N2  UNL     1      14.891   4.768  15.825  1.00  0.00    -0.017 N 
ATOM     10  H21 UNL     1      14.053   4.654  15.254  1.00  0.00     0.283 HD
ATOM     11  H22 UNL     1      14.772   5.763  16.013  1.00  0.00     0.283 HD
ENDROOT
TORSDOF 0
ENDMDL
MODEL 4
REMARK VINA RESULT: -4.580006428      4.161      5.436
REMARK  0 active torsions:
REMARK  status: ('A' for Active; 'I' for Inactive)
ROOT
HETATM    1  C1  UNL     1      14.984   4.116  18.733  1.00  0.00     0.068 C 
HETATM    2  C2  UNL     1      14.953   3.793  17.256  1.00  0.00     0.216 C 
HETATM    3  C3  UNL     1      13.721   2.978  16.987  1.00  0.00     0.068 C 
HETATM    4  N1  UNL     1      16.137   3.035  16.869  1.00  0.00    -0.059 NA
HETATM    5  O1  UNL     1      16.235   3.250  15.546  1.00  0.00    -0.244 OA
HETATM    6  C4  UNL     1      15.965   4.601  15.375  1.00  0.00     0.242 C 
HETATM    7  C5  UNL     1      15.403   4.785  13.994  1.00  0.00     0.080 C 
HETATM    8  C6  UNL     1      17.271   5.355  15.420  1.00  0.00     0.080 C 
HETATM    9  N2  UNL     1      15.058   4.964  16.424  1.00  0.00    -0.017 N 
ATOM     10  H21 UNL     1      15.330   5.806  16.931  1.00  0.00     0.283 HD
ATOM     11  H22 UNL     1      14.159   5.312  16.088  1.00  0.00     0.283 HD
ENDROOT
TORSDOF 0
ENDMDL
MODEL 5
REMARK VINA RESULT: -4.329715928      2.406      4.307
REMARK  0 active torsions:
REMARK  status: ('A' for Active; 'I' for Inactive)
ROOT
HETATM    1  C1  UNL     1      14.826   4.854  16.260  1.00  0.00     0.068 C 
HETATM    2  C2  UNL     1      15.575   5.517  15.126  1.00  0.00     0.216 C 
HETATM    3  C3  UNL     1      15.783   6.959  15.489  1.00  0.00     0.068 C 
HETATM    4  N1  UNL     1      14.814   5.429  13.885  1.00  0.00    -0.059 NA
HETATM    5  O1  UNL     1      15.746   5.577  12.928  1.00  0.00    -0.244 OA
HETATM    6  C4  UNL     1      16.826   4.813  13.349  1.00  0.00     0.242 C 
HETATM    7  C5  UNL     1      18.071   5.416  12.762  1.00  0.00     0.080 C 
HETATM    8  C6  UNL     1      16.689   3.431  12.760  1.00  0.00     0.080 C 
HETATM    9  N2  UNL     1      16.794   4.831  14.782  1.00  0.00    -0.017 N 
ATOM     10  H21 UNL     1      16.881   3.908  15.208  1.00  0.00     0.283 HD
ATOM     11  H22 UNL     1      17.628   5.237  15.207  1.00  0.00     0.283 HD
ENDROOT
TORSDOF 0
ENDMDL
