MODEL 1
REMARK VINA RESULT: -4.950391153      0.000      0.000
REMARK  2 active torsions:
REMARK  status: ('A' for Active; 'I' for Inactive)
REMARK    1  A    between atoms: N1_4  and  N2_6 
REMARK    2  A    between atoms: N2_6  and  C4_8 
ROOT
HETATM    1  C1  UNL     1      17.270   1.301  11.286  1.00  0.00     0.064 C 
HETATM    2  C2  UNL     1      16.831   2.420  12.131  1.00  0.00    -0.004 C 
HETATM    3  C3  UNL     1      16.195   3.603  11.495  1.00  0.00     0.064 C 
HETATM    4  N1  UNL     1      16.988   2.389  13.401  1.00  0.00    -0.308 N 
ATOM      5  H1  UNL     1      17.427   1.565  13.813  1.00  0.00     0.186 HD
ENDROOT
BRANCH   4   6
HETATM    6  N2  UNL     1      16.593   3.419  14.254  1.00  0.00    -0.279 N 
ATOM      7  H2  UNL     1      16.497   4.373  13.907  1.00  0.00     0.189 HD
BRANCH   6   8
HETATM    8  C4  UNL     1      16.328   3.115  15.608  1.00  0.00     0.199 C 
HETATM    9  N3  UNL     1      16.897   1.937  16.166  1.00  0.00    -0.068 NA
HETATM   10  S1  UNL     1      15.384   4.117  16.488  1.00  0.00    -0.043 SA
ENDBRANCH   6   8
ENDBRANCH   4   6
TORSDOF 2
ENDMDL
MODEL 2
REMARK VINA RESULT: -4.641645788      3.289      3.484
REMARK  2 active torsions:
REMARK  status: ('A' for Active; 'I' for Inactive)
REMARK    1  A    between atoms: N1_4  and  N2_6 
REMARK    2  A    between atoms: N2_6  and  C4_8 
ROOT
HETATM    1  C1  UNL     1      18.528   6.368  14.017  1.00  0.00     0.064 C 
HETATM    2  C2  UNL     1      17.317   6.016  14.769  1.00  0.00    -0.004 C 
HETATM    3  C3  UNL     1      16.276   7.052  14.995  1.00  0.00     0.064 C 
HETATM    4  N1  UNL     1      17.146   4.833  15.231  1.00  0.00    -0.308 N 
ATOM      5  H1  UNL     1      17.875   4.140  15.061  1.00  0.00     0.186 HD
ENDROOT
BRANCH   4   6
HETATM    6  N2  UNL     1      16.020   4.440  15.951  1.00  0.00    -0.279 N 
ATOM      7  H2  UNL     1      15.220   5.065  16.047  1.00  0.00     0.189 HD
BRANCH   6   8
HETATM    8  C4  UNL     1      16.009   3.160  16.548  1.00  0.00     0.199 C 
HETATM    9  N3  UNL     1      17.068   2.259  16.249  1.00  0.00    -0.068 NA
HETATM   10  S1  UNL     1      14.789   2.751  17.556  1.00  0.00    -0.043 SA
ENDBRANCH   6   8
ENDBRANCH   4   6
TORSDOF 2
ENDMDL
MODEL 3
REMARK VINA RESULT: -4.602938446      3.099      3.733
REMARK  2 active torsions:
REMARK  status: ('A' for Active; 'I' for Inactive)
REMARK    1  A    between atoms: N1_4  and  N2_6 
REMARK    2  A    between atoms: N2_6  and  C4_8 
ROOT
HETATM    1  C1  UNL     1      14.794   7.149  14.457  1.00  0.00     0.064 C 
HETATM    2  C2  UNL     1      15.892   6.242  14.816  1.00  0.00    -0.004 C 
HETATM    3  C3  UNL     1      17.295   6.672  14.579  1.00  0.00     0.064 C 
HETATM    4  N1  UNL     1      15.659   5.092  15.327  1.00  0.00    -0.308 N 
ATOM      5  H1  UNL     1      14.687   4.821  15.480  1.00  0.00     0.186 HD
ENDROOT
BRANCH   4   6
HETATM    6  N2  UNL     1      16.658   4.189  15.687  1.00  0.00    -0.279 N 
ATOM      7  H2  UNL     1      17.640   4.408  15.524  1.00  0.00     0.189 HD
BRANCH   6   8
HETATM    8  C4  UNL     1      16.284   2.964  16.282  1.00  0.00     0.199 C 
HETATM    9  N3  UNL     1      16.992   1.785  15.920  1.00  0.00    -0.068 NA
HETATM   10  S1  UNL     1      15.057   2.934  17.361  1.00  0.00    -0.043 SA
ENDBRANCH   6   8
ENDBRANCH   4   6
TORSDOF 2
ENDMDL
MODEL 4
REMARK VINA RESULT: -4.590666154      0.820      1.441
REMARK  2 active torsions:
REMARK  status: ('A' for Active; 'I' for Inactive)
REMARK    1  A    between atoms: N1_4  and  N2_6 
REMARK    2  A    between atoms: N2_6  and  C4_8 
ROOT
HETATM    1  C1  UNL     1      16.837   3.731  11.210  1.00  0.00     0.064 C 
HETATM    2  C2  UNL     1      16.861   2.800  12.345  1.00  0.00    -0.004 C 
HETATM    3  C3  UNL     1      17.028   1.346  12.087  1.00  0.00     0.064 C 
HETATM    4  N1  UNL     1      16.740   3.221  13.548  1.00  0.00    -0.308 N 
ATOM      5  H1  UNL     1      16.627   4.224  13.698  1.00  0.00     0.186 HD
ENDROOT
BRANCH   4   6
HETATM    6  N2  UNL     1      16.754   2.387  14.664  1.00  0.00    -0.279 N 
ATOM      7  H2  UNL     1      17.135   1.443  14.603  1.00  0.00     0.189 HD
BRANCH   6   8
HETATM    8  C4  UNL     1      16.229   2.874  15.882  1.00  0.00     0.199 C 
HETATM    9  N3  UNL     1      15.994   1.953  16.940  1.00  0.00    -0.068 NA
HETATM   10  S1  UNL     1      15.910   4.468  16.042  1.00  0.00    -0.043 SA
ENDBRANCH   6   8
ENDBRANCH   4   6
TORSDOF 2
ENDMDL
MODEL 5
REMARK VINA RESULT: -4.461404289      1.902      2.514
REMARK  2 active torsions:
REMARK  status: ('A' for Active; 'I' for Inactive)
REMARK    1  A    between atoms: N1_4  and  N2_6 
REMARK    2  A    between atoms: N2_6  and  C4_8 
ROOT
HETATM    1  C1  UNL     1      16.601   4.521  12.583  1.00  0.00     0.064 C 
HETATM    2  C2  UNL     1      16.679   4.577  14.049  1.00  0.00    -0.004 C 
HETATM    3  C3  UNL     1      16.790   5.899  14.720  1.00  0.00     0.064 C 
HETATM    4  N1  UNL     1      16.653   3.508  14.753  1.00  0.00    -0.308 N 
ATOM      5  H1  UNL     1      16.575   2.614  14.268  1.00  0.00     0.186 HD
ENDROOT
BRANCH   4   6
HETATM    6  N2  UNL     1      16.724   3.497  16.145  1.00  0.00    -0.279 N 
ATOM      7  H2  UNL     1      17.576   3.788  16.624  1.00  0.00     0.189 HD
BRANCH   6   8
HETATM    8  C4  UNL     1      15.593   3.075  16.879  1.00  0.00     0.199 C 
HETATM    9  N3  UNL     1      15.515   1.716  17.291  1.00  0.00    -0.068 NA
HETATM   10  S1  UNL     1      14.415   4.151  17.233  1.00  0.00    -0.043 SA
ENDBRANCH   6   8
ENDBRANCH   4   6
TORSDOF 2
ENDMDL
