MODEL 1
REMARK VINA RESULT: -5.145328170      0.000      0.000
REMARK  2 active torsions:
REMARK  status: ('A' for Active; 'I' for Inactive)
REMARK    1  A    between atoms: C2_2  and  N1_5 
REMARK    2  A    between atoms: N1_5  and  N2_7 
REMARK       I    between atoms: N2_7  and  C5_9 
ROOT
HETATM    1  N2  UNL     1      15.910   3.916  15.503  1.00  0.00    -0.278 N 
ATOM      2  H2  UNL     1      15.474   4.705  15.026  1.00  0.00     0.189 HD
HETATM    3  C5  UNL     1      16.529   2.905  14.735  1.00  0.00     0.200 C 
HETATM    4  N3  UNL     1      16.968   3.189  13.565  1.00  0.00    -0.372 N 
ATOM      5  H31 UNL     1      17.414   2.459  13.010  1.00  0.00     0.158 HD
ATOM      6  H32 UNL     1      16.874   4.132  13.185  1.00  0.00     0.158 HD
HETATM    7  N4  UNL     1      16.657   1.613  15.256  1.00  0.00    -0.062 NA
ENDROOT
BRANCH   1   8
HETATM    8  N1  UNL     1      15.881   3.869  16.788  1.00  0.00    -0.325 N 
ATOM      9  H1  UNL     1      16.735   3.675  17.309  1.00  0.00     0.181 HD
BRANCH   8  10
HETATM   10  C2  UNL     1      14.636   4.091  17.496  1.00  0.00     0.035 C 
HETATM   11  C1  UNL     1      14.157   5.496  17.131  1.00  0.00     0.039 C 
HETATM   12  C3  UNL     1      14.874   4.098  18.989  1.00  0.00     0.039 C 
HETATM   13  C4  UNL     1      13.652   3.044  17.075  1.00  0.00     0.039 C 
ENDBRANCH   8  10
ENDBRANCH   1   8
TORSDOF 2
ENDMDL
MODEL 2
REMARK VINA RESULT: -5.135125894      0.100      1.445
REMARK  2 active torsions:
REMARK  status: ('A' for Active; 'I' for Inactive)
REMARK    1  A    between atoms: C2_2  and  N1_5 
REMARK    2  A    between atoms: N1_5  and  N2_7 
REMARK       I    between atoms: N2_7  and  C5_9 
ROOT
HETATM    1  N2  UNL     1      15.916   3.898  15.451  1.00  0.00    -0.278 N 
ATOM      2  H2  UNL     1      15.479   4.649  14.918  1.00  0.00     0.189 HD
HETATM    3  C5  UNL     1      16.528   2.830  14.758  1.00  0.00     0.200 C 
HETATM    4  N3  UNL     1      16.960   3.025  13.567  1.00  0.00    -0.372 N 
ATOM      5  H31 UNL     1      17.402   2.254  13.066  1.00  0.00     0.158 HD
ATOM      6  H32 UNL     1      16.865   3.936  13.117  1.00  0.00     0.158 HD
HETATM    7  N4  UNL     1      16.658   1.581  15.374  1.00  0.00    -0.062 NA
ENDROOT
BRANCH   1   8
HETATM    8  N1  UNL     1      15.895   3.947  16.736  1.00  0.00    -0.325 N 
ATOM      9  H1  UNL     1      16.761   3.840  17.264  1.00  0.00     0.181 HD
BRANCH   8  10
HETATM   10  C2  UNL     1      14.643   4.156  17.436  1.00  0.00     0.035 C 
HETATM   11  C1  UNL     1      14.931   3.989  18.928  1.00  0.00     0.039 C 
HETATM   12  C3  UNL     1      13.650   3.076  17.072  1.00  0.00     0.039 C 
HETATM   13  C4  UNL     1      14.141   5.530  17.118  1.00  0.00     0.039 C 
ENDBRANCH   8  10
ENDBRANCH   1   8
TORSDOF 2
ENDMDL
MODEL 3
REMARK VINA RESULT: -5.111620622      0.068      1.419
REMARK  2 active torsions:
REMARK  status: ('A' for Active; 'I' for Inactive)
REMARK    1  A    between atoms: C2_2  and  N1_5 
REMARK    2  A    between atoms: N1_5  and  N2_7 
REMARK       I    between atoms: N2_7  and  C5_9 
ROOT
HETATM    1  N2  UNL     1      15.911   3.890  15.512  1.00  0.00    -0.278 N 
ATOM      2  H2  UNL     1      15.468   4.662  15.015  1.00  0.00     0.189 HD
HETATM    3  C5  UNL     1      16.526   2.857  14.769  1.00  0.00     0.200 C 
HETATM    4  N3  UNL     1      16.951   3.106  13.587  1.00  0.00    -0.372 N 
ATOM      5  H31 UNL     1      17.395   2.360  13.050  1.00  0.00     0.158 HD
ATOM      6  H32 UNL     1      16.850   4.036  13.178  1.00  0.00     0.158 HD
HETATM    7  N4  UNL     1      16.664   1.582  15.329  1.00  0.00    -0.062 NA
ENDROOT
BRANCH   1   8
HETATM    8  N1  UNL     1      15.895   3.882  16.798  1.00  0.00    -0.325 N 
ATOM      9  H1  UNL     1      16.753   3.696  17.316  1.00  0.00     0.181 HD
BRANCH   8  10
HETATM   10  C2  UNL     1      14.660   4.137  17.512  1.00  0.00     0.035 C 
HETATM   11  C1  UNL     1      13.639   3.110  17.024  1.00  0.00     0.039 C 
HETATM   12  C3  UNL     1      14.108   5.494  17.141  1.00  0.00     0.039 C 
HETATM   13  C4  UNL     1      14.921   4.005  18.981  1.00  0.00     0.039 C 
ENDBRANCH   8  10
ENDBRANCH   1   8
TORSDOF 2
ENDMDL
MODEL 4
REMARK VINA RESULT: -5.070605433      2.411      5.135
REMARK  2 active torsions:
REMARK  status: ('A' for Active; 'I' for Inactive)
REMARK    1  A    between atoms: C2_2  and  N1_5 
REMARK    2  A    between atoms: N1_5  and  N2_7 
REMARK       I    between atoms: N2_7  and  C5_9 
ROOT
HETATM    1  N2  UNL     1      16.658   3.380  14.081  1.00  0.00    -0.278 N 
ATOM      2  H2  UNL     1      16.527   4.277  13.613  1.00  0.00     0.189 HD
HETATM    3  C5  UNL     1      16.394   3.282  15.465  1.00  0.00     0.200 C 
HETATM    4  N3  UNL     1      15.570   4.103  16.004  1.00  0.00    -0.372 N 
ATOM      5  H31 UNL     1      15.380   4.032  17.004  1.00  0.00     0.158 HD
ATOM      6  H32 UNL     1      15.107   4.822  15.447  1.00  0.00     0.158 HD
HETATM    7  N4  UNL     1      17.028   2.296  16.228  1.00  0.00    -0.062 NA
ENDROOT
BRANCH   1   8
HETATM    8  N1  UNL     1      17.059   2.369  13.394  1.00  0.00    -0.325 N 
ATOM      9  H1  UNL     1      17.302   1.498  13.866  1.00  0.00     0.181 HD
BRANCH   8  10
HETATM   10  C2  UNL     1      17.165   2.464  11.952  1.00  0.00     0.035 C 
HETATM   11  C1  UNL     1      17.023   1.047  11.397  1.00  0.00     0.039 C 
HETATM   12  C3  UNL     1      18.544   2.940  11.556  1.00  0.00     0.039 C 
HETATM   13  C4  UNL     1      16.080   3.367  11.451  1.00  0.00     0.039 C 
ENDBRANCH   8  10
ENDBRANCH   1   8
TORSDOF 2
ENDMDL
MODEL 5
REMARK VINA RESULT: -5.045472664      2.395      5.050
REMARK  2 active torsions:
REMARK  status: ('A' for Active; 'I' for Inactive)
REMARK    1  A    between atoms: C2_2  and  N1_5 
REMARK    2  A    between atoms: N1_5  and  N2_7 
REMARK       I    between atoms: N2_7  and  C5_9 
ROOT
HETATM    1  N2  UNL     1      16.630   3.381  14.094  1.00  0.00    -0.278 N 
ATOM      2  H2  UNL     1      16.467   4.267  13.615  1.00  0.00     0.189 HD
HETATM    3  C5  UNL     1      16.366   3.289  15.478  1.00  0.00     0.200 C 
HETATM    4  N3  UNL     1      15.510   4.084  16.005  1.00  0.00    -0.372 N 
ATOM      5  H31 UNL     1      15.319   4.018  17.006  1.00  0.00     0.158 HD
ATOM      6  H32 UNL     1      15.022   4.779  15.439  1.00  0.00     0.158 HD
HETATM    7  N4  UNL     1      17.035   2.337  16.255  1.00  0.00    -0.062 NA
ENDROOT
BRANCH   1   8
HETATM    8  N1  UNL     1      17.070   2.378  13.420  1.00  0.00    -0.325 N 
ATOM      9  H1  UNL     1      17.378   1.535  13.905  1.00  0.00     0.181 HD
BRANCH   8  10
HETATM   10  C2  UNL     1      17.131   2.443  11.973  1.00  0.00     0.035 C 
HETATM   11  C1  UNL     1      18.484   3.053  11.608  1.00  0.00     0.039 C 
HETATM   12  C3  UNL     1      16.080   3.392  11.445  1.00  0.00     0.039 C 
HETATM   13  C4  UNL     1      16.982   1.057  11.426  1.00  0.00     0.039 C 
ENDBRANCH   8  10
ENDBRANCH   1   8
TORSDOF 2
ENDMDL
