MODEL 1
REMARK VINA RESULT: -7.796555774      0.000      0.000
REMARK  8 active torsions:
REMARK  status: ('A' for Active; 'I' for Inactive)
REMARK    1  A    between atoms: C7_8  and  N1_9 
REMARK    2  A    between atoms: N2_12  and  C10_13 
REMARK    3  A    between atoms: C10_13  and  C11_14 
REMARK    4  A    between atoms: C11_14  and  N3_15 
REMARK    5  A    between atoms: N3_15  and  C12_17 
REMARK    6  A    between atoms: C15_22  and  N5_23 
REMARK    7  A    between atoms: N5_23  and  C16_25 
REMARK    8  A    between atoms: C16_25  and  C17_27 
ROOT
HETATM    1  C12 UNL     1      15.754  67.306  18.460  1.00  0.00     0.681 A 
HETATM    2  N4  UNL     1      15.003  68.151  17.739  1.00  0.00    -0.176 N 
ATOM      3  H4  UNL     1      14.890  69.114  18.055  1.00  0.00     0.186 HD
HETATM    4  C13 UNL     1      14.398  67.755  16.610  1.00  0.00     0.130 A 
HETATM    5  C14 UNL     1      14.560  66.446  16.197  1.00  0.00     0.049 A 
HETATM    6  C15 UNL     1      15.331  65.557  16.930  1.00  0.00     0.130 A 
HETATM    7  N6  UNL     1      15.900  66.037  18.042  1.00  0.00    -0.176 N 
ATOM      8  H6  UNL     1      16.475  65.407  18.602  1.00  0.00     0.186 HD
HETATM    9  C20 UNL     1      13.901  66.007  14.966  1.00  0.00     0.124 C 
HETATM   10 CL2  UNL     1      14.897  66.253  13.521  1.00  0.00    -0.120 Cl
HETATM   11  C21 UNL     1      12.600  66.729  14.753  1.00  0.00     0.045 C 
HETATM   12  C22 UNL     1      12.648  68.202  14.937  1.00  0.00     0.125 C 
HETATM   13  N7  UNL     1      13.614  68.684  15.879  1.00  0.00    -0.371 N 
HETATM   14  C23 UNL     1      13.758  70.111  16.051  1.00  0.00     0.151 C 
ENDROOT
BRANCH   1  15
HETATM   15  N3  UNL     1      16.340  67.660  19.537  1.00  0.00    -0.224 N 
ATOM     16  H3  UNL     1      16.496  66.926  20.228  1.00  0.00     0.177 HD
BRANCH  15  17
HETATM   17  C11 UNL     1      16.804  68.965  19.884  1.00  0.00     0.157 C 
BRANCH  17  18
HETATM   18  C10 UNL     1      18.256  69.190  19.482  1.00  0.00     0.137 C 
BRANCH  18  19
HETATM   19  N2  UNL     1      18.919  69.981  20.481  1.00  0.00    -0.408 N 
HETATM   20  C9  UNL     1      18.075  70.378  21.558  1.00  0.00     0.136 C 
HETATM   21  C8  UNL     1      18.885  71.308  22.469  1.00  0.00     0.142 C 
HETATM   22  N1  UNL     1      19.081  72.514  21.723  1.00  0.00    -0.377 N 
HETATM   23  C25 UNL     1      19.443  72.395  20.335  1.00  0.00     0.142 C 
HETATM   24  C24 UNL     1      19.788  70.978  19.951  1.00  0.00     0.136 C 
BRANCH  22  25
HETATM   25  C7  UNL     1      18.931  73.773  22.306  1.00  0.00     0.037 A 
HETATM   26  C2  UNL     1      17.723  74.428  22.226  1.00  0.00    -0.035 A 
HETATM   27  C1  UNL     1      16.525  73.875  21.546  1.00  0.00     0.050 C 
HETATM   28  C3  UNL     1      17.564  75.691  22.805  1.00  0.00     0.011 A 
HETATM   29  C4  UNL     1      18.621  76.296  23.466  1.00  0.00     0.024 A 
HETATM   30  C5  UNL     1      19.831  75.643  23.548  1.00  0.00     0.036 A 
HETATM   31 CL1  UNL     1      21.145  76.437  24.389  1.00  0.00    -0.084 Cl
HETATM   32  C6  UNL     1      19.955  74.404  22.968  1.00  0.00     0.053 A 
ENDBRANCH  22  25
ENDBRANCH  18  19
ENDBRANCH  17  18
ENDBRANCH  15  17
ENDBRANCH   1  15
BRANCH   6  33
HETATM   33  N5  UNL     1      15.426  64.369  16.476  1.00  0.00    -0.345 N 
ATOM     34  H5  UNL     1      14.599  63.772  16.439  1.00  0.00     0.164 HD
BRANCH  33  35
HETATM   35  C16 UNL     1      16.693  63.870  16.015  1.00  0.00     0.273 C 
HETATM   36  F1  UNL     1      17.528  63.638  17.101  1.00  0.00    -0.227 F 
BRANCH  35  37
HETATM   37  C17 UNL     1      16.549  62.569  15.255  1.00  0.00     0.031 C 
HETATM   38  C18 UNL     1      15.656  62.805  14.029  1.00  0.00     0.014 C 
HETATM   39  C19 UNL     1      16.052  61.454  16.111  1.00  0.00     0.014 C 
ENDBRANCH  35  37
ENDBRANCH  33  35
ENDBRANCH   6  33
TORSDOF 8
ENDMDL
MODEL 2
REMARK VINA RESULT: -7.545693661      2.615      3.446
REMARK  8 active torsions:
REMARK  status: ('A' for Active; 'I' for Inactive)
REMARK    1  A    between atoms: C7_8  and  N1_9 
REMARK    2  A    between atoms: N2_12  and  C10_13 
REMARK    3  A    between atoms: C10_13  and  C11_14 
REMARK    4  A    between atoms: C11_14  and  N3_15 
REMARK    5  A    between atoms: N3_15  and  C12_17 
REMARK    6  A    between atoms: C15_22  and  N5_23 
REMARK    7  A    between atoms: N5_23  and  C16_25 
REMARK    8  A    between atoms: C16_25  and  C17_27 
ROOT
HETATM    1  C12 UNL     1      15.880  67.333  18.554  1.00  0.00     0.681 A 
HETATM    2  N4  UNL     1      15.098  68.196  17.889  1.00  0.00    -0.176 N 
ATOM      3  H4  UNL     1      15.010  69.154  18.226  1.00  0.00     0.186 HD
HETATM    4  C13 UNL     1      14.430  67.823  16.788  1.00  0.00     0.130 A 
HETATM    5  C14 UNL     1      14.559  66.521  16.345  1.00  0.00     0.049 A 
HETATM    6  C15 UNL     1      15.361  65.613  17.021  1.00  0.00     0.130 A 
HETATM    7  N6  UNL     1      15.993  66.070  18.108  1.00  0.00    -0.176 N 
ATOM      8  H6  UNL     1      16.592  65.427  18.626  1.00  0.00     0.186 HD
HETATM    9  C20 UNL     1      13.830  66.107  15.144  1.00  0.00     0.124 C 
HETATM   10 CL2  UNL     1      14.749  66.370  13.651  1.00  0.00    -0.120 Cl
HETATM   11  C21 UNL     1      12.526  66.842  15.014  1.00  0.00     0.045 C 
HETATM   12  C22 UNL     1      12.596  68.311  15.219  1.00  0.00     0.125 C 
HETATM   13  N7  UNL     1      13.616  68.770  16.115  1.00  0.00    -0.371 N 
HETATM   14  C23 UNL     1      13.780  70.193  16.304  1.00  0.00     0.151 C 
ENDROOT
BRANCH   1  15
HETATM   15  N3  UNL     1      16.526  67.664  19.603  1.00  0.00    -0.224 N 
ATOM     16  H3  UNL     1      16.257  67.194  20.467  1.00  0.00     0.177 HD
BRANCH  15  17
HETATM   17  C11 UNL     1      17.584  68.618  19.706  1.00  0.00     0.157 C 
BRANCH  17  18
HETATM   18  C10 UNL     1      17.817  69.071  21.143  1.00  0.00     0.137 C 
BRANCH  18  19
HETATM   19  N2  UNL     1      17.474  70.460  21.274  1.00  0.00    -0.408 N 
HETATM   20  C9  UNL     1      16.072  70.711  21.286  1.00  0.00     0.136 C 
HETATM   21  C8  UNL     1      15.868  72.231  21.307  1.00  0.00     0.142 C 
HETATM   22  N1  UNL     1      16.291  72.701  20.022  1.00  0.00    -0.377 N 
HETATM   23  C25 UNL     1      17.507  72.159  19.475  1.00  0.00     0.142 C 
HETATM   24  C24 UNL     1      18.271  71.333  20.480  1.00  0.00     0.136 C 
BRANCH  22  25
HETATM   25  C7  UNL     1      15.561  73.652  19.309  1.00  0.00     0.037 A 
HETATM   26  C2  UNL     1      15.856  74.990  19.448  1.00  0.00    -0.035 A 
HETATM   27  C1  UNL     1      16.931  75.513  20.327  1.00  0.00     0.050 C 
HETATM   28  C3  UNL     1      15.128  75.951  18.739  1.00  0.00     0.011 A 
HETATM   29  C4  UNL     1      14.103  75.567  17.890  1.00  0.00     0.024 A 
HETATM   30  C5  UNL     1      13.806  74.230  17.749  1.00  0.00     0.036 A 
HETATM   31 CL1  UNL     1      12.505  73.780  16.668  1.00  0.00    -0.084 Cl
HETATM   32  C6  UNL     1      14.539  73.310  18.459  1.00  0.00     0.053 A 
ENDBRANCH  22  25
ENDBRANCH  18  19
ENDBRANCH  17  18
ENDBRANCH  15  17
ENDBRANCH   1  15
BRANCH   6  33
HETATM   33  N5  UNL     1      15.421  64.433  16.542  1.00  0.00    -0.345 N 
ATOM     34  H5  UNL     1      14.583  63.853  16.515  1.00  0.00     0.164 HD
BRANCH  33  35
HETATM   35  C16 UNL     1      16.667  63.918  16.041  1.00  0.00     0.273 C 
HETATM   36  F1  UNL     1      17.526  63.656  17.101  1.00  0.00    -0.227 F 
BRANCH  35  37
HETATM   37  C17 UNL     1      16.481  62.631  15.267  1.00  0.00     0.031 C 
HETATM   38  C18 UNL     1      15.528  62.892  14.091  1.00  0.00     0.014 C 
HETATM   39  C19 UNL     1      16.021  61.503  16.127  1.00  0.00     0.014 C 
ENDBRANCH  35  37
ENDBRANCH  33  35
ENDBRANCH   6  33
TORSDOF 8
ENDMDL
MODEL 3
REMARK VINA RESULT: -7.509146903      1.187      1.531
REMARK  8 active torsions:
REMARK  status: ('A' for Active; 'I' for Inactive)
REMARK    1  A    between atoms: C7_8  and  N1_9 
REMARK    2  A    between atoms: N2_12  and  C10_13 
REMARK    3  A    between atoms: C10_13  and  C11_14 
REMARK    4  A    between atoms: C11_14  and  N3_15 
REMARK    5  A    between atoms: N3_15  and  C12_17 
REMARK    6  A    between atoms: C15_22  and  N5_23 
REMARK    7  A    between atoms: N5_23  and  C16_25 
REMARK    8  A    between atoms: C16_25  and  C17_27 
ROOT
HETATM    1  C12 UNL     1      15.595  67.168  18.280  1.00  0.00     0.681 A 
HETATM    2  N4  UNL     1      14.889  68.002  17.503  1.00  0.00    -0.176 N 
ATOM      3  H4  UNL     1      14.754  68.968  17.799  1.00  0.00     0.186 HD
HETATM    4  C13 UNL     1      14.355  67.590  16.343  1.00  0.00     0.130 A 
HETATM    5  C14 UNL     1      14.546  66.277  15.958  1.00  0.00     0.049 A 
HETATM    6  C15 UNL     1      15.272  65.398  16.748  1.00  0.00     0.130 A 
HETATM    7  N6  UNL     1      15.769  65.894  17.887  1.00  0.00    -0.176 N 
ATOM      8  H6  UNL     1      16.309  65.273  18.490  1.00  0.00     0.186 HD
HETATM    9  C20 UNL     1      13.965  65.821  14.694  1.00  0.00     0.124 C 
HETATM   10 CL2  UNL     1      15.049  66.051  13.310  1.00  0.00    -0.120 Cl
HETATM   11  C21 UNL     1      12.679  66.536  14.391  1.00  0.00     0.045 C 
HETATM   12  C22 UNL     1      12.712  68.011  14.559  1.00  0.00     0.125 C 
HETATM   13  N7  UNL     1      13.617  68.507  15.553  1.00  0.00    -0.371 N 
HETATM   14  C23 UNL     1      13.747  69.937  15.717  1.00  0.00     0.151 C 
ENDROOT
BRANCH   1  15
HETATM   15  N3  UNL     1      16.112  67.536  19.386  1.00  0.00    -0.224 N 
ATOM     16  H3  UNL     1      15.753  67.082  20.226  1.00  0.00     0.177 HD
BRANCH  15  17
HETATM   17  C11 UNL     1      17.135  68.512  19.583  1.00  0.00     0.157 C 
BRANCH  17  18
HETATM   18  C10 UNL     1      17.658  68.522  21.015  1.00  0.00     0.137 C 
BRANCH  18  19
HETATM   19  N2  UNL     1      17.244  69.730  21.674  1.00  0.00    -0.408 N 
HETATM   20  C9  UNL     1      16.545  70.639  20.828  1.00  0.00     0.136 C 
HETATM   21  C8  UNL     1      16.280  71.918  21.633  1.00  0.00     0.142 C 
HETATM   22  N1  UNL     1      17.559  72.535  21.819  1.00  0.00    -0.377 N 
HETATM   23  C25 UNL     1      18.667  71.690  22.181  1.00  0.00     0.142 C 
HETATM   24  C24 UNL     1      18.230  70.290  22.535  1.00  0.00     0.136 C 
BRANCH  22  25
HETATM   25  C7  UNL     1      17.744  73.908  21.661  1.00  0.00     0.037 A 
HETATM   26  C2  UNL     1      17.917  74.439  20.403  1.00  0.00    -0.035 A 
HETATM   27  C1  UNL     1      17.917  73.631  19.158  1.00  0.00     0.050 C 
HETATM   28  C3  UNL     1      18.104  75.815  20.235  1.00  0.00     0.011 A 
HETATM   29  C4  UNL     1      18.118  76.658  21.334  1.00  0.00     0.024 A 
HETATM   30  C5  UNL     1      17.946  76.131  22.595  1.00  0.00     0.036 A 
HETATM   31 CL1  UNL     1      17.970  77.225  23.961  1.00  0.00    -0.084 Cl
HETATM   32  C6  UNL     1      17.764  74.776  22.727  1.00  0.00     0.053 A 
ENDBRANCH  22  25
ENDBRANCH  18  19
ENDBRANCH  17  18
ENDBRANCH  15  17
ENDBRANCH   1  15
BRANCH   6  33
HETATM   33  N5  UNL     1      15.397  64.206  16.315  1.00  0.00    -0.345 N 
ATOM     34  H5  UNL     1      14.580  63.598  16.257  1.00  0.00     0.164 HD
BRANCH  33  35
HETATM   35  C16 UNL     1      16.686  63.716  15.909  1.00  0.00     0.273 C 
HETATM   36  F1  UNL     1      17.504  63.567  17.023  1.00  0.00    -0.227 F 
BRANCH  35  37
HETATM   37  C17 UNL     1      16.592  62.371  15.221  1.00  0.00     0.031 C 
HETATM   38  C18 UNL     1      15.755  62.523  13.943  1.00  0.00     0.014 C 
HETATM   39  C19 UNL     1      16.067  61.301  16.117  1.00  0.00     0.014 C 
ENDBRANCH  35  37
ENDBRANCH  33  35
ENDBRANCH   6  33
TORSDOF 8
ENDMDL
MODEL 4
REMARK VINA RESULT: -7.473106108      1.297      1.750
REMARK  8 active torsions:
REMARK  status: ('A' for Active; 'I' for Inactive)
REMARK    1  A    between atoms: C7_8  and  N1_9 
REMARK    2  A    between atoms: N2_12  and  C10_13 
REMARK    3  A    between atoms: C10_13  and  C11_14 
REMARK    4  A    between atoms: C11_14  and  N3_15 
REMARK    5  A    between atoms: N3_15  and  C12_17 
REMARK    6  A    between atoms: C15_22  and  N5_23 
REMARK    7  A    between atoms: N5_23  and  C16_25 
REMARK    8  A    between atoms: C16_25  and  C17_27 
ROOT
HETATM    1  C12 UNL     1      15.717  67.795  18.690  1.00  0.00     0.681 A 
HETATM    2  N4  UNL     1      14.967  68.576  17.899  1.00  0.00    -0.176 N 
ATOM      3  H4  UNL     1      14.889  69.572  18.108  1.00  0.00     0.186 HD
HETATM    4  C13 UNL     1      14.317  68.075  16.839  1.00  0.00     0.130 A 
HETATM    5  C14 UNL     1      14.432  66.724  16.571  1.00  0.00     0.049 A 
HETATM    6  C15 UNL     1      15.201  65.899  17.378  1.00  0.00     0.130 A 
HETATM    7  N6  UNL     1      15.816  66.483  18.413  1.00  0.00    -0.176 N 
ATOM      8  H6  UNL     1      16.390  65.903  19.025  1.00  0.00     0.186 HD
HETATM    9  C20 UNL     1      13.725  66.171  15.415  1.00  0.00     0.124 C 
HETATM   10 CL2  UNL     1      14.683  66.224  13.925  1.00  0.00    -0.120 Cl
HETATM   11  C21 UNL     1      12.438  66.903  15.157  1.00  0.00     0.045 C 
HETATM   12  C22 UNL     1      12.531  68.385  15.174  1.00  0.00     0.125 C 
HETATM   13  N7  UNL     1      13.538  68.940  16.029  1.00  0.00    -0.371 N 
HETATM   14  C23 UNL     1      13.725  70.372  16.036  1.00  0.00     0.151 C 
ENDROOT
BRANCH   1  15
HETATM   15  N3  UNL     1      16.344  68.249  19.704  1.00  0.00    -0.224 N 
ATOM     16  H3  UNL     1      16.934  67.584  20.204  1.00  0.00     0.177 HD
BRANCH  15  17
HETATM   17  C11 UNL     1      16.315  69.580  20.218  1.00  0.00     0.157 C 
BRANCH  17  18
HETATM   18  C10 UNL     1      17.227  69.754  21.427  1.00  0.00     0.137 C 
BRANCH  18  19
HETATM   19  N2  UNL     1      18.088  70.886  21.225  1.00  0.00    -0.408 N 
HETATM   20  C9  UNL     1      18.633  71.420  22.428  1.00  0.00     0.136 C 
HETATM   21  C8  UNL     1      19.422  72.684  22.064  1.00  0.00     0.142 C 
HETATM   22  N1  UNL     1      18.447  73.654  21.667  1.00  0.00    -0.377 N 
HETATM   23  C25 UNL     1      17.376  73.219  20.809  1.00  0.00     0.142 C 
HETATM   24  C24 UNL     1      17.598  71.827  20.274  1.00  0.00     0.136 C 
BRANCH  22  25
HETATM   25  C7  UNL     1      18.517  74.983  22.088  1.00  0.00     0.037 A 
HETATM   26  C2  UNL     1      19.379  75.857  21.465  1.00  0.00    -0.035 A 
HETATM   27  C1  UNL     1      20.267  75.480  20.337  1.00  0.00     0.050 C 
HETATM   28  C3  UNL     1      19.457  77.190  21.881  1.00  0.00     0.011 A 
HETATM   29  C4  UNL     1      18.667  77.644  22.925  1.00  0.00     0.024 A 
HETATM   30  C5  UNL     1      17.804  76.772  23.550  1.00  0.00     0.036 A 
HETATM   31 CL1  UNL     1      16.823  77.380  24.866  1.00  0.00    -0.084 Cl
HETATM   32  C6  UNL     1      17.751  75.469  23.119  1.00  0.00     0.053 A 
ENDBRANCH  22  25
ENDBRANCH  18  19
ENDBRANCH  17  18
ENDBRANCH  15  17
ENDBRANCH   1  15
BRANCH   6  33
HETATM   33  N5  UNL     1      15.250  64.666  17.057  1.00  0.00    -0.345 N 
ATOM     34  H5  UNL     1      14.507  64.034  17.354  1.00  0.00     0.164 HD
BRANCH  33  35
HETATM   35  C16 UNL     1      16.350  64.165  16.278  1.00  0.00     0.273 C 
HETATM   36  F1  UNL     1      17.317  63.631  17.121  1.00  0.00    -0.227 F 
BRANCH  35  37
HETATM   37  C17 UNL     1      15.918  63.076  15.320  1.00  0.00     0.031 C 
HETATM   38  C18 UNL     1      16.056  61.716  16.018  1.00  0.00     0.014 C 
HETATM   39  C19 UNL     1      16.655  63.124  14.024  1.00  0.00     0.014 C 
ENDBRANCH  35  37
ENDBRANCH  33  35
ENDBRANCH   6  33
TORSDOF 8
ENDMDL
MODEL 5
REMARK VINA RESULT: -7.459807584      4.959      6.814
REMARK  8 active torsions:
REMARK  status: ('A' for Active; 'I' for Inactive)
REMARK    1  A    between atoms: C7_8  and  N1_9 
REMARK    2  A    between atoms: N2_12  and  C10_13 
REMARK    3  A    between atoms: C10_13  and  C11_14 
REMARK    4  A    between atoms: C11_14  and  N3_15 
REMARK    5  A    between atoms: N3_15  and  C12_17 
REMARK    6  A    between atoms: C15_22  and  N5_23 
REMARK    7  A    between atoms: N5_23  and  C16_25 
REMARK    8  A    between atoms: C16_25  and  C17_27 
ROOT
HETATM    1  C12 UNL     1      19.761  71.602  21.743  1.00  0.00     0.681 A 
HETATM    2  N4  UNL     1      19.468  71.742  20.442  1.00  0.00    -0.176 N 
ATOM      3  H4  UNL     1      20.040  72.358  19.864  1.00  0.00     0.186 HD
HETATM    4  C13 UNL     1      18.438  71.088  19.886  1.00  0.00     0.130 A 
HETATM    5  C14 UNL     1      17.673  70.259  20.684  1.00  0.00     0.049 A 
HETATM    6  C15 UNL     1      17.958  70.103  22.032  1.00  0.00     0.130 A 
HETATM    7  N6  UNL     1      19.004  70.792  22.503  1.00  0.00    -0.176 N 
ATOM      8  H6  UNL     1      19.240  70.697  23.491  1.00  0.00     0.186 HD
HETATM    9  C20 UNL     1      16.547  69.543  20.082  1.00  0.00     0.124 C 
HETATM   10 CL2  UNL     1      17.002  67.961  19.425  1.00  0.00    -0.120 Cl
HETATM   11  C21 UNL     1      15.922  70.337  18.970  1.00  0.00     0.045 C 
HETATM   12  C22 UNL     1      16.872  70.927  17.993  1.00  0.00     0.125 C 
HETATM   13  N7  UNL     1      18.167  71.264  18.505  1.00  0.00    -0.371 N 
HETATM   14  C23 UNL     1      19.160  71.777  17.589  1.00  0.00     0.151 C 
ENDROOT
BRANCH   1  15
HETATM   15  N3  UNL     1      20.735  72.214  22.295  1.00  0.00    -0.224 N 
ATOM     16  H3  UNL     1      21.123  71.780  23.133  1.00  0.00     0.177 HD
BRANCH  15  17
HETATM   17  C11 UNL     1      21.344  73.434  21.874  1.00  0.00     0.157 C 
BRANCH  17  18
HETATM   18  C10 UNL     1      20.986  74.604  22.783  1.00  0.00     0.137 C 
BRANCH  18  19
HETATM   19  N2  UNL     1      19.999  75.429  22.145  1.00  0.00    -0.408 N 
HETATM   20  C9  UNL     1      18.679  75.248  22.651  1.00  0.00     0.136 C 
HETATM   21  C8  UNL     1      17.730  76.096  21.796  1.00  0.00     0.142 C 
HETATM   22  N1  UNL     1      17.694  75.469  20.509  1.00  0.00    -0.377 N 
HETATM   23  C25 UNL     1      18.940  75.019  19.946  1.00  0.00     0.142 C 
HETATM   24  C24 UNL     1      20.134  75.507  20.729  1.00  0.00     0.136 C 
BRANCH  22  25
HETATM   25  C7  UNL     1      16.500  75.291  19.810  1.00  0.00     0.037 A 
HETATM   26  C2  UNL     1      15.656  74.255  20.143  1.00  0.00    -0.035 A 
HETATM   27  C1  UNL     1      15.929  73.283  21.230  1.00  0.00     0.050 C 
HETATM   28  C3  UNL     1      14.458  74.068  19.445  1.00  0.00     0.011 A 
HETATM   29  C4  UNL     1      14.109  74.923  18.412  1.00  0.00     0.024 A 
HETATM   30  C5  UNL     1      14.951  75.959  18.077  1.00  0.00     0.036 A 
HETATM   31 CL1  UNL     1      14.479  77.019  16.767  1.00  0.00    -0.084 Cl
HETATM   32  C6  UNL     1      16.120  76.117  18.780  1.00  0.00     0.053 A 
ENDBRANCH  22  25
ENDBRANCH  18  19
ENDBRANCH  17  18
ENDBRANCH  15  17
ENDBRANCH   1  15
BRANCH   6  33
HETATM   33  N5  UNL     1      17.199  69.319  22.692  1.00  0.00    -0.345 N 
ATOM     34  H5  UNL     1      16.256  69.616  22.942  1.00  0.00     0.164 HD
BRANCH  33  35
HETATM   35  C16 UNL     1      17.670  68.018  23.085  1.00  0.00     0.273 C 
HETATM   36  F1  UNL     1      18.782  67.673  22.327  1.00  0.00    -0.227 F 
BRANCH  35  37
HETATM   37  C17 UNL     1      18.072  67.976  24.544  1.00  0.00     0.031 C 
HETATM   38  C18 UNL     1      19.604  67.987  24.638  1.00  0.00     0.014 C 
HETATM   39  C19 UNL     1      17.469  66.823  25.274  1.00  0.00     0.014 C 
ENDBRANCH  35  37
ENDBRANCH  33  35
ENDBRANCH   6  33
TORSDOF 8
ENDMDL
