MODEL 1
REMARK VINA RESULT: -7.554644601      0.000      0.000
REMARK  9 active torsions:
REMARK  status: ('A' for Active; 'I' for Inactive)
REMARK    1  A    between atoms: C5_5  and  C6_6 
REMARK       I    between atoms: C6_6  and  N1_8 
REMARK    2  A    between atoms: N1_8  and  C7_10 
REMARK    3  A    between atoms: C10_13  and  C11_14 
REMARK    4  A    between atoms: C11_14  and  N2_15 
REMARK    5  A    between atoms: N2_15  and  C12_17 
REMARK    6  A    between atoms: N3_23  and  C18_24 
REMARK    7  A    between atoms: C18_24  and  O2_25 
REMARK    8  A    between atoms: C18_24  and  C19_27 
REMARK    9  A    between atoms: C26_37  and  C27_38 
ROOT
HETATM    1  C7  UNL     1      16.891  74.307  20.620  1.00  0.00     0.084 C 
HETATM    2  C8  UNL     1      15.983  73.396  21.349  1.00  0.00     0.026 C 
HETATM    3  C9  UNL     1      15.073  72.640  20.455  1.00  0.00     0.012 C 
HETATM    4  C10 UNL     1      15.592  72.713  19.023  1.00  0.00     0.024 C 
HETATM    5  C23 UNL     1      15.649  74.084  18.481  1.00  0.00     0.012 C 
HETATM    6  C24 UNL     1      16.226  75.058  19.498  1.00  0.00     0.026 C 
ENDROOT
BRANCH   4   7
HETATM    7  C11 UNL     1      14.966  71.632  18.234  1.00  0.00     0.060 C 
BRANCH   7   8
HETATM    8  N2  UNL     1      15.557  71.128  17.063  1.00  0.00    -0.397 N 
ATOM      9  H2  UNL     1      15.522  71.673  16.201  1.00  0.00     0.159 HD
BRANCH   8  10
HETATM   10  C12 UNL     1      16.204  69.862  17.075  1.00  0.00     0.084 C 
HETATM   11  C13 UNL     1      15.350  68.816  17.780  1.00  0.00     0.050 C 
HETATM   12  C14 UNL     1      16.164  67.891  18.632  1.00  0.00     0.090 C 
HETATM   13  C15 UNL     1      17.517  67.594  17.975  1.00  0.00     0.050 C 
HETATM   14  N3  UNL     1      16.818  68.581  19.658  1.00  0.00    -0.350 N 
HETATM   15  C16 UNL     1      17.893  68.858  18.631  1.00  0.00     0.090 C 
HETATM   16  C17 UNL     1      17.539  70.032  17.792  1.00  0.00     0.050 C 
BRANCH  14  17
HETATM   17  C18 UNL     1      16.813  69.010  20.987  1.00  0.00     0.168 C 
BRANCH  17  18
HETATM   18  O2  UNL     1      15.639  69.526  21.374  1.00  0.00    -0.344 OA
ATOM     19  H2  UNL     1      15.456  69.395  22.297  1.00  0.00     0.219 HD
ENDBRANCH  17  18
BRANCH  17  20
HETATM   20  C19 UNL     1      17.776  69.027  22.043  1.00  0.00     0.102 A 
HETATM   21  C20 UNL     1      17.971  67.969  22.968  1.00  0.00     0.054 A 
HETATM   22  C21 UNL     1      18.972  68.315  23.830  1.00  0.00     0.110 A 
HETATM   23  N4  UNL     1      19.384  69.523  23.471  1.00  0.00    -0.310 N 
HETATM   24  N5  UNL     1      18.667  69.946  22.402  1.00  0.00    -0.293 N 
ATOM     25  H4  UNL     1      20.126  70.053  23.928  1.00  0.00     0.186 HD
HETATM   26  C22 UNL     1      18.965  71.242  21.843  1.00  0.00     0.178 C 
ENDBRANCH  17  20
ENDBRANCH  14  17
ENDBRANCH   8  10
ENDBRANCH   7   8
ENDBRANCH   4   7
BRANCH   1  27
HETATM   27  N1  UNL     1      17.462  75.248  21.566  1.00  0.00    -0.356 N 
HETATM   28  C6  UNL     1      18.837  75.385  21.783  1.00  0.00     0.222 C 
HETATM   29  O1  UNL     1      19.607  74.619  21.102  1.00  0.00    -0.273 OA
ATOM     30  H1  UNL     1      16.827  75.840  22.101  1.00  0.00     0.162 HD
BRANCH  28  31
HETATM   31  C5  UNL     1      19.493  76.316  22.711  1.00  0.00     0.078 C 
HETATM   32  C4  UNL     1      19.912  77.600  22.014  1.00  0.00     0.014 C 
HETATM   33  C3  UNL     1      20.358  78.592  23.058  1.00  0.00     0.006 C 
HETATM   34  C2  UNL     1      19.173  79.123  23.837  1.00  0.00    -0.006 C 
HETATM   35  C1  UNL     1      18.749  80.412  23.169  1.00  0.00     0.010 C 
HETATM   36  C26 UNL     1      18.032  78.110  23.710  1.00  0.00     0.098 C 
HETATM   37  C25 UNL     1      18.609  76.700  23.862  1.00  0.00     0.028 C 
BRANCH  36  38
HETATM   38  C27 UNL     1      17.056  78.302  24.850  1.00  0.00     0.391 C 
HETATM   39  F1  UNL     1      16.356  77.130  24.973  1.00  0.00    -0.171 F 
HETATM   40  F2  UNL     1      17.671  78.671  26.027  1.00  0.00    -0.171 F 
HETATM   41  F3  UNL     1      16.181  79.304  24.491  1.00  0.00    -0.171 F 
ENDBRANCH  36  38
ENDBRANCH  28  31
ENDBRANCH   1  27
TORSDOF 9
ENDMDL
MODEL 2
REMARK VINA RESULT: -7.300271395      2.901      4.192
REMARK  9 active torsions:
REMARK  status: ('A' for Active; 'I' for Inactive)
REMARK    1  A    between atoms: C5_5  and  C6_6 
REMARK       I    between atoms: C6_6  and  N1_8 
REMARK    2  A    between atoms: N1_8  and  C7_10 
REMARK    3  A    between atoms: C10_13  and  C11_14 
REMARK    4  A    between atoms: C11_14  and  N2_15 
REMARK    5  A    between atoms: N2_15  and  C12_17 
REMARK    6  A    between atoms: N3_23  and  C18_24 
REMARK    7  A    between atoms: C18_24  and  O2_25 
REMARK    8  A    between atoms: C18_24  and  C19_27 
REMARK    9  A    between atoms: C26_37  and  C27_38 
ROOT
HETATM    1  C7  UNL     1      18.321  76.201  23.268  1.00  0.00     0.084 C 
HETATM    2  C8  UNL     1      17.555  75.583  22.165  1.00  0.00     0.026 C 
HETATM    3  C9  UNL     1      18.054  74.239  21.789  1.00  0.00     0.012 C 
HETATM    4  C10 UNL     1      18.953  73.703  22.897  1.00  0.00     0.024 C 
HETATM    5  C23 UNL     1      20.152  74.528  23.140  1.00  0.00     0.012 C 
HETATM    6  C24 UNL     1      19.810  76.011  23.155  1.00  0.00     0.026 C 
ENDROOT
BRANCH   4   7
HETATM    7  C11 UNL     1      19.084  72.239  22.739  1.00  0.00     0.060 C 
BRANCH   7   8
HETATM    8  N2  UNL     1      19.421  71.651  21.509  1.00  0.00    -0.397 N 
ATOM      9  H2  UNL     1      20.373  71.733  21.150  1.00  0.00     0.159 HD
BRANCH   8  10
HETATM   10  C12 UNL     1      18.442  70.942  20.761  1.00  0.00     0.084 C 
HETATM   11  C13 UNL     1      17.117  70.882  21.510  1.00  0.00     0.050 C 
HETATM   12  C14 UNL     1      16.441  69.552  21.374  1.00  0.00     0.090 C 
HETATM   13  C15 UNL     1      16.663  68.969  19.973  1.00  0.00     0.050 C 
HETATM   14  N3  UNL     1      17.216  68.524  21.920  1.00  0.00    -0.350 N 
HETATM   15  C16 UNL     1      17.919  68.497  20.581  1.00  0.00     0.090 C 
HETATM   16  C17 UNL     1      18.979  69.536  20.514  1.00  0.00     0.050 C 
BRANCH  14  17
HETATM   17  C18 UNL     1      17.503  67.716  23.021  1.00  0.00     0.168 C 
BRANCH  17  18
HETATM   18  O2  UNL     1      16.794  66.579  23.046  1.00  0.00    -0.344 OA
ATOM     19  H2  UNL     1      16.708  66.171  22.193  1.00  0.00     0.219 HD
ENDBRANCH  17  18
BRANCH  17  20
HETATM   20  C19 UNL     1      18.386  67.816  24.141  1.00  0.00     0.102 A 
HETATM   21  C20 UNL     1      18.046  67.443  25.467  1.00  0.00     0.054 A 
HETATM   22  C21 UNL     1      19.123  67.662  26.277  1.00  0.00     0.110 A 
HETATM   23  N4  UNL     1      20.087  68.147  25.507  1.00  0.00    -0.310 N 
HETATM   24  N5  UNL     1      19.643  68.238  24.231  1.00  0.00    -0.293 N 
ATOM     25  H4  UNL     1      21.019  68.410  25.826  1.00  0.00     0.186 HD
HETATM   26  C22 UNL     1      20.547  68.737  23.223  1.00  0.00     0.178 C 
ENDBRANCH  17  20
ENDBRANCH  14  17
ENDBRANCH   8  10
ENDBRANCH   7   8
ENDBRANCH   4   7
BRANCH   1  27
HETATM   27  N1  UNL     1      18.012  77.618  23.311  1.00  0.00    -0.356 N 
HETATM   28  C6  UNL     1      17.115  78.184  24.223  1.00  0.00     0.222 C 
HETATM   29  O1  UNL     1      16.546  77.382  25.046  1.00  0.00    -0.273 OA
ATOM     30  H1  UNL     1      18.472  78.233  22.641  1.00  0.00     0.162 HD
BRANCH  28  31
HETATM   31  C5  UNL     1      16.757  79.604  24.339  1.00  0.00     0.078 C 
HETATM   32  C4  UNL     1      17.099  80.159  25.712  1.00  0.00     0.014 C 
HETATM   33  C3  UNL     1      16.926  81.657  25.683  1.00  0.00     0.006 C 
HETATM   34  C2  UNL     1      18.033  82.311  24.883  1.00  0.00    -0.006 C 
HETATM   35  C1  UNL     1      19.107  82.715  25.867  1.00  0.00     0.010 C 
HETATM   36  C26 UNL     1      18.613  81.261  23.932  1.00  0.00     0.098 C 
HETATM   37  C25 UNL     1      17.458  80.460  23.324  1.00  0.00     0.028 C 
BRANCH  36  38
HETATM   38  C27 UNL     1      19.313  81.950  22.783  1.00  0.00     0.391 C 
HETATM   39  F1  UNL     1      19.078  81.192  21.664  1.00  0.00    -0.171 F 
HETATM   40  F2  UNL     1      18.916  83.260  22.620  1.00  0.00    -0.171 F 
HETATM   41  F3  UNL     1      20.665  81.941  23.046  1.00  0.00    -0.171 F 
ENDBRANCH  36  38
ENDBRANCH  28  31
ENDBRANCH   1  27
TORSDOF 9
ENDMDL
MODEL 3
REMARK VINA RESULT: -7.258260270      2.574      4.464
REMARK  9 active torsions:
REMARK  status: ('A' for Active; 'I' for Inactive)
REMARK    1  A    between atoms: C5_5  and  C6_6 
REMARK       I    between atoms: C6_6  and  N1_8 
REMARK    2  A    between atoms: N1_8  and  C7_10 
REMARK    3  A    between atoms: C10_13  and  C11_14 
REMARK    4  A    between atoms: C11_14  and  N2_15 
REMARK    5  A    between atoms: N2_15  and  C12_17 
REMARK    6  A    between atoms: N3_23  and  C18_24 
REMARK    7  A    between atoms: C18_24  and  O2_25 
REMARK    8  A    between atoms: C18_24  and  C19_27 
REMARK    9  A    between atoms: C26_37  and  C27_38 
ROOT
HETATM    1  C7  UNL     1      19.297  77.523  23.351  1.00  0.00     0.084 C 
HETATM    2  C8  UNL     1      20.480  76.799  23.864  1.00  0.00     0.026 C 
HETATM    3  C9  UNL     1      20.374  75.328  23.712  1.00  0.00     0.012 C 
HETATM    4  C10 UNL     1      19.265  74.998  22.719  1.00  0.00     0.024 C 
HETATM    5  C23 UNL     1      17.931  75.461  23.144  1.00  0.00     0.012 C 
HETATM    6  C24 UNL     1      17.987  76.874  23.705  1.00  0.00     0.026 C 
ENDROOT
BRANCH   4   7
HETATM    7  C11 UNL     1      19.450  73.612  22.242  1.00  0.00     0.060 C 
BRANCH   7   8
HETATM    8  N2  UNL     1      18.482  72.616  22.456  1.00  0.00    -0.397 N 
ATOM      9  H2  UNL     1      18.164  72.413  23.404  1.00  0.00     0.159 HD
BRANCH   8  10
HETATM   10  C12 UNL     1      17.943  71.892  21.358  1.00  0.00     0.084 C 
HETATM   11  C13 UNL     1      16.587  71.292  21.709  1.00  0.00     0.050 C 
HETATM   12  C14 UNL     1      16.409  69.913  21.152  1.00  0.00     0.090 C 
HETATM   13  C15 UNL     1      17.071  69.791  19.775  1.00  0.00     0.050 C 
HETATM   14  N3  UNL     1      17.350  69.021  21.679  1.00  0.00    -0.350 N 
HETATM   15  C16 UNL     1      18.269  69.528  20.590  1.00  0.00     0.090 C 
HETATM   16  C17 UNL     1      18.936  70.791  21.000  1.00  0.00     0.050 C 
BRANCH  14  17
HETATM   17  C18 UNL     1      17.660  68.062  22.644  1.00  0.00     0.168 C 
BRANCH  17  18
HETATM   18  O2  UNL     1      17.058  66.884  22.435  1.00  0.00    -0.344 OA
ATOM     19  H2  UNL     1      16.973  66.662  21.515  1.00  0.00     0.219 HD
ENDBRANCH  17  18
BRANCH  17  20
HETATM   20  C19 UNL     1      18.480  68.041  23.815  1.00  0.00     0.102 A 
HETATM   21  C20 UNL     1      18.023  67.675  25.107  1.00  0.00     0.054 A 
HETATM   22  C21 UNL     1      19.066  67.758  25.985  1.00  0.00     0.110 A 
HETATM   23  N4  UNL     1      20.120  68.155  25.287  1.00  0.00    -0.310 N 
HETATM   24  N5  UNL     1      19.767  68.323  23.990  1.00  0.00    -0.293 N 
ATOM     25  H4  UNL     1      21.054  68.309  25.667  1.00  0.00     0.186 HD
HETATM   26  C22 UNL     1      20.777  68.746  23.052  1.00  0.00     0.178 C 
ENDBRANCH  17  20
ENDBRANCH  14  17
ENDBRANCH   8  10
ENDBRANCH   7   8
ENDBRANCH   4   7
BRANCH   1  27
HETATM   27  N1  UNL     1      19.325  78.879  23.867  1.00  0.00    -0.356 N 
HETATM   28  C6  UNL     1      19.468  80.010  23.056  1.00  0.00     0.222 C 
HETATM   29  O1  UNL     1      19.588  79.804  21.796  1.00  0.00    -0.273 OA
ATOM     30  H1  UNL     1      19.235  79.015  24.873  1.00  0.00     0.162 HD
BRANCH  28  31
HETATM   31  C5  UNL     1      19.495  81.411  23.496  1.00  0.00     0.078 C 
HETATM   32  C4  UNL     1      18.775  82.322  22.515  1.00  0.00     0.014 C 
HETATM   33  C3  UNL     1      18.637  83.688  23.137  1.00  0.00     0.006 C 
HETATM   34  C2  UNL     1      17.605  83.673  24.245  1.00  0.00    -0.006 C 
HETATM   35  C1  UNL     1      16.294  84.108  23.630  1.00  0.00     0.010 C 
HETATM   36  C26 UNL     1      17.459  82.231  24.735  1.00  0.00     0.098 C 
HETATM   37  C25 UNL     1      18.853  81.605  24.839  1.00  0.00     0.028 C 
BRANCH  36  38
HETATM   38  C27 UNL     1      16.879  82.228  26.133  1.00  0.00     0.391 C 
HETATM   39  F1  UNL     1      17.756  82.922  26.926  1.00  0.00    -0.171 F 
HETATM   40  F2  UNL     1      15.602  82.745  26.186  1.00  0.00    -0.171 F 
HETATM   41  F3  UNL     1      16.832  80.921  26.566  1.00  0.00    -0.171 F 
ENDBRANCH  36  38
ENDBRANCH  28  31
ENDBRANCH   1  27
TORSDOF 9
ENDMDL
MODEL 4
REMARK VINA RESULT: -7.237337898      4.257      7.293
REMARK  9 active torsions:
REMARK  status: ('A' for Active; 'I' for Inactive)
REMARK    1  A    between atoms: C5_5  and  C6_6 
REMARK       I    between atoms: C6_6  and  N1_8 
REMARK    2  A    between atoms: N1_8  and  C7_10 
REMARK    3  A    between atoms: C10_13  and  C11_14 
REMARK    4  A    between atoms: C11_14  and  N2_15 
REMARK    5  A    between atoms: N2_15  and  C12_17 
REMARK    6  A    between atoms: N3_23  and  C18_24 
REMARK    7  A    between atoms: C18_24  and  O2_25 
REMARK    8  A    between atoms: C18_24  and  C19_27 
REMARK    9  A    between atoms: C26_37  and  C27_38 
ROOT
HETATM    1  C7  UNL     1      17.083  71.844  21.214  1.00  0.00     0.084 C 
HETATM    2  C8  UNL     1      15.610  71.722  21.164  1.00  0.00     0.026 C 
HETATM    3  C9  UNL     1      14.934  72.980  20.764  1.00  0.00     0.012 C 
HETATM    4  C10 UNL     1      15.951  73.925  20.135  1.00  0.00     0.024 C 
HETATM    5  C23 UNL     1      17.039  74.321  21.050  1.00  0.00     0.012 C 
HETATM    6  C24 UNL     1      17.566  73.128  21.834  1.00  0.00     0.026 C 
ENDROOT
BRANCH   4   7
HETATM    7  C11 UNL     1      15.229  74.953  19.357  1.00  0.00     0.060 C 
BRANCH   7   8
HETATM    8  N2  UNL     1      15.586  75.274  18.037  1.00  0.00    -0.397 N 
ATOM      9  H2  UNL     1      16.376  75.894  17.860  1.00  0.00     0.159 HD
BRANCH   8  10
HETATM   10  C12 UNL     1      14.850  74.737  16.945  1.00  0.00     0.084 C 
HETATM   11  C13 UNL     1      13.675  73.899  17.435  1.00  0.00     0.050 C 
HETATM   12  C14 UNL     1      13.473  72.661  16.616  1.00  0.00     0.090 C 
HETATM   13  C15 UNL     1      13.780  72.929  15.138  1.00  0.00     0.050 C 
HETATM   14  N3  UNL     1      14.582  71.811  16.688  1.00  0.00    -0.350 N 
HETATM   15  C16 UNL     1      15.160  72.659  15.577  1.00  0.00     0.090 C 
HETATM   16  C17 UNL     1      15.806  73.882  16.120  1.00  0.00     0.050 C 
BRANCH  14  17
HETATM   17  C18 UNL     1      15.197  70.717  17.299  1.00  0.00     0.168 C 
BRANCH  17  18
HETATM   18  O2  UNL     1      16.317  71.037  17.959  1.00  0.00    -0.344 OA
ATOM     19  H2  UNL     1      16.932  70.316  18.029  1.00  0.00     0.219 HD
ENDBRANCH  17  18
BRANCH  17  20
HETATM   20  C19 UNL     1      14.908  69.320  17.387  1.00  0.00     0.102 A 
HETATM   21  C20 UNL     1      15.396  68.463  18.406  1.00  0.00     0.054 A 
HETATM   22  C21 UNL     1      14.920  67.201  18.188  1.00  0.00     0.110 A 
HETATM   23  N4  UNL     1      14.174  67.259  17.093  1.00  0.00    -0.310 N 
HETATM   24  N5  UNL     1      14.170  68.527  16.617  1.00  0.00    -0.293 N 
ATOM     25  H4  UNL     1      13.681  66.471  16.675  1.00  0.00     0.186 HD
HETATM   26  C22 UNL     1      13.405  68.811  15.427  1.00  0.00     0.178 C 
ENDBRANCH  17  20
ENDBRANCH  14  17
ENDBRANCH   8  10
ENDBRANCH   7   8
ENDBRANCH   4   7
BRANCH   1  27
HETATM   27  N1  UNL     1      17.617  70.715  21.953  1.00  0.00    -0.356 N 
HETATM   28  C6  UNL     1      18.195  69.597  21.343  1.00  0.00     0.222 C 
HETATM   29  O1  UNL     1      18.234  69.596  20.061  1.00  0.00    -0.273 OA
ATOM     30  H1  UNL     1      17.567  70.737  22.972  1.00  0.00     0.162 HD
BRANCH  28  31
HETATM   31  C5  UNL     1      18.766  68.423  22.016  1.00  0.00     0.078 C 
HETATM   32  C4  UNL     1      19.917  68.806  22.931  1.00  0.00     0.014 C 
HETATM   33  C3  UNL     1      20.295  67.603  23.758  1.00  0.00     0.006 C 
HETATM   34  C2  UNL     1      19.244  67.321  24.811  1.00  0.00    -0.006 C 
HETATM   35  C1  UNL     1      19.695  68.010  26.079  1.00  0.00     0.010 C 
HETATM   36  C26 UNL     1      17.931  67.960  24.349  1.00  0.00     0.098 C 
HETATM   37  C25 UNL     1      17.756  67.691  22.852  1.00  0.00     0.028 C 
BRANCH  36  38
HETATM   38  C27 UNL     1      16.769  67.288  25.047  1.00  0.00     0.391 C 
HETATM   39  F1  UNL     1      17.109  65.969  25.201  1.00  0.00    -0.171 F 
HETATM   40  F2  UNL     1      16.443  67.888  26.245  1.00  0.00    -0.171 F 
HETATM   41  F3  UNL     1      15.674  67.368  24.215  1.00  0.00    -0.171 F 
ENDBRANCH  36  38
ENDBRANCH  28  31
ENDBRANCH   1  27
TORSDOF 9
ENDMDL
MODEL 5
REMARK VINA RESULT: -7.207266168      2.877      5.108
REMARK  9 active torsions:
REMARK  status: ('A' for Active; 'I' for Inactive)
REMARK    1  A    between atoms: C5_5  and  C6_6 
REMARK       I    between atoms: C6_6  and  N1_8 
REMARK    2  A    between atoms: N1_8  and  C7_10 
REMARK    3  A    between atoms: C10_13  and  C11_14 
REMARK    4  A    between atoms: C11_14  and  N2_15 
REMARK    5  A    between atoms: N2_15  and  C12_17 
REMARK    6  A    between atoms: N3_23  and  C18_24 
REMARK    7  A    between atoms: C18_24  and  O2_25 
REMARK    8  A    between atoms: C18_24  and  C19_27 
REMARK    9  A    between atoms: C26_37  and  C27_38 
ROOT
HETATM    1  C7  UNL     1      18.762  78.526  23.603  1.00  0.00     0.084 C 
HETATM    2  C8  UNL     1      20.055  77.816  23.705  1.00  0.00     0.026 C 
HETATM    3  C9  UNL     1      19.920  76.342  23.614  1.00  0.00     0.012 C 
HETATM    4  C10 UNL     1      18.550  75.992  23.047  1.00  0.00     0.024 C 
HETATM    5  C23 UNL     1      17.425  76.452  23.883  1.00  0.00     0.012 C 
HETATM    6  C24 UNL     1      17.649  77.874  24.377  1.00  0.00     0.026 C 
ENDROOT
BRANCH   4   7
HETATM    7  C11 UNL     1      18.581  74.599  22.552  1.00  0.00     0.060 C 
BRANCH   7   8
HETATM    8  N2  UNL     1      18.476  74.294  21.185  1.00  0.00    -0.397 N 
ATOM      9  H2  UNL     1      19.315  74.260  20.605  1.00  0.00     0.159 HD
BRANCH   8  10
HETATM   10  C12 UNL     1      17.205  74.031  20.604  1.00  0.00     0.084 C 
HETATM   11  C13 UNL     1      16.199  73.594  21.662  1.00  0.00     0.050 C 
HETATM   12  C14 UNL     1      15.303  72.494  21.181  1.00  0.00     0.090 C 
HETATM   13  C15 UNL     1      14.964  72.677  19.697  1.00  0.00     0.050 C 
HETATM   14  N3  UNL     1      16.029  71.340  20.868  1.00  0.00    -0.350 N 
HETATM   15  C16 UNL     1      16.251  71.984  19.517  1.00  0.00     0.090 C 
HETATM   16  C17 UNL     1      17.392  72.935  19.561  1.00  0.00     0.050 C 
BRANCH  14  17
HETATM   17  C18 UNL     1      16.515  70.099  21.283  1.00  0.00     0.168 C 
BRANCH  17  18
HETATM   18  O2  UNL     1      15.920  69.065  20.673  1.00  0.00    -0.344 OA
ATOM     19  H2  UNL     1      15.744  68.335  21.255  1.00  0.00     0.219 HD
ENDBRANCH  17  18
BRANCH  17  20
HETATM   20  C19 UNL     1      17.510  69.667  22.215  1.00  0.00     0.102 A 
HETATM   21  C20 UNL     1      17.314  68.647  23.181  1.00  0.00     0.054 A 
HETATM   22  C21 UNL     1      18.467  68.487  23.894  1.00  0.00     0.110 A 
HETATM   23  N4  UNL     1      19.341  69.357  23.406  1.00  0.00    -0.310 N 
HETATM   24  N5  UNL     1      18.765  70.061  22.403  1.00  0.00    -0.293 N 
ATOM     25  H4  UNL     1      20.298  69.478  23.736  1.00  0.00     0.186 HD
HETATM   26  C22 UNL     1      19.553  71.061  21.725  1.00  0.00     0.178 C 
ENDBRANCH  17  20
ENDBRANCH  14  17
ENDBRANCH   8  10
ENDBRANCH   7   8
ENDBRANCH   4   7
BRANCH   1  27
HETATM   27  N1  UNL     1      18.944  79.889  24.065  1.00  0.00    -0.356 N 
HETATM   28  C6  UNL     1      18.908  81.002  23.217  1.00  0.00     0.222 C 
HETATM   29  O1  UNL     1      18.710  80.772  21.972  1.00  0.00    -0.273 OA
ATOM     30  H1  UNL     1      19.108  80.045  25.059  1.00  0.00     0.162 HD
BRANCH  28  31
HETATM   31  C5  UNL     1      19.072  82.409  23.605  1.00  0.00     0.078 C 
HETATM   32  C4  UNL     1      18.351  83.343  22.647  1.00  0.00     0.014 C 
HETATM   33  C3  UNL     1      18.361  84.734  23.229  1.00  0.00     0.006 C 
HETATM   34  C2  UNL     1      17.416  84.831  24.408  1.00  0.00    -0.006 C 
HETATM   35  C1  UNL     1      16.099  85.347  23.874  1.00  0.00     0.010 C 
HETATM   36  C26 UNL     1      17.200  83.419  24.958  1.00  0.00     0.098 C 
HETATM   37  C25 UNL     1      18.547  82.692  24.983  1.00  0.00     0.028 C 
BRANCH  36  38
HETATM   38  C27 UNL     1      16.727  83.502  26.392  1.00  0.00     0.391 C 
HETATM   39  F1  UNL     1      17.296  84.627  26.932  1.00  0.00    -0.171 F 
HETATM   40  F2  UNL     1      15.353  83.504  26.506  1.00  0.00    -0.171 F 
HETATM   41  F3  UNL     1      17.211  82.399  27.060  1.00  0.00    -0.171 F 
ENDBRANCH  36  38
ENDBRANCH  28  31
ENDBRANCH   1  27
TORSDOF 9
ENDMDL
