MODEL 1
REMARK VINA RESULT: -8.325904586      0.000      0.000
REMARK  8 active torsions:
REMARK  status: ('A' for Active; 'I' for Inactive)
REMARK    1  A    between atoms: O1_2  and  C2_3 
REMARK    2  A    between atoms: C2_3  and  C3_4 
REMARK    3  A    between atoms: C3_4  and  N1_6 
REMARK    4  A    between atoms: N1_6  and  C5_8 
REMARK    5  A    between atoms: C7_12  and  N3_13 
REMARK    6  A    between atoms: N3_13  and  C8_15 
REMARK    7  A    between atoms: C11_19  and  C12_20 
REMARK    8  A    between atoms: C12_20  and  N4_21 
ROOT
HETATM    1  C5  UNL     1       5.772  28.989  14.399  1.00  0.00     0.124 A 
HETATM    2  N2  UNL     1       5.665  30.133  15.079  1.00  0.00    -0.336 N 
ATOM      3  H2  UNL     1       6.516  30.675  15.229  1.00  0.00     0.168 HD
HETATM    4  C6  UNL     1       4.505  30.629  15.585  1.00  0.00     0.105 A 
HETATM    5  C7  UNL     1       4.435  31.830  16.201  1.00  0.00     0.136 A 
HETATM    6  N5  UNL     1       3.209  32.231  16.581  1.00  0.00    -0.337 N 
ATOM      7  H5  UNL     1       3.152  33.137  17.047  1.00  0.00     0.168 HD
HETATM    8  C19 UNL     1       2.063  31.576  16.418  1.00  0.00     0.182 A 
HETATM    9  N6  UNL     1       2.147  30.380  15.806  1.00  0.00    -0.350 N 
ATOM     10  H6  UNL     1       1.296  29.836  15.660  1.00  0.00     0.166 HD
HETATM   11  C20 UNL     1       3.308  29.889  15.387  1.00  0.00     0.065 A 
HETATM   12  C21 UNL     1       3.377  28.705  14.695  1.00  0.00     0.059 A 
HETATM   13  C22 UNL     1       4.568  28.268  14.218  1.00  0.00     0.080 A 
HETATM   14 CL3  UNL     1       4.617  26.763  13.352  1.00  0.00    -0.080 Cl
ENDROOT
BRANCH   5  15
HETATM   15  N3  UNL     1       5.544  32.541  16.498  1.00  0.00    -0.339 N 
ATOM     16  H3  UNL     1       6.199  32.982  15.853  1.00  0.00     0.167 HD
BRANCH  15  17
HETATM   17  C8  UNL     1       5.589  32.532  18.000  1.00  0.00     0.060 A 
HETATM   18  C9  UNL     1       4.872  33.444  18.703  1.00  0.00     0.056 A 
HETATM   19  C10 UNL     1       5.250  33.746  20.021  1.00  0.00     0.051 A 
HETATM   20 CL1  UNL     1       4.332  34.911  20.948  1.00  0.00    -0.083 Cl
HETATM   21  C11 UNL     1       6.333  33.137  20.614  1.00  0.00     0.042 A 
HETATM   22  C17 UNL     1       7.020  32.179  19.836  1.00  0.00     0.153 A 
HETATM   23  F1  UNL     1       8.078  31.514  20.323  1.00  0.00    -0.203 F 
HETATM   24  C18 UNL     1       6.653  31.872  18.530  1.00  0.00     0.100 A 
HETATM   25 CL2  UNL     1       7.508  30.685  17.585  1.00  0.00    -0.079 Cl
BRANCH  21  26
HETATM   26  C12 UNL     1       7.035  33.815  21.706  1.00  0.00     0.110 C 
BRANCH  26  27
HETATM   27  N4  UNL     1       8.239  34.484  21.633  1.00  0.00    -0.327 N 
HETATM   28  C13 UNL     1       8.920  34.963  22.947  1.00  0.00     0.132 C 
HETATM   29  C14 UNL     1       9.315  36.367  22.535  1.00  0.00     0.029 C 
HETATM   30  C15 UNL     1      10.090  35.987  21.262  1.00  0.00     0.105 C 
HETATM   31  C16 UNL     1       9.029  35.080  20.644  1.00  0.00     0.223 C 
HETATM   32  O2  UNL     1       8.979  34.973  19.399  1.00  0.00    -0.273 OA
ENDBRANCH  26  27
ENDBRANCH  21  26
ENDBRANCH  15  17
ENDBRANCH   5  15
BRANCH   1  33
HETATM   33  N1  UNL     1       6.802  28.497  13.921  1.00  0.00    -0.369 N 
ATOM     34  H1  UNL     1       6.554  27.980  13.078  1.00  0.00     0.161 HD
BRANCH  33  35
HETATM   35  C3  UNL     1       8.156  28.395  14.115  1.00  0.00     0.103 C 
HETATM   36  C4  UNL     1       8.391  27.114  14.958  1.00  0.00     0.034 C 
BRANCH  35  37
HETATM   37  C2  UNL     1       9.061  28.235  12.919  1.00  0.00     0.191 C 
BRANCH  37  38
HETATM   38  O1  UNL     1      10.324  28.567  13.361  1.00  0.00    -0.394 OA
HETATM   39  C1  UNL     1      11.334  27.863  12.746  1.00  0.00     0.201 C 
ENDBRANCH  37  38
ENDBRANCH  35  37
ENDBRANCH  33  35
ENDBRANCH   1  33
TORSDOF 8
ENDMDL
MODEL 2
REMARK VINA RESULT: -7.921850839      2.262      7.943
REMARK  8 active torsions:
REMARK  status: ('A' for Active; 'I' for Inactive)
REMARK    1  A    between atoms: O1_2  and  C2_3 
REMARK    2  A    between atoms: C2_3  and  C3_4 
REMARK    3  A    between atoms: C3_4  and  N1_6 
REMARK    4  A    between atoms: N1_6  and  C5_8 
REMARK    5  A    between atoms: C7_12  and  N3_13 
REMARK    6  A    between atoms: N3_13  and  C8_15 
REMARK    7  A    between atoms: C11_19  and  C12_20 
REMARK    8  A    between atoms: C12_20  and  N4_21 
ROOT
HETATM    1  C5  UNL     1       6.192  33.940  19.800  1.00  0.00     0.124 A 
HETATM    2  N2  UNL     1       5.803  33.218  18.745  1.00  0.00    -0.336 N 
ATOM      3  H2  UNL     1       6.458  33.127  17.968  1.00  0.00     0.168 HD
HETATM    4  C6  UNL     1       4.600  32.597  18.631  1.00  0.00     0.105 A 
HETATM    5  C7  UNL     1       4.282  31.815  17.576  1.00  0.00     0.136 A 
HETATM    6  N5  UNL     1       3.089  31.198  17.631  1.00  0.00    -0.337 N 
ATOM      7  H5  UNL     1       2.846  30.607  16.836  1.00  0.00     0.168 HD
HETATM    8  C19 UNL     1       2.191  31.274  18.610  1.00  0.00     0.182 A 
HETATM    9  N6  UNL     1       2.518  32.058  19.654  1.00  0.00    -0.350 N 
ATOM     10  H6  UNL     1       1.861  32.153  20.429  1.00  0.00     0.166 HD
HETATM   11  C20 UNL     1       3.673  32.712  19.702  1.00  0.00     0.065 A 
HETATM   12  C21 UNL     1       4.034  33.448  20.803  1.00  0.00     0.059 A 
HETATM   13  C22 UNL     1       5.251  34.043  20.851  1.00  0.00     0.080 A 
HETATM   14 CL3  UNL     1       5.670  34.971  22.259  1.00  0.00    -0.080 Cl
ENDROOT
BRANCH   5  15
HETATM   15  N3  UNL     1       5.079  31.733  16.488  1.00  0.00    -0.339 N 
ATOM     16  H3  UNL     1       5.298  32.466  15.813  1.00  0.00     0.167 HD
BRANCH  15  17
HETATM   17  C8  UNL     1       5.568  30.312  16.502  1.00  0.00     0.060 A 
HETATM   18  C9  UNL     1       6.600  29.960  17.308  1.00  0.00     0.056 A 
HETATM   19  C10 UNL     1       7.347  28.811  17.004  1.00  0.00     0.051 A 
HETATM   20 CL1  UNL     1       8.676  28.335  18.037  1.00  0.00    -0.083 Cl
HETATM   21  C11 UNL     1       7.054  28.035  15.906  1.00  0.00     0.042 A 
HETATM   22  C17 UNL     1       5.951  28.443  15.123  1.00  0.00     0.153 A 
HETATM   23  F1  UNL     1       5.569  27.748  14.041  1.00  0.00    -0.203 F 
HETATM   24  C18 UNL     1       5.204  29.579  15.416  1.00  0.00     0.100 A 
HETATM   25 CL2  UNL     1       3.844  30.066  14.443  1.00  0.00    -0.079 Cl
BRANCH  21  26
HETATM   26  C12 UNL     1       8.106  27.219  15.296  1.00  0.00     0.110 C 
BRANCH  26  27
HETATM   27  N4  UNL     1       9.199  27.666  14.584  1.00  0.00    -0.327 N 
HETATM   28  C13 UNL     1       8.998  28.758  13.494  1.00  0.00     0.132 C 
HETATM   29  C14 UNL     1       9.835  28.164  12.378  1.00  0.00     0.029 C 
HETATM   30  C15 UNL     1      11.136  27.988  13.181  1.00  0.00     0.105 C 
HETATM   31  C16 UNL     1      10.531  27.282  14.392  1.00  0.00     0.223 C 
HETATM   32  O2  UNL     1      11.242  26.485  15.041  1.00  0.00    -0.273 OA
ENDBRANCH  26  27
ENDBRANCH  21  26
ENDBRANCH  15  17
ENDBRANCH   5  15
BRANCH   1  33
HETATM   33  N1  UNL     1       7.272  34.524  19.949  1.00  0.00    -0.369 N 
ATOM     34  H1  UNL     1       7.207  35.444  19.514  1.00  0.00     0.161 HD
BRANCH  33  35
HETATM   35  C3  UNL     1       8.525  34.382  20.489  1.00  0.00     0.103 C 
HETATM   36  C4  UNL     1       9.038  32.981  20.063  1.00  0.00     0.034 C 
BRANCH  35  37
HETATM   37  C2  UNL     1       9.620  35.332  20.070  1.00  0.00     0.191 C 
BRANCH  37  38
HETATM   38  O1  UNL     1      10.309  35.637  21.223  1.00  0.00    -0.394 OA
HETATM   39  C1  UNL     1       9.511  36.092  22.247  1.00  0.00     0.201 C 
ENDBRANCH  37  38
ENDBRANCH  35  37
ENDBRANCH  33  35
ENDBRANCH   1  33
TORSDOF 8
ENDMDL
MODEL 3
REMARK VINA RESULT: -7.789032805      2.072      2.322
REMARK  8 active torsions:
REMARK  status: ('A' for Active; 'I' for Inactive)
REMARK    1  A    between atoms: O1_2  and  C2_3 
REMARK    2  A    between atoms: C2_3  and  C3_4 
REMARK    3  A    between atoms: C3_4  and  N1_6 
REMARK    4  A    between atoms: N1_6  and  C5_8 
REMARK    5  A    between atoms: C7_12  and  N3_13 
REMARK    6  A    between atoms: N3_13  and  C8_15 
REMARK    7  A    between atoms: C11_19  and  C12_20 
REMARK    8  A    between atoms: C12_20  and  N4_21 
ROOT
HETATM    1  C5  UNL     1       5.740  28.277  15.650  1.00  0.00     0.124 A 
HETATM    2  N2  UNL     1       5.624  28.393  16.976  1.00  0.00    -0.336 N 
ATOM      3  H2  UNL     1       6.413  28.088  17.547  1.00  0.00     0.168 HD
HETATM    4  C6  UNL     1       4.534  28.885  17.620  1.00  0.00     0.105 A 
HETATM    5  C7  UNL     1       4.494  29.053  18.960  1.00  0.00     0.136 A 
HETATM    6  N5  UNL     1       3.383  29.625  19.455  1.00  0.00    -0.337 N 
ATOM      7  H5  UNL     1       3.350  29.753  20.466  1.00  0.00     0.168 HD
HETATM    8  C19 UNL     1       2.322  30.044  18.770  1.00  0.00     0.182 A 
HETATM    9  N6  UNL     1       2.373  29.870  17.436  1.00  0.00    -0.350 N 
ATOM     10  H6  UNL     1       1.582  30.171  16.866  1.00  0.00     0.166 HD
HETATM   11  C20 UNL     1       3.424  29.316  16.843  1.00  0.00     0.065 A 
HETATM   12  C21 UNL     1       3.503  29.211  15.476  1.00  0.00     0.059 A 
HETATM   13  C22 UNL     1       4.621  28.708  14.898  1.00  0.00     0.080 A 
HETATM   14 CL3  UNL     1       4.682  28.587  13.167  1.00  0.00    -0.080 Cl
ENDROOT
BRANCH   5  15
HETATM   15  N3  UNL     1       5.476  28.586  19.763  1.00  0.00    -0.339 N 
ATOM     16  H3  UNL     1       5.740  27.616  19.933  1.00  0.00     0.167 HD
BRANCH  15  17
HETATM   17  C8  UNL     1       6.087  29.828  20.348  1.00  0.00     0.060 A 
HETATM   18  C9  UNL     1       5.352  30.623  21.165  1.00  0.00     0.056 A 
HETATM   19  C10 UNL     1       5.724  31.966  21.334  1.00  0.00     0.051 A 
HETATM   20 CL1  UNL     1       4.796  33.004  22.391  1.00  0.00    -0.083 Cl
HETATM   21  C11 UNL     1       6.819  32.493  20.686  1.00  0.00     0.042 A 
HETATM   22  C17 UNL     1       7.555  31.605  19.870  1.00  0.00     0.153 A 
HETATM   23  F1  UNL     1       8.649  32.011  19.209  1.00  0.00    -0.203 F 
HETATM   24  C18 UNL     1       7.195  30.273  19.698  1.00  0.00     0.100 A 
HETATM   25 CL2  UNL     1       8.116  29.190  18.692  1.00  0.00    -0.079 Cl
BRANCH  21  26
HETATM   26  C12 UNL     1       6.877  33.932  20.418  1.00  0.00     0.110 C 
BRANCH  26  27
HETATM   27  N4  UNL     1       7.868  34.811  20.801  1.00  0.00    -0.327 N 
HETATM   28  C13 UNL     1       9.025  35.126  19.810  1.00  0.00     0.132 C 
HETATM   29  C14 UNL     1      10.207  35.024  20.754  1.00  0.00     0.029 C 
HETATM   30  C15 UNL     1       9.697  36.016  21.813  1.00  0.00     0.105 C 
HETATM   31  C16 UNL     1       8.297  35.430  21.980  1.00  0.00     0.223 C 
HETATM   32  O2  UNL     1       7.719  35.556  23.081  1.00  0.00    -0.273 OA
ENDBRANCH  26  27
ENDBRANCH  21  26
ENDBRANCH  15  17
ENDBRANCH   5  15
BRANCH   1  33
HETATM   33  N1  UNL     1       6.707  27.835  15.020  1.00  0.00    -0.369 N 
ATOM     34  H1  UNL     1       6.393  27.048  14.453  1.00  0.00     0.161 HD
BRANCH  33  35
HETATM   35  C3  UNL     1       8.050  28.020  14.806  1.00  0.00     0.103 C 
HETATM   36  C4  UNL     1       8.788  26.959  15.664  1.00  0.00     0.034 C 
BRANCH  35  37
HETATM   37  C2  UNL     1       8.606  27.841  13.416  1.00  0.00     0.191 C 
BRANCH  37  38
HETATM   38  O1  UNL     1       9.385  28.954  13.180  1.00  0.00    -0.394 OA
HETATM   39  C1  UNL     1      10.463  28.717  12.360  1.00  0.00     0.201 C 
ENDBRANCH  37  38
ENDBRANCH  35  37
ENDBRANCH  33  35
ENDBRANCH   1  33
TORSDOF 8
ENDMDL
MODEL 4
REMARK VINA RESULT: -7.724714668      2.744      3.632
REMARK  8 active torsions:
REMARK  status: ('A' for Active; 'I' for Inactive)
REMARK    1  A    between atoms: O1_2  and  C2_3 
REMARK    2  A    between atoms: C2_3  and  C3_4 
REMARK    3  A    between atoms: C3_4  and  N1_6 
REMARK    4  A    between atoms: N1_6  and  C5_8 
REMARK    5  A    between atoms: C7_12  and  N3_13 
REMARK    6  A    between atoms: N3_13  and  C8_15 
REMARK    7  A    between atoms: C11_19  and  C12_20 
REMARK    8  A    between atoms: C12_20  and  N4_21 
ROOT
HETATM    1  C5  UNL     1       7.923  29.021  16.473  1.00  0.00     0.124 A 
HETATM    2  N2  UNL     1       7.239  30.062  16.955  1.00  0.00    -0.336 N 
ATOM      3  H2  UNL     1       7.102  30.863  16.339  1.00  0.00     0.168 HD
HETATM    4  C6  UNL     1       6.713  30.133  18.206  1.00  0.00     0.105 A 
HETATM    5  C7  UNL     1       5.964  31.178  18.622  1.00  0.00     0.136 A 
HETATM    6  N5  UNL     1       5.440  31.079  19.856  1.00  0.00    -0.337 N 
ATOM      7  H5  UNL     1       4.874  31.866  20.174  1.00  0.00     0.168 HD
HETATM    8  C19 UNL     1       5.579  30.067  20.709  1.00  0.00     0.182 A 
HETATM    9  N6  UNL     1       6.329  29.034  20.284  1.00  0.00    -0.350 N 
ATOM     10  H6  UNL     1       6.470  28.234  20.902  1.00  0.00     0.166 HD
HETATM   11  C20 UNL     1       6.892  29.028  19.081  1.00  0.00     0.065 A 
HETATM   12  C21 UNL     1       7.592  27.938  18.623  1.00  0.00     0.059 A 
HETATM   13  C22 UNL     1       8.092  27.934  17.363  1.00  0.00     0.080 A 
HETATM   14 CL3  UNL     1       8.976  26.541  16.821  1.00  0.00    -0.080 Cl
ENDROOT
BRANCH   5  15
HETATM   15  N3  UNL     1       5.828  32.295  17.876  1.00  0.00    -0.339 N 
ATOM     16  H3  UNL     1       5.448  32.378  16.933  1.00  0.00     0.167 HD
BRANCH  15  17
HETATM   17  C8  UNL     1       6.365  33.388  18.757  1.00  0.00     0.060 A 
HETATM   18  C9  UNL     1       7.697  33.467  19.000  1.00  0.00     0.056 A 
HETATM   19  C10 UNL     1       8.148  34.152  20.140  1.00  0.00     0.051 A 
HETATM   20 CL1  UNL     1       9.862  34.273  20.465  1.00  0.00    -0.083 Cl
HETATM   21  C11 UNL     1       7.265  34.743  21.015  1.00  0.00     0.042 A 
HETATM   22  C17 UNL     1       5.894  34.646  20.690  1.00  0.00     0.153 A 
HETATM   23  F1  UNL     1       4.953  35.202  21.466  1.00  0.00    -0.203 F 
HETATM   24  C18 UNL     1       5.438  33.971  19.563  1.00  0.00     0.100 A 
HETATM   25 CL2  UNL     1       3.744  33.864  19.173  1.00  0.00    -0.079 Cl
BRANCH  21  26
HETATM   26  C12 UNL     1       7.661  34.949  22.411  1.00  0.00     0.110 C 
BRANCH  26  27
HETATM   27  N4  UNL     1       7.665  36.138  23.108  1.00  0.00    -0.327 N 
HETATM   28  C13 UNL     1       6.451  36.489  24.015  1.00  0.00     0.132 C 
HETATM   29  C14 UNL     1       6.243  37.937  23.618  1.00  0.00     0.029 C 
HETATM   30  C15 UNL     1       7.678  38.422  23.888  1.00  0.00     0.105 C 
HETATM   31  C16 UNL     1       8.409  37.323  23.120  1.00  0.00     0.223 C 
HETATM   32  O2  UNL     1       9.523  37.581  22.615  1.00  0.00    -0.273 OA
ENDBRANCH  26  27
ENDBRANCH  21  26
ENDBRANCH  15  17
ENDBRANCH   5  15
BRANCH   1  33
HETATM   33  N1  UNL     1       8.420  28.911  15.346  1.00  0.00    -0.369 N 
ATOM     34  H1  UNL     1       9.052  29.696  15.192  1.00  0.00     0.161 HD
BRANCH  33  35
HETATM   35  C3  UNL     1       8.431  28.114  14.229  1.00  0.00     0.103 C 
HETATM   36  C4  UNL     1       6.949  27.878  13.836  1.00  0.00     0.034 C 
BRANCH  35  37
HETATM   37  C2  UNL     1       9.083  28.623  12.968  1.00  0.00     0.191 C 
BRANCH  37  38
HETATM   38  O1  UNL     1      10.437  28.624  13.223  1.00  0.00    -0.394 OA
HETATM   39  C1  UNL     1      11.033  27.392  13.080  1.00  0.00     0.201 C 
ENDBRANCH  37  38
ENDBRANCH  35  37
ENDBRANCH  33  35
ENDBRANCH   1  33
TORSDOF 8
ENDMDL
MODEL 5
REMARK VINA RESULT: -7.679789761      3.207      9.188
REMARK  8 active torsions:
REMARK  status: ('A' for Active; 'I' for Inactive)
REMARK    1  A    between atoms: O1_2  and  C2_3 
REMARK    2  A    between atoms: C2_3  and  C3_4 
REMARK    3  A    between atoms: C3_4  and  N1_6 
REMARK    4  A    between atoms: N1_6  and  C5_8 
REMARK    5  A    between atoms: C7_12  and  N3_13 
REMARK    6  A    between atoms: N3_13  and  C8_15 
REMARK    7  A    between atoms: C11_19  and  C12_20 
REMARK    8  A    between atoms: C12_20  and  N4_21 
ROOT
HETATM    1  C5  UNL     1       7.540  34.404  22.102  1.00  0.00     0.124 A 
HETATM    2  N2  UNL     1       7.580  33.394  21.228  1.00  0.00    -0.336 N 
ATOM      3  H2  UNL     1       8.277  33.440  20.485  1.00  0.00     0.168 HD
HETATM    4  C6  UNL     1       6.762  32.310  21.257  1.00  0.00     0.105 A 
HETATM    5  C7  UNL     1       6.891  31.277  20.396  1.00  0.00     0.136 A 
HETATM    6  N5  UNL     1       6.065  30.234  20.590  1.00  0.00    -0.337 N 
ATOM      7  H5  UNL     1       6.160  29.453  19.942  1.00  0.00     0.168 HD
HETATM    8  C19 UNL     1       5.138  30.110  21.536  1.00  0.00     0.182 A 
HETATM    9  N6  UNL     1       5.017  31.146  22.387  1.00  0.00    -0.350 N 
ATOM     10  H6  UNL     1       4.317  31.102  23.128  1.00  0.00     0.166 HD
HETATM   11  C20 UNL     1       5.784  32.226  22.285  1.00  0.00     0.065 A 
HETATM   12  C21 UNL     1       5.709  33.246  23.202  1.00  0.00     0.059 A 
HETATM   13  C22 UNL     1       6.557  34.300  23.113  1.00  0.00     0.080 A 
HETATM   14 CL3  UNL     1       6.429  35.573  24.288  1.00  0.00    -0.080 Cl
ENDROOT
BRANCH   5  15
HETATM   15  N3  UNL     1       7.738  31.331  19.345  1.00  0.00    -0.339 N 
ATOM     16  H3  UNL     1       8.436  32.045  19.137  1.00  0.00     0.167 HD
BRANCH  15  17
HETATM   17  C8  UNL     1       7.413  30.096  18.553  1.00  0.00     0.060 A 
HETATM   18  C9  UNL     1       8.143  28.967  18.733  1.00  0.00     0.056 A 
HETATM   19  C10 UNL     1       8.167  27.996  17.718  1.00  0.00     0.051 A 
HETATM   20 CL1  UNL     1       9.094  26.529  17.935  1.00  0.00    -0.083 Cl
HETATM   21  C11 UNL     1       7.467  28.168  16.546  1.00  0.00     0.042 A 
HETATM   22  C17 UNL     1       6.707  29.354  16.434  1.00  0.00     0.153 A 
HETATM   23  F1  UNL     1       5.973  29.611  15.341  1.00  0.00    -0.203 F 
HETATM   24  C18 UNL     1       6.676  30.320  17.433  1.00  0.00     0.100 A 
HETATM   25 CL2  UNL     1       5.730  31.775  17.282  1.00  0.00    -0.079 Cl
BRANCH  21  26
HETATM   26  C12 UNL     1       7.912  27.481  15.331  1.00  0.00     0.110 C 
BRANCH  26  27
HETATM   27  N4  UNL     1       9.019  27.779  14.564  1.00  0.00    -0.327 N 
HETATM   28  C13 UNL     1       8.891  28.834  13.427  1.00  0.00     0.132 C 
HETATM   29  C14 UNL     1       9.622  28.105  12.317  1.00  0.00     0.029 C 
HETATM   30  C15 UNL     1      10.926  27.834  13.088  1.00  0.00     0.105 C 
HETATM   31  C16 UNL     1      10.296  27.252  14.351  1.00  0.00     0.223 C 
HETATM   32  O2  UNL     1      10.946  26.417  15.018  1.00  0.00    -0.273 OA
ENDBRANCH  26  27
ENDBRANCH  21  26
ENDBRANCH  15  17
ENDBRANCH   5  15
BRANCH   1  33
HETATM   33  N1  UNL     1       8.261  35.409  22.116  1.00  0.00    -0.369 N 
ATOM     34  H1  UNL     1       7.666  36.235  22.054  1.00  0.00     0.161 HD
BRANCH  33  35
HETATM   35  C3  UNL     1       9.569  35.815  22.184  1.00  0.00     0.103 C 
HETATM   36  C4  UNL     1      10.226  35.436  20.831  1.00  0.00     0.034 C 
BRANCH  35  37
HETATM   37  C2  UNL     1       9.877  37.282  22.359  1.00  0.00     0.191 C 
BRANCH  37  38
HETATM   38  O1  UNL     1       8.889  37.773  23.184  1.00  0.00    -0.394 OA
HETATM   39  C1  UNL     1       9.070  39.086  23.552  1.00  0.00     0.201 C 
ENDBRANCH  37  38
ENDBRANCH  35  37
ENDBRANCH  33  35
ENDBRANCH   1  33
TORSDOF 8
ENDMDL
