MODEL 1
REMARK VINA RESULT: -8.559707568      0.000      0.000
REMARK  9 active torsions:
REMARK  status: ('A' for Active; 'I' for Inactive)
REMARK    1  A    between atoms: C8_9  and  C9_10 
REMARK    2  A    between atoms: C9_10  and  C10_11 
REMARK       I    between atoms: N2_18  and  C15_19 
REMARK    3  A    between atoms: C15_19  and  C16_21 
REMARK    4  A    between atoms: C16_21  and  C17_22 
REMARK    5  A    between atoms: C17_22  and  C18_23 
REMARK    6  A    between atoms: C17_22  and  C20_28 
REMARK    7  A    between atoms: C18_23  and  C19_24 
REMARK    8  A    between atoms: C20_28  and  O3_29 
REMARK    9  A    between atoms: N3_31  and  O4_33 
ROOT
HETATM    1  C1  UNL     1      -0.031  37.152  62.810  1.00  0.00     0.309 C 
HETATM    2  N1  UNL     1       0.903  38.255  62.554  1.00  0.00     0.085 N 
HETATM    3  C2  UNL     1       1.500  38.127  61.247  1.00  0.00     0.272 C 
HETATM    4  C3  UNL     1       1.140  39.384  60.445  1.00  0.00     0.034 C 
HETATM    5  C4  UNL     1       2.035  39.391  59.214  1.00  0.00     0.028 C 
HETATM    6  C5  UNL     1       2.209  40.805  58.790  1.00  0.00    -0.031 C 
HETATM    7  C6  UNL     1       3.302  41.206  58.108  1.00  0.00    -0.030 C 
HETATM    8  C7  UNL     1       4.402  40.249  57.741  1.00  0.00     0.041 C 
HETATM    9  C8  UNL     1       5.532  40.198  58.718  1.00  0.00     0.082 C 
HETATM   10  C14 UNL     1       5.826  41.548  59.335  1.00  0.00     0.231 C 
HETATM   11  O1  UNL     1       5.598  42.542  58.616  1.00  0.00    -0.273 OA
HETATM   12  N2  UNL     1       6.333  41.763  60.634  1.00  0.00    -0.288 N 
HETATM   13  C15 UNL     1       7.416  42.713  60.822  1.00  0.00     0.227 C 
HETATM   14  O2  UNL     1       7.846  43.318  59.791  1.00  0.00    -0.273 OA
HETATM   15  C21 UNL     1       5.869  41.103  61.826  1.00  0.00     0.136 C 
HETATM   16  C22 UNL     1       4.363  41.050  61.925  1.00  0.00     0.048 C 
HETATM   17  C23 UNL     1       3.907  41.179  63.360  1.00  0.00     0.234 C 
HETATM   18  N4  UNL     1       3.650  39.870  63.885  1.00  0.00    -0.073 N 
ATOM     19  H41 UNL     1       4.191  39.701  64.734  1.00  0.00     0.277 HD
ATOM     20  H42 UNL     1       4.055  39.148  63.288  1.00  0.00     0.277 HD
HETATM   21  C24 UNL     1       2.231  39.630  64.112  1.00  0.00     0.262 C 
HETATM   22  C25 UNL     1       1.891  38.247  63.608  1.00  0.00     0.299 C 
ENDROOT
BRANCH  13  23
HETATM   23  C16 UNL     1       8.019  42.992  62.142  1.00  0.00     0.116 C 
BRANCH  23  24
HETATM   24  C17 UNL     1       7.980  44.414  62.570  1.00  0.00     0.079 C 
BRANCH  24  25
HETATM   25  C18 UNL     1       7.419  44.753  63.892  1.00  0.00     0.130 C 
BRANCH  25  26
HETATM   26  C19 UNL     1       6.064  44.246  64.228  1.00  0.00     0.388 C 
HETATM   27  F2  UNL     1       5.532  45.150  65.167  1.00  0.00    -0.171 F 
HETATM   28  F3  UNL     1       6.125  43.042  64.939  1.00  0.00    -0.171 F 
HETATM   29  F4  UNL     1       5.152  44.168  63.224  1.00  0.00    -0.171 F 
ENDBRANCH  25  26
ENDBRANCH  24  25
BRANCH  24  30
HETATM   30  C20 UNL     1       9.353  45.045  62.385  1.00  0.00     0.140 C 
HETATM   31  N3  UNL     1      10.096  45.227  63.412  1.00  0.00    -0.251 N 
ATOM     32  H3  UNL     1       9.762  44.948  64.335  1.00  0.00     0.196 HD
BRANCH  30  33
HETATM   33  O3  UNL     1       9.812  45.426  61.143  1.00  0.00    -0.348 OA
ATOM     34  H3  UNL     1      10.693  45.219  60.853  1.00  0.00     0.219 HD
ENDBRANCH  30  33
BRANCH  31  35
HETATM   35  O4  UNL     1      11.332  45.791  63.278  1.00  0.00    -0.288 OA
ATOM     36  H4  UNL     1      11.566  46.254  62.483  1.00  0.00     0.244 HD
ENDBRANCH  31  35
ENDBRANCH  24  30
ENDBRANCH  23  24
ENDBRANCH  13  23
BRANCH   9  37
HETATM   37  C9  UNL     1       6.811  39.844  58.016  1.00  0.00     0.019 C 
BRANCH  37  38
HETATM   38  C10 UNL     1       7.741  38.871  58.538  1.00  0.00    -0.008 C 
HETATM   39  C11 UNL     1       8.237  37.738  57.666  1.00  0.00     0.042 C 
HETATM   40  C12 UNL     1       9.396  37.619  58.677  1.00  0.00     0.170 C 
HETATM   41  F1  UNL     1      10.618  37.383  58.130  1.00  0.00    -0.249 F 
HETATM   42  C13 UNL     1       9.134  39.132  58.945  1.00  0.00     0.042 C 
ENDBRANCH  37  38
ENDBRANCH   9  37
TORSDOF 9
ENDMDL
MODEL 2
REMARK VINA RESULT: -8.513597838      3.061      3.684
REMARK  9 active torsions:
REMARK  status: ('A' for Active; 'I' for Inactive)
REMARK    1  A    between atoms: C8_9  and  C9_10 
REMARK    2  A    between atoms: C9_10  and  C10_11 
REMARK       I    between atoms: N2_18  and  C15_19 
REMARK    3  A    between atoms: C15_19  and  C16_21 
REMARK    4  A    between atoms: C16_21  and  C17_22 
REMARK    5  A    between atoms: C17_22  and  C18_23 
REMARK    6  A    between atoms: C17_22  and  C20_28 
REMARK    7  A    between atoms: C18_23  and  C19_24 
REMARK    8  A    between atoms: C20_28  and  O3_29 
REMARK    9  A    between atoms: N3_31  and  O4_33 
ROOT
HETATM    1  C1  UNL     1      -0.867  41.390  62.696  1.00  0.00     0.309 C 
HETATM    2  N1  UNL     1       0.399  42.128  62.616  1.00  0.00     0.085 N 
HETATM    3  C2  UNL     1       1.314  41.475  61.711  1.00  0.00     0.272 C 
HETATM    4  C3  UNL     1       1.656  42.469  60.595  1.00  0.00     0.034 C 
HETATM    5  C4  UNL     1       2.855  41.901  59.851  1.00  0.00     0.028 C 
HETATM    6  C5  UNL     1       3.598  43.041  59.253  1.00  0.00    -0.031 C 
HETATM    7  C6  UNL     1       4.921  42.963  58.998  1.00  0.00    -0.030 C 
HETATM    8  C7  UNL     1       5.714  41.722  59.303  1.00  0.00     0.041 C 
HETATM    9  C8  UNL     1       6.386  41.729  60.638  1.00  0.00     0.082 C 
HETATM   10  C14 UNL     1       6.879  43.104  61.032  1.00  0.00     0.231 C 
HETATM   11  O1  UNL     1       7.226  43.852  60.096  1.00  0.00    -0.273 OA
HETATM   12  N2  UNL     1       6.977  43.592  62.352  1.00  0.00    -0.288 N 
HETATM   13  C15 UNL     1       8.183  44.292  62.759  1.00  0.00     0.227 C 
HETATM   14  O2  UNL     1       9.094  44.440  61.886  1.00  0.00    -0.273 OA
HETATM   15  C21 UNL     1       5.966  43.451  63.368  1.00  0.00     0.136 C 
HETATM   16  C22 UNL     1       4.576  43.762  62.866  1.00  0.00     0.048 C 
HETATM   17  C23 UNL     1       3.745  44.424  63.941  1.00  0.00     0.234 C 
HETATM   18  N4  UNL     1       2.928  43.431  64.574  1.00  0.00    -0.073 N 
ATOM     19  H41 UNL     1       3.080  43.418  65.583  1.00  0.00     0.277 HD
ATOM     20  H42 UNL     1       3.252  42.490  64.348  1.00  0.00     0.277 HD
HETATM   21  C24 UNL     1       1.514  43.590  64.259  1.00  0.00     0.262 C 
HETATM   22  C25 UNL     1       0.934  42.228  63.954  1.00  0.00     0.299 C 
ENDROOT
BRANCH  13  23
HETATM   23  C16 UNL     1       8.381  44.826  64.123  1.00  0.00     0.116 C 
BRANCH  23  24
HETATM   24  C17 UNL     1       9.557  44.286  64.852  1.00  0.00     0.079 C 
BRANCH  24  25
HETATM   25  C18 UNL     1      10.601  45.215  65.325  1.00  0.00     0.130 C 
BRANCH  25  26
HETATM   26  C19 UNL     1      10.889  46.419  64.505  1.00  0.00     0.388 C 
HETATM   27  F2  UNL     1      11.739  45.989  63.468  1.00  0.00    -0.171 F 
HETATM   28  F3  UNL     1      11.674  47.343  65.204  1.00  0.00    -0.171 F 
HETATM   29  F4  UNL     1       9.842  47.036  63.899  1.00  0.00    -0.171 F 
ENDBRANCH  25  26
ENDBRANCH  24  25
BRANCH  24  30
HETATM   30  C20 UNL     1       9.090  43.375  65.980  1.00  0.00     0.140 C 
HETATM   31  N3  UNL     1       9.905  43.089  66.924  1.00  0.00    -0.251 N 
ATOM     32  H3  UNL     1      10.851  43.471  66.911  1.00  0.00     0.196 HD
BRANCH  30  33
HETATM   33  O3  UNL     1       7.815  42.853  66.006  1.00  0.00    -0.348 OA
ATOM     34  H3  UNL     1       7.629  41.976  65.691  1.00  0.00     0.219 HD
ENDBRANCH  30  33
BRANCH  31  35
HETATM   35  O4  UNL     1       9.517  42.275  67.949  1.00  0.00    -0.288 OA
ATOM     36  H4  UNL     1      10.022  41.500  68.166  1.00  0.00     0.244 HD
ENDBRANCH  31  35
ENDBRANCH  24  30
ENDBRANCH  23  24
ENDBRANCH  13  23
BRANCH   9  37
HETATM   37  C9  UNL     1       7.641  40.904  60.593  1.00  0.00     0.019 C 
BRANCH  37  38
HETATM   38  C10 UNL     1       7.779  39.747  59.740  1.00  0.00    -0.008 C 
HETATM   39  C11 UNL     1       9.073  39.493  58.997  1.00  0.00     0.042 C 
HETATM   40  C12 UNL     1       8.583  38.035  58.874  1.00  0.00     0.170 C 
HETATM   41  F1  UNL     1       9.541  37.086  59.050  1.00  0.00    -0.249 F 
HETATM   42  C13 UNL     1       7.786  38.340  60.178  1.00  0.00     0.042 C 
ENDBRANCH  37  38
ENDBRANCH   9  37
TORSDOF 9
ENDMDL
MODEL 3
REMARK VINA RESULT: -8.472842191      2.768      3.277
REMARK  9 active torsions:
REMARK  status: ('A' for Active; 'I' for Inactive)
REMARK    1  A    between atoms: C8_9  and  C9_10 
REMARK    2  A    between atoms: C9_10  and  C10_11 
REMARK       I    between atoms: N2_18  and  C15_19 
REMARK    3  A    between atoms: C15_19  and  C16_21 
REMARK    4  A    between atoms: C16_21  and  C17_22 
REMARK    5  A    between atoms: C17_22  and  C18_23 
REMARK    6  A    between atoms: C17_22  and  C20_28 
REMARK    7  A    between atoms: C18_23  and  C19_24 
REMARK    8  A    between atoms: C20_28  and  O3_29 
REMARK    9  A    between atoms: N3_31  and  O4_33 
ROOT
HETATM    1  C1  UNL     1      -0.292  39.418  60.778  1.00  0.00     0.309 C 
HETATM    2  N1  UNL     1       0.776  40.414  60.922  1.00  0.00     0.085 N 
HETATM    3  C2  UNL     1       1.904  40.078  60.087  1.00  0.00     0.272 C 
HETATM    4  C3  UNL     1       2.126  41.241  59.113  1.00  0.00     0.034 C 
HETATM    5  C4  UNL     1       3.493  41.029  58.479  1.00  0.00     0.028 C 
HETATM    6  C5  UNL     1       4.018  42.361  58.081  1.00  0.00    -0.031 C 
HETATM    7  C6  UNL     1       5.343  42.597  57.989  1.00  0.00    -0.030 C 
HETATM    8  C7  UNL     1       6.360  41.529  58.283  1.00  0.00     0.041 C 
HETATM    9  C8  UNL     1       6.871  41.530  59.689  1.00  0.00     0.082 C 
HETATM   10  C14 UNL     1       6.997  42.926  60.258  1.00  0.00     0.231 C 
HETATM   11  O1  UNL     1       7.262  43.831  59.442  1.00  0.00    -0.273 OA
HETATM   12  N2  UNL     1       6.844  43.273  61.617  1.00  0.00    -0.288 N 
HETATM   13  C15 UNL     1       7.812  44.165  62.232  1.00  0.00     0.227 C 
HETATM   14  O2  UNL     1       8.752  44.601  61.497  1.00  0.00    -0.273 OA
HETATM   15  C21 UNL     1       5.791  42.806  62.481  1.00  0.00     0.136 C 
HETATM   16  C22 UNL     1       4.427  42.866  61.836  1.00  0.00     0.048 C 
HETATM   17  C23 UNL     1       3.361  43.210  62.851  1.00  0.00     0.234 C 
HETATM   18  N4  UNL     1       2.728  42.000  63.288  1.00  0.00    -0.073 N 
ATOM     19  H41 UNL     1       2.773  41.908  64.303  1.00  0.00     0.277 HD
ATOM     20  H42 UNL     1       3.277  41.182  63.025  1.00  0.00     0.277 HD
HETATM   21  C24 UNL     1       1.355  41.887  62.812  1.00  0.00     0.262 C 
HETATM   22  C25 UNL     1       1.132  40.476  62.320  1.00  0.00     0.299 C 
ENDROOT
BRANCH  13  23
HETATM   23  C16 UNL     1       7.741  44.572  63.651  1.00  0.00     0.116 C 
BRANCH  23  24
HETATM   24  C17 UNL     1       9.003  44.418  64.420  1.00  0.00     0.079 C 
BRANCH  24  25
HETATM   25  C18 UNL     1       9.793  45.617  64.757  1.00  0.00     0.130 C 
BRANCH  25  26
HETATM   26  C19 UNL     1      11.274  45.512  64.720  1.00  0.00     0.388 C 
HETATM   27  F2  UNL     1      11.746  46.273  65.807  1.00  0.00    -0.171 F 
HETATM   28  F3  UNL     1      11.810  46.172  63.608  1.00  0.00    -0.171 F 
HETATM   29  F4  UNL     1      11.824  44.278  64.860  1.00  0.00    -0.171 F 
ENDBRANCH  25  26
ENDBRANCH  24  25
BRANCH  24  30
HETATM   30  C20 UNL     1       8.750  43.568  65.658  1.00  0.00     0.140 C 
HETATM   31  N3  UNL     1       9.634  43.544  66.584  1.00  0.00    -0.251 N 
ATOM     32  H3  UNL     1      10.490  44.090  66.484  1.00  0.00     0.196 HD
BRANCH  30  33
HETATM   33  O3  UNL     1       7.598  42.827  65.804  1.00  0.00    -0.348 OA
ATOM     34  H3  UNL     1       6.738  43.224  65.729  1.00  0.00     0.219 HD
ENDBRANCH  30  33
BRANCH  31  35
HETATM   35  O4  UNL     1       9.437  42.792  67.707  1.00  0.00    -0.288 OA
ATOM     36  H4  UNL     1      10.067  42.127  67.956  1.00  0.00     0.244 HD
ENDBRANCH  31  35
ENDBRANCH  24  30
ENDBRANCH  23  24
ENDBRANCH  13  23
BRANCH   9  37
HETATM   37  C9  UNL     1       8.277  41.003  59.730  1.00  0.00     0.019 C 
BRANCH  37  38
HETATM   38  C10 UNL     1       8.584  39.597  59.618  1.00  0.00    -0.008 C 
HETATM   39  C11 UNL     1       7.508  38.606  59.227  1.00  0.00     0.042 C 
HETATM   40  C12 UNL     1       8.672  37.665  58.852  1.00  0.00     0.170 C 
HETATM   41  F1  UNL     1       8.491  36.949  57.711  1.00  0.00    -0.249 F 
HETATM   42  C13 UNL     1       9.477  38.979  58.621  1.00  0.00     0.042 C 
ENDBRANCH  37  38
ENDBRANCH   9  37
TORSDOF 9
ENDMDL
MODEL 4
REMARK VINA RESULT: -8.300457234      1.860      2.212
REMARK  9 active torsions:
REMARK  status: ('A' for Active; 'I' for Inactive)
REMARK    1  A    between atoms: C8_9  and  C9_10 
REMARK    2  A    between atoms: C9_10  and  C10_11 
REMARK       I    between atoms: N2_18  and  C15_19 
REMARK    3  A    between atoms: C15_19  and  C16_21 
REMARK    4  A    between atoms: C16_21  and  C17_22 
REMARK    5  A    between atoms: C17_22  and  C18_23 
REMARK    6  A    between atoms: C17_22  and  C20_28 
REMARK    7  A    between atoms: C18_23  and  C19_24 
REMARK    8  A    between atoms: C20_28  and  O3_29 
REMARK    9  A    between atoms: N3_31  and  O4_33 
ROOT
HETATM    1  C1  UNL     1       1.683  34.510  62.962  1.00  0.00     0.309 C 
HETATM    2  N1  UNL     1       2.235  35.799  62.527  1.00  0.00     0.085 N 
HETATM    3  C2  UNL     1       2.798  35.692  61.203  1.00  0.00     0.272 C 
HETATM    4  C3  UNL     1       2.053  36.680  60.298  1.00  0.00     0.034 C 
HETATM    5  C4  UNL     1       2.863  36.799  59.015  1.00  0.00     0.028 C 
HETATM    6  C5  UNL     1       2.592  38.138  58.431  1.00  0.00    -0.031 C 
HETATM    7  C6  UNL     1       3.491  38.755  57.637  1.00  0.00    -0.030 C 
HETATM    8  C7  UNL     1       4.813  38.125  57.300  1.00  0.00     0.041 C 
HETATM    9  C8  UNL     1       5.939  38.527  58.198  1.00  0.00     0.082 C 
HETATM   10  C14 UNL     1       5.837  39.969  58.644  1.00  0.00     0.231 C 
HETATM   11  O1  UNL     1       5.298  40.757  57.840  1.00  0.00    -0.273 OA
HETATM   12  N2  UNL     1       6.300  40.480  59.875  1.00  0.00    -0.288 N 
HETATM   13  C15 UNL     1       7.055  41.721  59.886  1.00  0.00     0.227 C 
HETATM   14  O2  UNL     1       7.249  42.295  58.769  1.00  0.00    -0.273 OA
HETATM   15  C21 UNL     1       6.095  39.865  61.160  1.00  0.00     0.136 C 
HETATM   16  C22 UNL     1       4.678  39.385  61.367  1.00  0.00     0.048 C 
HETATM   17  C23 UNL     1       4.253  39.549  62.808  1.00  0.00     0.234 C 
HETATM   18  N4  UNL     1       4.417  38.297  63.487  1.00  0.00    -0.073 N 
ATOM     19  H41 UNL     1       5.012  38.400  64.309  1.00  0.00     0.277 HD
ATOM     20  H42 UNL     1       4.998  37.659  62.944  1.00  0.00     0.277 HD
HETATM   21  C24 UNL     1       3.142  37.682  63.834  1.00  0.00     0.262 C 
HETATM   22  C25 UNL     1       3.215  36.209  63.506  1.00  0.00     0.299 C 
ENDROOT
BRANCH  13  23
HETATM   23  C16 UNL     1       7.591  42.325  61.124  1.00  0.00     0.116 C 
BRANCH  23  24
HETATM   24  C17 UNL     1       7.064  43.673  61.454  1.00  0.00     0.079 C 
BRANCH  24  25
HETATM   25  C18 UNL     1       6.559  43.938  62.814  1.00  0.00     0.130 C 
BRANCH  25  26
HETATM   26  C19 UNL     1       7.550  44.163  63.897  1.00  0.00     0.388 C 
HETATM   27  F2  UNL     1       6.901  43.817  65.097  1.00  0.00    -0.171 F 
HETATM   28  F3  UNL     1       7.834  45.523  64.064  1.00  0.00    -0.171 F 
HETATM   29  F4  UNL     1       8.696  43.432  63.866  1.00  0.00    -0.171 F 
ENDBRANCH  25  26
ENDBRANCH  24  25
BRANCH  24  30
HETATM   30  C20 UNL     1       8.070  44.736  61.032  1.00  0.00     0.140 C 
HETATM   31  N3  UNL     1       7.654  45.921  60.786  1.00  0.00    -0.251 N 
ATOM     32  H3  UNL     1       6.661  46.139  60.873  1.00  0.00     0.196 HD
BRANCH  30  33
HETATM   33  O3  UNL     1       9.413  44.453  60.910  1.00  0.00    -0.348 OA
ATOM     34  H3  UNL     1      10.068  44.915  61.420  1.00  0.00     0.219 HD
ENDBRANCH  30  33
BRANCH  31  35
HETATM   35  O4  UNL     1       8.531  46.896  60.405  1.00  0.00    -0.288 OA
ATOM     36  H4  UNL     1       8.274  47.552  59.768  1.00  0.00     0.244 HD
ENDBRANCH  31  35
ENDBRANCH  24  30
ENDBRANCH  23  24
ENDBRANCH  13  23
BRANCH   9  37
HETATM   37  C9  UNL     1       7.242  38.480  57.451  1.00  0.00     0.019 C 
BRANCH  37  38
HETATM   38  C10 UNL     1       8.339  37.632  57.854  1.00  0.00    -0.008 C 
HETATM   39  C11 UNL     1       9.370  37.181  56.843  1.00  0.00     0.042 C 
HETATM   40  C12 UNL     1      10.272  36.895  58.062  1.00  0.00     0.170 C 
HETATM   41  F1  UNL     1      11.579  37.238  57.907  1.00  0.00    -0.249 F 
HETATM   42  C13 UNL     1       9.435  38.005  58.767  1.00  0.00     0.042 C 
ENDBRANCH  37  38
ENDBRANCH   9  37
TORSDOF 9
ENDMDL
MODEL 5
REMARK VINA RESULT: -8.291567589      4.040      7.906
REMARK  9 active torsions:
REMARK  status: ('A' for Active; 'I' for Inactive)
REMARK    1  A    between atoms: C8_9  and  C9_10 
REMARK    2  A    between atoms: C9_10  and  C10_11 
REMARK       I    between atoms: N2_18  and  C15_19 
REMARK    3  A    between atoms: C15_19  and  C16_21 
REMARK    4  A    between atoms: C16_21  and  C17_22 
REMARK    5  A    between atoms: C17_22  and  C18_23 
REMARK    6  A    between atoms: C17_22  and  C20_28 
REMARK    7  A    between atoms: C18_23  and  C19_24 
REMARK    8  A    between atoms: C20_28  and  O3_29 
REMARK    9  A    between atoms: N3_31  and  O4_33 
ROOT
HETATM    1  C1  UNL     1       9.144  45.557  64.619  1.00  0.00     0.309 C 
HETATM    2  N1  UNL     1       8.391  44.873  63.561  1.00  0.00     0.085 N 
HETATM    3  C2  UNL     1       7.688  43.730  64.092  1.00  0.00     0.272 C 
HETATM    4  C3  UNL     1       6.192  43.942  63.834  1.00  0.00     0.034 C 
HETATM    5  C4  UNL     1       5.508  42.606  64.089  1.00  0.00     0.028 C 
HETATM    6  C5  UNL     1       4.272  42.566  63.265  1.00  0.00    -0.031 C 
HETATM    7  C6  UNL     1       3.738  41.398  62.853  1.00  0.00    -0.030 C 
HETATM    8  C7  UNL     1       4.362  40.075  63.202  1.00  0.00     0.041 C 
HETATM    9  C8  UNL     1       5.302  39.540  62.170  1.00  0.00     0.082 C 
HETATM   10  C14 UNL     1       4.858  39.861  60.760  1.00  0.00     0.231 C 
HETATM   11  O1  UNL     1       3.626  39.941  60.577  1.00  0.00    -0.273 OA
HETATM   12  N2  UNL     1       5.715  40.068  59.658  1.00  0.00    -0.288 N 
HETATM   13  C15 UNL     1       5.405  39.427  58.392  1.00  0.00     0.227 C 
HETATM   14  O2  UNL     1       4.356  38.713  58.342  1.00  0.00    -0.273 OA
HETATM   15  C21 UNL     1       6.907  40.875  59.673  1.00  0.00     0.136 C 
HETATM   16  C22 UNL     1       6.713  42.206  60.360  1.00  0.00     0.048 C 
HETATM   17  C23 UNL     1       7.532  43.287  59.693  1.00  0.00     0.234 C 
HETATM   18  N4  UNL     1       8.749  43.467  60.427  1.00  0.00    -0.073 N 
ATOM     19  H41 UNL     1       9.564  43.356  59.823  1.00  0.00     0.277 HD
ATOM     20  H42 UNL     1       8.912  42.689  61.066  1.00  0.00     0.277 HD
HETATM   21  C24 UNL     1       8.790  44.743  61.132  1.00  0.00     0.262 C 
HETATM   22  C25 UNL     1       9.326  44.506  62.524  1.00  0.00     0.299 C 
ENDROOT
BRANCH  13  23
HETATM   23  C16 UNL     1       6.251  39.575  57.189  1.00  0.00     0.116 C 
BRANCH  23  24
HETATM   24  C17 UNL     1       7.199  38.459  56.938  1.00  0.00     0.079 C 
BRANCH  24  25
HETATM   25  C18 UNL     1       7.830  37.777  58.084  1.00  0.00     0.130 C 
BRANCH  25  26
HETATM   26  C19 UNL     1       9.291  37.950  58.283  1.00  0.00     0.388 C 
HETATM   27  F2  UNL     1       9.883  37.735  57.023  1.00  0.00    -0.171 F 
HETATM   28  F3  UNL     1       9.830  36.927  59.071  1.00  0.00    -0.171 F 
HETATM   29  F4  UNL     1       9.732  39.165  58.701  1.00  0.00    -0.171 F 
ENDBRANCH  25  26
ENDBRANCH  24  25
BRANCH  24  30
HETATM   30  C20 UNL     1       6.567  37.452  55.987  1.00  0.00     0.140 C 
HETATM   31  N3  UNL     1       7.280  36.952  55.049  1.00  0.00    -0.251 N 
ATOM     32  H3  UNL     1       8.256  37.233  54.949  1.00  0.00     0.196 HD
BRANCH  30  33
HETATM   33  O3  UNL     1       5.249  37.067  56.112  1.00  0.00    -0.348 OA
ATOM     34  H3  UNL     1       4.802  37.087  56.950  1.00  0.00     0.219 HD
ENDBRANCH  30  33
BRANCH  31  35
HETATM   35  O4  UNL     1       6.743  36.047  54.180  1.00  0.00    -0.288 OA
ATOM     36  H4  UNL     1       6.384  35.227  54.500  1.00  0.00     0.244 HD
ENDBRANCH  31  35
ENDBRANCH  24  30
ENDBRANCH  23  24
ENDBRANCH  13  23
BRANCH   9  37
HETATM   37  C9  UNL     1       5.312  38.039  62.204  1.00  0.00     0.019 C 
BRANCH  37  38
HETATM   38  C10 UNL     1       4.116  37.259  62.417  1.00  0.00    -0.008 C 
HETATM   39  C11 UNL     1       3.412  36.600  61.250  1.00  0.00     0.042 C 
HETATM   40  C12 UNL     1       2.753  35.691  62.309  1.00  0.00     0.170 C 
HETATM   41  F1  UNL     1       2.641  34.382  61.958  1.00  0.00    -0.249 F 
HETATM   42  C13 UNL     1       4.028  35.985  63.154  1.00  0.00     0.042 C 
ENDBRANCH  37  38
ENDBRANCH   9  37
TORSDOF 9
ENDMDL
