MODEL 1
REMARK VINA RESULT: -7.258445929      0.000      0.000
REMARK  11 active torsions:
REMARK  status: ('A' for Active; 'I' for Inactive)
REMARK    1  A    between atoms: C2_2  and  O1_5 
REMARK    2  A    between atoms: O1_5  and  C5_6 
REMARK       I    between atoms: C5_6  and  N1_8 
REMARK    3  A    between atoms: N1_8  and  C6_10 
REMARK    4  A    between atoms: C6_10  and  C7_11 
REMARK    5  A    between atoms: N2_17  and  C10_18 
REMARK    6  A    between atoms: C10_18  and  O3_19 
REMARK    7  A    between atoms: C10_18  and  C11_21 
REMARK    8  A    between atoms: C11_21  and  N3_22 
REMARK    9  A    between atoms: N3_22  and  C12_24 
REMARK   10  A    between atoms: C12_24  and  C13_25 
REMARK       I    between atoms: C13_25  and  N4_27 
REMARK   11  A    between atoms: N4_27  and  C14_29 
ROOT
HETATM    1  C10 UNL     1       5.934  43.587  62.471  1.00  0.00     0.142 C 
ENDROOT
BRANCH   1   2
HETATM    2  N2  UNL     1       6.204  42.539  61.595  1.00  0.00    -0.363 N 
HETATM    3  C9  UNL     1       5.209  42.196  60.542  1.00  0.00     0.127 C 
HETATM    4  C8  UNL     1       4.740  40.782  60.847  1.00  0.00     0.060 C 
HETATM    5  C6  UNL     1       5.876  39.774  60.768  1.00  0.00     0.135 C 
HETATM    6  C22 UNL     1       7.193  40.516  60.641  1.00  0.00     0.060 C 
HETATM    7  C21 UNL     1       7.369  41.707  61.534  1.00  0.00     0.127 C 
BRANCH   5   8
HETATM    8  N1  UNL     1       5.662  39.024  59.560  1.00  0.00    -0.319 N 
HETATM    9  C5  UNL     1       6.559  38.210  58.844  1.00  0.00     0.362 C 
HETATM   10  O2  UNL     1       7.745  37.988  59.159  1.00  0.00    -0.238 OA
ATOM     11  H1  UNL     1       4.725  39.093  59.165  1.00  0.00     0.166 HD
BRANCH   9  12
HETATM   12  O1  UNL     1       6.152  37.559  57.658  1.00  0.00    -0.294 OA
BRANCH  12  13
HETATM   13  C2  UNL     1       6.571  37.975  56.398  1.00  0.00     0.061 C 
HETATM   14  C1  UNL     1       7.976  37.527  56.055  1.00  0.00     0.046 C 
HETATM   15  C3  UNL     1       6.451  39.437  56.127  1.00  0.00     0.046 C 
HETATM   16  C4  UNL     1       5.656  37.261  55.390  1.00  0.00     0.046 C 
ENDBRANCH  12  13
ENDBRANCH   9  12
ENDBRANCH   5   8
BRANCH   5  17
HETATM   17  C7  UNL     1       5.909  38.865  61.950  1.00  0.00     0.412 C 
HETATM   18  F1  UNL     1       5.363  39.309  63.095  1.00  0.00    -0.168 F 
HETATM   19  F2  UNL     1       7.206  38.374  62.188  1.00  0.00    -0.168 F 
HETATM   20  F3  UNL     1       5.195  37.697  61.603  1.00  0.00    -0.168 F 
ENDBRANCH   5  17
ENDBRANCH   1   2
BRANCH   1  21
HETATM   21  O3  UNL     1       6.501  44.716  62.070  1.00  0.00    -0.348 OA
ATOM     22  H3  UNL     1       7.150  45.021  62.694  1.00  0.00     0.219 HD
ENDBRANCH   1  21
BRANCH   1  23
HETATM   23  C11 UNL     1       5.153  43.628  63.703  1.00  0.00     0.098 C 
HETATM   24  C17 UNL     1       4.690  42.284  64.145  1.00  0.00     0.042 C 
HETATM   25  C18 UNL     1       3.565  42.593  65.154  1.00  0.00     0.045 C 
HETATM   26  C19 UNL     1       2.962  43.898  64.678  1.00  0.00     0.116 C 
HETATM   27 CL1  UNL     1       2.918  44.988  66.099  1.00  0.00    -0.102 Cl
HETATM   28 CL2  UNL     1       1.283  43.698  64.135  1.00  0.00    -0.102 Cl
HETATM   29  C20 UNL     1       3.864  44.455  63.594  1.00  0.00     0.082 C 
BRANCH  23  30
HETATM   30  N3  UNL     1       5.962  44.185  64.772  1.00  0.00    -0.378 N 
ATOM     31  H3  UNL     1       5.709  45.070  65.212  1.00  0.00     0.160 HD
BRANCH  30  32
HETATM   32  C12 UNL     1       7.101  43.475  65.182  1.00  0.00     0.159 C 
BRANCH  32  33
HETATM   33  C13 UNL     1       8.285  44.415  65.119  1.00  0.00     0.256 C 
HETATM   34  O4  UNL     1       8.162  45.462  64.470  1.00  0.00    -0.267 OA
HETATM   35  N4  UNL     1       9.495  44.122  65.773  1.00  0.00    -0.352 N 
ATOM     36  H4  UNL     1       9.586  43.255  66.302  1.00  0.00     0.163 HD
BRANCH  35  37
HETATM   37  C14 UNL     1      10.611  45.039  65.703  1.00  0.00     0.084 A 
HETATM   38  C15 UNL     1      11.416  45.015  64.474  1.00  0.00     0.027 A 
HETATM   39  C16 UNL     1      11.945  44.335  65.697  1.00  0.00     0.027 A 
ENDBRANCH  35  37
ENDBRANCH  32  33
ENDBRANCH  30  32
ENDBRANCH  23  30
ENDBRANCH   1  23
TORSDOF 11
ENDMDL
MODEL 2
REMARK VINA RESULT: -7.044860580      2.134      2.846
REMARK  11 active torsions:
REMARK  status: ('A' for Active; 'I' for Inactive)
REMARK    1  A    between atoms: C2_2  and  O1_5 
REMARK    2  A    between atoms: O1_5  and  C5_6 
REMARK       I    between atoms: C5_6  and  N1_8 
REMARK    3  A    between atoms: N1_8  and  C6_10 
REMARK    4  A    between atoms: C6_10  and  C7_11 
REMARK    5  A    between atoms: N2_17  and  C10_18 
REMARK    6  A    between atoms: C10_18  and  O3_19 
REMARK    7  A    between atoms: C10_18  and  C11_21 
REMARK    8  A    between atoms: C11_21  and  N3_22 
REMARK    9  A    between atoms: N3_22  and  C12_24 
REMARK   10  A    between atoms: C12_24  and  C13_25 
REMARK       I    between atoms: C13_25  and  N4_27 
REMARK   11  A    between atoms: N4_27  and  C14_29 
ROOT
HETATM    1  C10 UNL     1       5.420  40.611  62.192  1.00  0.00     0.142 C 
ENDROOT
BRANCH   1   2
HETATM    2  N2  UNL     1       5.783  40.597  60.848  1.00  0.00    -0.363 N 
HETATM    3  C9  UNL     1       4.917  39.884  59.869  1.00  0.00     0.127 C 
HETATM    4  C8  UNL     1       5.763  38.755  59.299  1.00  0.00     0.060 C 
HETATM    5  C6  UNL     1       6.985  39.274  58.558  1.00  0.00     0.135 C 
HETATM    6  C22 UNL     1       7.126  40.763  58.811  1.00  0.00     0.060 C 
HETATM    7  C21 UNL     1       6.914  41.216  60.224  1.00  0.00     0.127 C 
BRANCH   5   8
HETATM    8  N1  UNL     1       6.717  39.077  57.160  1.00  0.00    -0.319 N 
HETATM    9  C5  UNL     1       5.888  39.816  56.296  1.00  0.00     0.362 C 
HETATM   10  O2  UNL     1       5.220  40.818  56.617  1.00  0.00    -0.238 OA
ATOM     11  H1  UNL     1       7.199  38.287  56.731  1.00  0.00     0.166 HD
BRANCH   9  12
HETATM   12  O1  UNL     1       5.751  39.450  54.939  1.00  0.00    -0.294 OA
BRANCH  12  13
HETATM   13  C2  UNL     1       5.051  38.315  54.540  1.00  0.00     0.061 C 
HETATM   14  C1  UNL     1       3.760  38.107  55.305  1.00  0.00     0.046 C 
HETATM   15  C3  UNL     1       5.826  37.040  54.548  1.00  0.00     0.046 C 
HETATM   16  C4  UNL     1       4.628  38.567  53.083  1.00  0.00     0.046 C 
ENDBRANCH  12  13
ENDBRANCH   9  12
ENDBRANCH   5   8
BRANCH   5  17
HETATM   17  C7  UNL     1       8.234  38.563  58.958  1.00  0.00     0.412 C 
HETATM   18  F1  UNL     1       9.374  39.274  58.989  1.00  0.00    -0.168 F 
HETATM   19  F2  UNL     1       8.416  37.382  58.217  1.00  0.00    -0.168 F 
HETATM   20  F3  UNL     1       8.039  38.078  60.271  1.00  0.00    -0.168 F 
ENDBRANCH   5  17
ENDBRANCH   1   2
BRANCH   1  21
HETATM   21  O3  UNL     1       5.771  39.488  62.803  1.00  0.00    -0.348 OA
ATOM     22  H3  UNL     1       5.625  39.541  63.740  1.00  0.00     0.219 HD
ENDBRANCH   1  21
BRANCH   1  23
HETATM   23  C11 UNL     1       4.749  41.630  62.993  1.00  0.00     0.098 C 
HETATM   24  C17 UNL     1       3.717  41.065  63.907  1.00  0.00     0.042 C 
HETATM   25  C18 UNL     1       2.864  42.288  64.300  1.00  0.00     0.045 C 
HETATM   26  C19 UNL     1       2.931  43.213  63.104  1.00  0.00     0.116 C 
HETATM   27 CL1  UNL     1       3.397  44.825  63.731  1.00  0.00    -0.102 Cl
HETATM   28 CL2  UNL     1       1.349  43.407  62.321  1.00  0.00    -0.102 Cl
HETATM   29  C20 UNL     1       3.987  42.672  62.161  1.00  0.00     0.082 C 
BRANCH  23  30
HETATM   30  N3  UNL     1       5.724  42.326  63.811  1.00  0.00    -0.378 N 
ATOM     31  H3  UNL     1       5.836  42.099  64.799  1.00  0.00     0.160 HD
BRANCH  30  32
HETATM   32  C12 UNL     1       6.511  43.320  63.206  1.00  0.00     0.159 C 
BRANCH  32  33
HETATM   33  C13 UNL     1       7.273  44.039  64.297  1.00  0.00     0.256 C 
HETATM   34  O4  UNL     1       6.935  45.196  64.577  1.00  0.00    -0.267 OA
HETATM   35  N4  UNL     1       8.336  43.423  64.982  1.00  0.00    -0.352 N 
ATOM     36  H4  UNL     1       8.608  42.470  64.741  1.00  0.00     0.163 HD
BRANCH  35  37
HETATM   37  C14 UNL     1       9.046  44.128  66.026  1.00  0.00     0.084 A 
HETATM   38  C15 UNL     1      10.356  44.694  65.674  1.00  0.00     0.027 A 
HETATM   39  C16 UNL     1      10.307  43.419  66.456  1.00  0.00     0.027 A 
ENDBRANCH  35  37
ENDBRANCH  32  33
ENDBRANCH  30  32
ENDBRANCH  23  30
ENDBRANCH   1  23
TORSDOF 11
ENDMDL
MODEL 3
REMARK VINA RESULT: -6.994213875      2.022      2.602
REMARK  11 active torsions:
REMARK  status: ('A' for Active; 'I' for Inactive)
REMARK    1  A    between atoms: C2_2  and  O1_5 
REMARK    2  A    between atoms: O1_5  and  C5_6 
REMARK       I    between atoms: C5_6  and  N1_8 
REMARK    3  A    between atoms: N1_8  and  C6_10 
REMARK    4  A    between atoms: C6_10  and  C7_11 
REMARK    5  A    between atoms: N2_17  and  C10_18 
REMARK    6  A    between atoms: C10_18  and  O3_19 
REMARK    7  A    between atoms: C10_18  and  C11_21 
REMARK    8  A    between atoms: C11_21  and  N3_22 
REMARK    9  A    between atoms: N3_22  and  C12_24 
REMARK   10  A    between atoms: C12_24  and  C13_25 
REMARK       I    between atoms: C13_25  and  N4_27 
REMARK   11  A    between atoms: N4_27  and  C14_29 
ROOT
HETATM    1  C10 UNL     1       5.192  40.841  62.500  1.00  0.00     0.142 C 
ENDROOT
BRANCH   1   2
HETATM    2  N2  UNL     1       5.632  40.867  61.179  1.00  0.00    -0.363 N 
HETATM    3  C9  UNL     1       4.739  40.354  60.104  1.00  0.00     0.127 C 
HETATM    4  C8  UNL     1       5.453  39.157  59.495  1.00  0.00     0.060 C 
HETATM    5  C6  UNL     1       6.779  39.545  58.861  1.00  0.00     0.135 C 
HETATM    6  C22 UNL     1       7.111  40.977  59.234  1.00  0.00     0.060 C 
HETATM    7  C21 UNL     1       6.876  41.359  60.664  1.00  0.00     0.127 C 
BRANCH   5   8
HETATM    8  N1  UNL     1       6.576  39.484  57.439  1.00  0.00    -0.319 N 
HETATM    9  C5  UNL     1       5.913  38.508  56.673  1.00  0.00     0.362 C 
HETATM   10  O2  UNL     1       5.358  37.487  57.124  1.00  0.00    -0.238 OA
ATOM     11  H1  UNL     1       6.969  40.261  56.909  1.00  0.00     0.166 HD
BRANCH   9  12
HETATM   12  O1  UNL     1       5.829  38.629  55.268  1.00  0.00    -0.294 OA
BRANCH  12  13
HETATM   13  C2  UNL     1       4.982  39.543  54.648  1.00  0.00     0.061 C 
HETATM   14  C1  UNL     1       5.597  40.917  54.485  1.00  0.00     0.046 C 
HETATM   15  C3  UNL     1       3.629  39.690  55.261  1.00  0.00     0.046 C 
HETATM   16  C4  UNL     1       4.765  39.019  53.218  1.00  0.00     0.046 C 
ENDBRANCH  12  13
ENDBRANCH   9  12
ENDBRANCH   5   8
BRANCH   5  17
HETATM   17  C7  UNL     1       7.890  38.637  59.270  1.00  0.00     0.412 C 
HETATM   18  F1  UNL     1       8.125  37.554  58.509  1.00  0.00    -0.168 F 
HETATM   19  F2  UNL     1       7.782  38.266  60.623  1.00  0.00    -0.168 F 
HETATM   20  F3  UNL     1       9.082  39.394  59.251  1.00  0.00    -0.168 F 
ENDBRANCH   5  17
ENDBRANCH   1   2
BRANCH   1  21
HETATM   21  O3  UNL     1       5.386  39.653  63.054  1.00  0.00    -0.348 OA
ATOM     22  H3  UNL     1       4.966  39.592  63.904  1.00  0.00     0.219 HD
ENDBRANCH   1  21
BRANCH   1  23
HETATM   23  C11 UNL     1       4.582  41.877  63.326  1.00  0.00     0.098 C 
HETATM   24  C17 UNL     1       3.523  41.351  64.232  1.00  0.00     0.042 C 
HETATM   25  C18 UNL     1       2.741  42.610  64.657  1.00  0.00     0.045 C 
HETATM   26  C19 UNL     1       2.857  43.558  63.482  1.00  0.00     0.116 C 
HETATM   27 CL1  UNL     1       3.416  45.126  64.144  1.00  0.00    -0.102 Cl
HETATM   28 CL2  UNL     1       1.286  43.859  62.711  1.00  0.00    -0.102 Cl
HETATM   29  C20 UNL     1       3.877  42.980  62.522  1.00  0.00     0.082 C 
BRANCH  23  30
HETATM   30  N3  UNL     1       5.598  42.498  64.155  1.00  0.00    -0.378 N 
ATOM     31  H3  UNL     1       5.673  42.272  65.147  1.00  0.00     0.160 HD
BRANCH  30  32
HETATM   32  C12 UNL     1       6.474  43.417  63.557  1.00  0.00     0.159 C 
BRANCH  32  33
HETATM   33  C13 UNL     1       7.303  44.052  64.651  1.00  0.00     0.256 C 
HETATM   34  O4  UNL     1       6.902  45.115  65.142  1.00  0.00    -0.267 OA
HETATM   35  N4  UNL     1       8.496  43.464  65.108  1.00  0.00    -0.352 N 
ATOM     36  H4  UNL     1       8.819  42.590  64.693  1.00  0.00     0.163 HD
BRANCH  35  37
HETATM   37  C14 UNL     1       9.269  44.087  66.160  1.00  0.00     0.084 A 
HETATM   38  C15 UNL     1      10.610  44.570  65.803  1.00  0.00     0.027 A 
HETATM   39  C16 UNL     1      10.483  43.279  66.549  1.00  0.00     0.027 A 
ENDBRANCH  35  37
ENDBRANCH  32  33
ENDBRANCH  30  32
ENDBRANCH  23  30
ENDBRANCH   1  23
TORSDOF 11
ENDMDL
MODEL 4
REMARK VINA RESULT: -6.980870773      1.936      2.500
REMARK  11 active torsions:
REMARK  status: ('A' for Active; 'I' for Inactive)
REMARK    1  A    between atoms: C2_2  and  O1_5 
REMARK    2  A    between atoms: O1_5  and  C5_6 
REMARK       I    between atoms: C5_6  and  N1_8 
REMARK    3  A    between atoms: N1_8  and  C6_10 
REMARK    4  A    between atoms: C6_10  and  C7_11 
REMARK    5  A    between atoms: N2_17  and  C10_18 
REMARK    6  A    between atoms: C10_18  and  O3_19 
REMARK    7  A    between atoms: C10_18  and  C11_21 
REMARK    8  A    between atoms: C11_21  and  N3_22 
REMARK    9  A    between atoms: N3_22  and  C12_24 
REMARK   10  A    between atoms: C12_24  and  C13_25 
REMARK       I    between atoms: C13_25  and  N4_27 
REMARK   11  A    between atoms: N4_27  and  C14_29 
ROOT
HETATM    1  C10 UNL     1       4.731  41.029  62.901  1.00  0.00     0.142 C 
ENDROOT
BRANCH   1   2
HETATM    2  N2  UNL     1       5.021  41.014  61.539  1.00  0.00    -0.363 N 
HETATM    3  C9  UNL     1       4.825  39.757  60.767  1.00  0.00     0.127 C 
HETATM    4  C8  UNL     1       6.202  39.348  60.266  1.00  0.00     0.060 C 
HETATM    5  C6  UNL     1       6.801  40.386  59.330  1.00  0.00     0.135 C 
HETATM    6  C22 UNL     1       5.945  41.638  59.362  1.00  0.00     0.060 C 
HETATM    7  C21 UNL     1       5.486  42.091  60.715  1.00  0.00     0.127 C 
BRANCH   5   8
HETATM    8  N1  UNL     1       6.728  39.824  58.010  1.00  0.00    -0.319 N 
HETATM    9  C5  UNL     1       7.161  38.567  57.549  1.00  0.00     0.362 C 
HETATM   10  O2  UNL     1       7.700  37.686  58.248  1.00  0.00    -0.238 OA
ATOM     11  H1  UNL     1       6.301  40.423  57.304  1.00  0.00     0.166 HD
BRANCH   9  12
HETATM   12  O1  UNL     1       7.006  38.203  56.193  1.00  0.00    -0.294 OA
BRANCH  12  13
HETATM   13  C2  UNL     1       5.876  37.538  55.725  1.00  0.00     0.061 C 
HETATM   14  C1  UNL     1       4.828  37.311  56.794  1.00  0.00     0.046 C 
HETATM   15  C3  UNL     1       6.131  36.249  55.018  1.00  0.00     0.046 C 
HETATM   16  C4  UNL     1       5.221  38.481  54.703  1.00  0.00     0.046 C 
ENDBRANCH  12  13
ENDBRANCH   9  12
ENDBRANCH   5   8
BRANCH   5  17
HETATM   17  C7  UNL     1       8.212  40.718  59.682  1.00  0.00     0.412 C 
HETATM   18  F1  UNL     1       9.186  40.178  58.930  1.00  0.00    -0.168 F 
HETATM   19  F2  UNL     1       8.470  40.495  61.046  1.00  0.00    -0.168 F 
HETATM   20  F3  UNL     1       8.356  42.118  59.564  1.00  0.00    -0.168 F 
ENDBRANCH   5  17
ENDBRANCH   1   2
BRANCH   1  21
HETATM   21  O3  UNL     1       4.907  39.835  63.449  1.00  0.00    -0.348 OA
ATOM     22  H3  UNL     1       4.434  39.755  64.269  1.00  0.00     0.219 HD
ENDBRANCH   1  21
BRANCH   1  23
HETATM   23  C11 UNL     1       4.289  42.111  63.774  1.00  0.00     0.098 C 
HETATM   24  C17 UNL     1       3.269  41.676  64.768  1.00  0.00     0.042 C 
HETATM   25  C18 UNL     1       2.642  42.998  65.256  1.00  0.00     0.045 C 
HETATM   26  C19 UNL     1       2.740  43.938  64.073  1.00  0.00     0.116 C 
HETATM   27 CL1  UNL     1       3.491  45.446  64.681  1.00  0.00    -0.102 Cl
HETATM   28 CL2  UNL     1       1.143  44.382  63.439  1.00  0.00    -0.102 Cl
HETATM   29  C20 UNL     1       3.619  43.276  63.031  1.00  0.00     0.082 C 
BRANCH  23  30
HETATM   30  N3  UNL     1       5.423  42.634  64.512  1.00  0.00    -0.378 N 
ATOM     31  H3  UNL     1       5.509  42.484  65.517  1.00  0.00     0.160 HD
BRANCH  30  32
HETATM   32  C12 UNL     1       6.401  43.354  63.806  1.00  0.00     0.159 C 
BRANCH  32  33
HETATM   33  C13 UNL     1       7.300  44.032  64.815  1.00  0.00     0.256 C 
HETATM   34  O4  UNL     1       6.926  45.109  65.297  1.00  0.00    -0.267 OA
HETATM   35  N4  UNL     1       8.529  43.468  65.204  1.00  0.00    -0.352 N 
ATOM     36  H4  UNL     1       8.829  42.583  64.797  1.00  0.00     0.163 HD
BRANCH  35  37
HETATM   37  C14 UNL     1       9.370  44.133  66.175  1.00  0.00     0.084 A 
HETATM   38  C15 UNL     1      10.751  44.427  65.770  1.00  0.00     0.027 A 
HETATM   39  C16 UNL     1      10.496  43.258  66.668  1.00  0.00     0.027 A 
ENDBRANCH  35  37
ENDBRANCH  32  33
ENDBRANCH  30  32
ENDBRANCH  23  30
ENDBRANCH   1  23
TORSDOF 11
ENDMDL
MODEL 5
REMARK VINA RESULT: -6.956389053      2.207      2.784
REMARK  11 active torsions:
REMARK  status: ('A' for Active; 'I' for Inactive)
REMARK    1  A    between atoms: C2_2  and  O1_5 
REMARK    2  A    between atoms: O1_5  and  C5_6 
REMARK       I    between atoms: C5_6  and  N1_8 
REMARK    3  A    between atoms: N1_8  and  C6_10 
REMARK    4  A    between atoms: C6_10  and  C7_11 
REMARK    5  A    between atoms: N2_17  and  C10_18 
REMARK    6  A    between atoms: C10_18  and  O3_19 
REMARK    7  A    between atoms: C10_18  and  C11_21 
REMARK    8  A    between atoms: C11_21  and  N3_22 
REMARK    9  A    between atoms: N3_22  and  C12_24 
REMARK   10  A    between atoms: C12_24  and  C13_25 
REMARK       I    between atoms: C13_25  and  N4_27 
REMARK   11  A    between atoms: N4_27  and  C14_29 
ROOT
HETATM    1  C10 UNL     1       6.691  41.418  61.603  1.00  0.00     0.142 C 
ENDROOT
BRANCH   1   2
HETATM    2  N2  UNL     1       6.534  40.806  60.362  1.00  0.00    -0.363 N 
HETATM    3  C9  UNL     1       5.668  39.600  60.250  1.00  0.00     0.127 C 
HETATM    4  C8  UNL     1       6.581  38.462  59.819  1.00  0.00     0.060 C 
HETATM    5  C6  UNL     1       7.211  38.718  58.459  1.00  0.00     0.135 C 
HETATM    6  C22 UNL     1       6.927  40.148  58.040  1.00  0.00     0.060 C 
HETATM    7  C21 UNL     1       7.093  41.193  59.101  1.00  0.00     0.127 C 
BRANCH   5   8
HETATM    8  N1  UNL     1       6.547  37.837  57.539  1.00  0.00    -0.319 N 
HETATM    9  C5  UNL     1       5.214  37.857  57.086  1.00  0.00     0.362 C 
HETATM   10  O2  UNL     1       4.349  38.689  57.422  1.00  0.00    -0.238 OA
ATOM     11  H1  UNL     1       7.125  37.088  57.158  1.00  0.00     0.166 HD
BRANCH   9  12
HETATM   12  O1  UNL     1       4.747  36.884  56.176  1.00  0.00    -0.294 OA
BRANCH  12  13
HETATM   13  C2  UNL     1       4.949  36.990  54.803  1.00  0.00     0.061 C 
HETATM   14  C1  UNL     1       6.143  36.200  54.309  1.00  0.00     0.046 C 
HETATM   15  C3  UNL     1       5.035  38.380  54.268  1.00  0.00     0.046 C 
HETATM   16  C4  UNL     1       3.724  36.337  54.142  1.00  0.00     0.046 C 
ENDBRANCH  12  13
ENDBRANCH   9  12
ENDBRANCH   5   8
BRANCH   5  17
HETATM   17  C7  UNL     1       8.681  38.464  58.460  1.00  0.00     0.412 C 
HETATM   18  F1  UNL     1       9.487  39.462  58.862  1.00  0.00    -0.168 F 
HETATM   19  F2  UNL     1       9.117  37.954  57.224  1.00  0.00    -0.168 F 
HETATM   20  F3  UNL     1       8.922  37.388  59.342  1.00  0.00    -0.168 F 
ENDBRANCH   5  17
ENDBRANCH   1   2
BRANCH   1  21
HETATM   21  O3  UNL     1       7.955  41.392  62.002  1.00  0.00    -0.348 OA
ATOM     22  H3  UNL     1       8.021  41.410  62.950  1.00  0.00     0.219 HD
ENDBRANCH   1  21
BRANCH   1  23
HETATM   23  C11 UNL     1       5.720  42.058  62.485  1.00  0.00     0.098 C 
HETATM   24  C17 UNL     1       4.804  41.087  63.144  1.00  0.00     0.042 C 
HETATM   25  C18 UNL     1       3.636  41.962  63.644  1.00  0.00     0.045 C 
HETATM   26  C19 UNL     1       3.552  43.105  62.653  1.00  0.00     0.116 C 
HETATM   27 CL1  UNL     1       3.537  44.614  63.616  1.00  0.00    -0.102 Cl
HETATM   28 CL2  UNL     1       2.038  43.074  61.727  1.00  0.00    -0.102 Cl
HETATM   29  C20 UNL     1       4.780  43.038  61.767  1.00  0.00     0.082 C 
BRANCH  23  30
HETATM   30  N3  UNL     1       6.418  42.781  63.531  1.00  0.00    -0.378 N 
ATOM     31  H3  UNL     1       6.463  42.413  64.481  1.00  0.00     0.160 HD
BRANCH  30  32
HETATM   32  C12 UNL     1       7.030  44.001  63.201  1.00  0.00     0.159 C 
BRANCH  32  33
HETATM   33  C13 UNL     1       7.806  44.476  64.410  1.00  0.00     0.256 C 
HETATM   34  O4  UNL     1       7.200  45.124  65.273  1.00  0.00    -0.267 OA
HETATM   35  N4  UNL     1       9.176  44.195  64.564  1.00  0.00    -0.352 N 
ATOM     36  H4  UNL     1       9.666  43.663  63.844  1.00  0.00     0.163 HD
BRANCH  35  37
HETATM   37  C14 UNL     1       9.896  44.654  65.731  1.00  0.00     0.084 A 
HETATM   38  C15 UNL     1      11.088  45.481  65.496  1.00  0.00     0.027 A 
HETATM   39  C16 UNL     1      11.268  44.038  65.850  1.00  0.00     0.027 A 
ENDBRANCH  35  37
ENDBRANCH  32  33
ENDBRANCH  30  32
ENDBRANCH  23  30
ENDBRANCH   1  23
TORSDOF 11
ENDMDL
