MODEL 1
REMARK VINA RESULT: -6.731347567      0.000      0.000
REMARK  14 active torsions:
REMARK  status: ('A' for Active; 'I' for Inactive)
REMARK    1  A    between atoms: O1_2  and  C2_3 
REMARK    2  A    between atoms: C2_3  and  C3_5 
REMARK    3  A    between atoms: C3_5  and  C4_7 
REMARK    4  A    between atoms: C4_7  and  O4_8 
REMARK    5  A    between atoms: C4_7  and  C5_10 
REMARK    6  A    between atoms: C5_10  and  N1_12 
REMARK       I    between atoms: N1_12  and  C7_14 
REMARK    7  A    between atoms: C7_14  and  C8_16 
REMARK    8  A    between atoms: C8_16  and  C10_18 
REMARK    9  A    between atoms: C10_18  and  O6_19 
REMARK   10  A    between atoms: C10_18  and  N2_21 
REMARK   11  A    between atoms: N2_21  and  C11_23 
REMARK   12  A    between atoms: C11_23  and  C12_27 
REMARK       I    between atoms: C12_27  and  N4_29 
REMARK   13  A    between atoms: C17_34  and  O8_35 
REMARK   14  A    between atoms: N5_42  and  O11_43 
ROOT
HETATM    1  N2  UNL     1     -14.389   8.243 -26.700  1.00  0.00    -0.345 N 
ATOM      2  H2  UNL     1     -14.887   8.276 -25.810  1.00  0.00     0.163 HD
ENDROOT
BRANCH   1   3
HETATM    3  C10 UNL     1     -14.562   7.080 -27.560  1.00  0.00     0.232 C 
BRANCH   3   4
HETATM    4  C8  UNL     1     -15.966   6.517 -27.448  1.00  0.00     0.122 C 
HETATM    5  C9  UNL     1     -16.154   5.843 -26.096  1.00  0.00     0.024 C 
BRANCH   4   6
HETATM    6  C7  UNL     1     -16.155   5.470 -28.494  1.00  0.00     0.226 C 
HETATM    7  N1  UNL     1     -16.283   4.099 -28.184  1.00  0.00    -0.353 N 
ATOM      8  H1  UNL     1     -16.246   3.785 -27.215  1.00  0.00     0.163 HD
HETATM    9  O5  UNL     1     -16.202   5.816 -29.713  1.00  0.00    -0.273 OA
BRANCH   7  10
HETATM   10  C5  UNL     1     -16.466   3.146 -29.252  1.00  0.00     0.117 C 
HETATM   11  C6  UNL     1     -17.921   3.139 -29.703  1.00  0.00     0.035 C 
BRANCH  10  12
HETATM   12  C4  UNL     1     -16.083   1.768 -28.744  1.00  0.00     0.220 C 
BRANCH  12  13
HETATM   13  C3  UNL     1     -14.996   1.872 -27.764  1.00  0.00     0.254 C 
HETATM   14  O3  UNL     1     -15.249   2.084 -26.536  1.00  0.00    -0.284 OA
BRANCH  13  15
HETATM   15  C2  UNL     1     -13.616   1.737 -28.160  1.00  0.00     0.331 C 
HETATM   16  O2  UNL     1     -13.195   2.135 -29.284  1.00  0.00    -0.256 OA
BRANCH  15  17
HETATM   17  O1  UNL     1     -12.672   1.159 -27.321  1.00  0.00    -0.320 OA
HETATM   18  C1  UNL     1     -11.753   0.204 -27.818  1.00  0.00     0.213 C 
ENDBRANCH  15  17
ENDBRANCH  13  15
ENDBRANCH  12  13
BRANCH  12  19
HETATM   19  O4  UNL     1     -15.662   1.034 -29.837  1.00  0.00    -0.385 OA
ATOM     20  H4  UNL     1     -14.854   1.399 -30.179  1.00  0.00     0.210 HD
ENDBRANCH  12  19
ENDBRANCH  10  12
ENDBRANCH   7  10
ENDBRANCH   4   6
ENDBRANCH   3   4
BRANCH   3  21
HETATM   21  O6  UNL     1     -14.212   7.390 -28.848  1.00  0.00    -0.376 OA
ATOM     22  H6  UNL     1     -13.316   7.696 -28.925  1.00  0.00     0.212 HD
ENDBRANCH   3  21
ENDBRANCH   1   3
BRANCH   1  23
HETATM   23  C11 UNL     1     -13.558   9.324 -27.056  1.00  0.00     0.167 C 
HETATM   24  N3  UNL     1     -12.308   9.138 -27.223  1.00  0.00    -0.381 N 
ATOM     25  H32 UNL     1     -11.911   8.206 -27.097  1.00  0.00     0.157 HD
ATOM     26  H31 UNL     1     -11.707   9.920 -27.481  1.00  0.00     0.157 HD
BRANCH  23  27
HETATM   27  C12 UNL     1     -14.119  10.642 -27.235  1.00  0.00     0.303 C 
HETATM   28  O7  UNL     1     -13.961  11.487 -26.312  1.00  0.00    -0.263 OA
HETATM   29  N4  UNL     1     -14.842  11.013 -28.420  1.00  0.00    -0.246 N 
HETATM   30  C13 UNL     1     -15.371  12.370 -28.507  1.00  0.00     0.168 C 
HETATM   31  N5  UNL     1     -15.019  10.098 -29.433  1.00  0.00    -0.063 NA
HETATM   32  C14 UNL     1     -16.625  12.349 -29.336  1.00  0.00     0.066 C 
HETATM   33  C15 UNL     1     -17.653  13.344 -28.827  1.00  0.00     0.028 C 
HETATM   34  C16 UNL     1     -17.241  10.964 -29.188  1.00  0.00     0.082 C 
HETATM   35  C20 UNL     1     -16.287  12.587 -30.753  1.00  0.00     0.269 C 
HETATM   36  C17 UNL     1     -16.352   9.966 -29.926  1.00  0.00     0.184 C 
HETATM   37  C18 UNL     1     -16.486  10.289 -31.395  1.00  0.00     0.181 C 
HETATM   38  C19 UNL     1     -15.922   9.239 -32.290  1.00  0.00     0.045 C 
HETATM   39  O9  UNL     1     -15.926  11.570 -31.610  1.00  0.00    -0.311 OA
HETATM   40  O10 UNL     1     -16.348  13.802 -31.146  1.00  0.00    -0.264 OA
BRANCH  36  41
HETATM   41  O8  UNL     1     -16.865   8.690 -29.735  1.00  0.00    -0.369 OA
ATOM     42  H8  UNL     1     -16.613   8.388 -28.870  1.00  0.00     0.212 HD
ENDBRANCH  36  41
BRANCH  31  43
HETATM   43  O11 UNL     1     -14.086  10.182 -30.401  1.00  0.00    -0.291 OA
ATOM     44  H11 UNL     1     -14.434  10.462 -31.239  1.00  0.00     0.239 HD
ENDBRANCH  31  43
ENDBRANCH  23  27
ENDBRANCH   1  23
TORSDOF 14
ENDMDL
MODEL 2
REMARK VINA RESULT: -6.638304191      1.779      2.517
REMARK  14 active torsions:
REMARK  status: ('A' for Active; 'I' for Inactive)
REMARK    1  A    between atoms: O1_2  and  C2_3 
REMARK    2  A    between atoms: C2_3  and  C3_5 
REMARK    3  A    between atoms: C3_5  and  C4_7 
REMARK    4  A    between atoms: C4_7  and  O4_8 
REMARK    5  A    between atoms: C4_7  and  C5_10 
REMARK    6  A    between atoms: C5_10  and  N1_12 
REMARK       I    between atoms: N1_12  and  C7_14 
REMARK    7  A    between atoms: C7_14  and  C8_16 
REMARK    8  A    between atoms: C8_16  and  C10_18 
REMARK    9  A    between atoms: C10_18  and  O6_19 
REMARK   10  A    between atoms: C10_18  and  N2_21 
REMARK   11  A    between atoms: N2_21  and  C11_23 
REMARK   12  A    between atoms: C11_23  and  C12_27 
REMARK       I    between atoms: C12_27  and  N4_29 
REMARK   13  A    between atoms: C17_34  and  O8_35 
REMARK   14  A    between atoms: N5_42  and  O11_43 
ROOT
HETATM    1  N2  UNL     1     -15.985   6.043 -26.228  1.00  0.00    -0.345 N 
ATOM      2  H2  UNL     1     -16.826   6.473 -25.844  1.00  0.00     0.163 HD
ENDROOT
BRANCH   1   3
HETATM    3  C10 UNL     1     -15.368   4.937 -25.507  1.00  0.00     0.232 C 
BRANCH   3   4
HETATM    4  C8  UNL     1     -16.390   3.873 -25.153  1.00  0.00     0.122 C 
HETATM    5  C9  UNL     1     -15.764   2.828 -24.240  1.00  0.00     0.024 C 
BRANCH   4   6
HETATM    6  C7  UNL     1     -16.813   3.172 -26.401  1.00  0.00     0.226 C 
HETATM    7  N1  UNL     1     -16.292   1.918 -26.783  1.00  0.00    -0.353 N 
ATOM      8  H1  UNL     1     -15.596   1.451 -26.202  1.00  0.00     0.163 HD
HETATM    9  O5  UNL     1     -17.673   3.719 -27.156  1.00  0.00    -0.273 OA
BRANCH   7  10
HETATM   10  C5  UNL     1     -16.754   1.301 -28.003  1.00  0.00     0.117 C 
HETATM   11  C6  UNL     1     -17.588   0.068 -27.684  1.00  0.00     0.035 C 
BRANCH  10  12
HETATM   12  C4  UNL     1     -15.546   0.900 -28.831  1.00  0.00     0.220 C 
BRANCH  12  13
HETATM   13  C3  UNL     1     -14.438   1.834 -28.601  1.00  0.00     0.254 C 
HETATM   14  O3  UNL     1     -14.490   3.022 -29.050  1.00  0.00    -0.284 OA
BRANCH  13  15
HETATM   15  C2  UNL     1     -13.266   1.436 -27.863  1.00  0.00     0.331 C 
HETATM   16  O2  UNL     1     -13.067   1.795 -26.667  1.00  0.00    -0.256 OA
BRANCH  15  17
HETATM   17  O1  UNL     1     -12.287   0.632 -28.433  1.00  0.00    -0.320 OA
HETATM   18  C1  UNL     1     -11.151   0.239 -27.686  1.00  0.00     0.213 C 
ENDBRANCH  15  17
ENDBRANCH  13  15
ENDBRANCH  12  13
BRANCH  12  19
HETATM   19  O4  UNL     1     -15.930   0.944 -30.159  1.00  0.00    -0.385 OA
ATOM     20  H4  UNL     1     -16.535   1.663 -30.296  1.00  0.00     0.210 HD
ENDBRANCH  12  19
ENDBRANCH  10  12
ENDBRANCH   7  10
ENDBRANCH   4   6
ENDBRANCH   3   4
BRANCH   3  21
HETATM   21  O6  UNL     1     -14.307   4.444 -26.218  1.00  0.00    -0.376 OA
ATOM     22  H6  UNL     1     -13.691   5.117 -26.481  1.00  0.00     0.212 HD
ENDBRANCH   3  21
ENDBRANCH   1   3
BRANCH   1  23
HETATM   23  C11 UNL     1     -15.459   6.536 -27.438  1.00  0.00     0.167 C 
HETATM   24  N3  UNL     1     -15.494   5.815 -28.489  1.00  0.00    -0.381 N 
ATOM     25  H32 UNL     1     -15.903   4.881 -28.451  1.00  0.00     0.157 HD
ATOM     26  H31 UNL     1     -15.113   6.173 -29.365  1.00  0.00     0.157 HD
BRANCH  23  27
HETATM   27  C12 UNL     1     -14.881   7.858 -27.492  1.00  0.00     0.303 C 
HETATM   28  O7  UNL     1     -14.062   8.186 -26.591  1.00  0.00    -0.263 OA
HETATM   29  N4  UNL     1     -15.207   8.797 -28.530  1.00  0.00    -0.246 N 
HETATM   30  C13 UNL     1     -14.570  10.108 -28.497  1.00  0.00     0.168 C 
HETATM   31  N5  UNL     1     -16.099   8.446 -29.519  1.00  0.00    -0.063 NA
HETATM   32  C14 UNL     1     -15.506  11.117 -29.104  1.00  0.00     0.066 C 
HETATM   33  C15 UNL     1     -15.411  12.463 -28.408  1.00  0.00     0.028 C 
HETATM   34  C16 UNL     1     -16.924  10.606 -28.885  1.00  0.00     0.082 C 
HETATM   35  C20 UNL     1     -15.243  11.229 -30.552  1.00  0.00     0.269 C 
HETATM   36  C17 UNL     1     -17.136   9.390 -29.783  1.00  0.00     0.184 C 
HETATM   37  C18 UNL     1     -17.133   9.908 -31.201  1.00  0.00     0.181 C 
HETATM   38  C19 UNL     1     -17.617   8.915 -32.200  1.00  0.00     0.045 C 
HETATM   39  O9  UNL     1     -15.835  10.399 -31.479  1.00  0.00    -0.311 OA
HETATM   40  O10 UNL     1     -14.428  12.149 -30.903  1.00  0.00    -0.264 OA
BRANCH  36  41
HETATM   41  O8  UNL     1     -18.401   8.872 -29.535  1.00  0.00    -0.369 OA
ATOM     42  H8  UNL     1     -18.428   8.552 -28.642  1.00  0.00     0.212 HD
ENDBRANCH  36  41
BRANCH  31  43
HETATM   43  O11 UNL     1     -15.508   7.961 -30.627  1.00  0.00    -0.291 OA
ATOM     44  H11 UNL     1     -16.122   7.610 -31.261  1.00  0.00     0.239 HD
ENDBRANCH  31  43
ENDBRANCH  23  27
ENDBRANCH   1  23
TORSDOF 14
ENDMDL
MODEL 3
REMARK VINA RESULT: -6.501439074      1.623      2.837
REMARK  14 active torsions:
REMARK  status: ('A' for Active; 'I' for Inactive)
REMARK    1  A    between atoms: O1_2  and  C2_3 
REMARK    2  A    between atoms: C2_3  and  C3_5 
REMARK    3  A    between atoms: C3_5  and  C4_7 
REMARK    4  A    between atoms: C4_7  and  O4_8 
REMARK    5  A    between atoms: C4_7  and  C5_10 
REMARK    6  A    between atoms: C5_10  and  N1_12 
REMARK       I    between atoms: N1_12  and  C7_14 
REMARK    7  A    between atoms: C7_14  and  C8_16 
REMARK    8  A    between atoms: C8_16  and  C10_18 
REMARK    9  A    between atoms: C10_18  and  O6_19 
REMARK   10  A    between atoms: C10_18  and  N2_21 
REMARK   11  A    between atoms: N2_21  and  C11_23 
REMARK   12  A    between atoms: C11_23  and  C12_27 
REMARK       I    between atoms: C12_27  and  N4_29 
REMARK   13  A    between atoms: C17_34  and  O8_35 
REMARK   14  A    between atoms: N5_42  and  O11_43 
ROOT
HETATM    1  N2  UNL     1     -15.183   8.671 -28.179  1.00  0.00    -0.345 N 
ATOM      2  H2  UNL     1     -15.911   8.340 -28.812  1.00  0.00     0.163 HD
ENDROOT
BRANCH   1   3
HETATM    3  C10 UNL     1     -14.706   7.781 -27.129  1.00  0.00     0.232 C 
BRANCH   3   4
HETATM    4  C8  UNL     1     -15.661   6.622 -26.915  1.00  0.00     0.122 C 
HETATM    5  C9  UNL     1     -15.259   5.833 -25.676  1.00  0.00     0.024 C 
BRANCH   4   6
HETATM    6  C7  UNL     1     -15.566   5.693 -28.079  1.00  0.00     0.226 C 
HETATM    7  N1  UNL     1     -16.189   4.427 -28.096  1.00  0.00    -0.353 N 
ATOM      8  H1  UNL     1     -16.731   4.110 -27.293  1.00  0.00     0.163 HD
HETATM    9  O5  UNL     1     -14.897   6.046 -29.098  1.00  0.00    -0.273 OA
BRANCH   7  10
HETATM   10  C5  UNL     1     -16.053   3.587 -29.262  1.00  0.00     0.117 C 
HETATM   11  C6  UNL     1     -17.250   3.773 -30.185  1.00  0.00     0.035 C 
BRANCH  10  12
HETATM   12  C4  UNL     1     -15.978   2.139 -28.810  1.00  0.00     0.220 C 
BRANCH  12  13
HETATM   13  C3  UNL     1     -14.931   1.977 -27.795  1.00  0.00     0.254 C 
HETATM   14  O3  UNL     1     -15.203   2.098 -26.559  1.00  0.00    -0.284 OA
BRANCH  13  15
HETATM   15  C2  UNL     1     -13.571   1.676 -28.166  1.00  0.00     0.331 C 
HETATM   16  O2  UNL     1     -13.079   2.031 -29.276  1.00  0.00    -0.256 OA
BRANCH  15  17
HETATM   17  O1  UNL     1     -12.724   0.975 -27.316  1.00  0.00    -0.320 OA
HETATM   18  C1  UNL     1     -11.726   0.117 -27.839  1.00  0.00     0.213 C 
ENDBRANCH  15  17
ENDBRANCH  13  15
ENDBRANCH  12  13
BRANCH  12  19
HETATM   19  O4  UNL     1     -15.675   1.380 -29.924  1.00  0.00    -0.385 OA
ATOM     20  H4  UNL     1     -16.207   1.660 -30.660  1.00  0.00     0.210 HD
ENDBRANCH  12  19
ENDBRANCH  10  12
ENDBRANCH   7  10
ENDBRANCH   4   6
ENDBRANCH   3   4
BRANCH   3  21
HETATM   21  O6  UNL     1     -13.426   7.376 -27.399  1.00  0.00    -0.376 OA
ATOM     22  H6  UNL     1     -13.300   7.125 -28.306  1.00  0.00     0.212 HD
ENDBRANCH   3  21
ENDBRANCH   1   3
BRANCH   1  23
HETATM   23  C11 UNL     1     -14.671   9.972 -28.351  1.00  0.00     0.167 C 
HETATM   24  N3  UNL     1     -14.201  10.608 -27.351  1.00  0.00    -0.381 N 
ATOM     25  H32 UNL     1     -14.198  10.174 -26.428  1.00  0.00     0.157 HD
ATOM     26  H31 UNL     1     -13.830  11.550 -27.475  1.00  0.00     0.157 HD
BRANCH  23  27
HETATM   27  C12 UNL     1     -14.675  10.587 -29.657  1.00  0.00     0.303 C 
HETATM   28  O7  UNL     1     -14.094   9.983 -30.600  1.00  0.00    -0.263 OA
HETATM   29  N4  UNL     1     -15.314  11.848 -29.910  1.00  0.00    -0.246 N 
HETATM   30  C13 UNL     1     -15.263  12.387 -31.264  1.00  0.00     0.168 C 
HETATM   31  N5  UNL     1     -15.952  12.513 -28.886  1.00  0.00    -0.063 NA
HETATM   32  C14 UNL     1     -15.272  13.888 -31.189  1.00  0.00     0.066 C 
HETATM   33  C15 UNL     1     -14.412  14.512 -32.274  1.00  0.00     0.028 C 
HETATM   34  C16 UNL     1     -14.650  14.278 -29.855  1.00  0.00     0.082 C 
HETATM   35  C20 UNL     1     -16.664  14.380 -31.244  1.00  0.00     0.269 C 
HETATM   36  C17 UNL     1     -15.625  13.895 -28.745  1.00  0.00     0.184 C 
HETATM   37  C18 UNL     1     -16.814  14.814 -28.893  1.00  0.00     0.181 C 
HETATM   38  C19 UNL     1     -17.737  14.788 -27.724  1.00  0.00     0.045 C 
HETATM   39  O9  UNL     1     -17.449  14.504 -30.118  1.00  0.00    -0.311 OA
HETATM   40  O10 UNL     1     -17.103  14.687 -32.404  1.00  0.00    -0.264 OA
BRANCH  36  41
HETATM   41  O8  UNL     1     -15.035  14.178 -27.520  1.00  0.00    -0.369 OA
ATOM     42  H8  UNL     1     -15.113  13.413 -26.962  1.00  0.00     0.212 HD
ENDBRANCH  36  41
BRANCH  31  43
HETATM   43  O11 UNL     1     -17.272  12.256 -28.820  1.00  0.00    -0.291 OA
ATOM     44  H11 UNL     1     -17.769  12.937 -28.383  1.00  0.00     0.239 HD
ENDBRANCH  31  43
ENDBRANCH  23  27
ENDBRANCH   1  23
TORSDOF 14
ENDMDL
MODEL 4
REMARK VINA RESULT: -6.450489075      2.047      3.366
REMARK  14 active torsions:
REMARK  status: ('A' for Active; 'I' for Inactive)
REMARK    1  A    between atoms: O1_2  and  C2_3 
REMARK    2  A    between atoms: C2_3  and  C3_5 
REMARK    3  A    between atoms: C3_5  and  C4_7 
REMARK    4  A    between atoms: C4_7  and  O4_8 
REMARK    5  A    between atoms: C4_7  and  C5_10 
REMARK    6  A    between atoms: C5_10  and  N1_12 
REMARK       I    between atoms: N1_12  and  C7_14 
REMARK    7  A    between atoms: C7_14  and  C8_16 
REMARK    8  A    between atoms: C8_16  and  C10_18 
REMARK    9  A    between atoms: C10_18  and  O6_19 
REMARK   10  A    between atoms: C10_18  and  N2_21 
REMARK   11  A    between atoms: N2_21  and  C11_23 
REMARK   12  A    between atoms: C11_23  and  C12_27 
REMARK       I    between atoms: C12_27  and  N4_29 
REMARK   13  A    between atoms: C17_34  and  O8_35 
REMARK   14  A    between atoms: N5_42  and  O11_43 
ROOT
HETATM    1  N2  UNL     1     -15.358   9.116 -27.717  1.00  0.00    -0.345 N 
ATOM      2  H2  UNL     1     -16.370   9.224 -27.645  1.00  0.00     0.163 HD
ENDROOT
BRANCH   1   3
HETATM    3  C10 UNL     1     -14.775   7.798 -27.506  1.00  0.00     0.232 C 
BRANCH   3   4
HETATM    4  C8  UNL     1     -15.337   6.785 -28.485  1.00  0.00     0.122 C 
HETATM    5  C9  UNL     1     -16.699   7.245 -28.990  1.00  0.00     0.024 C 
BRANCH   4   6
HETATM    6  C7  UNL     1     -15.545   5.488 -27.777  1.00  0.00     0.226 C 
HETATM    7  N1  UNL     1     -14.975   5.209 -26.517  1.00  0.00    -0.353 N 
ATOM      8  H1  UNL     1     -14.392   5.904 -26.051  1.00  0.00     0.163 HD
HETATM    9  O5  UNL     1     -16.259   4.594 -28.324  1.00  0.00    -0.273 OA
BRANCH   7  10
HETATM   10  C5  UNL     1     -15.224   3.931 -25.895  1.00  0.00     0.117 C 
HETATM   11  C6  UNL     1     -15.353   4.100 -24.386  1.00  0.00     0.035 C 
BRANCH  10  12
HETATM   12  C4  UNL     1     -14.063   3.005 -26.206  1.00  0.00     0.220 C 
BRANCH  12  13
HETATM   13  C3  UNL     1     -14.464   2.005 -27.203  1.00  0.00     0.254 C 
HETATM   14  O3  UNL     1     -15.552   1.361 -27.072  1.00  0.00    -0.284 OA
BRANCH  13  15
HETATM   15  C2  UNL     1     -13.641   1.724 -28.353  1.00  0.00     0.331 C 
HETATM   16  O2  UNL     1     -13.578   2.506 -29.345  1.00  0.00    -0.256 OA
BRANCH  15  17
HETATM   17  O1  UNL     1     -12.869   0.571 -28.430  1.00  0.00    -0.320 OA
HETATM   18  C1  UNL     1     -11.710   0.425 -27.631  1.00  0.00     0.213 C 
ENDBRANCH  15  17
ENDBRANCH  13  15
ENDBRANCH  12  13
BRANCH  12  19
HETATM   19  O4  UNL     1     -13.715   2.377 -25.025  1.00  0.00    -0.385 OA
ATOM     20  H4  UNL     1     -13.939   2.932 -24.286  1.00  0.00     0.210 HD
ENDBRANCH  12  19
ENDBRANCH  10  12
ENDBRANCH   7  10
ENDBRANCH   4   6
ENDBRANCH   3   4
BRANCH   3  21
HETATM   21  O6  UNL     1     -13.407   7.876 -27.544  1.00  0.00    -0.376 OA
ATOM     22  H6  UNL     1     -13.088   8.770 -27.570  1.00  0.00     0.212 HD
ENDBRANCH   3  21
ENDBRANCH   1   3
BRANCH   1  23
HETATM   23  C11 UNL     1     -14.572  10.247 -28.016  1.00  0.00     0.167 C 
HETATM   24  N3  UNL     1     -13.856  10.783 -27.108  1.00  0.00    -0.381 N 
ATOM     25  H32 UNL     1     -13.856  10.394 -26.165  1.00  0.00     0.157 HD
ATOM     26  H31 UNL     1     -13.287  11.601 -27.325  1.00  0.00     0.157 HD
BRANCH  23  27
HETATM   27  C12 UNL     1     -14.572  10.797 -29.351  1.00  0.00     0.303 C 
HETATM   28  O7  UNL     1     -13.969  10.159 -30.258  1.00  0.00    -0.263 OA
HETATM   29  N4  UNL     1     -15.231  12.032 -29.672  1.00  0.00    -0.246 N 
HETATM   30  C13 UNL     1     -15.175  12.505 -31.050  1.00  0.00     0.168 C 
HETATM   31  N5  UNL     1     -15.893  12.734 -28.689  1.00  0.00    -0.063 NA
HETATM   32  C14 UNL     1     -15.213  14.008 -31.049  1.00  0.00     0.066 C 
HETATM   33  C15 UNL     1     -14.351  14.594 -32.154  1.00  0.00     0.028 C 
HETATM   34  C16 UNL     1     -14.613  14.474 -29.728  1.00  0.00     0.082 C 
HETATM   35  C20 UNL     1     -16.612  14.470 -31.142  1.00  0.00     0.269 C 
HETATM   36  C17 UNL     1     -15.593  14.127 -28.611  1.00  0.00     0.184 C 
HETATM   37  C18 UNL     1     -16.797  15.015 -28.817  1.00  0.00     0.181 C 
HETATM   38  C19 UNL     1     -17.733  15.028 -27.658  1.00  0.00     0.045 C 
HETATM   39  O9  UNL     1     -17.413  14.634 -30.032  1.00  0.00    -0.311 OA
HETATM   40  O10 UNL     1     -17.044  14.712 -32.320  1.00  0.00    -0.264 OA
BRANCH  36  41
HETATM   41  O8  UNL     1     -15.022  14.480 -27.395  1.00  0.00    -0.369 OA
ATOM     42  H8  UNL     1     -15.312  13.863 -26.734  1.00  0.00     0.212 HD
ENDBRANCH  36  41
BRANCH  31  43
HETATM   43  O11 UNL     1     -17.209  12.455 -28.624  1.00  0.00    -0.291 OA
ATOM     44  H11 UNL     1     -17.420  11.767 -28.004  1.00  0.00     0.239 HD
ENDBRANCH  31  43
ENDBRANCH  23  27
ENDBRANCH   1  23
TORSDOF 14
ENDMDL
MODEL 5
REMARK VINA RESULT: -6.365003161      2.670      4.263
REMARK  14 active torsions:
REMARK  status: ('A' for Active; 'I' for Inactive)
REMARK    1  A    between atoms: O1_2  and  C2_3 
REMARK    2  A    between atoms: C2_3  and  C3_5 
REMARK    3  A    between atoms: C3_5  and  C4_7 
REMARK    4  A    between atoms: C4_7  and  O4_8 
REMARK    5  A    between atoms: C4_7  and  C5_10 
REMARK    6  A    between atoms: C5_10  and  N1_12 
REMARK       I    between atoms: N1_12  and  C7_14 
REMARK    7  A    between atoms: C7_14  and  C8_16 
REMARK    8  A    between atoms: C8_16  and  C10_18 
REMARK    9  A    between atoms: C10_18  and  O6_19 
REMARK   10  A    between atoms: C10_18  and  N2_21 
REMARK   11  A    between atoms: N2_21  and  C11_23 
REMARK   12  A    between atoms: C11_23  and  C12_27 
REMARK       I    between atoms: C12_27  and  N4_29 
REMARK   13  A    between atoms: C17_34  and  O8_35 
REMARK   14  A    between atoms: N5_42  and  O11_43 
ROOT
HETATM    1  N2  UNL     1     -14.947  11.808 -27.914  1.00  0.00    -0.345 N 
ATOM      2  H2  UNL     1     -14.746  12.228 -27.007  1.00  0.00     0.163 HD
ENDROOT
BRANCH   1   3
HETATM    3  C10 UNL     1     -14.536  10.431 -28.157  1.00  0.00     0.232 C 
BRANCH   3   4
HETATM    4  C8  UNL     1     -14.149   9.736 -26.866  1.00  0.00     0.122 C 
HETATM    5  C9  UNL     1     -12.752  10.165 -26.438  1.00  0.00     0.024 C 
BRANCH   4   6
HETATM    6  C7  UNL     1     -14.106   8.264 -27.100  1.00  0.00     0.226 C 
HETATM    7  N1  UNL     1     -15.241   7.437 -26.962  1.00  0.00    -0.353 N 
ATOM      8  H1  UNL     1     -16.139   7.837 -26.690  1.00  0.00     0.163 HD
HETATM    9  O5  UNL     1     -13.008   7.723 -27.436  1.00  0.00    -0.273 OA
BRANCH   7  10
HETATM   10  C5  UNL     1     -15.120   6.020 -27.210  1.00  0.00     0.117 C 
HETATM   11  C6  UNL     1     -15.766   5.665 -28.543  1.00  0.00     0.035 C 
BRANCH  10  12
HETATM   12  C4  UNL     1     -15.817   5.270 -26.090  1.00  0.00     0.220 C 
BRANCH  12  13
HETATM   13  C3  UNL     1     -14.930   4.238 -25.540  1.00  0.00     0.254 C 
HETATM   14  O3  UNL     1     -13.830   3.958 -26.112  1.00  0.00    -0.284 OA
BRANCH  13  15
HETATM   15  C2  UNL     1     -15.277   3.515 -24.342  1.00  0.00     0.331 C 
HETATM   16  O2  UNL     1     -16.320   3.774 -23.675  1.00  0.00    -0.256 OA
BRANCH  15  17
HETATM   17  O1  UNL     1     -14.477   2.488 -23.856  1.00  0.00    -0.320 OA
HETATM   18  C1  UNL     1     -14.530   2.117 -22.491  1.00  0.00     0.213 C 
ENDBRANCH  15  17
ENDBRANCH  13  15
ENDBRANCH  12  13
BRANCH  12  19
HETATM   19  O4  UNL     1     -16.943   4.681 -26.633  1.00  0.00    -0.385 OA
ATOM     20  H4  UNL     1     -17.351   5.275 -27.253  1.00  0.00     0.210 HD
ENDBRANCH  12  19
ENDBRANCH  10  12
ENDBRANCH   7  10
ENDBRANCH   4   6
ENDBRANCH   3   4
BRANCH   3  21
HETATM   21  O6  UNL     1     -15.510   9.764 -28.852  1.00  0.00    -0.376 OA
ATOM     22  H6  UNL     1     -15.699  10.158 -29.696  1.00  0.00     0.212 HD
ENDBRANCH   3  21
ENDBRANCH   1   3
BRANCH   1  23
HETATM   23  C11 UNL     1     -15.612  12.577 -28.889  1.00  0.00     0.167 C 
HETATM   24  N3  UNL     1     -16.885  12.554 -28.958  1.00  0.00    -0.381 N 
ATOM     25  H32 UNL     1     -17.419  11.979 -28.307  1.00  0.00     0.157 HD
ATOM     26  H31 UNL     1     -17.366  13.110 -29.664  1.00  0.00     0.157 HD
BRANCH  23  27
HETATM   27  C12 UNL     1     -14.856  13.392 -29.810  1.00  0.00     0.303 C 
HETATM   28  O7  UNL     1     -14.573  14.572 -29.466  1.00  0.00    -0.263 OA
HETATM   29  N4  UNL     1     -14.421  12.903 -31.089  1.00  0.00    -0.246 N 
HETATM   30  C13 UNL     1     -13.662  13.803 -31.949  1.00  0.00     0.168 C 
HETATM   31  N5  UNL     1     -14.724  11.615 -31.472  1.00  0.00    -0.063 NA
HETATM   32  C14 UNL     1     -13.946  13.458 -33.384  1.00  0.00     0.066 C 
HETATM   33  C15 UNL     1     -13.975  14.694 -34.265  1.00  0.00     0.028 C 
HETATM   34  C16 UNL     1     -15.341  12.848 -33.434  1.00  0.00     0.082 C 
HETATM   35  C20 UNL     1     -12.960  12.468 -33.861  1.00  0.00     0.269 C 
HETATM   36  C17 UNL     1     -15.282  11.471 -32.778  1.00  0.00     0.184 C 
HETATM   37  C18 UNL     1     -14.453  10.603 -33.694  1.00  0.00     0.181 C 
HETATM   38  C19 UNL     1     -14.528   9.151 -33.370  1.00  0.00     0.045 C 
HETATM   39  O9  UNL     1     -13.133  11.111 -33.694  1.00  0.00    -0.311 OA
HETATM   40  O10 UNL     1     -11.926  12.945 -34.444  1.00  0.00    -0.264 OA
BRANCH  36  41
HETATM   41  O8  UNL     1     -16.564  10.937 -32.752  1.00  0.00    -0.369 OA
ATOM     42  H8  UNL     1     -17.184  11.630 -32.947  1.00  0.00     0.212 HD
ENDBRANCH  36  41
BRANCH  31  43
HETATM   43  O11 UNL     1     -13.748  10.730 -31.195  1.00  0.00    -0.291 OA
ATOM     44  H11 UNL     1     -13.952  10.158 -30.464  1.00  0.00     0.239 HD
ENDBRANCH  31  43
ENDBRANCH  23  27
ENDBRANCH   1  23
TORSDOF 14
ENDMDL
