MODEL 1
REMARK VINA RESULT: -8.066863793      0.000      0.000
REMARK  10 active torsions:
REMARK  status: ('A' for Active; 'I' for Inactive)
REMARK    1  A    between atoms: N4_14  and  C7_15 
REMARK    2  A    between atoms: C7_15  and  C8_16 
REMARK    3  A    between atoms: C8_16  and  C9_17 
REMARK    4  A    between atoms: C9_17  and  O3_18 
REMARK    5  A    between atoms: C9_17  and  C10_20 
REMARK    6  A    between atoms: N5_22  and  C12_23 
REMARK    7  A    between atoms: C14_27  and  C15_28 
REMARK       I    between atoms: C15_28  and  N7_30 
REMARK    8  A    between atoms: N7_30  and  N8_32 
REMARK       I    between atoms: N8_32  and  C16_33 
REMARK    9  A    between atoms: C16_33  and  C17_35 
REMARK   10  A    between atoms: C17_35  and  C18_36 
ROOT
HETATM    1  C10 UNL     1     -16.255  14.284 -28.323  1.00  0.00     0.074 A 
HETATM    2  C11 UNL     1     -15.295  13.366 -27.956  1.00  0.00     0.165 A 
HETATM    3  N5  UNL     1     -15.642  12.123 -28.322  1.00  0.00    -0.081 N 
HETATM    4  N11 UNL     1     -16.777  12.237 -28.942  1.00  0.00    -0.222 N 
ATOM      5  H11 UNL     1     -17.297  11.467 -29.364  1.00  0.00     0.209 HD
HETATM    6  N12 UNL     1     -17.181  13.579 -28.942  1.00  0.00    -0.286 N 
ATOM      7  H12 UNL     1     -18.040  13.946 -29.351  1.00  0.00     0.188 HD
ENDROOT
BRANCH   1   8
HETATM    8  C9  UNL     1     -16.115  15.673 -27.807  1.00  0.00     0.172 C 
BRANCH   8   9
HETATM    9  C8  UNL     1     -15.770  16.715 -28.782  1.00  0.00     0.058 C 
BRANCH   9  10
HETATM   10  C7  UNL     1     -14.366  17.132 -28.391  1.00  0.00     0.133 C 
BRANCH  10  11
HETATM   11  N4  UNL     1     -13.381  16.810 -29.437  1.00  0.00    -0.335 N 
HETATM   12  C4  UNL     1     -12.165  17.430 -29.541  1.00  0.00     0.149 A 
HETATM   13  C3  UNL     1     -11.583  18.301 -28.720  1.00  0.00     0.280 A 
HETATM   14  C5  UNL     1     -11.564  16.971 -30.685  1.00  0.00     0.145 A 
HETATM   15  N2  UNL     1     -10.318  18.796 -28.962  1.00  0.00    -0.273 N 
HETATM   16  O2  UNL     1     -12.136  18.740 -27.697  1.00  0.00    -0.265 OA
HETATM   17  C2  UNL     1      -9.759  18.342 -30.060  1.00  0.00     0.330 A 
ATOM     18  H2  UNL     1      -9.855  19.459 -28.340  1.00  0.00     0.173 HD
HETATM   19  N1  UNL     1     -10.324  17.461 -30.913  1.00  0.00    -0.288 N 
HETATM   20  O1  UNL     1      -8.575  18.745 -30.350  1.00  0.00    -0.246 OA
HETATM   21  C1  UNL     1      -9.615  17.000 -32.104  1.00  0.00     0.163 C 
HETATM   22  N3  UNL     1     -12.359  16.127 -31.268  1.00  0.00    -0.336 N 
HETATM   23  C6  UNL     1     -13.488  16.011 -30.498  1.00  0.00     0.185 A 
ATOM     24  H3  UNL     1     -12.176  15.637 -32.143  1.00  0.00     0.168 HD
ENDBRANCH  10  11
ENDBRANCH   9  10
ENDBRANCH   8   9
BRANCH   8  25
HETATM   25  O3  UNL     1     -17.563  15.948 -27.519  1.00  0.00    -0.389 OA
ATOM     26  H3  UNL     1     -17.788  15.267 -26.897  1.00  0.00     0.210 HD
ENDBRANCH   8  25
ENDBRANCH   1   8
BRANCH   3  27
HETATM   27  C12 UNL     1     -14.883  11.049 -27.807  1.00  0.00     0.705 A 
HETATM   28  N6  UNL     1     -13.928  10.957 -26.920  1.00  0.00    -0.198 N 
HETATM   29  C13 UNL     1     -13.659   9.622 -26.654  1.00  0.00     0.142 A 
ATOM     30  H6  UNL     1     -13.451  11.749 -26.488  1.00  0.00     0.183 HD
HETATM   31  C14 UNL     1     -14.484   8.937 -27.415  1.00  0.00     0.135 A 
HETATM   32  N10 UNL     1     -15.261   9.741 -28.152  1.00  0.00    -0.183 N 
ATOM     33  H10 UNL     1     -15.977   9.462 -28.824  1.00  0.00     0.184 HD
BRANCH  31  34
HETATM   34  C15 UNL     1     -14.444   7.466 -27.871  1.00  0.00     0.298 C 
HETATM   35  O4  UNL     1     -14.193   7.252 -29.092  1.00  0.00    -0.263 OA
HETATM   36  N7  UNL     1     -14.642   6.666 -26.789  1.00  0.00    -0.194 N 
ATOM     37  H7  UNL     1     -14.974   7.317 -26.076  1.00  0.00     0.205 HD
BRANCH  36  38
HETATM   38  N8  UNL     1     -14.639   5.539 -26.178  1.00  0.00    -0.283 NA
HETATM   39  C16 UNL     1     -14.633   4.374 -25.553  1.00  0.00     0.321 C 
HETATM   40  O5  UNL     1     -14.097   3.307 -25.958  1.00  0.00    -0.255 OA
BRANCH  39  41
HETATM   41  C17 UNL     1     -15.336   4.215 -24.195  1.00  0.00     0.220 C 
BRANCH  41  42
HETATM   42  C18 UNL     1     -14.627   3.238 -23.408  1.00  0.00     0.241 C 
HETATM   43  N9  UNL     1     -15.192   1.927 -23.218  1.00  0.00    -0.062 NA
HETATM   44  O6  UNL     1     -13.525   3.513 -22.884  1.00  0.00    -0.276 OA
ENDBRANCH  41  42
ENDBRANCH  39  41
ENDBRANCH  36  38
ENDBRANCH  31  34
ENDBRANCH   3  27
TORSDOF 10
ENDMDL
MODEL 2
REMARK VINA RESULT: -7.813731089      1.288      1.826
REMARK  10 active torsions:
REMARK  status: ('A' for Active; 'I' for Inactive)
REMARK    1  A    between atoms: N4_14  and  C7_15 
REMARK    2  A    between atoms: C7_15  and  C8_16 
REMARK    3  A    between atoms: C8_16  and  C9_17 
REMARK    4  A    between atoms: C9_17  and  O3_18 
REMARK    5  A    between atoms: C9_17  and  C10_20 
REMARK    6  A    between atoms: N5_22  and  C12_23 
REMARK    7  A    between atoms: C14_27  and  C15_28 
REMARK       I    between atoms: C15_28  and  N7_30 
REMARK    8  A    between atoms: N7_30  and  N8_32 
REMARK       I    between atoms: N8_32  and  C16_33 
REMARK    9  A    between atoms: C16_33  and  C17_35 
REMARK   10  A    between atoms: C17_35  and  C18_36 
ROOT
HETATM    1  C10 UNL     1     -16.199  14.370 -28.660  1.00  0.00     0.074 A 
HETATM    2  C11 UNL     1     -15.260  13.438 -28.273  1.00  0.00     0.165 A 
HETATM    3  N5  UNL     1     -15.695  12.187 -28.489  1.00  0.00    -0.081 N 
HETATM    4  N11 UNL     1     -16.868  12.306 -29.035  1.00  0.00    -0.222 N 
ATOM      5  H11 UNL     1     -17.455  11.530 -29.341  1.00  0.00     0.209 HD
HETATM    6  N12 UNL     1     -17.203  13.663 -29.140  1.00  0.00    -0.286 N 
ATOM      7  H12 UNL     1     -18.071  14.038 -29.522  1.00  0.00     0.188 HD
ENDROOT
BRANCH   1   8
HETATM    8  C9  UNL     1     -15.951  15.792 -28.296  1.00  0.00     0.172 C 
BRANCH   8   9
HETATM    9  C8  UNL     1     -14.560  16.181 -28.036  1.00  0.00     0.058 C 
BRANCH   9  10
HETATM   10  C7  UNL     1     -14.399  17.487 -28.789  1.00  0.00     0.133 C 
BRANCH  10  11
HETATM   11  N4  UNL     1     -12.986  17.885 -28.913  1.00  0.00    -0.335 N 
HETATM   12  C4  UNL     1     -12.160  17.423 -29.902  1.00  0.00     0.149 A 
HETATM   13  C3  UNL     1     -12.444  16.676 -30.966  1.00  0.00     0.280 A 
HETATM   14  C5  UNL     1     -10.901  17.901 -29.644  1.00  0.00     0.145 A 
HETATM   15  N2  UNL     1     -11.481  16.339 -31.896  1.00  0.00    -0.273 N 
HETATM   16  O2  UNL     1     -13.578  16.218 -31.188  1.00  0.00    -0.265 OA
HETATM   17  C2  UNL     1     -10.284  16.809 -31.632  1.00  0.00     0.330 A 
ATOM     18  H2  UNL     1     -11.683  15.772 -32.719  1.00  0.00     0.173 HD
HETATM   19  N1  UNL     1      -9.965  17.567 -30.561  1.00  0.00    -0.288 N 
HETATM   20  O1  UNL     1      -9.335  16.550 -32.457  1.00  0.00    -0.246 OA
HETATM   21  C1  UNL     1      -8.604  18.059 -30.362  1.00  0.00     0.163 C 
HETATM   22  N3  UNL     1     -10.934  18.607 -28.555  1.00  0.00    -0.336 N 
HETATM   23  C6  UNL     1     -12.226  18.611 -28.095  1.00  0.00     0.185 A 
ATOM     24  H3  UNL     1     -10.140  19.074 -28.118  1.00  0.00     0.168 HD
ENDBRANCH  10  11
ENDBRANCH   9  10
ENDBRANCH   8   9
BRANCH   8  25
HETATM   25  O3  UNL     1     -16.230  16.414 -29.635  1.00  0.00    -0.389 OA
ATOM     26  H3  UNL     1     -17.131  16.702 -29.551  1.00  0.00     0.210 HD
ENDBRANCH   8  25
ENDBRANCH   1   8
BRANCH   3  27
HETATM   27  C12 UNL     1     -14.954  11.126 -27.924  1.00  0.00     0.705 A 
HETATM   28  N6  UNL     1     -14.035  11.055 -26.998  1.00  0.00    -0.198 N 
HETATM   29  C13 UNL     1     -13.772   9.726 -26.698  1.00  0.00     0.142 A 
ATOM     30  H6  UNL     1     -13.579  11.856 -26.561  1.00  0.00     0.183 HD
HETATM   31  C14 UNL     1     -14.564   9.023 -27.479  1.00  0.00     0.135 A 
HETATM   32  N10 UNL     1     -15.313   9.811 -28.261  1.00  0.00    -0.183 N 
ATOM     33  H10 UNL     1     -16.000   9.516 -28.956  1.00  0.00     0.184 HD
BRANCH  31  34
HETATM   34  C15 UNL     1     -14.499   7.544 -27.907  1.00  0.00     0.298 C 
HETATM   35  O4  UNL     1     -14.255   7.311 -29.126  1.00  0.00    -0.263 OA
HETATM   36  N7  UNL     1     -14.672   6.762 -26.808  1.00  0.00    -0.194 N 
ATOM     37  H7  UNL     1     -15.010   7.421 -26.104  1.00  0.00     0.205 HD
BRANCH  36  38
HETATM   38  N8  UNL     1     -14.642   5.648 -26.174  1.00  0.00    -0.283 NA
HETATM   39  C16 UNL     1     -14.607   4.496 -25.527  1.00  0.00     0.321 C 
HETATM   40  O5  UNL     1     -14.000   3.451 -25.886  1.00  0.00    -0.255 OA
BRANCH  39  41
HETATM   41  C17 UNL     1     -15.364   4.326 -24.200  1.00  0.00     0.220 C 
BRANCH  41  42
HETATM   42  C18 UNL     1     -14.970   3.082 -23.587  1.00  0.00     0.241 C 
HETATM   43  N9  UNL     1     -13.811   3.042 -22.734  1.00  0.00    -0.062 NA
HETATM   44  O6  UNL     1     -15.620   2.033 -23.789  1.00  0.00    -0.276 OA
ENDBRANCH  41  42
ENDBRANCH  39  41
ENDBRANCH  36  38
ENDBRANCH  31  34
ENDBRANCH   3  27
TORSDOF 10
ENDMDL
MODEL 3
REMARK VINA RESULT: -7.784214887      4.486      7.456
REMARK  10 active torsions:
REMARK  status: ('A' for Active; 'I' for Inactive)
REMARK    1  A    between atoms: N4_14  and  C7_15 
REMARK    2  A    between atoms: C7_15  and  C8_16 
REMARK    3  A    between atoms: C8_16  and  C9_17 
REMARK    4  A    between atoms: C9_17  and  O3_18 
REMARK    5  A    between atoms: C9_17  and  C10_20 
REMARK    6  A    between atoms: N5_22  and  C12_23 
REMARK    7  A    between atoms: C14_27  and  C15_28 
REMARK       I    between atoms: C15_28  and  N7_30 
REMARK    8  A    between atoms: N7_30  and  N8_32 
REMARK       I    between atoms: N8_32  and  C16_33 
REMARK    9  A    between atoms: C16_33  and  C17_35 
REMARK   10  A    between atoms: C17_35  and  C18_36 
ROOT
HETATM    1  C10 UNL     1     -16.804  13.353 -29.281  1.00  0.00     0.074 A 
HETATM    2  C11 UNL     1     -16.407  12.176 -28.683  1.00  0.00     0.165 A 
HETATM    3  N5  UNL     1     -15.263  12.336 -28.000  1.00  0.00    -0.081 N 
HETATM    4  N11 UNL     1     -14.947  13.590 -28.122  1.00  0.00    -0.222 N 
ATOM      5  H11 UNL     1     -14.134  14.036 -27.696  1.00  0.00     0.209 HD
HETATM    6  N12 UNL     1     -15.893  14.238 -28.928  1.00  0.00    -0.286 N 
ATOM      7  H12 UNL     1     -15.880  15.222 -29.195  1.00  0.00     0.188 HD
ENDROOT
BRANCH   1   8
HETATM    8  C9  UNL     1     -17.940  13.290 -30.241  1.00  0.00     0.172 C 
BRANCH   8   9
HETATM    9  C8  UNL     1     -17.946  12.176 -31.196  1.00  0.00     0.058 C 
BRANCH   9  10
HETATM   10  C7  UNL     1     -19.072  11.284 -30.711  1.00  0.00     0.133 C 
BRANCH  10  11
HETATM   11  N4  UNL     1     -18.588   9.955 -30.299  1.00  0.00    -0.335 N 
HETATM   12  C4  UNL     1     -19.076   9.282 -29.211  1.00  0.00     0.149 A 
HETATM   13  C3  UNL     1     -20.100   9.582 -28.416  1.00  0.00     0.280 A 
HETATM   14  C5  UNL     1     -18.325   8.145 -29.058  1.00  0.00     0.145 A 
HETATM   15  N2  UNL     1     -20.485   8.754 -27.381  1.00  0.00    -0.273 N 
HETATM   16  O2  UNL     1     -20.767  10.625 -28.535  1.00  0.00    -0.265 OA
HETATM   17  C2  UNL     1     -19.754   7.670 -27.254  1.00  0.00     0.330 A 
ATOM     18  H2  UNL     1     -21.270   8.966 -26.766  1.00  0.00     0.173 HD
HETATM   19  N1  UNL     1     -18.710   7.340 -28.042  1.00  0.00    -0.288 N 
HETATM   20  O1  UNL     1     -20.056   6.841 -26.320  1.00  0.00    -0.246 OA
HETATM   21  C1  UNL     1     -17.966   6.100 -27.832  1.00  0.00     0.163 C 
HETATM   22  N3  UNL     1     -17.415   8.115 -29.983  1.00  0.00    -0.336 N 
HETATM   23  C6  UNL     1     -17.573   9.230 -30.766  1.00  0.00     0.185 A 
ATOM     24  H3  UNL     1     -16.707   7.391 -30.106  1.00  0.00     0.168 HD
ENDBRANCH  10  11
ENDBRANCH   9  10
ENDBRANCH   8   9
BRANCH   8  25
HETATM   25  O3  UNL     1     -19.024  12.909 -29.274  1.00  0.00    -0.389 OA
ATOM     26  H3  UNL     1     -18.570  12.897 -28.440  1.00  0.00     0.210 HD
ENDBRANCH   8  25
ENDBRANCH   1   8
BRANCH   3  27
HETATM   27  C12 UNL     1     -14.605  11.176 -27.538  1.00  0.00     0.705 A 
HETATM   28  N6  UNL     1     -13.659  10.957 -26.664  1.00  0.00    -0.198 N 
HETATM   29  C13 UNL     1     -13.515   9.592 -26.458  1.00  0.00     0.142 A 
ATOM     30  H6  UNL     1     -13.108  11.682 -26.203  1.00  0.00     0.183 HD
HETATM   31  C14 UNL     1     -14.404   9.020 -27.240  1.00  0.00     0.135 A 
HETATM   32  N10 UNL     1     -15.106   9.924 -27.935  1.00  0.00    -0.183 N 
ATOM     33  H10 UNL     1     -15.848   9.743 -28.612  1.00  0.00     0.184 HD
BRANCH  31  34
HETATM   34  C15 UNL     1     -14.504   7.573 -27.759  1.00  0.00     0.298 C 
HETATM   35  O4  UNL     1     -14.402   7.405 -29.008  1.00  0.00    -0.263 OA
HETATM   36  N7  UNL     1     -14.629   6.734 -26.696  1.00  0.00    -0.194 N 
ATOM     37  H7  UNL     1     -14.840   7.367 -25.923  1.00  0.00     0.205 HD
BRANCH  36  38
HETATM   38  N8  UNL     1     -14.627   5.581 -26.136  1.00  0.00    -0.283 NA
HETATM   39  C16 UNL     1     -14.622   4.388 -25.565  1.00  0.00     0.321 C 
HETATM   40  O5  UNL     1     -14.065   3.347 -26.006  1.00  0.00    -0.255 OA
BRANCH  39  41
HETATM   41  C17 UNL     1     -15.352   4.161 -24.232  1.00  0.00     0.220 C 
BRANCH  41  42
HETATM   42  C18 UNL     1     -14.611   3.208 -23.444  1.00  0.00     0.241 C 
HETATM   43  N9  UNL     1     -15.132   1.879 -23.255  1.00  0.00    -0.062 NA
HETATM   44  O6  UNL     1     -13.520   3.520 -22.919  1.00  0.00    -0.276 OA
ENDBRANCH  41  42
ENDBRANCH  39  41
ENDBRANCH  36  38
ENDBRANCH  31  34
ENDBRANCH   3  27
TORSDOF 10
ENDMDL
MODEL 4
REMARK VINA RESULT: -7.696543518      4.357      7.470
REMARK  10 active torsions:
REMARK  status: ('A' for Active; 'I' for Inactive)
REMARK    1  A    between atoms: N4_14  and  C7_15 
REMARK    2  A    between atoms: C7_15  and  C8_16 
REMARK    3  A    between atoms: C8_16  and  C9_17 
REMARK    4  A    between atoms: C9_17  and  O3_18 
REMARK    5  A    between atoms: C9_17  and  C10_20 
REMARK    6  A    between atoms: N5_22  and  C12_23 
REMARK    7  A    between atoms: C14_27  and  C15_28 
REMARK       I    between atoms: C15_28  and  N7_30 
REMARK    8  A    between atoms: N7_30  and  N8_32 
REMARK       I    between atoms: N8_32  and  C16_33 
REMARK    9  A    between atoms: C16_33  and  C17_35 
REMARK   10  A    between atoms: C17_35  and  C18_36 
ROOT
HETATM    1  C10 UNL     1     -16.923  13.267 -29.219  1.00  0.00     0.074 A 
HETATM    2  C11 UNL     1     -16.487  12.129 -28.575  1.00  0.00     0.165 A 
HETATM    3  N5  UNL     1     -15.267  12.304 -28.044  1.00  0.00    -0.081 N 
HETATM    4  N11 UNL     1     -14.938  13.533 -28.303  1.00  0.00    -0.222 N 
ATOM      5  H11 UNL     1     -14.071  13.983 -28.010  1.00  0.00     0.209 HD
HETATM    6  N12 UNL     1     -15.956  14.147 -29.045  1.00  0.00    -0.286 N 
ATOM      7  H12 UNL     1     -15.950  15.106 -29.391  1.00  0.00     0.188 HD
ENDROOT
BRANCH   1   8
HETATM    8  C9  UNL     1     -18.164  13.167 -30.033  1.00  0.00     0.172 C 
BRANCH   8   9
HETATM    9  C8  UNL     1     -19.384  12.733 -29.341  1.00  0.00     0.058 C 
BRANCH   9  10
HETATM   10  C7  UNL     1     -19.708  11.396 -29.976  1.00  0.00     0.133 C 
BRANCH  10  11
HETATM   11  N4  UNL     1     -19.864  10.329 -28.972  1.00  0.00    -0.335 N 
HETATM   12  C4  UNL     1     -19.109   9.187 -28.968  1.00  0.00     0.149 A 
HETATM   13  C3  UNL     1     -18.063   8.857 -29.721  1.00  0.00     0.280 A 
HETATM   14  C5  UNL     1     -19.597   8.373 -27.977  1.00  0.00     0.145 A 
HETATM   15  N2  UNL     1     -17.386   7.667 -29.546  1.00  0.00    -0.273 N 
HETATM   16  O2  UNL     1     -17.634   9.579 -30.638  1.00  0.00    -0.265 OA
HETATM   17  C2  UNL     1     -17.867   6.905 -28.591  1.00  0.00     0.330 A 
ATOM     18  H2  UNL     1     -16.579   7.401 -30.110  1.00  0.00     0.173 HD
HETATM   19  N1  UNL     1     -18.927   7.210 -27.812  1.00  0.00    -0.288 N 
HETATM   20  O1  UNL     1     -17.285   5.785 -28.356  1.00  0.00    -0.246 OA
HETATM   21  C1  UNL     1     -19.380   6.303 -26.761  1.00  0.00     0.163 C 
HETATM   22  N3  UNL     1     -20.603   8.963 -27.407  1.00  0.00    -0.336 N 
HETATM   23  C6  UNL     1     -20.774  10.183 -28.011  1.00  0.00     0.185 A 
ATOM     24  H3  UNL     1     -21.167   8.586 -26.646  1.00  0.00     0.168 HD
ENDBRANCH  10  11
ENDBRANCH   9  10
ENDBRANCH   8   9
BRANCH   8  25
HETATM   25  O3  UNL     1     -18.405  14.634 -30.249  1.00  0.00    -0.389 OA
ATOM     26  H3  UNL     1     -18.255  14.739 -31.181  1.00  0.00     0.210 HD
ENDBRANCH   8  25
ENDBRANCH   1   8
BRANCH   3  27
HETATM   27  C12 UNL     1     -14.588  11.162 -27.566  1.00  0.00     0.705 A 
HETATM   28  N6  UNL     1     -13.647  10.971 -26.680  1.00  0.00    -0.198 N 
HETATM   29  C13 UNL     1     -13.473   9.611 -26.464  1.00  0.00     0.142 A 
ATOM     30  H6  UNL     1     -13.119  11.711 -26.216  1.00  0.00     0.183 HD
HETATM   31  C14 UNL     1     -14.340   9.014 -27.252  1.00  0.00     0.135 A 
HETATM   32  N10 UNL     1     -15.054   9.897 -27.962  1.00  0.00    -0.183 N 
ATOM     33  H10 UNL     1     -15.783   9.693 -28.646  1.00  0.00     0.184 HD
BRANCH  31  34
HETATM   34  C15 UNL     1     -14.399   7.561 -27.764  1.00  0.00     0.298 C 
HETATM   35  O4  UNL     1     -14.202   7.381 -29.000  1.00  0.00    -0.263 OA
HETATM   36  N7  UNL     1     -14.604   6.732 -26.705  1.00  0.00    -0.194 N 
ATOM     37  H7  UNL     1     -14.874   7.372 -25.958  1.00  0.00     0.205 HD
BRANCH  36  38
HETATM   38  N8  UNL     1     -14.644   5.585 -26.136  1.00  0.00    -0.283 NA
HETATM   39  C16 UNL     1     -14.683   4.397 -25.555  1.00  0.00     0.321 C 
HETATM   40  O5  UNL     1     -14.207   3.323 -26.011  1.00  0.00    -0.255 OA
BRANCH  39  41
HETATM   41  C17 UNL     1     -15.366   4.221 -24.190  1.00  0.00     0.220 C 
BRANCH  41  42
HETATM   42  C18 UNL     1     -14.654   3.223 -23.431  1.00  0.00     0.241 C 
HETATM   43  N9  UNL     1     -15.230   1.916 -23.252  1.00  0.00    -0.062 NA
HETATM   44  O6  UNL     1     -13.540   3.479 -22.922  1.00  0.00    -0.276 OA
ENDBRANCH  41  42
ENDBRANCH  39  41
ENDBRANCH  36  38
ENDBRANCH  31  34
ENDBRANCH   3  27
TORSDOF 10
ENDMDL
MODEL 5
REMARK VINA RESULT: -7.635139713      1.783      2.353
REMARK  10 active torsions:
REMARK  status: ('A' for Active; 'I' for Inactive)
REMARK    1  A    between atoms: N4_14  and  C7_15 
REMARK    2  A    between atoms: C7_15  and  C8_16 
REMARK    3  A    between atoms: C8_16  and  C9_17 
REMARK    4  A    between atoms: C9_17  and  O3_18 
REMARK    5  A    between atoms: C9_17  and  C10_20 
REMARK    6  A    between atoms: N5_22  and  C12_23 
REMARK    7  A    between atoms: C14_27  and  C15_28 
REMARK       I    between atoms: C15_28  and  N7_30 
REMARK    8  A    between atoms: N7_30  and  N8_32 
REMARK       I    between atoms: N8_32  and  C16_33 
REMARK    9  A    between atoms: C16_33  and  C17_35 
REMARK   10  A    between atoms: C17_35  and  C18_36 
ROOT
HETATM    1  C10 UNL     1     -15.105  14.076 -29.286  1.00  0.00     0.074 A 
HETATM    2  C11 UNL     1     -15.336  12.906 -28.595  1.00  0.00     0.165 A 
HETATM    3  N5  UNL     1     -14.948  11.835 -29.304  1.00  0.00    -0.081 N 
HETATM    4  N11 UNL     1     -14.446  12.300 -30.408  1.00  0.00    -0.222 N 
ATOM      5  H11 UNL     1     -14.041  11.734 -31.153  1.00  0.00     0.209 HD
HETATM    6  N12 UNL     1     -14.546  13.697 -30.418  1.00  0.00    -0.286 N 
ATOM      7  H12 UNL     1     -14.238  14.314 -31.170  1.00  0.00     0.188 HD
ENDROOT
BRANCH   1   8
HETATM    8  C9  UNL     1     -15.668  15.333 -28.722  1.00  0.00     0.172 C 
BRANCH   8   9
HETATM    9  C8  UNL     1     -14.730  16.243 -28.053  1.00  0.00     0.058 C 
BRANCH   9  10
HETATM   10  C7  UNL     1     -14.479  17.330 -29.080  1.00  0.00     0.133 C 
BRANCH  10  11
HETATM   11  N4  UNL     1     -13.096  17.833 -29.026  1.00  0.00    -0.335 N 
HETATM   12  C4  UNL     1     -12.124  17.453 -29.912  1.00  0.00     0.149 A 
HETATM   13  C3  UNL     1     -12.220  16.707 -31.011  1.00  0.00     0.280 A 
HETATM   14  C5  UNL     1     -10.944  18.017 -29.499  1.00  0.00     0.145 A 
HETATM   15  N2  UNL     1     -11.130  16.460 -31.820  1.00  0.00    -0.273 N 
HETATM   16  O2  UNL     1     -13.281  16.171 -31.374  1.00  0.00    -0.265 OA
HETATM   17  C2  UNL     1     -10.012  17.012 -31.408  1.00  0.00     0.330 A 
ATOM     18  H2  UNL     1     -11.188  15.896 -32.668  1.00  0.00     0.173 HD
HETATM   19  N1  UNL     1      -9.882  17.770 -30.299  1.00  0.00    -0.288 N 
HETATM   20  O1  UNL     1      -8.953  16.839 -32.114  1.00  0.00    -0.246 OA
HETATM   21  C1  UNL     1      -8.597  18.357 -29.930  1.00  0.00     0.163 C 
HETATM   22  N3  UNL     1     -11.161  18.697 -28.414  1.00  0.00    -0.336 N 
HETATM   23  C6  UNL     1     -12.496  18.597 -28.115  1.00  0.00     0.185 A 
ATOM     24  H3  UNL     1     -10.463  19.212 -27.879  1.00  0.00     0.168 HD
ENDBRANCH  10  11
ENDBRANCH   9  10
ENDBRANCH   8   9
BRANCH   8  25
HETATM   25  O3  UNL     1     -15.959  16.042 -30.014  1.00  0.00    -0.389 OA
ATOM     26  H3  UNL     1     -16.894  15.913 -30.121  1.00  0.00     0.210 HD
ENDBRANCH   8  25
ENDBRANCH   1   8
BRANCH   3  27
HETATM   27  C12 UNL     1     -15.340  10.560 -28.837  1.00  0.00     0.705 A 
HETATM   28  N6  UNL     1     -16.466   9.898 -28.845  1.00  0.00    -0.198 N 
HETATM   29  C13 UNL     1     -16.249   8.597 -28.415  1.00  0.00     0.142 A 
ATOM     30  H6  UNL     1     -17.369  10.281 -29.125  1.00  0.00     0.183 HD
HETATM   31  C14 UNL     1     -14.963   8.520 -28.154  1.00  0.00     0.135 A 
HETATM   32  N10 UNL     1     -14.340   9.683 -28.383  1.00  0.00    -0.183 N 
ATOM     33  H10 UNL     1     -13.349   9.889 -28.255  1.00  0.00     0.184 HD
BRANCH  31  34
HETATM   34  C15 UNL     1     -14.168   7.507 -27.307  1.00  0.00     0.298 C 
HETATM   35  O4  UNL     1     -12.917   7.679 -27.234  1.00  0.00    -0.263 OA
HETATM   36  N7  UNL     1     -15.039   6.629 -26.742  1.00  0.00    -0.194 N 
ATOM     37  H7  UNL     1     -15.907   6.803 -27.250  1.00  0.00     0.205 HD
BRANCH  36  38
HETATM   38  N8  UNL     1     -15.363   5.702 -25.918  1.00  0.00    -0.283 NA
HETATM   39  C16 UNL     1     -15.698   4.751 -25.063  1.00  0.00     0.321 C 
HETATM   40  O5  UNL     1     -16.034   4.908 -23.858  1.00  0.00    -0.255 OA
BRANCH  39  41
HETATM   41  C17 UNL     1     -15.694   3.277 -25.498  1.00  0.00     0.220 C 
BRANCH  41  42
HETATM   42  C18 UNL     1     -14.341   2.777 -25.462  1.00  0.00     0.241 C 
HETATM   43  N9  UNL     1     -13.653   2.489 -26.693  1.00  0.00    -0.062 NA
HETATM   44  O6  UNL     1     -13.757   2.589 -24.373  1.00  0.00    -0.276 OA
ENDBRANCH  41  42
ENDBRANCH  39  41
ENDBRANCH  36  38
ENDBRANCH  31  34
ENDBRANCH   3  27
TORSDOF 10
ENDMDL
