MODEL 1
REMARK VINA RESULT: -7.469873459      0.000      0.000
REMARK  11 active torsions:
REMARK  status: ('A' for Active; 'I' for Inactive)
REMARK    1  A    between atoms: C2_2  and  O2_4 
REMARK    2  A    between atoms: O2_4  and  C3_5 
REMARK    3  A    between atoms: C3_5  and  C4_6 
REMARK    4  A    between atoms: C3_5  and  C6_11 
REMARK    5  A    between atoms: C4_6  and  O3_7 
REMARK    6  A    between atoms: O3_7  and  C5_8 
REMARK    7  A    between atoms: C8_13  and  C9_14 
REMARK    8  A    between atoms: C10_15  and  C11_16 
REMARK    9  A    between atoms: C11_16  and  C13_18 
REMARK   10  A    between atoms: C16_22  and  O7_23 
REMARK   11  A    between atoms: C17_25  and  O8_26 
ROOT
HETATM    1  C9  UNL     1      -4.532   6.193  12.459  1.00  0.00    -0.003 C 
HETATM    2  C10 UNL     1      -5.199   6.382  11.334  1.00  0.00    -0.020 C 
ENDROOT
BRANCH   1   3
HETATM    3  C8  UNL     1      -4.040   4.900  12.882  1.00  0.00     0.005 C 
HETATM    4  C6  UNL     1      -4.512   4.215  13.880  1.00  0.00    -0.052 C 
HETATM    5  C7  UNL     1      -5.639   4.756  14.674  1.00  0.00     0.046 C 
BRANCH   4   6
HETATM    6  C3  UNL     1      -3.931   2.867  14.250  1.00  0.00     0.185 C 
BRANCH   6   7
HETATM    7  O2  UNL     1      -3.897   2.742  15.664  1.00  0.00    -0.310 OA
BRANCH   7   8
HETATM    8  C2  UNL     1      -4.379   1.631  16.331  1.00  0.00     0.255 C 
HETATM    9  C1  UNL     1      -5.728   1.619  16.983  1.00  0.00     0.126 C 
HETATM   10  O1  UNL     1      -3.647   0.610  16.380  1.00  0.00    -0.266 OA
ENDBRANCH   7   8
ENDBRANCH   6   7
BRANCH   6  11
HETATM   11  C4  UNL     1      -4.715   1.767  13.590  1.00  0.00     0.219 C 
BRANCH  11  12
HETATM   12  O3  UNL     1      -4.164   1.450  12.347  1.00  0.00    -0.293 OA
BRANCH  12  13
HETATM   13  C5  UNL     1      -4.789   1.426  11.124  1.00  0.00     0.332 C 
HETATM   14  O4  UNL     1      -5.866   2.063  10.993  1.00  0.00    -0.624 OA
HETATM   15  O5  UNL     1      -4.269   0.722  10.038  1.00  0.00    -0.624 OA
ENDBRANCH  12  13
ENDBRANCH  11  12
ENDBRANCH   6  11
ENDBRANCH   4   6
ENDBRANCH   1   3
BRANCH   2  16
HETATM   16  C11 UNL     1      -5.682   7.696  10.934  1.00  0.00     0.035 C 
HETATM   17  C12 UNL     1      -7.126   7.854  11.429  1.00  0.00     0.017 C 
BRANCH  16  18
HETATM   18  C13 UNL     1      -5.683   8.006   9.491  1.00  0.00     0.160 C 
HETATM   19  O6  UNL     1      -4.589   7.533   8.777  1.00  0.00    -0.375 OA
HETATM   20  C14 UNL     1      -4.871   8.059   7.500  1.00  0.00     0.149 C 
HETATM   21  C15 UNL     1      -4.017   7.413   6.435  1.00  0.00     0.042 C 
HETATM   22  C16 UNL     1      -6.345   7.861   7.266  1.00  0.00     0.178 C 
HETATM   23  C17 UNL     1      -6.825   7.500   8.683  1.00  0.00     0.178 C 
BRANCH  22  24
HETATM   24  O7  UNL     1      -6.519   6.816   6.383  1.00  0.00    -0.390 OA
ATOM     25  H7  UNL     1      -7.393   6.869   6.014  1.00  0.00     0.210 HD
ENDBRANCH  22  24
BRANCH  23  26
HETATM   26  O8  UNL     1      -7.005   6.140   8.680  1.00  0.00    -0.390 OA
ATOM     27  H8  UNL     1      -7.294   5.760   7.859  1.00  0.00     0.210 HD
ENDBRANCH  23  26
ENDBRANCH  16  18
ENDBRANCH   2  16
TORSDOF 11
ENDMDL
MODEL 2
REMARK VINA RESULT: -7.383764293      0.957      1.560
REMARK  11 active torsions:
REMARK  status: ('A' for Active; 'I' for Inactive)
REMARK    1  A    between atoms: C2_2  and  O2_4 
REMARK    2  A    between atoms: O2_4  and  C3_5 
REMARK    3  A    between atoms: C3_5  and  C4_6 
REMARK    4  A    between atoms: C3_5  and  C6_11 
REMARK    5  A    between atoms: C4_6  and  O3_7 
REMARK    6  A    between atoms: O3_7  and  C5_8 
REMARK    7  A    between atoms: C8_13  and  C9_14 
REMARK    8  A    between atoms: C10_15  and  C11_16 
REMARK    9  A    between atoms: C11_16  and  C13_18 
REMARK   10  A    between atoms: C16_22  and  O7_23 
REMARK   11  A    between atoms: C17_25  and  O8_26 
ROOT
HETATM    1  C9  UNL     1      -4.955   6.025  12.338  1.00  0.00    -0.003 C 
HETATM    2  C10 UNL     1      -5.484   6.150  11.133  1.00  0.00    -0.020 C 
ENDROOT
BRANCH   1   3
HETATM    3  C8  UNL     1      -4.311   4.815  12.801  1.00  0.00     0.005 C 
HETATM    4  C6  UNL     1      -4.702   4.106  13.817  1.00  0.00    -0.052 C 
HETATM    5  C7  UNL     1      -5.893   4.527  14.591  1.00  0.00     0.046 C 
BRANCH   4   6
HETATM    6  C3  UNL     1      -3.963   2.851  14.228  1.00  0.00     0.185 C 
BRANCH   6   7
HETATM    7  O2  UNL     1      -3.939   2.764  15.645  1.00  0.00    -0.310 OA
BRANCH   7   8
HETATM    8  C2  UNL     1      -4.379   1.650  16.336  1.00  0.00     0.255 C 
HETATM    9  C1  UNL     1      -5.723   1.606  16.997  1.00  0.00     0.126 C 
HETATM   10  O1  UNL     1      -3.614   0.655  16.400  1.00  0.00    -0.266 OA
ENDBRANCH   7   8
ENDBRANCH   6   7
BRANCH   6  11
HETATM   11  C4  UNL     1      -4.590   1.647  13.584  1.00  0.00     0.219 C 
BRANCH  11  12
HETATM   12  O3  UNL     1      -4.076   1.454  12.300  1.00  0.00    -0.293 OA
BRANCH  12  13
HETATM   13  C5  UNL     1      -4.757   1.447  11.107  1.00  0.00     0.332 C 
HETATM   14  O4  UNL     1      -5.849   2.068  11.041  1.00  0.00    -0.624 OA
HETATM   15  O5  UNL     1      -4.276   0.776   9.982  1.00  0.00    -0.624 OA
ENDBRANCH  12  13
ENDBRANCH  11  12
ENDBRANCH   6  11
ENDBRANCH   4   6
ENDBRANCH   1   3
BRANCH   2  16
HETATM   16  C11 UNL     1      -6.127   7.381  10.695  1.00  0.00     0.035 C 
HETATM   17  C12 UNL     1      -7.187   7.772  11.733  1.00  0.00     0.017 C 
BRANCH  16  18
HETATM   18  C13 UNL     1      -6.795   7.363   9.379  1.00  0.00     0.160 C 
HETATM   19  O6  UNL     1      -7.524   8.503   9.064  1.00  0.00    -0.375 OA
HETATM   20  C14 UNL     1      -8.069   8.122   7.821  1.00  0.00     0.149 C 
HETATM   21  C15 UNL     1      -8.637   9.309   7.079  1.00  0.00     0.042 C 
HETATM   22  C16 UNL     1      -6.970   7.429   7.061  1.00  0.00     0.178 C 
HETATM   23  C17 UNL     1      -5.935   7.200   8.176  1.00  0.00     0.178 C 
BRANCH  22  24
HETATM   24  O7  UNL     1      -6.496   8.282   6.087  1.00  0.00    -0.390 OA
ATOM     25  H7  UNL     1      -6.950   9.112   6.159  1.00  0.00     0.210 HD
ENDBRANCH  22  24
BRANCH  23  26
HETATM   26  O8  UNL     1      -4.971   8.159   7.991  1.00  0.00    -0.390 OA
ATOM     27  H8  UNL     1      -4.112   7.959   8.344  1.00  0.00     0.210 HD
ENDBRANCH  23  26
ENDBRANCH  16  18
ENDBRANCH   2  16
TORSDOF 11
ENDMDL
MODEL 3
REMARK VINA RESULT: -7.359735521      1.413      3.121
REMARK  11 active torsions:
REMARK  status: ('A' for Active; 'I' for Inactive)
REMARK    1  A    between atoms: C2_2  and  O2_4 
REMARK    2  A    between atoms: O2_4  and  C3_5 
REMARK    3  A    between atoms: C3_5  and  C4_6 
REMARK    4  A    between atoms: C3_5  and  C6_11 
REMARK    5  A    between atoms: C4_6  and  O3_7 
REMARK    6  A    between atoms: O3_7  and  C5_8 
REMARK    7  A    between atoms: C8_13  and  C9_14 
REMARK    8  A    between atoms: C10_15  and  C11_16 
REMARK    9  A    between atoms: C11_16  and  C13_18 
REMARK   10  A    between atoms: C16_22  and  O7_23 
REMARK   11  A    between atoms: C17_25  and  O8_26 
ROOT
HETATM    1  C9  UNL     1      -4.585   5.527  12.772  1.00  0.00    -0.003 C 
HETATM    2  C10 UNL     1      -5.182   5.773  11.620  1.00  0.00    -0.020 C 
ENDROOT
BRANCH   1   3
HETATM    3  C8  UNL     1      -4.371   4.192  13.287  1.00  0.00     0.005 C 
HETATM    4  C6  UNL     1      -5.026   3.662  14.276  1.00  0.00    -0.052 C 
HETATM    5  C7  UNL     1      -6.082   4.444  14.960  1.00  0.00     0.046 C 
BRANCH   4   6
HETATM    6  C3  UNL     1      -4.732   2.254  14.747  1.00  0.00     0.185 C 
BRANCH   6   7
HETATM    7  O2  UNL     1      -3.937   1.590  13.776  1.00  0.00    -0.310 OA
BRANCH   7   8
HETATM    8  C2  UNL     1      -4.267   0.353  13.255  1.00  0.00     0.255 C 
HETATM    9  C1  UNL     1      -4.262   0.086  11.780  1.00  0.00     0.126 C 
HETATM   10  O1  UNL     1      -4.578  -0.561  14.059  1.00  0.00    -0.266 OA
ENDBRANCH   7   8
ENDBRANCH   6   7
BRANCH   6  11
HETATM   11  C4  UNL     1      -4.083   2.287  16.103  1.00  0.00     0.219 C 
BRANCH  11  12
HETATM   12  O3  UNL     1      -4.469   1.177  16.858  1.00  0.00    -0.293 OA
BRANCH  12  13
HETATM   13  C5  UNL     1      -5.732   0.833  17.273  1.00  0.00     0.332 C 
HETATM   14  O4  UNL     1      -6.058  -0.382  17.247  1.00  0.00    -0.624 OA
HETATM   15  O5  UNL     1      -6.653   1.784  17.714  1.00  0.00    -0.624 OA
ENDBRANCH  12  13
ENDBRANCH  11  12
ENDBRANCH   6  11
ENDBRANCH   4   6
ENDBRANCH   1   3
BRANCH   2  16
HETATM   16  C11 UNL     1      -5.385   7.127  11.127  1.00  0.00     0.035 C 
HETATM   17  C12 UNL     1      -6.778   7.600  11.562  1.00  0.00     0.017 C 
BRANCH  16  18
HETATM   18  C13 UNL     1      -5.292   7.338   9.669  1.00  0.00     0.160 C 
HETATM   19  O6  UNL     1      -4.442   6.472   8.992  1.00  0.00    -0.375 OA
HETATM   20  C14 UNL     1      -4.535   6.992   7.685  1.00  0.00     0.149 C 
HETATM   21  C15 UNL     1      -3.974   6.030   6.666  1.00  0.00     0.042 C 
HETATM   22  C16 UNL     1      -5.987   7.313   7.449  1.00  0.00     0.178 C 
HETATM   23  C17 UNL     1      -6.548   7.223   8.879  1.00  0.00     0.178 C 
BRANCH  22  24
HETATM   24  O7  UNL     1      -6.527   6.349   6.624  1.00  0.00    -0.390 OA
ATOM     25  H7  UNL     1      -7.366   6.655   6.303  1.00  0.00     0.210 HD
ENDBRANCH  22  24
BRANCH  23  26
HETATM   26  O8  UNL     1      -7.194   6.014   8.950  1.00  0.00    -0.390 OA
ATOM     27  H8  UNL     1      -7.751   5.884   9.708  1.00  0.00     0.210 HD
ENDBRANCH  23  26
ENDBRANCH  16  18
ENDBRANCH   2  16
TORSDOF 11
ENDMDL
MODEL 4
REMARK VINA RESULT: -7.045950281      0.963      2.899
REMARK  11 active torsions:
REMARK  status: ('A' for Active; 'I' for Inactive)
REMARK    1  A    between atoms: C2_2  and  O2_4 
REMARK    2  A    between atoms: O2_4  and  C3_5 
REMARK    3  A    between atoms: C3_5  and  C4_6 
REMARK    4  A    between atoms: C3_5  and  C6_11 
REMARK    5  A    between atoms: C4_6  and  O3_7 
REMARK    6  A    between atoms: O3_7  and  C5_8 
REMARK    7  A    between atoms: C8_13  and  C9_14 
REMARK    8  A    between atoms: C10_15  and  C11_16 
REMARK    9  A    between atoms: C11_16  and  C13_18 
REMARK   10  A    between atoms: C16_22  and  O7_23 
REMARK   11  A    between atoms: C17_25  and  O8_26 
ROOT
HETATM    1  C9  UNL     1      -4.630   6.046  12.406  1.00  0.00    -0.003 C 
HETATM    2  C10 UNL     1      -5.205   6.313  11.247  1.00  0.00    -0.020 C 
ENDROOT
BRANCH   1   3
HETATM    3  C8  UNL     1      -4.317   4.703  12.847  1.00  0.00     0.005 C 
HETATM    4  C6  UNL     1      -4.879   4.101  13.851  1.00  0.00    -0.052 C 
HETATM    5  C7  UNL     1      -5.924   4.798  14.635  1.00  0.00     0.046 C 
BRANCH   4   6
HETATM    6  C3  UNL     1      -4.485   2.692  14.240  1.00  0.00     0.185 C 
BRANCH   6   7
HETATM    7  O2  UNL     1      -3.521   2.202  13.320  1.00  0.00    -0.310 OA
BRANCH   7   8
HETATM    8  C2  UNL     1      -3.848   1.385  12.253  1.00  0.00     0.255 C 
HETATM    9  C1  UNL     1      -2.857   1.039  11.185  1.00  0.00     0.126 C 
HETATM   10  O1  UNL     1      -5.018   0.930  12.197  1.00  0.00    -0.266 OA
ENDBRANCH   7   8
ENDBRANCH   6   7
BRANCH   6  11
HETATM   11  C4  UNL     1      -3.997   2.664  15.661  1.00  0.00     0.219 C 
BRANCH  11  12
HETATM   12  O3  UNL     1      -3.726   1.354  16.061  1.00  0.00    -0.293 OA
BRANCH  12  13
HETATM   13  C5  UNL     1      -4.588   0.285  16.099  1.00  0.00     0.332 C 
HETATM   14  O4  UNL     1      -4.576  -0.525  15.137  1.00  0.00    -0.624 OA
HETATM   15  O5  UNL     1      -5.467   0.078  17.163  1.00  0.00    -0.624 OA
ENDBRANCH  12  13
ENDBRANCH  11  12
ENDBRANCH   6  11
ENDBRANCH   4   6
ENDBRANCH   1   3
BRANCH   2  16
HETATM   16  C11 UNL     1      -5.508   7.674  10.830  1.00  0.00     0.035 C 
HETATM   17  C12 UNL     1      -6.938   8.011  11.273  1.00  0.00     0.017 C 
BRANCH  16  18
HETATM   18  C13 UNL     1      -5.419   7.976   9.388  1.00  0.00     0.160 C 
HETATM   19  O6  UNL     1      -4.378   7.355   8.710  1.00  0.00    -0.375 OA
HETATM   20  C14 UNL     1      -4.543   7.909   7.424  1.00  0.00     0.149 C 
HETATM   21  C15 UNL     1      -3.750   7.149   6.388  1.00  0.00     0.042 C 
HETATM   22  C16 UNL     1      -6.022   7.914   7.142  1.00  0.00     0.178 C 
HETATM   23  C17 UNL     1      -6.593   7.628   8.542  1.00  0.00     0.178 C 
BRANCH  22  24
HETATM   24  O7  UNL     1      -6.308   6.899   6.253  1.00  0.00    -0.390 OA
ATOM     25  H7  UNL     1      -7.201   7.003   5.947  1.00  0.00     0.210 HD
ENDBRANCH  22  24
BRANCH  23  26
HETATM   26  O8  UNL     1      -6.957   6.305   8.532  1.00  0.00    -0.390 OA
ATOM     27  H8  UNL     1      -7.048   5.904   7.676  1.00  0.00     0.210 HD
ENDBRANCH  23  26
ENDBRANCH  16  18
ENDBRANCH   2  16
TORSDOF 11
ENDMDL
MODEL 5
REMARK VINA RESULT: -7.045183730      4.958      6.685
REMARK  11 active torsions:
REMARK  status: ('A' for Active; 'I' for Inactive)
REMARK    1  A    between atoms: C2_2  and  O2_4 
REMARK    2  A    between atoms: O2_4  and  C3_5 
REMARK    3  A    between atoms: C3_5  and  C4_6 
REMARK    4  A    between atoms: C3_5  and  C6_11 
REMARK    5  A    between atoms: C4_6  and  O3_7 
REMARK    6  A    between atoms: O3_7  and  C5_8 
REMARK    7  A    between atoms: C8_13  and  C9_14 
REMARK    8  A    between atoms: C10_15  and  C11_16 
REMARK    9  A    between atoms: C11_16  and  C13_18 
REMARK   10  A    between atoms: C16_22  and  O7_23 
REMARK   11  A    between atoms: C17_25  and  O8_26 
ROOT
HETATM    1  C9  UNL     1      -1.352   5.102  12.824  1.00  0.00    -0.003 C 
HETATM    2  C10 UNL     1      -0.399   5.152  11.909  1.00  0.00    -0.020 C 
ENDROOT
BRANCH   1   3
HETATM    3  C8  UNL     1      -2.387   4.091  12.838  1.00  0.00     0.005 C 
HETATM    4  C6  UNL     1      -3.512   4.187  13.482  1.00  0.00    -0.052 C 
HETATM    5  C7  UNL     1      -3.802   5.403  14.275  1.00  0.00     0.046 C 
BRANCH   4   6
HETATM    6  C3  UNL     1      -4.538   3.075  13.438  1.00  0.00     0.185 C 
BRANCH   6   7
HETATM    7  O2  UNL     1      -3.978   1.944  12.787  1.00  0.00    -0.310 OA
BRANCH   7   8
HETATM    8  C2  UNL     1      -4.636   1.252  11.787  1.00  0.00     0.255 C 
HETATM    9  C1  UNL     1      -4.230  -0.131  11.379  1.00  0.00     0.126 C 
HETATM   10  O1  UNL     1      -5.601   1.819  11.215  1.00  0.00    -0.266 OA
ENDBRANCH   7   8
ENDBRANCH   6   7
BRANCH   6  11
HETATM   11  C4  UNL     1      -5.023   2.763  14.826  1.00  0.00     0.219 C 
BRANCH  11  12
HETATM   12  O3  UNL     1      -4.218   1.789  15.420  1.00  0.00    -0.293 OA
BRANCH  12  13
HETATM   13  C5  UNL     1      -4.594   0.560  15.903  1.00  0.00     0.332 C 
HETATM   14  O4  UNL     1      -4.604  -0.416  15.109  1.00  0.00    -0.624 OA
HETATM   15  O5  UNL     1      -4.962   0.367  17.236  1.00  0.00    -0.624 OA
ENDBRANCH  12  13
ENDBRANCH  11  12
ENDBRANCH   6  11
ENDBRANCH   4   6
ENDBRANCH   1   3
BRANCH   2  16
HETATM   16  C11 UNL     1       0.629   6.181  11.921  1.00  0.00     0.035 C 
HETATM   17  C12 UNL     1      -0.040   7.540  11.672  1.00  0.00     0.017 C 
BRANCH  16  18
HETATM   18  C13 UNL     1       1.726   6.053  10.941  1.00  0.00     0.160 C 
HETATM   19  O6  UNL     1       2.834   6.857  11.175  1.00  0.00    -0.375 OA
HETATM   20  C14 UNL     1       3.619   6.546  10.046  1.00  0.00     0.149 C 
HETATM   21  C15 UNL     1       5.042   7.023  10.213  1.00  0.00     0.042 C 
HETATM   22  C16 UNL     1       3.521   5.057   9.848  1.00  0.00     0.178 C 
HETATM   23  C17 UNL     1       2.344   4.710  10.776  1.00  0.00     0.178 C 
BRANCH  22  24
HETATM   24  O7  UNL     1       4.697   4.474  10.271  1.00  0.00    -0.390 OA
ATOM     25  H7  UNL     1       5.421   4.867   9.798  1.00  0.00     0.210 HD
ENDBRANCH  22  24
BRANCH  23  26
HETATM   26  O8  UNL     1       2.906   4.164  11.903  1.00  0.00    -0.390 OA
ATOM     27  H8  UNL     1       2.650   3.273  12.107  1.00  0.00     0.210 HD
ENDBRANCH  23  26
ENDBRANCH  16  18
ENDBRANCH   2  16
TORSDOF 11
ENDMDL
