MODEL 1
REMARK VINA RESULT: -9.200783075      0.000      0.000
REMARK  7 active torsions:
REMARK  status: ('A' for Active; 'I' for Inactive)
REMARK    1  A    between atoms: C2_7  and  C3_8 
REMARK    2  A    between atoms: C4_10  and  O2_11 
REMARK    3  A    between atoms: N3_13  and  C5_14 
REMARK    4  A    between atoms: C5_14  and  O3_15 
REMARK    5  A    between atoms: O3_15  and  N4_16 
REMARK    6  A    between atoms: N5_20  and  O4_21 
REMARK    7  A    between atoms: O4_21  and  S1_22 
ROOT
HETATM    1  N4  UNL     1      15.713   1.923   3.700  1.00  0.00    -0.250 N 
ATOM      2  H4  UNL     1      16.724   2.037   3.623  1.00  0.00     0.196 HD
HETATM    3  C6  UNL     1      14.991   2.835   4.302  1.00  0.00     0.136 C 
HETATM    4  C7  UNL     1      13.523   2.664   4.412  1.00  0.00     0.240 C 
HETATM    5  N5  UNL     1      13.073   3.304   5.644  1.00  0.00    -0.202 N 
HETATM    6  C8  UNL     1      13.720   4.459   6.167  1.00  0.00     0.231 C 
HETATM    7  N6  UNL     1      13.034   5.277   7.130  1.00  0.00    -0.060 NA
HETATM    8  N7  UNL     1      14.909   4.784   5.793  1.00  0.00    -0.270 N 
ATOM      9  H7  UNL     1      15.355   5.616   6.179  1.00  0.00     0.189 HD
HETATM   10  N8  UNL     1      15.587   3.999   4.858  1.00  0.00    -0.284 N 
ATOM     11  H8  UNL     1      16.528   4.265   4.569  1.00  0.00     0.188 HD
ENDROOT
BRANCH   1  12
HETATM   12  O3  UNL     1      15.100   0.811   3.174  1.00  0.00    -0.258 OA
BRANCH  12  13
HETATM   13  C5  UNL     1      15.337  -0.426   3.774  1.00  0.00     0.353 C 
BRANCH  13  14
HETATM   14  N3  UNL     1      16.027  -1.323   2.856  1.00  0.00    -0.136 N 
HETATM   15  C1  UNL     1      17.333  -1.326   2.505  1.00  0.00     0.682 A 
HETATM   16  N1  UNL     1      18.178  -0.463   2.982  1.00  0.00    -0.234 N 
HETATM   17  N2  UNL     1      17.560  -2.324   1.629  1.00  0.00    -0.184 N 
ATOM     18  H12 UNL     1      19.163  -0.465   2.717  1.00  0.00     0.174 HD
ATOM     19  H11 UNL     1      18.007   0.293   3.645  1.00  0.00     0.174 HD
HETATM   20  C2  UNL     1      16.408  -2.978   1.403  1.00  0.00     0.138 A 
ATOM     21  H2  UNL     1      18.461  -2.548   1.206  1.00  0.00     0.184 HD
HETATM   22  C4  UNL     1      15.465  -2.348   2.170  1.00  0.00     0.191 A 
BRANCH  20  23
HETATM   23  C3  UNL     1      16.221  -4.123   0.519  1.00  0.00     0.293 C 
HETATM   24  O1  UNL     1      15.116  -4.479   0.081  1.00  0.00    -0.300 OA
ENDBRANCH  20  23
BRANCH  22  25
HETATM   25  O2  UNL     1      14.107  -2.707   2.241  1.00  0.00    -0.344 OA
ATOM     26  H2  UNL     1      13.773  -3.513   2.615  1.00  0.00     0.219 HD
ENDBRANCH  22  25
ENDBRANCH  13  14
ENDBRANCH  12  13
ENDBRANCH   1  12
BRANCH   5  27
HETATM   27  O4  UNL     1      12.006   2.797   6.323  1.00  0.00    -0.127 OA
BRANCH  27  28
HETATM   28  S1  UNL     1      10.614   3.271   5.471  1.00  0.00     0.274 S 
HETATM   29  O5  UNL     1      10.242   2.202   4.478  1.00  0.00    -0.571 OA
HETATM   30  O6  UNL     1       9.480   3.385   6.456  1.00  0.00    -0.571 OA
HETATM   31  O7  UNL     1      10.855   4.748   4.707  1.00  0.00    -0.571 OA
ENDBRANCH  27  28
ENDBRANCH   5  27
TORSDOF 7
ENDMDL
MODEL 2
REMARK VINA RESULT: -8.953399716      1.586      2.045
REMARK  7 active torsions:
REMARK  status: ('A' for Active; 'I' for Inactive)
REMARK    1  A    between atoms: C2_7  and  C3_8 
REMARK    2  A    between atoms: C4_10  and  O2_11 
REMARK    3  A    between atoms: N3_13  and  C5_14 
REMARK    4  A    between atoms: C5_14  and  O3_15 
REMARK    5  A    between atoms: O3_15  and  N4_16 
REMARK    6  A    between atoms: N5_20  and  O4_21 
REMARK    7  A    between atoms: O4_21  and  S1_22 
ROOT
HETATM    1  N4  UNL     1      15.775   1.730   3.699  1.00  0.00    -0.250 N 
ATOM      2  H4  UNL     1      16.792   1.788   3.647  1.00  0.00     0.196 HD
HETATM    3  C6  UNL     1      15.090   2.675   4.291  1.00  0.00     0.136 C 
HETATM    4  C7  UNL     1      13.613   2.586   4.364  1.00  0.00     0.240 C 
HETATM    5  N5  UNL     1      13.168   3.240   5.591  1.00  0.00    -0.202 N 
HETATM    6  C8  UNL     1      13.865   4.353   6.140  1.00  0.00     0.231 C 
HETATM    7  N6  UNL     1      13.202   5.200   7.094  1.00  0.00    -0.060 NA
HETATM    8  N7  UNL     1      15.079   4.615   5.798  1.00  0.00    -0.270 N 
ATOM      9  H7  UNL     1      15.560   5.417   6.202  1.00  0.00     0.189 HD
HETATM   10  N8  UNL     1      15.735   3.800   4.873  1.00  0.00    -0.284 N 
ATOM     11  H8  UNL     1      16.696   4.016   4.609  1.00  0.00     0.188 HD
ENDROOT
BRANCH   1  12
HETATM   12  O3  UNL     1      15.115   0.658   3.148  1.00  0.00    -0.258 OA
BRANCH  12  13
HETATM   13  C5  UNL     1      15.278  -0.597   3.734  1.00  0.00     0.353 C 
BRANCH  13  14
HETATM   14  N3  UNL     1      16.022  -1.488   2.853  1.00  0.00    -0.136 N 
HETATM   15  C1  UNL     1      15.580  -2.589   2.201  1.00  0.00     0.682 A 
HETATM   16  N1  UNL     1      14.354  -3.003   2.299  1.00  0.00    -0.234 N 
HETATM   17  N2  UNL     1      16.591  -3.124   1.490  1.00  0.00    -0.184 N 
ATOM     18  H12 UNL     1      14.021  -3.833   1.807  1.00  0.00     0.174 HD
ATOM     19  H11 UNL     1      13.588  -2.598   2.837  1.00  0.00     0.174 HD
HETATM   20  C2  UNL     1      17.696  -2.380   1.670  1.00  0.00     0.138 A 
ATOM     21  H2  UNL     1      16.529  -3.959   0.907  1.00  0.00     0.184 HD
HETATM   22  C4  UNL     1      17.329  -1.369   2.518  1.00  0.00     0.191 A 
BRANCH  20  23
HETATM   23  C3  UNL     1      19.007  -2.617   1.077  1.00  0.00     0.293 C 
HETATM   24  O1  UNL     1      20.061  -2.139   1.526  1.00  0.00    -0.300 OA
ENDBRANCH  20  23
BRANCH  22  25
HETATM   25  O2  UNL     1      18.182  -0.350   2.978  1.00  0.00    -0.344 OA
ATOM     26  H2  UNL     1      18.203   0.539   2.644  1.00  0.00     0.219 HD
ENDBRANCH  22  25
ENDBRANCH  13  14
ENDBRANCH  12  13
ENDBRANCH   1  12
BRANCH   5  27
HETATM   27  O4  UNL     1      12.059   2.788   6.239  1.00  0.00    -0.127 OA
BRANCH  27  28
HETATM   28  S1  UNL     1      10.716   3.371   5.376  1.00  0.00     0.274 S 
HETATM   29  O5  UNL     1      10.159   2.276   4.507  1.00  0.00    -0.571 OA
HETATM   30  O6  UNL     1       9.648   3.744   6.371  1.00  0.00    -0.571 OA
HETATM   31  O7  UNL     1      11.134   4.717   4.460  1.00  0.00    -0.571 OA
ENDBRANCH  27  28
ENDBRANCH   5  27
TORSDOF 7
ENDMDL
MODEL 3
REMARK VINA RESULT: -8.800630830      0.900      1.362
REMARK  7 active torsions:
REMARK  status: ('A' for Active; 'I' for Inactive)
REMARK    1  A    between atoms: C2_7  and  C3_8 
REMARK    2  A    between atoms: C4_10  and  O2_11 
REMARK    3  A    between atoms: N3_13  and  C5_14 
REMARK    4  A    between atoms: C5_14  and  O3_15 
REMARK    5  A    between atoms: O3_15  and  N4_16 
REMARK    6  A    between atoms: N5_20  and  O4_21 
REMARK    7  A    between atoms: O4_21  and  S1_22 
ROOT
HETATM    1  N4  UNL     1      15.798   2.168   4.308  1.00  0.00    -0.250 N 
ATOM      2  H4  UNL     1      16.599   2.027   4.924  1.00  0.00     0.196 HD
HETATM    3  C6  UNL     1      15.139   3.299   4.332  1.00  0.00     0.136 C 
HETATM    4  C7  UNL     1      13.976   3.499   3.436  1.00  0.00     0.240 C 
HETATM    5  N5  UNL     1      13.030   4.392   4.096  1.00  0.00    -0.202 N 
HETATM    6  C8  UNL     1      13.463   5.422   4.978  1.00  0.00     0.231 C 
HETATM    7  N6  UNL     1      12.571   6.505   5.291  1.00  0.00    -0.060 NA
HETATM    8  N7  UNL     1      14.640   5.401   5.500  1.00  0.00    -0.270 N 
ATOM      9  H7  UNL     1      14.932   6.149   6.129  1.00  0.00     0.189 HD
HETATM   10  N8  UNL     1      15.517   4.355   5.205  1.00  0.00    -0.284 N 
ATOM     11  H8  UNL     1      16.447   4.348   5.624  1.00  0.00     0.188 HD
ENDROOT
BRANCH   1  12
HETATM   12  O3  UNL     1      15.402   1.171   3.449  1.00  0.00    -0.258 OA
BRANCH  12  13
HETATM   13  C5  UNL     1      15.324  -0.134   3.936  1.00  0.00     0.353 C 
BRANCH  13  14
HETATM   14  N3  UNL     1      16.029  -1.058   3.058  1.00  0.00    -0.136 N 
HETATM   15  C1  UNL     1      17.351  -1.101   2.768  1.00  0.00     0.682 A 
HETATM   16  N1  UNL     1      18.197  -0.259   3.279  1.00  0.00    -0.234 N 
HETATM   17  N2  UNL     1      17.589  -2.112   1.911  1.00  0.00    -0.184 N 
ATOM     18  H12 UNL     1      19.193  -0.291   3.060  1.00  0.00     0.174 HD
ATOM     19  H11 UNL     1      18.016   0.507   3.928  1.00  0.00     0.174 HD
HETATM   20  C2  UNL     1      16.431  -2.735   1.636  1.00  0.00     0.138 A 
ATOM     21  H2  UNL     1      18.502  -2.365   1.532  1.00  0.00     0.184 HD
HETATM   22  C4  UNL     1      15.471  -2.072   2.353  1.00  0.00     0.191 A 
BRANCH  20  23
HETATM   23  C3  UNL     1      16.251  -3.881   0.751  1.00  0.00     0.293 C 
HETATM   24  O1  UNL     1      15.142  -4.294   0.377  1.00  0.00    -0.300 OA
ENDBRANCH  20  23
BRANCH  22  25
HETATM   25  O2  UNL     1      14.102  -2.391   2.362  1.00  0.00    -0.344 OA
ATOM     26  H2  UNL     1      13.733  -3.229   2.109  1.00  0.00     0.219 HD
ENDBRANCH  22  25
ENDBRANCH  13  14
ENDBRANCH  12  13
ENDBRANCH   1  12
BRANCH   5  27
HETATM   27  O4  UNL     1      11.693   4.252   3.874  1.00  0.00    -0.127 OA
BRANCH  27  28
HETATM   28  S1  UNL     1      11.076   3.334   5.165  1.00  0.00     0.274 S 
HETATM   29  O5  UNL     1      10.217   4.207   6.039  1.00  0.00    -0.571 OA
HETATM   30  O6  UNL     1      10.191   2.258   4.592  1.00  0.00    -0.571 OA
HETATM   31  O7  UNL     1      12.323   2.634   6.048  1.00  0.00    -0.571 OA
ENDBRANCH  27  28
ENDBRANCH   5  27
TORSDOF 7
ENDMDL
MODEL 4
REMARK VINA RESULT: -8.696686238      1.962      2.538
REMARK  7 active torsions:
REMARK  status: ('A' for Active; 'I' for Inactive)
REMARK    1  A    between atoms: C2_7  and  C3_8 
REMARK    2  A    between atoms: C4_10  and  O2_11 
REMARK    3  A    between atoms: N3_13  and  C5_14 
REMARK    4  A    between atoms: C5_14  and  O3_15 
REMARK    5  A    between atoms: O3_15  and  N4_16 
REMARK    6  A    between atoms: N5_20  and  O4_21 
REMARK    7  A    between atoms: O4_21  and  S1_22 
ROOT
HETATM    1  N4  UNL     1      15.718   3.422   4.022  1.00  0.00    -0.250 N 
ATOM      2  H4  UNL     1      16.484   3.868   3.518  1.00  0.00     0.196 HD
HETATM    3  C6  UNL     1      14.482   3.804   3.815  1.00  0.00     0.136 C 
HETATM    4  C7  UNL     1      13.372   3.153   4.550  1.00  0.00     0.240 C 
HETATM    5  N5  UNL     1      12.307   4.131   4.743  1.00  0.00    -0.202 N 
HETATM    6  C8  UNL     1      12.056   5.161   3.793  1.00  0.00     0.231 C 
HETATM    7  N6  UNL     1      10.790   5.843   3.809  1.00  0.00    -0.060 NA
HETATM    8  N7  UNL     1      12.941   5.492   2.918  1.00  0.00    -0.270 N 
ATOM      9  H7  UNL     1      12.741   6.232   2.245  1.00  0.00     0.189 HD
HETATM   10  N8  UNL     1      14.175   4.839   2.891  1.00  0.00    -0.284 N 
ATOM     11  H8  UNL     1      14.869   5.109   2.195  1.00  0.00     0.188 HD
ENDROOT
BRANCH   1  12
HETATM   12  O3  UNL     1      15.974   2.417   4.923  1.00  0.00    -0.258 OA
BRANCH  12  13
HETATM   13  C5  UNL     1      17.167   1.703   4.801  1.00  0.00     0.353 C 
BRANCH  13  14
HETATM   14  N3  UNL     1      16.904   0.303   4.495  1.00  0.00    -0.136 N 
HETATM   15  C1  UNL     1      17.495  -0.798   5.016  1.00  0.00     0.682 A 
HETATM   16  N1  UNL     1      18.430  -0.720   5.913  1.00  0.00    -0.234 N 
HETATM   17  N2  UNL     1      16.957  -1.900   4.460  1.00  0.00    -0.184 N 
ATOM     18  H12 UNL     1      18.875  -1.550   6.306  1.00  0.00     0.174 HD
ATOM     19  H11 UNL     1      18.838   0.115   6.335  1.00  0.00     0.174 HD
HETATM   20  C2  UNL     1      16.016  -1.530   3.575  1.00  0.00     0.138 A 
ATOM     21  H2  UNL     1      17.221  -2.862   4.676  1.00  0.00     0.184 HD
HETATM   22  C4  UNL     1      15.993  -0.162   3.606  1.00  0.00     0.191 A 
BRANCH  20  23
HETATM   23  C3  UNL     1      15.197  -2.419   2.758  1.00  0.00     0.293 C 
HETATM   24  O1  UNL     1      14.612  -2.057   1.725  1.00  0.00    -0.300 OA
ENDBRANCH  20  23
BRANCH  22  25
HETATM   25  O2  UNL     1      15.148   0.652   2.830  1.00  0.00    -0.344 OA
ATOM     26  H2  UNL     1      15.428   1.193   2.101  1.00  0.00     0.219 HD
ENDBRANCH  22  25
ENDBRANCH  13  14
ENDBRANCH  12  13
ENDBRANCH   1  12
BRANCH   5  27
HETATM   27  O4  UNL     1      11.522   4.072   5.855  1.00  0.00    -0.127 OA
BRANCH  27  28
HETATM   28  S1  UNL     1      10.567   2.674   5.705  1.00  0.00     0.274 S 
HETATM   29  O5  UNL     1      11.304   1.495   6.280  1.00  0.00    -0.571 OA
HETATM   30  O6  UNL     1       9.320   2.871   6.528  1.00  0.00    -0.571 OA
HETATM   31  O7  UNL     1      10.151   2.404   4.100  1.00  0.00    -0.571 OA
ENDBRANCH  27  28
ENDBRANCH   5  27
TORSDOF 7
ENDMDL
MODEL 5
REMARK VINA RESULT: -8.653607793      1.643      1.990
REMARK  7 active torsions:
REMARK  status: ('A' for Active; 'I' for Inactive)
REMARK    1  A    between atoms: C2_7  and  C3_8 
REMARK    2  A    between atoms: C4_10  and  O2_11 
REMARK    3  A    between atoms: N3_13  and  C5_14 
REMARK    4  A    between atoms: C5_14  and  O3_15 
REMARK    5  A    between atoms: O3_15  and  N4_16 
REMARK    6  A    between atoms: N5_20  and  O4_21 
REMARK    7  A    between atoms: O4_21  and  S1_22 
ROOT
HETATM    1  N4  UNL     1      15.976   1.513   4.076  1.00  0.00    -0.250 N 
ATOM      2  H4  UNL     1      16.945   1.284   4.301  1.00  0.00     0.196 HD
HETATM    3  C6  UNL     1      15.600   2.763   3.979  1.00  0.00     0.136 C 
HETATM    4  C7  UNL     1      14.192   3.090   3.651  1.00  0.00     0.240 C 
HETATM    5  N5  UNL     1      13.849   4.356   4.292  1.00  0.00    -0.202 N 
HETATM    6  C8  UNL     1      14.816   5.382   4.487  1.00  0.00     0.231 C 
HETATM    7  N6  UNL     1      14.376   6.726   4.747  1.00  0.00    -0.060 NA
HETATM    8  N7  UNL     1      16.078   5.129   4.433  1.00  0.00    -0.270 N 
ATOM      9  H7  UNL     1      16.754   5.879   4.574  1.00  0.00     0.189 HD
HETATM   10  N8  UNL     1      16.519   3.828   4.180  1.00  0.00    -0.284 N 
ATOM     11  H8  UNL     1      17.520   3.639   4.141  1.00  0.00     0.188 HD
ENDROOT
BRANCH   1  12
HETATM   12  O3  UNL     1      15.058   0.511   3.872  1.00  0.00    -0.258 OA
BRANCH  12  13
HETATM   13  C5  UNL     1      15.161  -0.651   4.638  1.00  0.00     0.353 C 
BRANCH  13  14
HETATM   14  N3  UNL     1      15.759  -1.731   3.864  1.00  0.00    -0.136 N 
HETATM   15  C1  UNL     1      16.767  -2.562   4.218  1.00  0.00     0.682 A 
HETATM   16  N1  UNL     1      17.355  -2.480   5.373  1.00  0.00    -0.234 N 
HETATM   17  N2  UNL     1      17.015  -3.420   3.210  1.00  0.00    -0.184 N 
ATOM     18  H12 UNL     1      18.115  -3.107   5.639  1.00  0.00     0.174 HD
ATOM     19  H11 UNL     1      17.168  -1.831   6.137  1.00  0.00     0.174 HD
HETATM   20  C2  UNL     1      16.175  -3.157   2.195  1.00  0.00     0.138 A 
ATOM     21  H2  UNL     1      17.726  -4.152   3.216  1.00  0.00     0.184 HD
HETATM   22  C4  UNL     1      15.402  -2.108   2.613  1.00  0.00     0.191 A 
BRANCH  20  23
HETATM   23  C3  UNL     1      16.114  -3.858   0.917  1.00  0.00     0.293 C 
HETATM   24  O1  UNL     1      15.053  -4.159   0.348  1.00  0.00    -0.300 OA
ENDBRANCH  20  23
BRANCH  22  25
HETATM   25  O2  UNL     1      14.381  -1.503   1.858  1.00  0.00    -0.344 OA
ATOM     26  H2  UNL     1      14.348  -1.470   0.909  1.00  0.00     0.219 HD
ENDBRANCH  22  25
ENDBRANCH  13  14
ENDBRANCH  12  13
ENDBRANCH   1  12
BRANCH   5  27
HETATM   27  O4  UNL     1      12.575   4.579   4.720  1.00  0.00    -0.127 OA
BRANCH  27  28
HETATM   28  S1  UNL     1      12.410   3.768   6.205  1.00  0.00     0.274 S 
HETATM   29  O5  UNL     1      13.717   3.808   6.950  1.00  0.00    -0.571 OA
HETATM   30  O6  UNL     1      11.396   4.514   7.033  1.00  0.00    -0.571 OA
HETATM   31  O7  UNL     1      11.896   2.186   5.967  1.00  0.00    -0.571 OA
ENDBRANCH  27  28
ENDBRANCH   5  27
TORSDOF 7
ENDMDL
