MODEL 1
REMARK VINA RESULT: -8.198412101      0.000      0.000
REMARK  12 active torsions:
REMARK  status: ('A' for Active; 'I' for Inactive)
REMARK    1  A    between atoms: N1_1  and  C1_4 
REMARK    2  A    between atoms: N3_7  and  C2_8 
REMARK    3  A    between atoms: C2_8  and  O1_9 
REMARK    4  A    between atoms: C2_8  and  C3_11 
REMARK    5  A    between atoms: C3_11  and  O2_12 
REMARK    6  A    between atoms: C3_11  and  C4_14 
REMARK    7  A    between atoms: C4_14  and  O3_15 
REMARK    8  A    between atoms: C5_17  and  N4_18 
REMARK    9  A    between atoms: N4_18  and  N5_20 
REMARK   10  A    between atoms: C6_22  and  C7_23 
REMARK   11  A    between atoms: C11_27  and  N6_28 
REMARK   12  A    between atoms: N7_32  and  N8_33 
ROOT
HETATM    1  C1  UNL     1      13.210   6.298   2.807  1.00  0.00     0.727 A 
HETATM    2  N2  UNL     1      12.341   5.805   3.691  1.00  0.00    -0.107 N 
ATOM      3  H2  UNL     1      11.338   5.701   3.541  1.00  0.00     0.207 HD
HETATM    4  N3  UNL     1      13.001   5.468   4.810  1.00  0.00    -0.047 N 
HETATM    5  C5  UNL     1      14.288   5.775   4.570  1.00  0.00     0.756 A 
HETATM    6  N7  UNL     1      14.440   6.299   3.315  1.00  0.00     0.087 N 
ENDROOT
BRANCH   5   7
HETATM    7  N4  UNL     1      15.279   5.622   5.368  1.00  0.00    -0.128 N 
ATOM      8  H4  UNL     1      15.631   6.428   5.886  1.00  0.00     0.205 HD
BRANCH   7   9
HETATM    9  N5  UNL     1      15.882   4.392   5.542  1.00  0.00    -0.297 N 
HETATM   10  C6  UNL     1      16.582   3.808   4.627  1.00  0.00     0.119 C 
ATOM     11  H5  UNL     1      15.768   3.920   6.439  1.00  0.00     0.186 HD
BRANCH  10  12
HETATM   12  C7  UNL     1      17.191   2.517   4.867  1.00  0.00    -0.017 A 
HETATM   13  C8  UNL     1      18.528   2.442   5.161  1.00  0.00     0.013 A 
HETATM   14  C9  UNL     1      19.128   1.216   5.392  1.00  0.00     0.003 A 
HETATM   15  C10 UNL     1      18.388   0.047   5.334  1.00  0.00     0.036 A 
HETATM   16  C11 UNL     1      17.023   0.131   5.035  1.00  0.00     0.103 A 
HETATM   17  C12 UNL     1      16.444   1.346   4.808  1.00  0.00     0.048 A 
BRANCH  16  18
HETATM   18  N6  UNL     1      16.278  -1.077   4.979  1.00  0.00    -0.116 N 
HETATM   19  O4  UNL     1      15.941  -1.584   3.900  1.00  0.00    -0.532 OA
HETATM   20  O5  UNL     1      15.931  -1.680   6.151  1.00  0.00    -0.532 OA
ENDBRANCH  16  18
ENDBRANCH  10  12
ENDBRANCH   7   9
ENDBRANCH   5   7
BRANCH   4  21
HETATM   21  C2  UNL     1      12.346   4.921   5.922  1.00  0.00     0.187 C 
BRANCH  21  22
HETATM   22  O1  UNL     1      12.968   5.077   7.064  1.00  0.00    -0.346 OA
ATOM     23  H1  UNL     1      12.528   5.645   7.687  1.00  0.00     0.219 HD
ENDBRANCH  21  22
BRANCH  21  24
HETATM   24  C3  UNL     1      11.093   4.203   6.072  1.00  0.00     0.218 C 
BRANCH  24  25
HETATM   25  O2  UNL     1       9.926   4.736   5.680  1.00  0.00    -0.385 OA
ATOM     26  H2  UNL     1       9.600   4.623   4.795  1.00  0.00     0.210 HD
ENDBRANCH  24  25
BRANCH  24  27
HETATM   27  C4  UNL     1      11.195   2.773   5.512  1.00  0.00     0.204 C 
BRANCH  27  28
HETATM   28  O3  UNL     1      10.305   2.552   4.495  1.00  0.00    -0.398 OA
ATOM     29  H3  UNL     1      10.228   3.302   3.917  1.00  0.00     0.209 HD
ENDBRANCH  27  28
ENDBRANCH  24  27
ENDBRANCH  21  24
ENDBRANCH   4  21
BRANCH   6  30
HETATM   30  N8  UNL     1      15.634   6.726   2.732  1.00  0.00    -0.309 N 
ATOM     31  H82 UNL     1      15.759   7.056   1.774  1.00  0.00     0.178 HD
ATOM     32  H81 UNL     1      16.567   6.785   3.142  1.00  0.00     0.178 HD
ENDBRANCH   6  30
BRANCH   1  33
HETATM   33  N1  UNL     1      12.925   6.726   1.613  1.00  0.00    -0.231 N 
ATOM     34  H12 UNL     1      12.902   7.713   1.358  1.00  0.00     0.174 HD
ATOM     35  H11 UNL     1      12.696   6.143   0.808  1.00  0.00     0.174 HD
ENDBRANCH   1  33
TORSDOF 12
ENDMDL
MODEL 2
REMARK VINA RESULT: -8.155816738      1.973      2.269
REMARK  12 active torsions:
REMARK  status: ('A' for Active; 'I' for Inactive)
REMARK    1  A    between atoms: N1_1  and  C1_4 
REMARK    2  A    between atoms: N3_7  and  C2_8 
REMARK    3  A    between atoms: C2_8  and  O1_9 
REMARK    4  A    between atoms: C2_8  and  C3_11 
REMARK    5  A    between atoms: C3_11  and  O2_12 
REMARK    6  A    between atoms: C3_11  and  C4_14 
REMARK    7  A    between atoms: C4_14  and  O3_15 
REMARK    8  A    between atoms: C5_17  and  N4_18 
REMARK    9  A    between atoms: N4_18  and  N5_20 
REMARK   10  A    between atoms: C6_22  and  C7_23 
REMARK   11  A    between atoms: C11_27  and  N6_28 
REMARK   12  A    between atoms: N7_32  and  N8_33 
ROOT
HETATM    1  C1  UNL     1      13.404   6.295   2.749  1.00  0.00     0.727 A 
HETATM    2  N2  UNL     1      12.526   5.807   3.627  1.00  0.00    -0.107 N 
ATOM      3  H2  UNL     1      11.523   5.711   3.471  1.00  0.00     0.207 HD
HETATM    4  N3  UNL     1      13.177   5.464   4.749  1.00  0.00    -0.047 N 
HETATM    5  C5  UNL     1      14.468   5.761   4.516  1.00  0.00     0.756 A 
HETATM    6  N7  UNL     1      14.631   6.285   3.263  1.00  0.00     0.087 N 
ENDROOT
BRANCH   5   7
HETATM    7  N4  UNL     1      15.453   5.600   5.319  1.00  0.00    -0.128 N 
ATOM      8  H4  UNL     1      15.821   6.405   5.825  1.00  0.00     0.205 HD
BRANCH   7   9
HETATM    9  N5  UNL     1      16.028   4.359   5.515  1.00  0.00    -0.297 N 
HETATM   10  C6  UNL     1      16.818   3.799   4.661  1.00  0.00     0.119 C 
ATOM     11  H5  UNL     1      15.819   3.860   6.380  1.00  0.00     0.186 HD
BRANCH  10  12
HETATM   12  C7  UNL     1      17.391   2.496   4.921  1.00  0.00    -0.017 A 
HETATM   13  C8  UNL     1      16.595   1.381   4.866  1.00  0.00     0.013 A 
HETATM   14  C9  UNL     1      17.126   0.126   5.113  1.00  0.00     0.003 A 
HETATM   15  C10 UNL     1      18.469  -0.023   5.416  1.00  0.00     0.036 A 
HETATM   16  C11 UNL     1      19.276   1.118   5.468  1.00  0.00     0.103 A 
HETATM   17  C12 UNL     1      18.741   2.350   5.224  1.00  0.00     0.048 A 
BRANCH  16  18
HETATM   18  N6  UNL     1      20.652   0.948   5.781  1.00  0.00    -0.116 N 
HETATM   19  O4  UNL     1      21.018   0.348   6.800  1.00  0.00    -0.532 OA
HETATM   20  O5  UNL     1      21.579   1.466   4.926  1.00  0.00    -0.532 OA
ENDBRANCH  16  18
ENDBRANCH  10  12
ENDBRANCH   7   9
ENDBRANCH   5   7
BRANCH   4  21
HETATM   21  C2  UNL     1      12.512   4.921   5.857  1.00  0.00     0.187 C 
BRANCH  21  22
HETATM   22  O1  UNL     1      13.132   5.065   7.002  1.00  0.00    -0.346 OA
ATOM     23  H1  UNL     1      12.741   4.600   7.732  1.00  0.00     0.219 HD
ENDBRANCH  21  22
BRANCH  21  24
HETATM   24  C3  UNL     1      11.250   4.218   6.000  1.00  0.00     0.218 C 
BRANCH  24  25
HETATM   25  O2  UNL     1      10.096   4.749   5.568  1.00  0.00    -0.385 OA
ATOM     26  H2  UNL     1       9.279   4.606   6.029  1.00  0.00     0.210 HD
ENDBRANCH  24  25
BRANCH  24  27
HETATM   27  C4  UNL     1      11.351   2.771   5.484  1.00  0.00     0.204 C 
BRANCH  27  28
HETATM   28  O3  UNL     1      10.242   2.399   4.770  1.00  0.00    -0.398 OA
ATOM     29  H3  UNL     1      10.263   2.727   3.879  1.00  0.00     0.209 HD
ENDBRANCH  27  28
ENDBRANCH  24  27
ENDBRANCH  21  24
ENDBRANCH   4  21
BRANCH   6  30
HETATM   30  N8  UNL     1      15.831   6.704   2.686  1.00  0.00    -0.309 N 
ATOM     31  H82 UNL     1      16.043   7.638   2.335  1.00  0.00     0.178 HD
ATOM     32  H81 UNL     1      16.685   6.171   2.518  1.00  0.00     0.178 HD
ENDBRANCH   6  30
BRANCH   1  33
HETATM   33  N1  UNL     1      13.129   6.726   1.553  1.00  0.00    -0.231 N 
ATOM     34  H12 UNL     1      12.210   6.637   1.119  1.00  0.00     0.174 HD
ATOM     35  H11 UNL     1      13.778   7.192   0.921  1.00  0.00     0.174 HD
ENDBRANCH   1  33
TORSDOF 12
ENDMDL
MODEL 3
REMARK VINA RESULT: -8.141657597      2.636      3.703
REMARK  12 active torsions:
REMARK  status: ('A' for Active; 'I' for Inactive)
REMARK    1  A    between atoms: N1_1  and  C1_4 
REMARK    2  A    between atoms: N3_7  and  C2_8 
REMARK    3  A    between atoms: C2_8  and  O1_9 
REMARK    4  A    between atoms: C2_8  and  C3_11 
REMARK    5  A    between atoms: C3_11  and  O2_12 
REMARK    6  A    between atoms: C3_11  and  C4_14 
REMARK    7  A    between atoms: C4_14  and  O3_15 
REMARK    8  A    between atoms: C5_17  and  N4_18 
REMARK    9  A    between atoms: N4_18  and  N5_20 
REMARK   10  A    between atoms: C6_22  and  C7_23 
REMARK   11  A    between atoms: C11_27  and  N6_28 
REMARK   12  A    between atoms: N7_32  and  N8_33 
ROOT
HETATM    1  C1  UNL     1      10.639   4.873   2.884  1.00  0.00     0.727 A 
HETATM    2  N2  UNL     1      11.628   5.702   2.542  1.00  0.00    -0.107 N 
ATOM      3  H2  UNL     1      11.557   6.460   1.864  1.00  0.00     0.207 HD
HETATM    4  N3  UNL     1      12.729   5.376   3.237  1.00  0.00    -0.047 N 
HETATM    5  C5  UNL     1      12.371   4.329   4.001  1.00  0.00     0.756 A 
HETATM    6  N7  UNL     1      11.060   3.997   3.793  1.00  0.00     0.087 N 
ENDROOT
BRANCH   5   7
HETATM    7  N4  UNL     1      13.112   3.689   4.827  1.00  0.00    -0.128 N 
ATOM      8  H4  UNL     1      13.051   3.905   5.822  1.00  0.00     0.205 HD
BRANCH   7   9
HETATM    9  N5  UNL     1      13.992   2.713   4.401  1.00  0.00    -0.297 N 
HETATM   10  C6  UNL     1      14.998   2.307   5.102  1.00  0.00     0.119 C 
ATOM     11  H5  UNL     1      13.839   2.291   3.485  1.00  0.00     0.186 HD
BRANCH  10  12
HETATM   12  C7  UNL     1      15.887   1.281   4.603  1.00  0.00    -0.017 A 
HETATM   13  C8  UNL     1      17.187   1.239   5.038  1.00  0.00     0.013 A 
HETATM   14  C9  UNL     1      18.052   0.264   4.571  1.00  0.00     0.003 A 
HETATM   15  C10 UNL     1      17.619  -0.685   3.660  1.00  0.00     0.036 A 
HETATM   16  C11 UNL     1      16.291  -0.637   3.221  1.00  0.00     0.103 A 
HETATM   17  C12 UNL     1      15.448   0.329   3.689  1.00  0.00     0.048 A 
BRANCH  16  18
HETATM   18  N6  UNL     1      15.862  -1.618   2.287  1.00  0.00    -0.116 N 
HETATM   19  O4  UNL     1      16.638  -2.475   1.842  1.00  0.00    -0.532 OA
HETATM   20  O5  UNL     1      14.562  -1.600   1.880  1.00  0.00    -0.532 OA
ENDBRANCH  16  18
ENDBRANCH  10  12
ENDBRANCH   7   9
ENDBRANCH   5   7
BRANCH   4  21
HETATM   21  C2  UNL     1      13.935   6.075   3.087  1.00  0.00     0.187 C 
BRANCH  21  22
HETATM   22  O1  UNL     1      14.085   6.680   1.935  1.00  0.00    -0.346 OA
ATOM     23  H1  UNL     1      14.317   6.112   1.209  1.00  0.00     0.219 HD
ENDBRANCH  21  22
BRANCH  21  24
HETATM   24  C3  UNL     1      15.074   6.273   3.964  1.00  0.00     0.218 C 
BRANCH  24  25
HETATM   25  O2  UNL     1      14.957   6.192   5.298  1.00  0.00    -0.385 OA
ATOM     26  H2  UNL     1      15.637   6.513   5.878  1.00  0.00     0.210 HD
ENDBRANCH  24  25
BRANCH  24  27
HETATM   27  C4  UNL     1      16.277   5.420   3.523  1.00  0.00     0.204 C 
BRANCH  27  28
HETATM   28  O3  UNL     1      15.929   4.477   2.593  1.00  0.00    -0.398 OA
ATOM     29  H3  UNL     1      16.507   4.487   1.839  1.00  0.00     0.209 HD
ENDBRANCH  27  28
ENDBRANCH  24  27
ENDBRANCH  21  24
ENDBRANCH   4  21
BRANCH   6  30
HETATM   30  N8  UNL     1      10.355   2.965   4.415  1.00  0.00    -0.309 N 
ATOM     31  H82 UNL     1       9.429   3.031   4.838  1.00  0.00     0.178 HD
ATOM     32  H81 UNL     1      10.628   1.992   4.555  1.00  0.00     0.178 HD
ENDBRANCH   6  30
BRANCH   1  33
HETATM   33  N1  UNL     1       9.428   4.894   2.412  1.00  0.00    -0.231 N 
ATOM     34  H12 UNL     1       8.808   4.084   2.414  1.00  0.00     0.174 HD
ATOM     35  H11 UNL     1       8.963   5.698   1.994  1.00  0.00     0.174 HD
ENDBRANCH   1  33
TORSDOF 12
ENDMDL
MODEL 4
REMARK VINA RESULT: -8.119022259      1.336      1.510
REMARK  12 active torsions:
REMARK  status: ('A' for Active; 'I' for Inactive)
REMARK    1  A    between atoms: N1_1  and  C1_4 
REMARK    2  A    between atoms: N3_7  and  C2_8 
REMARK    3  A    between atoms: C2_8  and  O1_9 
REMARK    4  A    between atoms: C2_8  and  C3_11 
REMARK    5  A    between atoms: C3_11  and  O2_12 
REMARK    6  A    between atoms: C3_11  and  C4_14 
REMARK    7  A    between atoms: C4_14  and  O3_15 
REMARK    8  A    between atoms: C5_17  and  N4_18 
REMARK    9  A    between atoms: N4_18  and  N5_20 
REMARK   10  A    between atoms: C6_22  and  C7_23 
REMARK   11  A    between atoms: C11_27  and  N6_28 
REMARK   12  A    between atoms: N7_32  and  N8_33 
ROOT
HETATM    1  C1  UNL     1      13.121   6.163   2.915  1.00  0.00     0.727 A 
HETATM    2  N2  UNL     1      12.251   5.787   3.855  1.00  0.00    -0.107 N 
ATOM      3  H2  UNL     1      11.239   5.896   3.803  1.00  0.00     0.207 HD
HETATM    4  N3  UNL     1      12.926   5.243   4.879  1.00  0.00    -0.047 N 
HETATM    5  C5  UNL     1      14.222   5.305   4.525  1.00  0.00     0.756 A 
HETATM    6  N7  UNL     1      14.365   5.880   3.292  1.00  0.00     0.087 N 
ENDROOT
BRANCH   5   7
HETATM    7  N4  UNL     1      15.228   4.898   5.206  1.00  0.00    -0.128 N 
ATOM      8  H4  UNL     1      15.543   5.448   6.006  1.00  0.00     0.205 HD
BRANCH   7   9
HETATM    9  N5  UNL     1      15.895   3.734   4.883  1.00  0.00    -0.297 N 
HETATM   10  C6  UNL     1      15.331   2.572   4.866  1.00  0.00     0.119 C 
ATOM     11  H5  UNL     1      16.886   3.794   4.645  1.00  0.00     0.186 HD
BRANCH  10  12
HETATM   12  C7  UNL     1      16.082   1.385   4.518  1.00  0.00    -0.017 A 
HETATM   13  C8  UNL     1      17.326   1.186   5.061  1.00  0.00     0.013 A 
HETATM   14  C9  UNL     1      18.060   0.056   4.740  1.00  0.00     0.003 A 
HETATM   15  C10 UNL     1      17.549  -0.891   3.867  1.00  0.00     0.036 A 
HETATM   16  C11 UNL     1      16.280  -0.682   3.318  1.00  0.00     0.103 A 
HETATM   17  C12 UNL     1      15.567   0.436   3.642  1.00  0.00     0.048 A 
BRANCH  16  18
HETATM   18  N6  UNL     1      15.770  -1.663   2.425  1.00  0.00    -0.116 N 
HETATM   19  O4  UNL     1      16.432  -2.661   2.108  1.00  0.00    -0.532 OA
HETATM   20  O5  UNL     1      14.520  -1.485   1.911  1.00  0.00    -0.532 OA
ENDBRANCH  16  18
ENDBRANCH  10  12
ENDBRANCH   7   9
ENDBRANCH   5   7
BRANCH   4  21
HETATM   21  C2  UNL     1      12.275   4.755   6.021  1.00  0.00     0.187 C 
BRANCH  21  22
HETATM   22  O1  UNL     1      12.916   4.943   7.148  1.00  0.00    -0.346 OA
ATOM     23  H1  UNL     1      12.705   4.326   7.838  1.00  0.00     0.219 HD
ENDBRANCH  21  22
BRANCH  21  24
HETATM   24  C3  UNL     1      11.010   4.071   6.216  1.00  0.00     0.218 C 
BRANCH  24  25
HETATM   25  O2  UNL     1       9.847   4.619   5.832  1.00  0.00    -0.385 OA
ATOM     26  H2  UNL     1       9.768   5.097   5.016  1.00  0.00     0.210 HD
ENDBRANCH  24  25
BRANCH  24  27
HETATM   27  C4  UNL     1      11.067   2.623   5.695  1.00  0.00     0.204 C 
BRANCH  27  28
HETATM   28  O3  UNL     1      10.280   2.441   4.589  1.00  0.00    -0.398 OA
ATOM     29  H3  UNL     1       9.386   2.217   4.819  1.00  0.00     0.209 HD
ENDBRANCH  27  28
ENDBRANCH  24  27
ENDBRANCH  21  24
ENDBRANCH   4  21
BRANCH   6  30
HETATM   30  N8  UNL     1      15.564   6.104   2.613  1.00  0.00    -0.309 N 
ATOM     31  H82 UNL     1      15.768   5.860   1.643  1.00  0.00     0.178 HD
ATOM     32  H81 UNL     1      16.424   6.537   2.951  1.00  0.00     0.178 HD
ENDBRANCH   6  30
BRANCH   1  33
HETATM   33  N1  UNL     1      12.823   6.726   1.782  1.00  0.00    -0.231 N 
ATOM     34  H12 UNL     1      12.275   6.271   1.051  1.00  0.00     0.174 HD
ATOM     35  H11 UNL     1      13.093   7.666   1.492  1.00  0.00     0.174 HD
ENDBRANCH   1  33
TORSDOF 12
ENDMDL
MODEL 5
REMARK VINA RESULT: -8.090000554      1.137      1.526
REMARK  12 active torsions:
REMARK  status: ('A' for Active; 'I' for Inactive)
REMARK    1  A    between atoms: N1_1  and  C1_4 
REMARK    2  A    between atoms: N3_7  and  C2_8 
REMARK    3  A    between atoms: C2_8  and  O1_9 
REMARK    4  A    between atoms: C2_8  and  C3_11 
REMARK    5  A    between atoms: C3_11  and  O2_12 
REMARK    6  A    between atoms: C3_11  and  C4_14 
REMARK    7  A    between atoms: C4_14  and  O3_15 
REMARK    8  A    between atoms: C5_17  and  N4_18 
REMARK    9  A    between atoms: N4_18  and  N5_20 
REMARK   10  A    between atoms: C6_22  and  C7_23 
REMARK   11  A    between atoms: C11_27  and  N6_28 
REMARK   12  A    between atoms: N7_32  and  N8_33 
ROOT
HETATM    1  C1  UNL     1      13.761   5.925   2.187  1.00  0.00     0.727 A 
HETATM    2  N2  UNL     1      12.822   5.037   2.518  1.00  0.00    -0.107 N 
ATOM      3  H2  UNL     1      11.982   4.833   1.977  1.00  0.00     0.207 HD
HETATM    4  N3  UNL     1      13.163   4.455   3.678  1.00  0.00    -0.047 N 
HETATM    5  C5  UNL     1      14.331   5.021   4.030  1.00  0.00     0.756 A 
HETATM    6  N7  UNL     1      14.724   5.949   3.105  1.00  0.00     0.087 N 
ENDROOT
BRANCH   5   7
HETATM    7  N4  UNL     1      15.025   4.768   5.077  1.00  0.00    -0.128 N 
ATOM      8  H4  UNL     1      15.084   5.468   5.818  1.00  0.00     0.205 HD
BRANCH   7   9
HETATM    9  N5  UNL     1      15.697   3.571   5.226  1.00  0.00    -0.297 N 
HETATM   10  C6  UNL     1      16.899   3.372   4.798  1.00  0.00     0.119 C 
ATOM     11  H5  UNL     1      15.218   2.803   5.698  1.00  0.00     0.186 HD
BRANCH  10  12
HETATM   12  C7  UNL     1      17.552   2.094   4.982  1.00  0.00    -0.017 A 
HETATM   13  C8  UNL     1      18.895   2.052   5.259  1.00  0.00     0.013 A 
HETATM   14  C9  UNL     1      19.538   0.839   5.438  1.00  0.00     0.003 A 
HETATM   15  C10 UNL     1      18.835  -0.351   5.342  1.00  0.00     0.036 A 
HETATM   16  C11 UNL     1      17.465  -0.301   5.062  1.00  0.00     0.103 A 
HETATM   17  C12 UNL     1      16.844   0.901   4.887  1.00  0.00     0.048 A 
BRANCH  16  18
HETATM   18  N6  UNL     1      16.759  -1.531   4.967  1.00  0.00    -0.116 N 
HETATM   19  O4  UNL     1      17.350  -2.618   4.911  1.00  0.00    -0.532 OA
HETATM   20  O5  UNL     1      15.397  -1.495   4.939  1.00  0.00    -0.532 OA
ENDBRANCH  16  18
ENDBRANCH  10  12
ENDBRANCH   7   9
ENDBRANCH   5   7
BRANCH   4  21
HETATM   21  C2  UNL     1      12.362   3.474   4.280  1.00  0.00     0.187 C 
BRANCH  21  22
HETATM   22  O1  UNL     1      12.997   2.388   4.645  1.00  0.00    -0.346 OA
ATOM     23  H1  UNL     1      13.001   1.689   4.001  1.00  0.00     0.219 HD
ENDBRANCH  21  22
BRANCH  21  24
HETATM   24  C3  UNL     1      10.946   3.414   4.591  1.00  0.00     0.218 C 
BRANCH  24  25
HETATM   25  O2  UNL     1      10.250   2.272   4.483  1.00  0.00    -0.385 OA
ATOM     26  H2  UNL     1      10.266   1.752   3.689  1.00  0.00     0.210 HD
ENDBRANCH  24  25
BRANCH  24  27
HETATM   27  C4  UNL     1      10.644   4.047   5.961  1.00  0.00     0.204 C 
BRANCH  27  28
HETATM   28  O3  UNL     1      11.766   4.153   6.740  1.00  0.00    -0.398 OA
ATOM     29  H3  UNL     1      11.677   3.685   7.562  1.00  0.00     0.209 HD
ENDBRANCH  27  28
ENDBRANCH  24  27
ENDBRANCH  21  24
ENDBRANCH   4  21
BRANCH   6  30
HETATM   30  N8  UNL     1      15.882   6.726   3.147  1.00  0.00    -0.309 N 
ATOM     31  H82 UNL     1      16.687   6.653   2.524  1.00  0.00     0.178 HD
ATOM     32  H81 UNL     1      16.127   7.483   3.787  1.00  0.00     0.178 HD
ENDBRANCH   6  30
BRANCH   1  33
HETATM   33  N1  UNL     1      13.762   6.675   1.125  1.00  0.00    -0.231 N 
ATOM     34  H12 UNL     1      13.404   6.371   0.219  1.00  0.00     0.174 HD
ATOM     35  H11 UNL     1      14.111   7.631   1.068  1.00  0.00     0.174 HD
ENDBRANCH   1  33
TORSDOF 12
ENDMDL
