MODEL 1
REMARK VINA RESULT: -7.242510649      0.000      0.000
REMARK  8 active torsions:
REMARK  status: ('A' for Active; 'I' for Inactive)
REMARK    1  A    between atoms: C2_2  and  C3_3 
REMARK    2  A    between atoms: C3_3  and  O1_4 
REMARK    3  A    between atoms: O1_4  and  C4_5 
REMARK    4  A    between atoms: C4_5  and  C5_7 
REMARK    5  A    between atoms: C5_7  and  N1_9 
REMARK    6  A    between atoms: C8_12  and  O4_13 
REMARK    7  A    between atoms: C9_15  and  O5_16 
REMARK    8  A    between atoms: N2_18  and  C10_19 
ROOT
HETATM    1  N1  UNL     1      -4.267   2.829  14.623  1.00  0.00    -0.249 N 
HETATM    2  C7  UNL     1      -4.498   1.770  15.416  1.00  0.00     0.290 A 
HETATM    3  O3  UNL     1      -4.655   1.887  16.660  1.00  0.00    -0.265 OA
HETATM    4  C8  UNL     1      -4.569   0.510  14.871  1.00  0.00     0.186 A 
HETATM    5  C9  UNL     1      -4.401   0.346  13.501  1.00  0.00     0.186 A 
HETATM    6  N2  UNL     1      -4.169   1.418  12.705  1.00  0.00    -0.268 N 
HETATM    7  C14 UNL     1      -4.111   2.613  13.299  1.00  0.00     0.335 A 
HETATM    8  O6  UNL     1      -3.899   3.616  12.597  1.00  0.00    -0.246 OA
ENDROOT
BRANCH   1   9
HETATM    9  C5  UNL     1      -4.200   4.128  15.224  1.00  0.00     0.193 C 
HETATM   10  C6  UNL     1      -5.470   4.864  14.806  1.00  0.00     0.043 C 
BRANCH   9  11
HETATM   11  C4  UNL     1      -3.008   4.900  14.843  1.00  0.00     0.282 C 
HETATM   12  O2  UNL     1      -1.881   4.365  14.978  1.00  0.00    -0.263 OA
BRANCH  11  13
HETATM   13  O1  UNL     1      -3.046   6.189  14.343  1.00  0.00    -0.316 OA
BRANCH  13  14
HETATM   14  C3  UNL     1      -1.992   7.103  14.354  1.00  0.00     0.205 C 
BRANCH  14  15
HETATM   15  C2  UNL     1      -2.146   8.240  15.267  1.00  0.00    -0.011 C 
HETATM   16  C1  UNL     1      -1.169   9.112  15.477  1.00  0.00     0.009 C 
ENDBRANCH  14  15
ENDBRANCH  13  14
ENDBRANCH  11  13
ENDBRANCH   9  11
ENDBRANCH   1   9
BRANCH   4  17
HETATM   17  O4  UNL     1      -4.809  -0.569  15.710  1.00  0.00    -0.352 OA
ATOM     18  H4  UNL     1      -4.068  -1.055  16.055  1.00  0.00     0.218 HD
ENDBRANCH   4  17
BRANCH   6  19
HETATM   19  C10 UNL     1      -4.009   1.156  11.312  1.00  0.00     0.033 C 
HETATM   20  C11 UNL     1      -2.522   0.871  11.082  1.00  0.00     0.038 C 
HETATM   21  C12 UNL     1      -4.330   2.381  10.454  1.00  0.00     0.038 C 
HETATM   22  C13 UNL     1      -4.765   0.010  10.753  1.00  0.00     0.038 C 
ENDBRANCH   6  19
BRANCH   5  23
HETATM   23  O5  UNL     1      -4.486  -0.952  13.021  1.00  0.00    -0.344 OA
ATOM     24  H5  UNL     1      -3.931  -1.165  12.281  1.00  0.00     0.219 HD
ENDBRANCH   5  23
TORSDOF 8
ENDMDL
MODEL 2
REMARK VINA RESULT: -7.225931183      2.773      6.451
REMARK  8 active torsions:
REMARK  status: ('A' for Active; 'I' for Inactive)
REMARK    1  A    between atoms: C2_2  and  C3_3 
REMARK    2  A    between atoms: C3_3  and  O1_4 
REMARK    3  A    between atoms: O1_4  and  C4_5 
REMARK    4  A    between atoms: C4_5  and  C5_7 
REMARK    5  A    between atoms: C5_7  and  N1_9 
REMARK    6  A    between atoms: C8_12  and  O4_13 
REMARK    7  A    between atoms: C9_15  and  O5_16 
REMARK    8  A    between atoms: N2_18  and  C10_19 
ROOT
HETATM    1  N1  UNL     1      -4.867   2.303  13.959  1.00  0.00    -0.249 N 
HETATM    2  C7  UNL     1      -5.212   3.600  13.883  1.00  0.00     0.290 A 
HETATM    3  O3  UNL     1      -4.877   4.326  12.910  1.00  0.00    -0.265 OA
HETATM    4  C8  UNL     1      -5.955   4.169  14.889  1.00  0.00     0.186 A 
HETATM    5  C9  UNL     1      -6.343   3.395  15.976  1.00  0.00     0.186 A 
HETATM    6  N2  UNL     1      -5.992   2.088  16.048  1.00  0.00    -0.268 N 
HETATM    7  C14 UNL     1      -5.269   1.597  15.037  1.00  0.00     0.335 A 
HETATM    8  O6  UNL     1      -4.931   0.402  15.073  1.00  0.00    -0.246 OA
ENDROOT
BRANCH   1   9
HETATM    9  C5  UNL     1      -4.092   1.742  12.891  1.00  0.00     0.193 C 
HETATM   10  C6  UNL     1      -3.258   2.884  12.316  1.00  0.00     0.043 C 
BRANCH   9  11
HETATM   11  C4  UNL     1      -4.900   1.111  11.837  1.00  0.00     0.282 C 
HETATM   12  O2  UNL     1      -5.737   1.817  11.223  1.00  0.00    -0.263 OA
BRANCH  11  13
HETATM   13  O1  UNL     1      -4.799  -0.219  11.474  1.00  0.00    -0.316 OA
BRANCH  13  14
HETATM   14  C3  UNL     1      -4.036  -1.189  12.125  1.00  0.00     0.205 C 
BRANCH  14  15
HETATM   15  C2  UNL     1      -3.035  -1.870  11.299  1.00  0.00    -0.011 C 
HETATM   16  C1  UNL     1      -2.885  -3.187  11.316  1.00  0.00     0.009 C 
ENDBRANCH  14  15
ENDBRANCH  13  14
ENDBRANCH  11  13
ENDBRANCH   9  11
ENDBRANCH   1   9
BRANCH   4  17
HETATM   17  O4  UNL     1      -6.300   5.510  14.789  1.00  0.00    -0.352 OA
ATOM     18  H4  UNL     1      -5.679   6.166  15.084  1.00  0.00     0.218 HD
ENDBRANCH   4  17
BRANCH   6  19
HETATM   19  C10 UNL     1      -6.433   1.371  17.200  1.00  0.00     0.033 C 
HETATM   20  C11 UNL     1      -7.925   1.091  17.004  1.00  0.00     0.038 C 
HETATM   21  C12 UNL     1      -6.336   2.212  18.474  1.00  0.00     0.038 C 
HETATM   22  C13 UNL     1      -5.775   0.071  17.474  1.00  0.00     0.038 C 
ENDBRANCH   6  19
BRANCH   5  23
HETATM   23  O5  UNL     1      -7.090   4.035  16.953  1.00  0.00    -0.344 OA
ATOM     24  H5  UNL     1      -6.700   4.808  17.345  1.00  0.00     0.219 HD
ENDBRANCH   5  23
TORSDOF 8
ENDMDL
MODEL 3
REMARK VINA RESULT: -7.115807160      2.353      4.714
REMARK  8 active torsions:
REMARK  status: ('A' for Active; 'I' for Inactive)
REMARK    1  A    between atoms: C2_2  and  C3_3 
REMARK    2  A    between atoms: C3_3  and  O1_4 
REMARK    3  A    between atoms: O1_4  and  C4_5 
REMARK    4  A    between atoms: C4_5  and  C5_7 
REMARK    5  A    between atoms: C5_7  and  N1_9 
REMARK    6  A    between atoms: C8_12  and  O4_13 
REMARK    7  A    between atoms: C9_15  and  O5_16 
REMARK    8  A    between atoms: N2_18  and  C10_19 
ROOT
HETATM    1  N1  UNL     1      -4.131   1.464  13.182  1.00  0.00    -0.249 N 
HETATM    2  C7  UNL     1      -4.001   0.244  12.634  1.00  0.00     0.290 A 
HETATM    3  O3  UNL     1      -4.663  -0.747  13.042  1.00  0.00    -0.265 OA
HETATM    4  C8  UNL     1      -3.122   0.052  11.595  1.00  0.00     0.186 A 
HETATM    5  C9  UNL     1      -2.377   1.125  11.121  1.00  0.00     0.186 A 
HETATM    6  N2  UNL     1      -2.513   2.354  11.677  1.00  0.00    -0.268 N 
HETATM    7  C14 UNL     1      -3.384   2.471  12.683  1.00  0.00     0.335 A 
HETATM    8  O6  UNL     1      -3.531   3.585  13.214  1.00  0.00    -0.246 OA
ENDROOT
BRANCH   1   9
HETATM    9  C5  UNL     1      -5.058   1.628  14.264  1.00  0.00     0.193 C 
HETATM   10  C6  UNL     1      -5.233   3.132  14.457  1.00  0.00     0.043 C 
BRANCH   9  11
HETATM   11  C4  UNL     1      -4.627   0.994  15.518  1.00  0.00     0.282 C 
HETATM   12  O2  UNL     1      -3.499   1.292  15.982  1.00  0.00    -0.263 OA
BRANCH  11  13
HETATM   13  O1  UNL     1      -5.388   0.083  16.227  1.00  0.00    -0.316 OA
BRANCH  13  14
HETATM   14  C3  UNL     1      -6.111   0.351  17.391  1.00  0.00     0.205 C 
BRANCH  14  15
HETATM   15  C2  UNL     1      -7.194   1.329  17.256  1.00  0.00    -0.011 C 
HETATM   16  C1  UNL     1      -7.037   2.603  17.590  1.00  0.00     0.009 C 
ENDBRANCH  14  15
ENDBRANCH  13  14
ENDBRANCH  11  13
ENDBRANCH   9  11
ENDBRANCH   1   9
BRANCH   4  17
HETATM   17  O4  UNL     1      -3.004  -1.217  11.045  1.00  0.00    -0.352 OA
ATOM     18  H4  UNL     1      -2.533  -1.319  10.226  1.00  0.00     0.218 HD
ENDBRANCH   4  17
BRANCH   6  19
HETATM   19  C10 UNL     1      -1.708   3.396  11.127  1.00  0.00     0.033 C 
HETATM   20  C11 UNL     1      -1.331   4.323  12.286  1.00  0.00     0.038 C 
HETATM   21  C12 UNL     1      -2.488   4.266  10.141  1.00  0.00     0.038 C 
HETATM   22  C13 UNL     1      -0.447   2.990  10.462  1.00  0.00     0.038 C 
ENDBRANCH   6  19
BRANCH   5  23
HETATM   23  O5  UNL     1      -1.511   0.858  10.072  1.00  0.00    -0.344 OA
ATOM     24  H5  UNL     1      -0.583   0.915  10.265  1.00  0.00     0.219 HD
ENDBRANCH   5  23
TORSDOF 8
ENDMDL
MODEL 4
REMARK VINA RESULT: -6.983641055      2.359      4.994
REMARK  8 active torsions:
REMARK  status: ('A' for Active; 'I' for Inactive)
REMARK    1  A    between atoms: C2_2  and  C3_3 
REMARK    2  A    between atoms: C3_3  and  O1_4 
REMARK    3  A    between atoms: O1_4  and  C4_5 
REMARK    4  A    between atoms: C4_5  and  C5_7 
REMARK    5  A    between atoms: C5_7  and  N1_9 
REMARK    6  A    between atoms: C8_12  and  O4_13 
REMARK    7  A    between atoms: C9_15  and  O5_16 
REMARK    8  A    between atoms: N2_18  and  C10_19 
ROOT
HETATM    1  N1  UNL     1      -4.195   2.155  13.365  1.00  0.00    -0.249 N 
HETATM    2  C7  UNL     1      -4.091   1.169  12.458  1.00  0.00     0.290 A 
HETATM    3  O3  UNL     1      -4.790   0.124  12.521  1.00  0.00    -0.265 OA
HETATM    4  C8  UNL     1      -3.198   1.288  11.419  1.00  0.00     0.186 A 
HETATM    5  C9  UNL     1      -2.412   2.430  11.319  1.00  0.00     0.186 A 
HETATM    6  N2  UNL     1      -2.520   3.421  12.238  1.00  0.00    -0.268 N 
HETATM    7  C14 UNL     1      -3.407   3.241  13.221  1.00  0.00     0.335 A 
HETATM    8  O6  UNL     1      -3.531   4.132  14.079  1.00  0.00    -0.246 OA
ENDROOT
BRANCH   1   9
HETATM    9  C5  UNL     1      -5.136   1.998  14.435  1.00  0.00     0.193 C 
HETATM   10  C6  UNL     1      -5.481   3.405  14.917  1.00  0.00     0.043 C 
BRANCH   9  11
HETATM   11  C4  UNL     1      -4.640   1.178  15.550  1.00  0.00     0.282 C 
HETATM   12  O2  UNL     1      -3.500   1.425  16.012  1.00  0.00    -0.263 OA
BRANCH  11  13
HETATM   13  O1  UNL     1      -5.352   0.143  16.128  1.00  0.00    -0.316 OA
BRANCH  13  14
HETATM   14  C3  UNL     1      -5.995   0.183  17.366  1.00  0.00     0.205 C 
BRANCH  14  15
HETATM   15  C2  UNL     1      -6.886   1.326  17.583  1.00  0.00    -0.011 C 
HETATM   16  C1  UNL     1      -6.566   2.325  18.395  1.00  0.00     0.009 C 
ENDBRANCH  14  15
ENDBRANCH  13  14
ENDBRANCH  11  13
ENDBRANCH   9  11
ENDBRANCH   1   9
BRANCH   4  17
HETATM   17  O4  UNL     1      -3.108   0.258  10.494  1.00  0.00    -0.352 OA
ATOM     18  H4  UNL     1      -3.247  -0.635  10.787  1.00  0.00     0.218 HD
ENDBRANCH   4  17
BRANCH   6  19
HETATM   19  C10 UNL     1      -1.674   4.555  12.057  1.00  0.00     0.033 C 
HETATM   20  C11 UNL     1      -2.325   5.427  10.980  1.00  0.00     0.038 C 
HETATM   21  C12 UNL     1      -0.304   4.167  11.498  1.00  0.00     0.038 C 
HETATM   22  C13 UNL     1      -1.444   5.417  13.240  1.00  0.00     0.038 C 
ENDBRANCH   6  19
BRANCH   5  23
HETATM   23  O5  UNL     1      -1.534   2.481  10.247  1.00  0.00    -0.344 OA
ATOM     24  H5  UNL     1      -1.148   3.328  10.058  1.00  0.00     0.219 HD
ENDBRANCH   5  23
TORSDOF 8
ENDMDL
MODEL 5
REMARK VINA RESULT: -6.961529437      1.928      4.703
REMARK  8 active torsions:
REMARK  status: ('A' for Active; 'I' for Inactive)
REMARK    1  A    between atoms: C2_2  and  C3_3 
REMARK    2  A    between atoms: C3_3  and  O1_4 
REMARK    3  A    between atoms: O1_4  and  C4_5 
REMARK    4  A    between atoms: C4_5  and  C5_7 
REMARK    5  A    between atoms: C5_7  and  N1_9 
REMARK    6  A    between atoms: C8_12  and  O4_13 
REMARK    7  A    between atoms: C9_15  and  O5_16 
REMARK    8  A    between atoms: N2_18  and  C10_19 
ROOT
HETATM    1  N1  UNL     1      -4.186   1.513  12.455  1.00  0.00    -0.249 N 
HETATM    2  C7  UNL     1      -4.415   0.634  13.445  1.00  0.00     0.290 A 
HETATM    3  O3  UNL     1      -4.294  -0.608  13.279  1.00  0.00    -0.265 OA
HETATM    4  C8  UNL     1      -4.794   1.087  14.687  1.00  0.00     0.186 A 
HETATM    5  C9  UNL     1      -4.936   2.452  14.904  1.00  0.00     0.186 A 
HETATM    6  N2  UNL     1      -4.703   3.335  13.901  1.00  0.00    -0.268 N 
HETATM    7  C14 UNL     1      -4.339   2.828  12.720  1.00  0.00     0.335 A 
HETATM    8  O6  UNL     1      -4.118   3.611  11.781  1.00  0.00    -0.246 OA
ENDROOT
BRANCH   1   9
HETATM    9  C5  UNL     1      -3.791   1.007  11.173  1.00  0.00     0.193 C 
HETATM   10  C6  UNL     1      -4.816  -0.061  10.797  1.00  0.00     0.043 C 
BRANCH   9  11
HETATM   11  C4  UNL     1      -2.432   0.448  11.147  1.00  0.00     0.282 C 
HETATM   12  O2  UNL     1      -2.288  -0.761  10.840  1.00  0.00    -0.263 OA
BRANCH  11  13
HETATM   13  O1  UNL     1      -1.291   1.171  11.440  1.00  0.00    -0.316 OA
BRANCH  13  14
HETATM   14  C3  UNL     1      -0.876   2.341  10.802  1.00  0.00     0.205 C 
BRANCH  14  15
HETATM   15  C2  UNL     1      -0.612   3.485  11.679  1.00  0.00    -0.011 C 
HETATM   16  C1  UNL     1      -0.797   4.736  11.280  1.00  0.00     0.009 C 
ENDBRANCH  14  15
ENDBRANCH  13  14
ENDBRANCH  11  13
ENDBRANCH   9  11
ENDBRANCH   1   9
BRANCH   4  17
HETATM   17  O4  UNL     1      -5.025   0.160  15.694  1.00  0.00    -0.352 OA
ATOM     18  H4  UNL     1      -4.847  -0.757  15.522  1.00  0.00     0.218 HD
ENDBRANCH   4  17
BRANCH   6  19
HETATM   19  C10 UNL     1      -4.874   4.716  14.215  1.00  0.00     0.033 C 
HETATM   20  C11 UNL     1      -3.617   5.158  14.970  1.00  0.00     0.038 C 
HETATM   21  C12 UNL     1      -6.037   4.948  15.181  1.00  0.00     0.038 C 
HETATM   22  C13 UNL     1      -5.050   5.646  13.074  1.00  0.00     0.038 C 
ENDBRANCH   6  19
BRANCH   5  23
HETATM   23  O5  UNL     1      -5.321   2.836  16.179  1.00  0.00    -0.344 OA
ATOM     24  H5  UNL     1      -6.154   3.286  16.251  1.00  0.00     0.219 HD
ENDBRANCH   5  23
TORSDOF 8
ENDMDL
