MODEL 1
REMARK VINA RESULT: -7.805508205      0.000      0.000
REMARK  6 active torsions:
REMARK  status: ('A' for Active; 'I' for Inactive)
REMARK    1  A    between atoms: C3_9  and  C4_10 
REMARK    2  A    between atoms: C4_10  and  O2_12 
REMARK    3  A    between atoms: O2_12  and  C5_13 
REMARK    4  A    between atoms: C5_13  and  C7_15 
REMARK    5  A    between atoms: C7_15  and  C8_16 
REMARK    6  A    between atoms: C12_25  and  O4_27 
ROOT
HETATM    1  C5  UNL     1      -4.544   1.017  13.295  1.00  0.00     0.130 C 
HETATM    2  C6  UNL     1      -4.065   0.093  12.228  1.00  0.00     0.040 C 
ENDROOT
BRANCH   1   3
HETATM    3  O2  UNL     1      -4.090   0.488  14.543  1.00  0.00    -0.311 OA
BRANCH   3   4
HETATM    4  C4  UNL     1      -4.306   1.123  15.753  1.00  0.00     0.314 C 
HETATM    5  O1  UNL     1      -3.295   1.548  16.360  1.00  0.00    -0.257 OA
BRANCH   4   6
HETATM    6  C3  UNL     1      -5.613   1.320  16.344  1.00  0.00     0.148 A 
HETATM    7  C2  UNL     1      -6.439   2.424  16.323  1.00  0.00     0.057 A 
HETATM    8  C1  UNL     1      -6.140   3.705  15.654  1.00  0.00     0.072 C 
HETATM    9  N1  UNL     1      -7.546   2.138  17.007  1.00  0.00    -0.288 N 
HETATM   10  N2  UNL     1      -7.437   0.900  17.449  1.00  0.00    -0.242 N 
ATOM     11  H1  UNL     1      -8.336   2.764  17.161  1.00  0.00     0.188 HD
HETATM   12  N3  UNL     1      -6.278   0.399  17.056  1.00  0.00    -0.279 N 
ATOM     13  H2  UNL     1      -8.135   0.407  18.005  1.00  0.00     0.208 HD
ATOM     14  H3  UNL     1      -5.941  -0.541  17.263  1.00  0.00     0.189 HD
ENDBRANCH   4   6
ENDBRANCH   3   4
ENDBRANCH   1   3
BRANCH   1  15
HETATM   15  C7  UNL     1      -4.158   2.448  13.134  1.00  0.00     0.067 C 
BRANCH  15  16
HETATM   16  C8  UNL     1      -3.269   2.710  11.960  1.00  0.00     0.166 C 
HETATM   17  O3  UNL     1      -2.023   3.185  12.428  1.00  0.00    -0.330 OA
HETATM   18  C9  UNL     1      -1.043   3.485  11.491  1.00  0.00     0.130 C 
HETATM   19  N4  UNL     1       0.200   3.626  11.807  1.00  0.00    -0.382 N 
HETATM   20  C10 UNL     1      -1.513   3.638  10.082  1.00  0.00     0.159 C 
ATOM     21  H42 UNL     1       0.521   3.521  12.769  1.00  0.00     0.158 HD
ATOM     22  H41 UNL     1       0.920   3.847  11.119  1.00  0.00     0.158 HD
HETATM   23 CL1  UNL     1      -0.364   4.731   9.273  1.00  0.00    -0.116 Cl
HETATM   24  C11 UNL     1      -2.864   4.301  10.063  1.00  0.00     0.068 C 
HETATM   25  C12 UNL     1      -3.834   3.749  11.039  1.00  0.00     0.083 C 
HETATM   26  C13 UNL     1      -4.401   4.925  11.842  1.00  0.00     0.049 C 
BRANCH  25  27
HETATM   27  O4  UNL     1      -4.941   3.186  10.376  1.00  0.00    -0.388 OA
ATOM     28  H4  UNL     1      -5.689   3.755  10.518  1.00  0.00     0.210 HD
ENDBRANCH  25  27
ENDBRANCH  15  16
ENDBRANCH   1  15
TORSDOF 6
ENDMDL
MODEL 2
REMARK VINA RESULT: -7.575520263      2.250      2.990
REMARK  6 active torsions:
REMARK  status: ('A' for Active; 'I' for Inactive)
REMARK    1  A    between atoms: C3_9  and  C4_10 
REMARK    2  A    between atoms: C4_10  and  O2_12 
REMARK    3  A    between atoms: O2_12  and  C5_13 
REMARK    4  A    between atoms: C5_13  and  C7_15 
REMARK    5  A    between atoms: C7_15  and  C8_16 
REMARK    6  A    between atoms: C12_25  and  O4_27 
ROOT
HETATM    1  C5  UNL     1      -4.266   0.759  12.619  1.00  0.00     0.130 C 
HETATM    2  C6  UNL     1      -4.161  -0.678  12.237  1.00  0.00     0.040 C 
ENDROOT
BRANCH   1   3
HETATM    3  O2  UNL     1      -3.865   0.860  13.988  1.00  0.00    -0.311 OA
BRANCH   3   4
HETATM    4  C4  UNL     1      -4.761   0.802  15.040  1.00  0.00     0.314 C 
HETATM    5  O1  UNL     1      -4.932  -0.317  15.580  1.00  0.00    -0.257 OA
BRANCH   4   6
HETATM    6  C3  UNL     1      -5.498   1.943  15.542  1.00  0.00     0.148 A 
HETATM    7  C2  UNL     1      -6.502   2.005  16.485  1.00  0.00     0.057 A 
HETATM    8  C1  UNL     1      -7.062   0.853  17.217  1.00  0.00     0.072 C 
HETATM    9  N1  UNL     1      -6.878   3.276  16.621  1.00  0.00    -0.288 N 
HETATM   10  N2  UNL     1      -6.144   4.002  15.799  1.00  0.00    -0.242 N 
ATOM     11  H1  UNL     1      -7.603   3.625  17.247  1.00  0.00     0.188 HD
HETATM   12  N3  UNL     1      -5.311   3.209  15.146  1.00  0.00    -0.279 N 
ATOM     13  H2  UNL     1      -6.208   5.014  15.686  1.00  0.00     0.208 HD
ATOM     14  H3  UNL     1      -4.633   3.514  14.448  1.00  0.00     0.189 HD
ENDBRANCH   4   6
ENDBRANCH   3   4
ENDBRANCH   1   3
BRANCH   1  15
HETATM   15  C7  UNL     1      -3.515   1.715  11.757  1.00  0.00     0.067 C 
BRANCH  15  16
HETATM   16  C8  UNL     1      -3.914   3.144  11.944  1.00  0.00     0.166 C 
HETATM   17  O3  UNL     1      -4.223   3.701  10.682  1.00  0.00    -0.330 OA
HETATM   18  C9  UNL     1      -4.626   5.030  10.633  1.00  0.00     0.130 C 
HETATM   19  N4  UNL     1      -5.215   5.539   9.605  1.00  0.00    -0.382 N 
HETATM   20  C10 UNL     1      -4.337   5.844  11.851  1.00  0.00     0.159 C 
ATOM     21  H42 UNL     1      -5.413   4.983   8.773  1.00  0.00     0.158 HD
ATOM     22  H41 UNL     1      -5.511   6.515   9.568  1.00  0.00     0.158 HD
HETATM   23 CL1  UNL     1      -4.190   7.534  11.314  1.00  0.00    -0.116 Cl
HETATM   24  C11 UNL     1      -3.013   5.434  12.438  1.00  0.00     0.068 C 
HETATM   25  C12 UNL     1      -2.816   3.968  12.547  1.00  0.00     0.083 C 
HETATM   26  C13 UNL     1      -1.473   3.633  11.890  1.00  0.00     0.049 C 
BRANCH  25  27
HETATM   27  O4  UNL     1      -2.675   3.584  13.894  1.00  0.00    -0.388 OA
ATOM     28  H4  UNL     1      -2.786   2.642  13.944  1.00  0.00     0.210 HD
ENDBRANCH  25  27
ENDBRANCH  15  16
ENDBRANCH   1  15
TORSDOF 6
ENDMDL
MODEL 3
REMARK VINA RESULT: -7.520048494      3.239      5.815
REMARK  6 active torsions:
REMARK  status: ('A' for Active; 'I' for Inactive)
REMARK    1  A    between atoms: C3_9  and  C4_10 
REMARK    2  A    between atoms: C4_10  and  O2_12 
REMARK    3  A    between atoms: O2_12  and  C5_13 
REMARK    4  A    between atoms: C5_13  and  C7_15 
REMARK    5  A    between atoms: C7_15  and  C8_16 
REMARK    6  A    between atoms: C12_25  and  O4_27 
ROOT
HETATM    1  C5  UNL     1      -5.042   4.712  14.899  1.00  0.00     0.130 C 
HETATM    2  C6  UNL     1      -6.377   5.292  15.220  1.00  0.00     0.040 C 
ENDROOT
BRANCH   1   3
HETATM    3  O2  UNL     1      -4.075   5.744  15.110  1.00  0.00    -0.311 OA
BRANCH   3   4
HETATM    4  C4  UNL     1      -3.067   6.026  14.206  1.00  0.00     0.314 C 
HETATM    5  O1  UNL     1      -2.694   7.221  14.125  1.00  0.00    -0.257 OA
BRANCH   4   6
HETATM    6  C3  UNL     1      -2.432   5.035  13.362  1.00  0.00     0.148 A 
HETATM    7  C2  UNL     1      -2.776   4.591  12.103  1.00  0.00     0.057 A 
HETATM    8  C1  UNL     1      -3.929   5.064  11.313  1.00  0.00     0.072 C 
HETATM    9  N1  UNL     1      -1.894   3.667  11.724  1.00  0.00    -0.288 N 
HETATM   10  N2  UNL     1      -1.018   3.523  12.700  1.00  0.00    -0.242 N 
ATOM     11  H1  UNL     1      -1.896   3.161  10.839  1.00  0.00     0.188 HD
HETATM   12  N3  UNL     1      -1.333   4.342  13.691  1.00  0.00    -0.279 N 
ATOM     13  H2  UNL     1      -0.224   2.883  12.693  1.00  0.00     0.208 HD
ATOM     14  H3  UNL     1      -0.821   4.431  14.567  1.00  0.00     0.189 HD
ENDBRANCH   4   6
ENDBRANCH   3   4
ENDBRANCH   1   3
BRANCH   1  15
HETATM   15  C7  UNL     1      -4.683   3.466  15.634  1.00  0.00     0.067 C 
BRANCH  15  16
HETATM   16  C8  UNL     1      -4.255   2.340  14.749  1.00  0.00     0.166 C 
HETATM   17  O3  UNL     1      -5.025   2.371  13.564  1.00  0.00    -0.330 OA
HETATM   18  C9  UNL     1      -4.779   1.405  12.597  1.00  0.00     0.130 C 
HETATM   19  N4  UNL     1      -5.193   1.520  11.381  1.00  0.00    -0.382 N 
HETATM   20  C10 UNL     1      -4.000   0.214  13.048  1.00  0.00     0.159 C 
ATOM     21  H42 UNL     1      -5.726   2.334  11.072  1.00  0.00     0.158 HD
ATOM     22  H41 UNL     1      -5.013   0.810  10.670  1.00  0.00     0.158 HD
HETATM   23 CL1  UNL     1      -4.472  -1.138  11.991  1.00  0.00    -0.116 Cl
HETATM   24  C11 UNL     1      -4.390  -0.149  14.456  1.00  0.00     0.068 C 
HETATM   25  C12 UNL     1      -4.463   1.000  15.390  1.00  0.00     0.083 C 
HETATM   26  C13 UNL     1      -5.827   0.946  16.085  1.00  0.00     0.049 C 
BRANCH  25  27
HETATM   27  O4  UNL     1      -3.516   0.862  16.423  1.00  0.00    -0.388 OA
ATOM     28  H4  UNL     1      -2.651   0.972  16.045  1.00  0.00     0.210 HD
ENDBRANCH  25  27
ENDBRANCH  15  16
ENDBRANCH   1  15
TORSDOF 6
ENDMDL
MODEL 4
REMARK VINA RESULT: -7.434461057      2.093      2.700
REMARK  6 active torsions:
REMARK  status: ('A' for Active; 'I' for Inactive)
REMARK    1  A    between atoms: C3_9  and  C4_10 
REMARK    2  A    between atoms: C4_10  and  O2_12 
REMARK    3  A    between atoms: O2_12  and  C5_13 
REMARK    4  A    between atoms: C5_13  and  C7_15 
REMARK    5  A    between atoms: C7_15  and  C8_16 
REMARK    6  A    between atoms: C12_25  and  O4_27 
ROOT
HETATM    1  C5  UNL     1      -4.646   1.418  13.157  1.00  0.00     0.130 C 
HETATM    2  C6  UNL     1      -4.271  -0.009  12.944  1.00  0.00     0.040 C 
ENDROOT
BRANCH   1   3
HETATM    3  O2  UNL     1      -3.998   1.848  14.357  1.00  0.00    -0.311 OA
BRANCH   3   4
HETATM    4  C4  UNL     1      -4.363   1.395  15.612  1.00  0.00     0.314 C 
HETATM    5  O1  UNL     1      -3.497   0.764  16.263  1.00  0.00    -0.257 OA
BRANCH   4   6
HETATM    6  C3  UNL     1      -5.668   1.607  16.204  1.00  0.00     0.148 A 
HETATM    7  C2  UNL     1      -6.470   2.729  16.203  1.00  0.00     0.057 A 
HETATM    8  C1  UNL     1      -6.143   4.016  15.561  1.00  0.00     0.072 C 
HETATM    9  N1  UNL     1      -7.585   2.452  16.878  1.00  0.00    -0.288 N 
HETATM   10  N2  UNL     1      -7.503   1.203  17.296  1.00  0.00    -0.242 N 
ATOM     11  H1  UNL     1      -8.362   3.091  17.044  1.00  0.00     0.188 HD
HETATM   12  N3  UNL     1      -6.353   0.686  16.895  1.00  0.00    -0.279 N 
ATOM     13  H2  UNL     1      -8.213   0.713  17.840  1.00  0.00     0.208 HD
ATOM     14  H3  UNL     1      -6.037  -0.265  17.084  1.00  0.00     0.189 HD
ENDBRANCH   4   6
ENDBRANCH   3   4
ENDBRANCH   1   3
BRANCH   1  15
HETATM   15  C7  UNL     1      -4.361   2.340  12.021  1.00  0.00     0.067 C 
BRANCH  15  16
HETATM   16  C8  UNL     1      -4.000   3.729  12.440  1.00  0.00     0.166 C 
HETATM   17  O3  UNL     1      -4.863   4.641  11.792  1.00  0.00    -0.330 OA
HETATM   18  C9  UNL     1      -4.699   5.996  12.051  1.00  0.00     0.130 C 
HETATM   19  N4  UNL     1      -5.603   6.871  11.766  1.00  0.00    -0.382 N 
HETATM   20  C10 UNL     1      -3.406   6.386  12.686  1.00  0.00     0.159 C 
ATOM     21  H42 UNL     1      -6.487   6.605  11.333  1.00  0.00     0.158 HD
ATOM     22  H41 UNL     1      -5.482   7.866  11.956  1.00  0.00     0.158 HD
HETATM   23 CL1  UNL     1      -3.089   8.072  12.211  1.00  0.00    -0.116 Cl
HETATM   24  C11 UNL     1      -2.289   5.539  12.135  1.00  0.00     0.068 C 
HETATM   25  C12 UNL     1      -2.594   4.089  12.066  1.00  0.00     0.083 C 
HETATM   26  C13 UNL     1      -2.283   3.620  10.640  1.00  0.00     0.049 C 
BRANCH  25  27
HETATM   27  O4  UNL     1      -1.722   3.358  12.895  1.00  0.00    -0.388 OA
ATOM     28  H4  UNL     1      -0.853   3.734  12.810  1.00  0.00     0.210 HD
ENDBRANCH  25  27
ENDBRANCH  15  16
ENDBRANCH   1  15
TORSDOF 6
ENDMDL
MODEL 5
REMARK VINA RESULT: -7.349671318      2.622      3.593
REMARK  6 active torsions:
REMARK  status: ('A' for Active; 'I' for Inactive)
REMARK    1  A    between atoms: C3_9  and  C4_10 
REMARK    2  A    between atoms: C4_10  and  O2_12 
REMARK    3  A    between atoms: O2_12  and  C5_13 
REMARK    4  A    between atoms: C5_13  and  C7_15 
REMARK    5  A    between atoms: C7_15  and  C8_16 
REMARK    6  A    between atoms: C12_25  and  O4_27 
ROOT
HETATM    1  C5  UNL     1      -4.172   4.209  13.679  1.00  0.00     0.130 C 
HETATM    2  C6  UNL     1      -3.649   5.429  14.357  1.00  0.00     0.040 C 
ENDROOT
BRANCH   1   3
HETATM    3  O2  UNL     1      -5.526   4.038  14.109  1.00  0.00    -0.311 OA
BRANCH   3   4
HETATM    4  C4  UNL     1      -5.863   3.497  15.336  1.00  0.00     0.314 C 
HETATM    5  O1  UNL     1      -6.632   4.171  16.063  1.00  0.00    -0.257 OA
BRANCH   4   6
HETATM    6  C3  UNL     1      -5.384   2.218  15.819  1.00  0.00     0.148 A 
HETATM    7  C2  UNL     1      -6.045   1.231  16.519  1.00  0.00     0.057 A 
HETATM    8  C1  UNL     1      -7.458   1.281  16.944  1.00  0.00     0.072 C 
HETATM    9  N1  UNL     1      -5.195   0.231  16.746  1.00  0.00    -0.288 N 
HETATM   10  N2  UNL     1      -4.034   0.561  16.213  1.00  0.00    -0.242 N 
ATOM     11  H1  UNL     1      -5.403  -0.635  17.244  1.00  0.00     0.188 HD
HETATM   12  N3  UNL     1      -4.138   1.755  15.653  1.00  0.00    -0.279 N 
ATOM     13  H2  UNL     1      -3.191  -0.013  16.229  1.00  0.00     0.208 HD
ATOM     14  H3  UNL     1      -3.386   2.247  15.170  1.00  0.00     0.189 HD
ENDBRANCH   4   6
ENDBRANCH   3   4
ENDBRANCH   1   3
BRANCH   1  15
HETATM   15  C7  UNL     1      -4.063   4.196  12.193  1.00  0.00     0.067 C 
BRANCH  15  16
HETATM   16  C8  UNL     1      -3.814   2.841  11.613  1.00  0.00     0.166 C 
HETATM   17  O3  UNL     1      -4.004   1.870  12.622  1.00  0.00    -0.330 OA
HETATM   18  C9  UNL     1      -3.826   0.533  12.288  1.00  0.00     0.130 C 
HETATM   19  N4  UNL     1      -4.262  -0.431  13.025  1.00  0.00    -0.382 N 
HETATM   20  C10 UNL     1      -3.095   0.272  11.013  1.00  0.00     0.159 C 
ATOM     21  H42 UNL     1      -4.762  -0.252  13.897  1.00  0.00     0.158 HD
ATOM     22  H41 UNL     1      -4.131  -1.412  12.780  1.00  0.00     0.158 HD
HETATM   23 CL1  UNL     1      -2.324  -1.323  11.181  1.00  0.00    -0.116 Cl
HETATM   24  C11 UNL     1      -2.001   1.291  10.832  1.00  0.00     0.068 C 
HETATM   25  C12 UNL     1      -2.415   2.691  11.095  1.00  0.00     0.083 C 
HETATM   26  C13 UNL     1      -1.411   3.290  12.086  1.00  0.00     0.049 C 
BRANCH  25  27
HETATM   27  O4  UNL     1      -2.297   3.471   9.930  1.00  0.00    -0.388 OA
ATOM     28  H4  UNL     1      -1.616   3.088   9.388  1.00  0.00     0.210 HD
ENDBRANCH  25  27
ENDBRANCH  15  16
ENDBRANCH   1  15
TORSDOF 6
ENDMDL
