MODEL 1
REMARK VINA RESULT: -6.738190363      0.000      0.000
REMARK  6 active torsions:
REMARK  status: ('A' for Active; 'I' for Inactive)
REMARK    1  A    between atoms: C2_2  and  S1_4 
REMARK    2  A    between atoms: S1_4  and  C4_5 
REMARK    3  A    between atoms: C6_7  and  S2_8 
REMARK    4  A    between atoms: S2_8  and  C7_9 
REMARK    5  A    between atoms: C10_17  and  O1_18 
REMARK    6  A    between atoms: C11_20  and  O2_21 
ROOT
HETATM    1  C4  UNL     1      -5.658   2.928  15.188  1.00  0.00     0.085 C 
HETATM    2  C5  UNL     1      -5.320   2.364  13.882  1.00  0.00     0.036 C 
HETATM    3  C6  UNL     1      -4.148   2.996  13.146  1.00  0.00     0.088 C 
HETATM    4  C10 UNL     1      -4.289   4.490  13.229  1.00  0.00     0.164 C 
HETATM    5  C11 UNL     1      -4.171   4.831  14.724  1.00  0.00     0.183 C 
HETATM    6  C12 UNL     1      -5.477   4.429  15.323  1.00  0.00     0.215 C 
HETATM    7  F1  UNL     1      -6.501   5.100  14.663  1.00  0.00    -0.245 F 
ENDROOT
BRANCH   3   8
HETATM    8  S2  UNL     1      -4.233   2.335  11.475  1.00  0.00    -0.085 SA
BRANCH   8   9
HETATM    9  C7  UNL     1      -3.856   0.605  11.353  1.00  0.00     0.162 A 
HETATM   10  N1  UNL     1      -4.642  -0.465  11.499  1.00  0.00    -0.279 N 
HETATM   11  N2  UNL     1      -3.900  -1.531  11.318  1.00  0.00    -0.294 N 
ATOM     12  H1  UNL     1      -5.639  -0.454  11.714  1.00  0.00     0.189 HD
HETATM   13  C8  UNL     1      -2.637  -1.170  11.054  1.00  0.00     0.201 A 
ATOM     14  H2  UNL     1      -4.235  -2.493  11.370  1.00  0.00     0.187 HD
HETATM   15  N3  UNL     1      -2.614   0.171  11.077  1.00  0.00    -0.326 N 
HETATM   16  C9  UNL     1      -1.420   0.993  10.837  1.00  0.00     0.159 C 
ENDBRANCH   8   9
ENDBRANCH   3   8
BRANCH   4  17
HETATM   17  O1  UNL     1      -3.314   5.202  12.602  1.00  0.00    -0.392 OA
ATOM     18  H1  UNL     1      -2.623   5.529  13.166  1.00  0.00     0.210 HD
ENDBRANCH   4  17
BRANCH   1  19
HETATM   19  S1  UNL     1      -5.001   2.106  16.643  1.00  0.00    -0.157 SA
BRANCH  19  20
HETATM   20  C2  UNL     1      -6.235   1.379  17.717  1.00  0.00     0.039 C 
HETATM   21  C1  UNL     1      -6.427   2.262  18.951  1.00  0.00     0.021 C 
HETATM   22  C3  UNL     1      -7.519   1.080  17.004  1.00  0.00     0.021 C 
ENDBRANCH  19  20
ENDBRANCH   1  19
BRANCH   5  23
HETATM   23  O2  UNL     1      -3.858   6.162  14.928  1.00  0.00    -0.390 OA
ATOM     24  H2  UNL     1      -2.953   6.277  15.194  1.00  0.00     0.210 HD
ENDBRANCH   5  23
TORSDOF 6
ENDMDL
MODEL 2
REMARK VINA RESULT: -6.397787421      3.900      6.893
REMARK  6 active torsions:
REMARK  status: ('A' for Active; 'I' for Inactive)
REMARK    1  A    between atoms: C2_2  and  S1_4 
REMARK    2  A    between atoms: S1_4  and  C4_5 
REMARK    3  A    between atoms: C6_7  and  S2_8 
REMARK    4  A    between atoms: S2_8  and  C7_9 
REMARK    5  A    between atoms: C10_17  and  O1_18 
REMARK    6  A    between atoms: C11_20  and  O2_21 
ROOT
HETATM    1  C4  UNL     1      -2.967   1.721  10.983  1.00  0.00     0.085 C 
HETATM    2  C5  UNL     1      -3.624   2.353  12.127  1.00  0.00     0.036 C 
HETATM    3  C6  UNL     1      -3.865   1.477  13.348  1.00  0.00     0.088 C 
HETATM    4  C10 UNL     1      -4.422   0.162  12.882  1.00  0.00     0.164 C 
HETATM    5  C11 UNL     1      -3.311  -0.477  12.032  1.00  0.00     0.183 C 
HETATM    6  C12 UNL     1      -3.328   0.267  10.739  1.00  0.00     0.215 C 
HETATM    7  F1  UNL     1      -4.599   0.172  10.182  1.00  0.00    -0.245 F 
ENDROOT
BRANCH   3   8
HETATM    8  S2  UNL     1      -4.981   2.426  14.392  1.00  0.00    -0.085 SA
BRANCH   8   9
HETATM    9  C7  UNL     1      -5.426   1.620  15.909  1.00  0.00     0.162 A 
HETATM   10  N1  UNL     1      -5.070   0.427  16.393  1.00  0.00    -0.279 N 
HETATM   11  N2  UNL     1      -5.662   0.275  17.553  1.00  0.00    -0.294 N 
ATOM     12  H1  UNL     1      -4.449  -0.245  15.941  1.00  0.00     0.189 HD
HETATM   13  C8  UNL     1      -6.403   1.356  17.833  1.00  0.00     0.201 A 
ATOM     14  H2  UNL     1      -5.573  -0.545  18.153  1.00  0.00     0.187 HD
HETATM   15  N3  UNL     1      -6.252   2.197  16.800  1.00  0.00    -0.326 N 
HETATM   16  C9  UNL     1      -6.891   3.515  16.691  1.00  0.00     0.159 C 
ENDBRANCH   8   9
ENDBRANCH   3   8
BRANCH   4  17
HETATM   17  O1  UNL     1      -4.704  -0.733  13.868  1.00  0.00    -0.392 OA
ATOM     18  H1  UNL     1      -5.155  -1.520  13.586  1.00  0.00     0.210 HD
ENDBRANCH   4  17
BRANCH   1  19
HETATM   19  S1  UNL     1      -1.193   1.941  10.819  1.00  0.00    -0.157 SA
BRANCH  19  20
HETATM   20  C2  UNL     1      -0.686   3.560  10.249  1.00  0.00     0.039 C 
HETATM   21  C1  UNL     1      -0.374   4.453  11.451  1.00  0.00     0.021 C 
HETATM   22  C3  UNL     1       0.435   3.499   9.258  1.00  0.00     0.021 C 
ENDBRANCH  19  20
ENDBRANCH   1  19
BRANCH   5  23
HETATM   23  O2  UNL     1      -3.489  -1.840  11.886  1.00  0.00    -0.390 OA
ATOM     24  H2  UNL     1      -3.010  -2.183  11.142  1.00  0.00     0.210 HD
ENDBRANCH   5  23
TORSDOF 6
ENDMDL
MODEL 3
REMARK VINA RESULT: -6.332687019      3.081      3.891
REMARK  6 active torsions:
REMARK  status: ('A' for Active; 'I' for Inactive)
REMARK    1  A    between atoms: C2_2  and  S1_4 
REMARK    2  A    between atoms: S1_4  and  C4_5 
REMARK    3  A    between atoms: C6_7  and  S2_8 
REMARK    4  A    between atoms: S2_8  and  C7_9 
REMARK    5  A    between atoms: C10_17  and  O1_18 
REMARK    6  A    between atoms: C11_20  and  O2_21 
ROOT
HETATM    1  C4  UNL     1      -5.032   3.096  15.613  1.00  0.00     0.085 C 
HETATM    2  C5  UNL     1      -4.777   3.343  14.194  1.00  0.00     0.036 C 
HETATM    3  C6  UNL     1      -4.917   2.153  13.256  1.00  0.00     0.088 C 
HETATM    4  C10 UNL     1      -4.222   0.976  13.881  1.00  0.00     0.164 C 
HETATM    5  C11 UNL     1      -5.001   0.676  15.173  1.00  0.00     0.183 C 
HETATM    6  C12 UNL     1      -4.590   1.740  16.134  1.00  0.00     0.215 C 
HETATM    7  F1  UNL     1      -3.208   1.707  16.280  1.00  0.00    -0.245 F 
ENDROOT
BRANCH   3   8
HETATM    8  S2  UNL     1      -4.199   2.697  11.699  1.00  0.00    -0.085 SA
BRANCH   8   9
HETATM    9  C7  UNL     1      -2.472   3.099  11.791  1.00  0.00     0.162 A 
HETATM   10  N1  UNL     1      -1.404   2.306  11.913  1.00  0.00    -0.279 N 
HETATM   11  N2  UNL     1      -0.341   3.074  11.942  1.00  0.00    -0.294 N 
ATOM     12  H1  UNL     1      -1.414   1.288  11.974  1.00  0.00     0.189 HD
HETATM   13  C8  UNL     1      -0.702   4.360  11.839  1.00  0.00     0.201 A 
ATOM     14  H2  UNL     1       0.619   2.741  12.029  1.00  0.00     0.187 HD
HETATM   15  N3  UNL     1      -2.040   4.371  11.744  1.00  0.00    -0.326 N 
HETATM   16  C9  UNL     1      -2.861   5.582  11.613  1.00  0.00     0.159 C 
ENDBRANCH   8   9
ENDBRANCH   3   8
BRANCH   4  17
HETATM   17  O1  UNL     1      -4.249  -0.171  13.149  1.00  0.00    -0.392 OA
ATOM     18  H1  UNL     1      -4.908  -0.804  13.411  1.00  0.00     0.210 HD
ENDBRANCH   4  17
BRANCH   1  19
HETATM   19  S1  UNL     1      -6.668   3.483  16.242  1.00  0.00    -0.157 SA
BRANCH  19  20
HETATM   20  C2  UNL     1      -7.227   2.433  17.580  1.00  0.00     0.039 C 
HETATM   21  C1  UNL     1      -7.732   1.105  17.015  1.00  0.00     0.021 C 
HETATM   22  C3  UNL     1      -6.192   2.259  18.649  1.00  0.00     0.021 C 
ENDBRANCH  19  20
ENDBRANCH   1  19
BRANCH   5  23
HETATM   23  O2  UNL     1      -4.764  -0.605  15.634  1.00  0.00    -0.390 OA
ATOM     24  H2  UNL     1      -3.941  -0.952  15.311  1.00  0.00     0.210 HD
ENDBRANCH   5  23
TORSDOF 6
ENDMDL
MODEL 4
REMARK VINA RESULT: -6.274832395      3.602      4.285
REMARK  6 active torsions:
REMARK  status: ('A' for Active; 'I' for Inactive)
REMARK    1  A    between atoms: C2_2  and  S1_4 
REMARK    2  A    between atoms: S1_4  and  C4_5 
REMARK    3  A    between atoms: C6_7  and  S2_8 
REMARK    4  A    between atoms: S2_8  and  C7_9 
REMARK    5  A    between atoms: C10_17  and  O1_18 
REMARK    6  A    between atoms: C11_20  and  O2_21 
ROOT
HETATM    1  C4  UNL     1      -4.378   2.659  13.966  1.00  0.00     0.085 C 
HETATM    2  C5  UNL     1      -3.691   3.818  13.397  1.00  0.00     0.036 C 
HETATM    3  C6  UNL     1      -4.036   4.181  11.960  1.00  0.00     0.088 C 
HETATM    4  C10 UNL     1      -4.040   2.920  11.143  1.00  0.00     0.164 C 
HETATM    5  C11 UNL     1      -5.179   2.061  11.718  1.00  0.00     0.183 C 
HETATM    6  C12 UNL     1      -4.650   1.517  13.003  1.00  0.00     0.215 C 
HETATM    7  F1  UNL     1      -3.478   0.814  12.746  1.00  0.00    -0.245 F 
ENDROOT
BRANCH   3   8
HETATM    8  S2  UNL     1      -2.788   5.379  11.467  1.00  0.00    -0.085 SA
BRANCH   8   9
HETATM    9  C7  UNL     1      -1.155   4.705  11.294  1.00  0.00     0.162 A 
HETATM   10  N1  UNL     1      -0.241   4.401  12.220  1.00  0.00    -0.279 N 
HETATM   11  N2  UNL     1       0.814   3.934  11.597  1.00  0.00    -0.294 N 
ATOM     12  H1  UNL     1      -0.346   4.512  13.228  1.00  0.00     0.189 HD
HETATM   13  C8  UNL     1       0.601   3.929  10.275  1.00  0.00     0.201 A 
ATOM     14  H2  UNL     1       1.672   3.620  12.053  1.00  0.00     0.187 HD
HETATM   15  N3  UNL     1      -0.636   4.414  10.089  1.00  0.00    -0.326 N 
HETATM   16  C9  UNL     1      -1.282   4.584   8.780  1.00  0.00     0.159 C 
ENDBRANCH   8   9
ENDBRANCH   3   8
BRANCH   4  17
HETATM   17  O1  UNL     1      -4.322   3.084   9.821  1.00  0.00    -0.392 OA
ATOM     18  H1  UNL     1      -5.247   3.131   9.607  1.00  0.00     0.210 HD
ENDBRANCH   4  17
BRANCH   1  19
HETATM   19  S1  UNL     1      -5.837   2.968  14.965  1.00  0.00    -0.157 SA
BRANCH  19  20
HETATM   20  C2  UNL     1      -5.837   2.164  16.565  1.00  0.00     0.039 C 
HETATM   21  C1  UNL     1      -7.258   1.723  16.919  1.00  0.00     0.021 C 
HETATM   22  C3  UNL     1      -4.838   1.051  16.652  1.00  0.00     0.021 C 
ENDBRANCH  19  20
ENDBRANCH   1  19
BRANCH   5  23
HETATM   23  O2  UNL     1      -5.587   1.082  10.832  1.00  0.00    -0.390 OA
ATOM     24  H2  UNL     1      -6.411   1.303  10.414  1.00  0.00     0.210 HD
ENDBRANCH   5  23
TORSDOF 6
ENDMDL
MODEL 5
REMARK VINA RESULT: -6.223211552      1.743      2.431
REMARK  6 active torsions:
REMARK  status: ('A' for Active; 'I' for Inactive)
REMARK    1  A    between atoms: C2_2  and  S1_4 
REMARK    2  A    between atoms: S1_4  and  C4_5 
REMARK    3  A    between atoms: C6_7  and  S2_8 
REMARK    4  A    between atoms: S2_8  and  C7_9 
REMARK    5  A    between atoms: C10_17  and  O1_18 
REMARK    6  A    between atoms: C11_20  and  O2_21 
ROOT
HETATM    1  C4  UNL     1      -5.609   2.749  15.087  1.00  0.00     0.085 C 
HETATM    2  C5  UNL     1      -5.106   2.383  13.764  1.00  0.00     0.036 C 
HETATM    3  C6  UNL     1      -3.958   3.216  13.213  1.00  0.00     0.088 C 
HETATM    4  C10 UNL     1      -4.274   4.666  13.447  1.00  0.00     0.164 C 
HETATM    5  C11 UNL     1      -4.315   4.838  14.975  1.00  0.00     0.183 C 
HETATM    6  C12 UNL     1      -5.610   4.234  15.403  1.00  0.00     0.215 C 
HETATM    7  F1  UNL     1      -6.647   4.869  14.728  1.00  0.00    -0.245 F 
ENDROOT
BRANCH   3   8
HETATM    8  S2  UNL     1      -3.833   2.755  11.479  1.00  0.00    -0.085 SA
BRANCH   8   9
HETATM    9  C7  UNL     1      -2.285   3.174  10.720  1.00  0.00     0.162 A 
HETATM   10  N1  UNL     1      -1.834   4.345  10.262  1.00  0.00    -0.279 N 
HETATM   11  N2  UNL     1      -0.628   4.147   9.785  1.00  0.00    -0.294 N 
ATOM     12  H1  UNL     1      -2.336   5.232  10.281  1.00  0.00     0.189 HD
HETATM   13  C8  UNL     1      -0.286   2.859   9.925  1.00  0.00     0.201 A 
ATOM     14  H2  UNL     1      -0.038   4.867   9.368  1.00  0.00     0.187 HD
HETATM   15  N3  UNL     1      -1.328   2.252  10.512  1.00  0.00    -0.326 N 
HETATM   16  C9  UNL     1      -1.382   0.825  10.856  1.00  0.00     0.159 C 
ENDBRANCH   8   9
ENDBRANCH   3   8
BRANCH   4  17
HETATM   17  O1  UNL     1      -3.338   5.546  12.995  1.00  0.00    -0.392 OA
ATOM     18  H1  UNL     1      -2.969   6.122  13.655  1.00  0.00     0.210 HD
ENDBRANCH   4  17
BRANCH   1  19
HETATM   19  S1  UNL     1      -4.982   1.831  16.497  1.00  0.00    -0.157 SA
BRANCH  19  20
HETATM   20  C2  UNL     1      -6.229   1.316  17.674  1.00  0.00     0.039 C 
HETATM   21  C1  UNL     1      -6.340   2.354  18.791  1.00  0.00     0.021 C 
HETATM   22  C3  UNL     1      -7.544   1.009  17.026  1.00  0.00     0.021 C 
ENDBRANCH  19  20
ENDBRANCH   1  19
BRANCH   5  23
HETATM   23  O2  UNL     1      -4.171   6.159  15.352  1.00  0.00    -0.390 OA
ATOM     24  H2  UNL     1      -5.011   6.589  15.467  1.00  0.00     0.210 HD
ENDBRANCH   5  23
TORSDOF 6
ENDMDL
