MODEL 1
REMARK VINA RESULT: -5.853124978      0.000      0.000
REMARK  9 active torsions:
REMARK  status: ('A' for Active; 'I' for Inactive)
REMARK    1  A    between atoms: O1_2  and  C2_3 
REMARK    2  A    between atoms: C2_3  and  C3_5 
REMARK    3  A    between atoms: C4_6  and  C5_7 
REMARK    4  A    between atoms: C5_7  and  C6_8 
REMARK    5  A    between atoms: C6_8  and  N1_9 
REMARK    6  A    between atoms: N1_9  and  C7_11 
REMARK    7  A    between atoms: C7_11  and  C8_12 
REMARK    8  A    between atoms: C8_12  and  O3_13 
REMARK    9  A    between atoms: S2_21  and  S3_22 
ROOT
HETATM    1  C3  UNL     1      -3.456   3.589  12.014  1.00  0.00     0.163 C 
HETATM    2  C4  UNL     1      -3.696   4.353  13.272  1.00  0.00     0.045 C 
HETATM    3  C9  UNL     1      -3.829   5.828  13.124  1.00  0.00     0.067 C 
HETATM    4  C10 UNL     1      -3.586   6.424  14.520  1.00  0.00     0.047 C 
HETATM    5  C11 UNL     1      -5.172   6.316  12.681  1.00  0.00     0.047 C 
HETATM    6  O4  UNL     1      -2.788   6.405  12.335  1.00  0.00    -0.324 OA
HETATM    7  C12 UNL     1      -1.633   5.749  11.959  1.00  0.00     0.177 C 
HETATM    8  S1  UNL     1      -0.142   6.307  12.178  1.00  0.00    -0.045 SA
HETATM    9  S2  UNL     1      -1.949   4.177  11.186  1.00  0.00    -0.060 SA
ENDROOT
BRANCH   2  10
HETATM   10  C5  UNL     1      -4.795   3.785  14.072  1.00  0.00     0.029 C 
BRANCH  10  11
HETATM   11  C6  UNL     1      -4.310   2.894  15.230  1.00  0.00     0.119 C 
BRANCH  11  12
HETATM   12  N1  UNL     1      -4.260   1.579  14.718  1.00  0.00    -0.400 N 
ATOM     13  H1  UNL     1      -3.963   1.420  13.755  1.00  0.00     0.158 HD
BRANCH  12  14
HETATM   14  C7  UNL     1      -4.615   0.490  15.529  1.00  0.00     0.081 C 
BRANCH  14  15
HETATM   15  C8  UNL     1      -5.538   0.784  16.676  1.00  0.00     0.208 C 
BRANCH  15  16
HETATM   16  O3  UNL     1      -6.071  -0.382  17.173  1.00  0.00    -0.396 OA
ATOM     17  H3  UNL     1      -6.293  -0.279  18.091  1.00  0.00     0.209 HD
ENDBRANCH  15  16
ENDBRANCH  14  15
ENDBRANCH  12  14
ENDBRANCH  11  12
ENDBRANCH  10  11
ENDBRANCH   2  10
BRANCH   1  18
HETATM   18  C2  UNL     1      -4.594   3.431  11.117  1.00  0.00     0.273 C 
HETATM   19  O2  UNL     1      -4.981   4.389  10.357  1.00  0.00    -0.264 OA
BRANCH  18  20
HETATM   20  O1  UNL     1      -5.365   2.290  10.969  1.00  0.00    -0.326 OA
HETATM   21  C1  UNL     1      -4.975   0.983  11.217  1.00  0.00     0.213 C 
ENDBRANCH  18  20
ENDBRANCH   1  18
BRANCH   9  22
HETATM   22  S3  UNL     1      -2.216   4.547   9.346  1.00  0.00     0.011 SA
HETATM   23 CL1  UNL     1      -0.670   3.545   8.315  1.00  0.00    -0.032 Cl
ENDBRANCH   9  22
TORSDOF 9
ENDMDL
MODEL 2
REMARK VINA RESULT: -5.832741003      1.679      1.777
REMARK  9 active torsions:
REMARK  status: ('A' for Active; 'I' for Inactive)
REMARK    1  A    between atoms: O1_2  and  C2_3 
REMARK    2  A    between atoms: C2_3  and  C3_5 
REMARK    3  A    between atoms: C4_6  and  C5_7 
REMARK    4  A    between atoms: C5_7  and  C6_8 
REMARK    5  A    between atoms: C6_8  and  N1_9 
REMARK    6  A    between atoms: N1_9  and  C7_11 
REMARK    7  A    between atoms: C7_11  and  C8_12 
REMARK    8  A    between atoms: C8_12  and  O3_13 
REMARK    9  A    between atoms: S2_21  and  S3_22 
ROOT
HETATM    1  C3  UNL     1      -3.392   3.659  12.520  1.00  0.00     0.163 C 
HETATM    2  C4  UNL     1      -3.893   5.021  12.863  1.00  0.00     0.045 C 
HETATM    3  C9  UNL     1      -3.845   6.030  11.770  1.00  0.00     0.067 C 
HETATM    4  C10 UNL     1      -3.936   7.405  12.449  1.00  0.00     0.047 C 
HETATM    5  C11 UNL     1      -4.965   5.967  10.781  1.00  0.00     0.047 C 
HETATM    6  O4  UNL     1      -2.579   6.074  11.109  1.00  0.00    -0.324 OA
HETATM    7  C12 UNL     1      -1.432   5.461  11.570  1.00  0.00     0.177 C 
HETATM    8  S1  UNL     1      -0.011   6.188  11.762  1.00  0.00    -0.045 SA
HETATM    9  S2  UNL     1      -1.669   3.737  11.948  1.00  0.00    -0.060 SA
ENDROOT
BRANCH   2  10
HETATM   10  C5  UNL     1      -5.217   4.985  13.511  1.00  0.00     0.029 C 
BRANCH  10  11
HETATM   11  C6  UNL     1      -5.183   4.401  14.935  1.00  0.00     0.119 C 
BRANCH  11  12
HETATM   12  N1  UNL     1      -5.953   3.219  14.893  1.00  0.00    -0.400 N 
ATOM     13  H1  UNL     1      -6.796   3.182  14.320  1.00  0.00     0.158 HD
BRANCH  12  14
HETATM   14  C7  UNL     1      -5.562   2.093  15.635  1.00  0.00     0.081 C 
BRANCH  14  15
HETATM   15  C8  UNL     1      -4.117   2.028  16.039  1.00  0.00     0.208 C 
BRANCH  15  16
HETATM   16  O3  UNL     1      -3.751   0.728  16.299  1.00  0.00    -0.396 OA
ATOM     17  H3  UNL     1      -3.726   0.225  15.493  1.00  0.00     0.209 HD
ENDBRANCH  15  16
ENDBRANCH  14  15
ENDBRANCH  12  14
ENDBRANCH  11  12
ENDBRANCH  10  11
ENDBRANCH   2  10
BRANCH   1  18
HETATM   18  C2  UNL     1      -4.252   2.838  11.678  1.00  0.00     0.273 C 
HETATM   19  O2  UNL     1      -4.372   3.069  10.421  1.00  0.00    -0.264 OA
BRANCH  18  20
HETATM   20  O1  UNL     1      -5.012   1.757  12.093  1.00  0.00    -0.326 OA
HETATM   21  C1  UNL     1      -4.542   0.520  12.509  1.00  0.00     0.213 C 
ENDBRANCH  18  20
ENDBRANCH   1  18
BRANCH   9  22
HETATM   22  S3  UNL     1      -1.391   2.805  10.321  1.00  0.00     0.011 SA
HETATM   23 CL1  UNL     1      -1.470   0.750  10.800  1.00  0.00    -0.032 Cl
ENDBRANCH   9  22
TORSDOF 9
ENDMDL
MODEL 3
REMARK VINA RESULT: -5.613716525      3.427      4.667
REMARK  9 active torsions:
REMARK  status: ('A' for Active; 'I' for Inactive)
REMARK    1  A    between atoms: O1_2  and  C2_3 
REMARK    2  A    between atoms: C2_3  and  C3_5 
REMARK    3  A    between atoms: C4_6  and  C5_7 
REMARK    4  A    between atoms: C5_7  and  C6_8 
REMARK    5  A    between atoms: C6_8  and  N1_9 
REMARK    6  A    between atoms: N1_9  and  C7_11 
REMARK    7  A    between atoms: C7_11  and  C8_12 
REMARK    8  A    between atoms: C8_12  and  O3_13 
REMARK    9  A    between atoms: S2_21  and  S3_22 
ROOT
HETATM    1  C3  UNL     1      -3.861   3.105  11.825  1.00  0.00     0.163 C 
HETATM    2  C4  UNL     1      -2.821   2.621  10.871  1.00  0.00     0.045 C 
HETATM    3  C9  UNL     1      -1.596   3.459  10.759  1.00  0.00     0.067 C 
HETATM    4  C10 UNL     1      -0.925   3.065   9.434  1.00  0.00     0.047 C 
HETATM    5  C11 UNL     1      -0.575   3.258  11.832  1.00  0.00     0.047 C 
HETATM    6  O4  UNL     1      -1.886   4.846  10.580  1.00  0.00    -0.324 OA
HETATM    7  C12 UNL     1      -3.133   5.354  10.276  1.00  0.00     0.177 C 
HETATM    8  S1  UNL     1      -3.448   6.360   9.062  1.00  0.00    -0.045 SA
HETATM    9  S2  UNL     1      -4.405   4.780  11.381  1.00  0.00    -0.060 SA
ENDROOT
BRANCH   2  10
HETATM   10  C5  UNL     1      -2.490   1.199  11.076  1.00  0.00     0.029 C 
BRANCH  10  11
HETATM   11  C6  UNL     1      -3.656   0.248  10.750  1.00  0.00     0.119 C 
BRANCH  11  12
HETATM   12  N1  UNL     1      -3.893  -0.499  11.924  1.00  0.00    -0.400 N 
ATOM     13  H1  UNL     1      -3.953  -0.024  12.825  1.00  0.00     0.158 HD
BRANCH  12  14
HETATM   14  C7  UNL     1      -4.048  -1.892  11.857  1.00  0.00     0.081 C 
BRANCH  14  15
HETATM   15  C8  UNL     1      -2.884  -2.668  11.310  1.00  0.00     0.208 C 
BRANCH  15  16
HETATM   16  O3  UNL     1      -3.098  -4.019  11.456  1.00  0.00    -0.396 OA
ATOM     17  H3  UNL     1      -3.720  -4.181  12.156  1.00  0.00     0.209 HD
ENDBRANCH  15  16
ENDBRANCH  14  15
ENDBRANCH  12  14
ENDBRANCH  11  12
ENDBRANCH  10  11
ENDBRANCH   2  10
BRANCH   1  18
HETATM   18  C2  UNL     1      -3.575   2.938  13.244  1.00  0.00     0.273 C 
HETATM   19  O2  UNL     1      -2.819   3.761  13.873  1.00  0.00    -0.264 OA
BRANCH  18  20
HETATM   20  O1  UNL     1      -4.056   1.928  14.061  1.00  0.00    -0.326 OA
HETATM   21  C1  UNL     1      -5.082   2.025  14.989  1.00  0.00     0.213 C 
ENDBRANCH  18  20
ENDBRANCH   1  18
BRANCH   9  22
HETATM   22  S3  UNL     1      -4.391   5.973  12.854  1.00  0.00     0.011 SA
HETATM   23 CL1  UNL     1      -6.042   5.440  14.057  1.00  0.00    -0.032 Cl
ENDBRANCH   9  22
TORSDOF 9
ENDMDL
MODEL 4
REMARK VINA RESULT: -5.522282295      3.588      5.863
REMARK  9 active torsions:
REMARK  status: ('A' for Active; 'I' for Inactive)
REMARK    1  A    between atoms: O1_2  and  C2_3 
REMARK    2  A    between atoms: C2_3  and  C3_5 
REMARK    3  A    between atoms: C4_6  and  C5_7 
REMARK    4  A    between atoms: C5_7  and  C6_8 
REMARK    5  A    between atoms: C6_8  and  N1_9 
REMARK    6  A    between atoms: N1_9  and  C7_11 
REMARK    7  A    between atoms: C7_11  and  C8_12 
REMARK    8  A    between atoms: C8_12  and  O3_13 
REMARK    9  A    between atoms: S2_21  and  S3_22 
ROOT
HETATM    1  C3  UNL     1      -3.211   3.368  12.209  1.00  0.00     0.163 C 
HETATM    2  C4  UNL     1      -3.178   1.883  12.076  1.00  0.00     0.045 C 
HETATM    3  C9  UNL     1      -4.485   1.185  12.215  1.00  0.00     0.067 C 
HETATM    4  C10 UNL     1      -4.158  -0.284  12.524  1.00  0.00     0.047 C 
HETATM    5  C11 UNL     1      -5.351   1.183  10.996  1.00  0.00     0.047 C 
HETATM    6  O4  UNL     1      -5.220   1.606  13.366  1.00  0.00    -0.324 OA
HETATM    7  C12 UNL     1      -4.702   2.368  14.393  1.00  0.00     0.177 C 
HETATM    8  S1  UNL     1      -4.789   1.996  15.954  1.00  0.00    -0.045 SA
HETATM    9  S2  UNL     1      -3.900   3.851  13.819  1.00  0.00    -0.060 SA
ENDROOT
BRANCH   2  10
HETATM   10  C5  UNL     1      -2.454   1.444  10.870  1.00  0.00     0.029 C 
BRANCH  10  11
HETATM   11  C6  UNL     1      -0.962   1.827  10.881  1.00  0.00     0.119 C 
BRANCH  11  12
HETATM   12  N1  UNL     1      -0.756   2.634   9.741  1.00  0.00    -0.400 N 
ATOM     13  H1  UNL     1      -1.304   2.469   8.896  1.00  0.00     0.158 HD
BRANCH  12  14
HETATM   14  C7  UNL     1       0.198   3.663   9.766  1.00  0.00     0.081 C 
BRANCH  14  15
HETATM   15  C8  UNL     1       0.438   4.319  11.095  1.00  0.00     0.208 C 
BRANCH  15  16
HETATM   16  O3  UNL     1      -0.391   5.405  11.250  1.00  0.00    -0.396 OA
ATOM     17  H3  UNL     1       0.118   6.205  11.304  1.00  0.00     0.209 HD
ENDBRANCH  15  16
ENDBRANCH  14  15
ENDBRANCH  12  14
ENDBRANCH  11  12
ENDBRANCH  10  11
ENDBRANCH   2  10
BRANCH   1  18
HETATM   18  C2  UNL     1      -3.768   4.113  11.087  1.00  0.00     0.273 C 
HETATM   19  O2  UNL     1      -5.032   4.148  10.871  1.00  0.00    -0.264 OA
BRANCH  18  20
HETATM   20  O1  UNL     1      -3.050   4.846  10.156  1.00  0.00    -0.326 OA
HETATM   21  C1  UNL     1      -3.369   5.035   8.820  1.00  0.00     0.213 C 
ENDBRANCH  18  20
ENDBRANCH   1  18
BRANCH   9  22
HETATM   22  S3  UNL     1      -5.265   5.158  13.675  1.00  0.00     0.011 SA
HETATM   23 CL1  UNL     1      -6.293   5.140  15.519  1.00  0.00    -0.032 Cl
ENDBRANCH   9  22
TORSDOF 9
ENDMDL
MODEL 5
REMARK VINA RESULT: -5.486709647      1.734      1.923
REMARK  9 active torsions:
REMARK  status: ('A' for Active; 'I' for Inactive)
REMARK    1  A    between atoms: O1_2  and  C2_3 
REMARK    2  A    between atoms: C2_3  and  C3_5 
REMARK    3  A    between atoms: C4_6  and  C5_7 
REMARK    4  A    between atoms: C5_7  and  C6_8 
REMARK    5  A    between atoms: C6_8  and  N1_9 
REMARK    6  A    between atoms: N1_9  and  C7_11 
REMARK    7  A    between atoms: C7_11  and  C8_12 
REMARK    8  A    between atoms: C8_12  and  O3_13 
REMARK    9  A    between atoms: S2_21  and  S3_22 
ROOT
HETATM    1  C3  UNL     1      -2.133   3.736  12.246  1.00  0.00     0.163 C 
HETATM    2  C4  UNL     1      -3.016   4.890  12.583  1.00  0.00     0.045 C 
HETATM    3  C9  UNL     1      -3.489   5.708  11.433  1.00  0.00     0.067 C 
HETATM    4  C10 UNL     1      -3.945   7.053  12.020  1.00  0.00     0.047 C 
HETATM    5  C11 UNL     1      -4.656   5.152  10.681  1.00  0.00     0.047 C 
HETATM    6  O4  UNL     1      -2.435   6.078  10.542  1.00  0.00    -0.324 OA
HETATM    7  C12 UNL     1      -1.090   5.942  10.819  1.00  0.00     0.177 C 
HETATM    8  S1  UNL     1       0.003   7.113  10.688  1.00  0.00    -0.045 SA
HETATM    9  S2  UNL     1      -0.655   4.300  11.354  1.00  0.00    -0.060 SA
ENDROOT
BRANCH   2  10
HETATM   10  C5  UNL     1      -4.128   4.506  13.470  1.00  0.00     0.029 C 
BRANCH  10  11
HETATM   11  C6  UNL     1      -3.686   4.237  14.921  1.00  0.00     0.119 C 
BRANCH  11  12
HETATM   12  N1  UNL     1      -3.821   2.847  15.121  1.00  0.00    -0.400 N 
ATOM     13  H1  UNL     1      -3.044   2.224  14.900  1.00  0.00     0.158 HD
BRANCH  12  14
HETATM   14  C7  UNL     1      -5.020   2.317  15.623  1.00  0.00     0.081 C 
BRANCH  14  15
HETATM   15  C8  UNL     1      -5.008   0.859  15.982  1.00  0.00     0.208 C 
BRANCH  15  16
HETATM   16  O3  UNL     1      -3.716   0.415  16.137  1.00  0.00    -0.396 OA
ATOM     17  H3  UNL     1      -3.240   0.984  16.731  1.00  0.00     0.209 HD
ENDBRANCH  15  16
ENDBRANCH  14  15
ENDBRANCH  12  14
ENDBRANCH  11  12
ENDBRANCH  10  11
ENDBRANCH   2  10
BRANCH   1  18
HETATM   18  C2  UNL     1      -2.775   2.576  11.641  1.00  0.00     0.273 C 
HETATM   19  O2  UNL     1      -3.066   2.551  10.392  1.00  0.00    -0.264 OA
BRANCH  18  20
HETATM   20  O1  UNL     1      -3.136   1.409  12.294  1.00  0.00    -0.326 OA
HETATM   21  C1  UNL     1      -4.357   0.754  12.216  1.00  0.00     0.213 C 
ENDBRANCH  18  20
ENDBRANCH   1  18
BRANCH   9  22
HETATM   22  S3  UNL     1      -0.326   3.308   9.772  1.00  0.00     0.011 SA
HETATM   23 CL1  UNL     1       1.734   3.526   9.360  1.00  0.00    -0.032 Cl
ENDBRANCH   9  22
TORSDOF 9
ENDMDL
