MODEL 1
REMARK VINA RESULT: -6.416622373      0.000      0.000
REMARK  8 active torsions:
REMARK  status: ('A' for Active; 'I' for Inactive)
REMARK    1  A    between atoms: C2_2  and  O1_3 
REMARK    2  A    between atoms: O1_3  and  C3_4 
REMARK    3  A    between atoms: C3_4  and  C4_5 
REMARK    4  A    between atoms: C3_4  and  C6_7 
REMARK       I    between atoms: N1_9  and  C8_10 
REMARK    5  A    between atoms: C8_10  and  C9_12 
REMARK    6  A    between atoms: C9_12  and  S1_13 
REMARK    7  A    between atoms: S1_13  and  C10_14 
REMARK    8  A    between atoms: C11_17  and  N3_18 
ROOT
HETATM    1  C6  UNL     1      -4.850   3.703  14.485  1.00  0.00     0.071 C 
HETATM    2  C7  UNL     1      -3.437   3.431  13.931  1.00  0.00     0.169 C 
HETATM    3  N1  UNL     1      -3.505   4.286  12.761  1.00  0.00    -0.224 N 
HETATM    4  C8  UNL     1      -2.530   4.344  11.749  1.00  0.00     0.253 C 
HETATM    5  O2  UNL     1      -2.651   5.110  10.760  1.00  0.00    -0.270 OA
HETATM    6  O3  UNL     1      -4.635   5.027  12.765  1.00  0.00    -0.264 OA
HETATM    7  C12 UNL     1      -4.988   5.117  14.155  1.00  0.00     0.089 C 
HETATM    8  C13 UNL     1      -4.020   6.103  14.691  1.00  0.00     0.049 C 
HETATM    9  C14 UNL     1      -6.410   5.636  14.144  1.00  0.00     0.049 C 
ENDROOT
BRANCH   4  10
HETATM   10  C9  UNL     1      -1.306   3.500  11.799  1.00  0.00     0.187 C 
BRANCH  10  11
HETATM   11  S1  UNL     1      -1.281   2.246  10.513  1.00  0.00    -0.084 SA
BRANCH  11  12
HETATM   12  C10 UNL     1      -2.508   0.940  10.850  1.00  0.00     0.152 A 
HETATM   13  N2  UNL     1      -2.157  -0.290  11.038  1.00  0.00    -0.316 N 
HETATM   14  C11 UNL     1      -3.089  -1.203  11.279  1.00  0.00     0.160 A 
ATOM     15  H2  UNL     1      -1.174  -0.556  11.001  1.00  0.00     0.170 HD
HETATM   16  S2  UNL     1      -4.510  -0.258  11.232  1.00  0.00     0.024 SA
HETATM   17  N4  UNL     1      -3.810   1.242  10.907  1.00  0.00    -0.304 N 
ATOM     18  H4  UNL     1      -4.264   2.147  10.785  1.00  0.00     0.176 HD
BRANCH  14  19
HETATM   19  N3  UNL     1      -2.936  -2.491  11.494  1.00  0.00    -0.378 N 
ATOM     20  H32 UNL     1      -2.191  -2.992  11.978  1.00  0.00     0.158 HD
ATOM     21  H31 UNL     1      -3.546  -3.258  11.213  1.00  0.00     0.158 HD
ENDBRANCH  14  19
ENDBRANCH  11  12
ENDBRANCH  10  11
ENDBRANCH   4  10
BRANCH   1  22
HETATM   22  C3  UNL     1      -5.176   3.071  15.728  1.00  0.00     0.129 C 
BRANCH  22  23
HETATM   23  O1  UNL     1      -4.296   2.064  16.097  1.00  0.00    -0.386 OA
BRANCH  23  24
HETATM   24  C2  UNL     1      -4.855   0.798  16.090  1.00  0.00     0.163 C 
HETATM   25  C1  UNL     1      -4.386  -0.083  14.959  1.00  0.00     0.033 C 
ENDBRANCH  23  24
ENDBRANCH  22  23
BRANCH  22  26
HETATM   26  C4  UNL     1      -6.549   2.609  16.066  1.00  0.00     0.028 C 
HETATM   27  C5  UNL     1      -7.260   3.398  17.133  1.00  0.00     0.007 C 
ENDBRANCH  22  26
ENDBRANCH   1  22
TORSDOF 8
ENDMDL
MODEL 2
REMARK VINA RESULT: -6.271728446      1.939      3.157
REMARK  8 active torsions:
REMARK  status: ('A' for Active; 'I' for Inactive)
REMARK    1  A    between atoms: C2_2  and  O1_3 
REMARK    2  A    between atoms: O1_3  and  C3_4 
REMARK    3  A    between atoms: C3_4  and  C4_5 
REMARK    4  A    between atoms: C3_4  and  C6_7 
REMARK       I    between atoms: N1_9  and  C8_10 
REMARK    5  A    between atoms: C8_10  and  C9_12 
REMARK    6  A    between atoms: C9_12  and  S1_13 
REMARK    7  A    between atoms: S1_13  and  C10_14 
REMARK    8  A    between atoms: C11_17  and  N3_18 
ROOT
HETATM    1  C6  UNL     1      -4.609   5.321  13.290  1.00  0.00     0.071 C 
HETATM    2  C7  UNL     1      -4.108   4.221  12.333  1.00  0.00     0.169 C 
HETATM    3  N1  UNL     1      -2.762   4.723  12.128  1.00  0.00    -0.224 N 
HETATM    4  C8  UNL     1      -1.841   4.201  11.202  1.00  0.00     0.253 C 
HETATM    5  O2  UNL     1      -0.688   4.685  11.075  1.00  0.00    -0.270 OA
HETATM    6  O3  UNL     1      -2.502   5.766  12.946  1.00  0.00    -0.264 OA
HETATM    7  C12 UNL     1      -3.393   5.570  14.056  1.00  0.00     0.089 C 
HETATM    8  C13 UNL     1      -2.754   4.469  14.816  1.00  0.00     0.049 C 
HETATM    9  C14 UNL     1      -3.361   6.890  14.796  1.00  0.00     0.049 C 
ENDROOT
BRANCH   4  10
HETATM   10  C9  UNL     1      -2.187   3.050  10.325  1.00  0.00     0.187 C 
BRANCH  10  11
HETATM   11  S1  UNL     1      -1.307   1.550  10.776  1.00  0.00    -0.084 SA
BRANCH  11  12
HETATM   12  C10 UNL     1      -2.471   0.203  11.168  1.00  0.00     0.152 A 
HETATM   13  N2  UNL     1      -2.133  -1.040  11.059  1.00  0.00    -0.316 N 
HETATM   14  C11 UNL     1      -3.017  -1.983  11.355  1.00  0.00     0.160 A 
ATOM     15  H2  UNL     1      -1.196  -1.294  10.747  1.00  0.00     0.170 HD
HETATM   16  S2  UNL     1      -4.374  -1.048  11.803  1.00  0.00     0.024 SA
HETATM   17  N4  UNL     1      -3.712   0.487  11.580  1.00  0.00    -0.304 N 
ATOM     18  H4  UNL     1      -4.147   1.398  11.722  1.00  0.00     0.176 HD
BRANCH  14  19
HETATM   19  N3  UNL     1      -2.868  -3.288  11.309  1.00  0.00    -0.378 N 
ATOM     20  H32 UNL     1      -2.907  -3.981  12.057  1.00  0.00     0.158 HD
ATOM     21  H31 UNL     1      -2.681  -3.878  10.498  1.00  0.00     0.158 HD
ENDBRANCH  14  19
ENDBRANCH  11  12
ENDBRANCH  10  11
ENDBRANCH   4  10
BRANCH   1  22
HETATM   22  C3  UNL     1      -5.934   5.156  13.805  1.00  0.00     0.129 C 
BRANCH  22  23
HETATM   23  O1  UNL     1      -6.846   6.086  13.328  1.00  0.00    -0.386 OA
BRANCH  23  24
HETATM   24  C2  UNL     1      -6.357   6.880  12.306  1.00  0.00     0.163 C 
HETATM   25  C1  UNL     1      -7.361   7.851  11.738  1.00  0.00     0.033 C 
ENDBRANCH  23  24
ENDBRANCH  22  23
BRANCH  22  26
HETATM   26  C4  UNL     1      -6.222   4.951  15.251  1.00  0.00     0.028 C 
HETATM   27  C5  UNL     1      -6.455   3.525  15.676  1.00  0.00     0.007 C 
ENDBRANCH  22  26
ENDBRANCH   1  22
TORSDOF 8
ENDMDL
MODEL 3
REMARK VINA RESULT: -6.248342529      2.118      3.184
REMARK  8 active torsions:
REMARK  status: ('A' for Active; 'I' for Inactive)
REMARK    1  A    between atoms: C2_2  and  O1_3 
REMARK    2  A    between atoms: O1_3  and  C3_4 
REMARK    3  A    between atoms: C3_4  and  C4_5 
REMARK    4  A    between atoms: C3_4  and  C6_7 
REMARK       I    between atoms: N1_9  and  C8_10 
REMARK    5  A    between atoms: C8_10  and  C9_12 
REMARK    6  A    between atoms: C9_12  and  S1_13 
REMARK    7  A    between atoms: S1_13  and  C10_14 
REMARK    8  A    between atoms: C11_17  and  N3_18 
ROOT
HETATM    1  C6  UNL     1      -5.448   3.175  14.346  1.00  0.00     0.071 C 
HETATM    2  C7  UNL     1      -4.733   2.066  13.550  1.00  0.00     0.169 C 
HETATM    3  N1  UNL     1      -4.709   2.722  12.256  1.00  0.00    -0.224 N 
HETATM    4  C8  UNL     1      -4.296   2.118  11.054  1.00  0.00     0.253 C 
HETATM    5  O2  UNL     1      -4.301   2.746   9.966  1.00  0.00    -0.270 OA
HETATM    6  O3  UNL     1      -5.139   4.000  12.350  1.00  0.00    -0.264 OA
HETATM    7  C12 UNL     1      -4.872   4.358  13.716  1.00  0.00     0.089 C 
HETATM    8  C13 UNL     1      -3.404   4.568  13.732  1.00  0.00     0.049 C 
HETATM    9  C14 UNL     1      -5.651   5.639  13.924  1.00  0.00     0.049 C 
ENDROOT
BRANCH   4  10
HETATM   10  C9  UNL     1      -3.835   0.704  11.013  1.00  0.00     0.187 C 
BRANCH  10  11
HETATM   11  S1  UNL     1      -2.044   0.563  11.052  1.00  0.00    -0.084 SA
BRANCH  11  12
HETATM   12  C10 UNL     1      -1.255   2.185  10.789  1.00  0.00     0.152 A 
HETATM   13  N2  UNL     1      -0.866   2.921  11.779  1.00  0.00    -0.316 N 
HETATM   14  C11 UNL     1      -0.298   4.094  11.534  1.00  0.00     0.160 A 
ATOM     15  H2  UNL     1      -0.995   2.602  12.738  1.00  0.00     0.170 HD
HETATM   16  S2  UNL     1      -0.327   4.136   9.828  1.00  0.00     0.024 SA
HETATM   17  N4  UNL     1      -1.066   2.646   9.547  1.00  0.00    -0.304 N 
ATOM     18  H4  UNL     1      -1.306   2.208   8.658  1.00  0.00     0.176 HD
BRANCH  14  19
HETATM   19  N3  UNL     1       0.159   4.976  12.394  1.00  0.00    -0.378 N 
ATOM     20  H32 UNL     1      -0.223   5.278  13.291  1.00  0.00     0.158 HD
ATOM     21  H31 UNL     1       1.004   5.545  12.332  1.00  0.00     0.158 HD
ENDBRANCH  14  19
ENDBRANCH  11  12
ENDBRANCH  10  11
ENDBRANCH   4  10
BRANCH   1  22
HETATM   22  C3  UNL     1      -5.616   2.940  15.748  1.00  0.00     0.129 C 
BRANCH  22  23
HETATM   23  O1  UNL     1      -5.002   1.783  16.204  1.00  0.00    -0.386 OA
BRANCH  23  24
HETATM   24  C2  UNL     1      -5.418   1.384  17.462  1.00  0.00     0.163 C 
HETATM   25  C1  UNL     1      -6.084   0.032  17.497  1.00  0.00     0.033 C 
ENDBRANCH  23  24
ENDBRANCH  22  23
BRANCH  22  26
HETATM   26  C4  UNL     1      -6.932   3.047  16.435  1.00  0.00     0.028 C 
HETATM   27  C5  UNL     1      -7.286   4.413  16.961  1.00  0.00     0.007 C 
ENDBRANCH  22  26
ENDBRANCH   1  22
TORSDOF 8
ENDMDL
MODEL 4
REMARK VINA RESULT: -6.222736226      3.185      5.109
REMARK  8 active torsions:
REMARK  status: ('A' for Active; 'I' for Inactive)
REMARK    1  A    between atoms: C2_2  and  O1_3 
REMARK    2  A    between atoms: O1_3  and  C3_4 
REMARK    3  A    between atoms: C3_4  and  C4_5 
REMARK    4  A    between atoms: C3_4  and  C6_7 
REMARK       I    between atoms: N1_9  and  C8_10 
REMARK    5  A    between atoms: C8_10  and  C9_12 
REMARK    6  A    between atoms: C9_12  and  S1_13 
REMARK    7  A    between atoms: S1_13  and  C10_14 
REMARK    8  A    between atoms: C11_17  and  N3_18 
ROOT
HETATM    1  C6  UNL     1      -4.280   1.890  13.223  1.00  0.00     0.071 C 
HETATM    2  C7  UNL     1      -3.933   3.110  12.347  1.00  0.00     0.169 C 
HETATM    3  N1  UNL     1      -3.007   2.457  11.440  1.00  0.00    -0.224 N 
HETATM    4  C8  UNL     1      -2.224   3.118  10.476  1.00  0.00     0.253 C 
HETATM    5  O2  UNL     1      -1.440   2.490   9.721  1.00  0.00    -0.270 OA
HETATM    6  O3  UNL     1      -2.990   1.121  11.641  1.00  0.00    -0.264 OA
HETATM    7  C12 UNL     1      -4.278   0.838  12.213  1.00  0.00     0.089 C 
HETATM    8  C13 UNL     1      -5.194   0.922  11.050  1.00  0.00     0.049 C 
HETATM    9  C14 UNL     1      -4.142  -0.569  12.754  1.00  0.00     0.049 C 
ENDROOT
BRANCH   4  10
HETATM   10  C9  UNL     1      -2.284   4.595  10.304  1.00  0.00     0.187 C 
BRANCH  10  11
HETATM   11  S1  UNL     1      -1.224   5.467  11.463  1.00  0.00    -0.084 SA
BRANCH  11  12
HETATM   12  C10 UNL     1       0.534   5.117  11.129  1.00  0.00     0.152 A 
HETATM   13  N2  UNL     1       1.436   5.230  12.049  1.00  0.00    -0.316 N 
HETATM   14  C11 UNL     1       2.702   4.966  11.756  1.00  0.00     0.160 A 
ATOM     15  H2  UNL     1       1.176   5.520  12.991  1.00  0.00     0.170 HD
HETATM   16  S2  UNL     1       2.586   4.543  10.105  1.00  0.00     0.024 SA
HETATM   17  N4  UNL     1       0.922   4.735   9.907  1.00  0.00    -0.304 N 
ATOM     18  H4  UNL     1       0.357   4.595   9.070  1.00  0.00     0.176 HD
BRANCH  14  19
HETATM   19  N3  UNL     1       3.753   5.021  12.543  1.00  0.00    -0.378 N 
ATOM     20  H32 UNL     1       4.702   5.341  12.348  1.00  0.00     0.158 HD
ATOM     21  H31 UNL     1       3.827   4.751  13.523  1.00  0.00     0.158 HD
ENDBRANCH  14  19
ENDBRANCH  11  12
ENDBRANCH  10  11
ENDBRANCH   4  10
BRANCH   1  22
HETATM   22  C3  UNL     1      -5.259   2.102  14.245  1.00  0.00     0.129 C 
BRANCH  22  23
HETATM   23  O1  UNL     1      -6.101   3.179  14.006  1.00  0.00    -0.386 OA
BRANCH  23  24
HETATM   24  C2  UNL     1      -6.268   4.016  15.095  1.00  0.00     0.163 C 
HETATM   25  C1  UNL     1      -6.183   5.486  14.767  1.00  0.00     0.033 C 
ENDBRANCH  23  24
ENDBRANCH  22  23
BRANCH  22  26
HETATM   26  C4  UNL     1      -4.928   2.110  15.696  1.00  0.00     0.028 C 
HETATM   27  C5  UNL     1      -5.179   0.820  16.431  1.00  0.00     0.007 C 
ENDBRANCH  22  26
ENDBRANCH   1  22
TORSDOF 8
ENDMDL
MODEL 5
REMARK VINA RESULT: -6.144286844      0.763      1.564
REMARK  8 active torsions:
REMARK  status: ('A' for Active; 'I' for Inactive)
REMARK    1  A    between atoms: C2_2  and  O1_3 
REMARK    2  A    between atoms: O1_3  and  C3_4 
REMARK    3  A    between atoms: C3_4  and  C4_5 
REMARK    4  A    between atoms: C3_4  and  C6_7 
REMARK       I    between atoms: N1_9  and  C8_10 
REMARK    5  A    between atoms: C8_10  and  C9_12 
REMARK    6  A    between atoms: C9_12  and  S1_13 
REMARK    7  A    between atoms: S1_13  and  C10_14 
REMARK    8  A    between atoms: C11_17  and  N3_18 
ROOT
HETATM    1  C6  UNL     1      -5.056   3.368  14.278  1.00  0.00     0.071 C 
HETATM    2  C7  UNL     1      -3.620   3.167  13.754  1.00  0.00     0.169 C 
HETATM    3  N1  UNL     1      -3.626   4.200  12.735  1.00  0.00    -0.224 N 
HETATM    4  C8  UNL     1      -2.602   4.405  11.792  1.00  0.00     0.253 C 
HETATM    5  O2  UNL     1      -2.671   5.321  10.934  1.00  0.00    -0.270 OA
HETATM    6  O3  UNL     1      -4.749   4.947  12.805  1.00  0.00    -0.264 OA
HETATM    7  C12 UNL     1      -5.169   4.819  14.173  1.00  0.00     0.089 C 
HETATM    8  C13 UNL     1      -4.221   5.692  14.905  1.00  0.00     0.049 C 
HETATM    9  C14 UNL     1      -6.586   5.353  14.179  1.00  0.00     0.049 C 
ENDROOT
BRANCH   4  10
HETATM   10  C9  UNL     1      -1.388   3.546  11.763  1.00  0.00     0.187 C 
BRANCH  10  11
HETATM   11  S1  UNL     1      -1.426   2.345  10.428  1.00  0.00    -0.084 SA
BRANCH  11  12
HETATM   12  C10 UNL     1      -2.582   0.986  10.805  1.00  0.00     0.152 A 
HETATM   13  N2  UNL     1      -2.167  -0.220  11.016  1.00  0.00    -0.316 N 
HETATM   14  C11 UNL     1      -3.048  -1.174  11.286  1.00  0.00     0.160 A 
ATOM     15  H2  UNL     1      -1.171  -0.437  10.976  1.00  0.00     0.170 HD
HETATM   16  S2  UNL     1      -4.516  -0.304  11.231  1.00  0.00     0.024 SA
HETATM   17  N4  UNL     1      -3.897   1.222  10.867  1.00  0.00    -0.304 N 
ATOM     18  H4  UNL     1      -4.398   2.100  10.730  1.00  0.00     0.176 HD
BRANCH  14  19
HETATM   19  N3  UNL     1      -2.828  -2.447  11.527  1.00  0.00    -0.378 N 
ATOM     20  H32 UNL     1      -1.988  -2.915  11.866  1.00  0.00     0.158 HD
ATOM     21  H31 UNL     1      -3.469  -3.233  11.421  1.00  0.00     0.158 HD
ENDBRANCH  14  19
ENDBRANCH  11  12
ENDBRANCH  10  11
ENDBRANCH   4  10
BRANCH   1  22
HETATM   22  C3  UNL     1      -5.446   2.550  15.386  1.00  0.00     0.129 C 
BRANCH  22  23
HETATM   23  O1  UNL     1      -6.262   3.194  16.305  1.00  0.00    -0.386 OA
BRANCH  23  24
HETATM   24  C2  UNL     1      -6.703   2.381  17.333  1.00  0.00     0.163 C 
HETATM   25  C1  UNL     1      -7.692   1.324  16.910  1.00  0.00     0.033 C 
ENDBRANCH  23  24
ENDBRANCH  22  23
BRANCH  22  26
HETATM   26  C4  UNL     1      -4.484   1.714  16.154  1.00  0.00     0.028 C 
HETATM   27  C5  UNL     1      -4.338   0.289  15.689  1.00  0.00     0.007 C 
ENDBRANCH  22  26
ENDBRANCH   1  22
TORSDOF 8
ENDMDL
