MODEL 1
REMARK VINA RESULT: -7.705509723      0.000      0.000
REMARK  6 active torsions:
REMARK  status: ('A' for Active; 'I' for Inactive)
REMARK    1  A    between atoms: C2_2  and  C3_3 
REMARK    2  A    between atoms: C3_3  and  C4_4 
REMARK    3  A    between atoms: C4_4  and  C5_5 
REMARK    4  A    between atoms: C5_5  and  C6_6 
REMARK    5  A    between atoms: N1_8  and  N2_10 
REMARK    6  A    between atoms: C10_17  and  N4_18 
ROOT
HETATM    1  N2  UNL     1      -2.917   3.432  12.716  1.00  0.00    -0.062 N 
HETATM    2  C7  UNL     1      -3.672   3.165  13.828  1.00  0.00     0.197 A 
HETATM    3  C8  UNL     1      -4.197   4.196  14.567  1.00  0.00     0.075 A 
HETATM    4  C9  UNL     1      -3.924   5.489  14.130  1.00  0.00     0.270 A 
HETATM    5  O1  UNL     1      -4.414   6.430  14.819  1.00  0.00    -0.267 OA
HETATM    6  N3  UNL     1      -3.176   5.702  13.032  1.00  0.00    -0.154 N 
ATOM      7  H3  UNL     1      -2.992   6.661  12.736  1.00  0.00     0.187 HD
HETATM    8  C10 UNL     1      -2.665   4.686  12.312  1.00  0.00     0.702 A 
HETATM    9  C11 UNL     1      -4.956   3.650  15.695  1.00  0.00     0.108 C 
HETATM   10  C12 UNL     1      -6.438   3.860  15.612  1.00  0.00     0.186 C 
HETATM   11  O2  UNL     1      -6.980   3.282  16.784  1.00  0.00    -0.355 OA
HETATM   12  C13 UNL     1      -6.608   1.949  16.860  1.00  0.00     0.159 C 
HETATM   13  C14 UNL     1      -5.923   1.701  18.203  1.00  0.00     0.078 C 
HETATM   14  C15 UNL     1      -7.920   1.152  16.906  1.00  0.00     0.078 C 
HETATM   15  O3  UNL     1      -5.874   1.499  15.794  1.00  0.00    -0.325 OA
HETATM   16  C16 UNL     1      -4.678   2.185  15.667  1.00  0.00     0.282 C 
HETATM   17  O4  UNL     1      -4.063   1.989  14.434  1.00  0.00    -0.301 OA
ENDROOT
BRANCH   1  18
HETATM   18  N1  UNL     1      -2.401   2.378  11.993  1.00  0.00    -0.270 N 
HETATM   19  C6  UNL     1      -3.058   1.684  11.157  1.00  0.00     0.096 C 
HETATM   20 CL1  UNL     1      -4.750   2.032  10.845  1.00  0.00    -0.068 Cl
ATOM     21  H1  UNL     1      -1.421   2.138  12.140  1.00  0.00     0.189 HD
BRANCH  19  22
HETATM   22  C5  UNL     1      -2.420   0.567  10.423  1.00  0.00     0.072 C 
BRANCH  22  23
HETATM   23  C4  UNL     1      -3.425  -0.515  10.193  1.00  0.00     0.007 C 
BRANCH  23  24
HETATM   24  C3  UNL     1      -3.636  -1.335  11.452  1.00  0.00     0.000 C 
BRANCH  24  25
HETATM   25  C2  UNL     1      -2.671  -2.490  11.537  1.00  0.00    -0.005 C 
HETATM   26  C1  UNL     1      -3.469  -3.759  11.271  1.00  0.00     0.005 C 
ENDBRANCH  24  25
ENDBRANCH  23  24
ENDBRANCH  22  23
ENDBRANCH  19  22
ENDBRANCH   1  18
BRANCH   8  27
HETATM   27  N4  UNL     1      -1.942   4.884  11.249  1.00  0.00    -0.233 N 
ATOM     28  H42 UNL     1      -2.124   4.400  10.369  1.00  0.00     0.174 HD
ATOM     29  H41 UNL     1      -1.164   5.543  11.286  1.00  0.00     0.174 HD
ENDBRANCH   8  27
TORSDOF 6
ENDMDL
MODEL 2
REMARK VINA RESULT: -7.455000367      2.522      5.428
REMARK  6 active torsions:
REMARK  status: ('A' for Active; 'I' for Inactive)
REMARK    1  A    between atoms: C2_2  and  C3_3 
REMARK    2  A    between atoms: C3_3  and  C4_4 
REMARK    3  A    between atoms: C4_4  and  C5_5 
REMARK    4  A    between atoms: C5_5  and  C6_6 
REMARK    5  A    between atoms: N1_8  and  N2_10 
REMARK    6  A    between atoms: C10_17  and  N4_18 
ROOT
HETATM    1  N2  UNL     1      -3.989   3.705  12.357  1.00  0.00    -0.062 N 
HETATM    2  C7  UNL     1      -4.622   3.084  13.402  1.00  0.00     0.197 A 
HETATM    3  C8  UNL     1      -4.488   1.729  13.580  1.00  0.00     0.075 A 
HETATM    4  C9  UNL     1      -3.695   1.047  12.662  1.00  0.00     0.270 A 
HETATM    5  O1  UNL     1      -3.579  -0.201  12.837  1.00  0.00    -0.267 OA
HETATM    6  N3  UNL     1      -3.094   1.700  11.651  1.00  0.00    -0.154 N 
ATOM      7  H3  UNL     1      -2.520   1.174  10.992  1.00  0.00     0.187 HD
HETATM    8  C10 UNL     1      -3.230   3.028  11.483  1.00  0.00     0.702 A 
HETATM    9  C11 UNL     1      -5.256   1.314  14.756  1.00  0.00     0.108 C 
HETATM   10  C12 UNL     1      -4.425   0.859  15.918  1.00  0.00     0.186 C 
HETATM   11  O2  UNL     1      -5.339   0.493  16.933  1.00  0.00    -0.355 OA
HETATM   12  C13 UNL     1      -6.166   1.567  17.224  1.00  0.00     0.159 C 
HETATM   13  C14 UNL     1      -7.621   1.126  17.078  1.00  0.00     0.078 C 
HETATM   14  C15 UNL     1      -5.963   1.855  18.719  1.00  0.00     0.078 C 
HETATM   15  O3  UNL     1      -5.882   2.711  16.527  1.00  0.00    -0.325 OA
HETATM   16  C16 UNL     1      -6.019   2.530  15.162  1.00  0.00     0.282 C 
HETATM   17  O4  UNL     1      -5.439   3.549  14.412  1.00  0.00    -0.301 OA
ENDROOT
BRANCH   1  18
HETATM   18  N1  UNL     1      -4.141   5.066  12.202  1.00  0.00    -0.270 N 
HETATM   19  C6  UNL     1      -3.514   5.945  12.868  1.00  0.00     0.096 C 
HETATM   20 CL1  UNL     1      -2.350   5.470  14.095  1.00  0.00    -0.068 Cl
ATOM     21  H1  UNL     1      -4.806   5.390  11.500  1.00  0.00     0.189 HD
BRANCH  19  22
HETATM   22  C5  UNL     1      -3.741   7.389  12.633  1.00  0.00     0.072 C 
BRANCH  22  23
HETATM   23  C4  UNL     1      -4.580   7.568  11.409  1.00  0.00     0.007 C 
BRANCH  23  24
HETATM   24  C3  UNL     1      -5.297   8.905  11.436  1.00  0.00     0.000 C 
BRANCH  24  25
HETATM   25  C2  UNL     1      -6.720   8.787  10.955  1.00  0.00    -0.005 C 
HETATM   26  C1  UNL     1      -7.406   7.754  11.839  1.00  0.00     0.005 C 
ENDBRANCH  24  25
ENDBRANCH  23  24
ENDBRANCH  22  23
ENDBRANCH  19  22
ENDBRANCH   1  18
BRANCH   8  27
HETATM   27  N4  UNL     1      -2.652   3.668  10.508  1.00  0.00    -0.233 N 
ATOM     28  H42 UNL     1      -2.553   3.265   9.576  1.00  0.00     0.174 HD
ATOM     29  H41 UNL     1      -2.281   4.605  10.671  1.00  0.00     0.174 HD
ENDBRANCH   8  27
TORSDOF 6
ENDMDL
MODEL 3
REMARK VINA RESULT: -7.439786794      2.453      5.842
REMARK  6 active torsions:
REMARK  status: ('A' for Active; 'I' for Inactive)
REMARK    1  A    between atoms: C2_2  and  C3_3 
REMARK    2  A    between atoms: C3_3  and  C4_4 
REMARK    3  A    between atoms: C4_4  and  C5_5 
REMARK    4  A    between atoms: C5_5  and  C6_6 
REMARK    5  A    between atoms: N1_8  and  N2_10 
REMARK    6  A    between atoms: C10_17  and  N4_18 
ROOT
HETATM    1  N2  UNL     1      -3.035   4.018  12.867  1.00  0.00    -0.062 N 
HETATM    2  C7  UNL     1      -3.888   3.331  13.690  1.00  0.00     0.197 A 
HETATM    3  C8  UNL     1      -4.283   2.057  13.363  1.00  0.00     0.075 A 
HETATM    4  C9  UNL     1      -3.779   1.524  12.180  1.00  0.00     0.270 A 
HETATM    5  O1  UNL     1      -4.151   0.350  11.890  1.00  0.00    -0.267 OA
HETATM    6  N3  UNL     1      -2.945   2.238  11.403  1.00  0.00    -0.154 N 
ATOM      7  H3  UNL     1      -2.593   1.822  10.541  1.00  0.00     0.187 HD
HETATM    8  C10 UNL     1      -2.562   3.485  11.730  1.00  0.00     0.702 A 
HETATM    9  C11 UNL     1      -5.188   1.547  14.396  1.00  0.00     0.108 C 
HETATM   10  C12 UNL     1      -4.628   0.427  15.221  1.00  0.00     0.186 C 
HETATM   11  O2  UNL     1      -5.644   0.072  16.139  1.00  0.00    -0.355 OA
HETATM   12  C13 UNL     1      -6.010   1.184  16.881  1.00  0.00     0.159 C 
HETATM   13  C14 UNL     1      -7.519   1.388  16.754  1.00  0.00     0.078 C 
HETATM   14  C15 UNL     1      -5.761   0.806  18.348  1.00  0.00     0.078 C 
HETATM   15  O3  UNL     1      -5.293   2.317  16.604  1.00  0.00    -0.325 OA
HETATM   16  C16 UNL     1      -5.446   2.715  15.287  1.00  0.00     0.282 C 
HETATM   17  O4  UNL     1      -4.500   3.653  14.885  1.00  0.00    -0.301 OA
ENDROOT
BRANCH   1  18
HETATM   18  N1  UNL     1      -2.655   5.295  13.219  1.00  0.00    -0.270 N 
HETATM   19  C6  UNL     1      -3.368   6.333  13.058  1.00  0.00     0.096 C 
HETATM   20 CL1  UNL     1      -4.967   6.213  12.342  1.00  0.00    -0.068 Cl
ATOM     21  H1  UNL     1      -1.734   5.415  13.639  1.00  0.00     0.189 HD
BRANCH  19  22
HETATM   22  C5  UNL     1      -2.876   7.669  13.468  1.00  0.00     0.072 C 
BRANCH  22  23
HETATM   23  C4  UNL     1      -1.842   7.512  14.535  1.00  0.00     0.007 C 
BRANCH  23  24
HETATM   24  C3  UNL     1      -1.913   8.657  15.529  1.00  0.00     0.000 C 
BRANCH  24  25
HETATM   25  C2  UNL     1      -1.517   9.968  14.902  1.00  0.00    -0.005 C 
HETATM   26  C1  UNL     1      -0.080  10.248  15.321  1.00  0.00     0.005 C 
ENDBRANCH  24  25
ENDBRANCH  23  24
ENDBRANCH  22  23
ENDBRANCH  19  22
ENDBRANCH   1  18
BRANCH   8  27
HETATM   27  N4  UNL     1      -1.754   4.183  10.984  1.00  0.00    -0.233 N 
ATOM     28  H42 UNL     1      -2.087   4.921  10.365  1.00  0.00     0.174 HD
ATOM     29  H41 UNL     1      -0.753   3.991  11.014  1.00  0.00     0.174 HD
ENDBRANCH   8  27
TORSDOF 6
ENDMDL
MODEL 4
REMARK VINA RESULT: -7.401971651      2.524      5.855
REMARK  6 active torsions:
REMARK  status: ('A' for Active; 'I' for Inactive)
REMARK    1  A    between atoms: C2_2  and  C3_3 
REMARK    2  A    between atoms: C3_3  and  C4_4 
REMARK    3  A    between atoms: C4_4  and  C5_5 
REMARK    4  A    between atoms: C5_5  and  C6_6 
REMARK    5  A    between atoms: N1_8  and  N2_10 
REMARK    6  A    between atoms: C10_17  and  N4_18 
ROOT
HETATM    1  N2  UNL     1      -3.427   3.627  12.410  1.00  0.00    -0.062 N 
HETATM    2  C7  UNL     1      -4.202   3.024  13.366  1.00  0.00     0.197 A 
HETATM    3  C8  UNL     1      -4.399   1.666  13.336  1.00  0.00     0.075 A 
HETATM    4  C9  UNL     1      -3.783   0.960  12.307  1.00  0.00     0.270 A 
HETATM    5  O1  UNL     1      -3.973  -0.291  12.292  1.00  0.00    -0.267 OA
HETATM    6  N3  UNL     1      -3.031   1.596  11.390  1.00  0.00    -0.154 N 
ATOM      7  H3  UNL     1      -2.593   1.053  10.646  1.00  0.00     0.187 HD
HETATM    8  C10 UNL     1      -2.842   2.927  11.426  1.00  0.00     0.702 A 
HETATM    9  C11 UNL     1      -5.258   1.273  14.457  1.00  0.00     0.108 C 
HETATM   10  C12 UNL     1      -4.574   0.463  15.516  1.00  0.00     0.186 C 
HETATM   11  O2  UNL     1      -5.561   0.178  16.488  1.00  0.00    -0.355 OA
HETATM   12  C13 UNL     1      -6.109   1.362  16.957  1.00  0.00     0.159 C 
HETATM   13  C14 UNL     1      -7.626   1.309  16.784  1.00  0.00     0.078 C 
HETATM   14  C15 UNL     1      -5.861   1.365  18.472  1.00  0.00     0.078 C 
HETATM   15  O3  UNL     1      -5.551   2.497  16.431  1.00  0.00    -0.325 OA
HETATM   16  C16 UNL     1      -5.712   2.562  15.058  1.00  0.00     0.282 C 
HETATM   17  O4  UNL     1      -4.895   3.513  14.455  1.00  0.00    -0.301 OA
ENDROOT
BRANCH   1  18
HETATM   18  N1  UNL     1      -3.245   4.991  12.463  1.00  0.00    -0.270 N 
HETATM   19  C6  UNL     1      -2.504   5.591  13.301  1.00  0.00     0.096 C 
HETATM   20 CL1  UNL     1      -1.611   4.682  14.510  1.00  0.00    -0.068 Cl
ATOM     21  H1  UNL     1      -3.744   5.561  11.780  1.00  0.00     0.189 HD
BRANCH  19  22
HETATM   22  C5  UNL     1      -2.368   7.066  13.283  1.00  0.00     0.072 C 
BRANCH  22  23
HETATM   23  C4  UNL     1      -2.761   7.617  14.616  1.00  0.00     0.007 C 
BRANCH  23  24
HETATM   24  C3  UNL     1      -1.587   8.309  15.283  1.00  0.00     0.000 C 
BRANCH  24  25
HETATM   25  C2  UNL     1      -1.525   9.772  14.929  1.00  0.00    -0.005 C 
HETATM   26  C1  UNL     1      -0.144  10.272  15.334  1.00  0.00     0.005 C 
ENDBRANCH  24  25
ENDBRANCH  23  24
ENDBRANCH  22  23
ENDBRANCH  19  22
ENDBRANCH   1  18
BRANCH   8  27
HETATM   27  N4  UNL     1      -2.116   3.550  10.543  1.00  0.00    -0.233 N 
ATOM     28  H42 UNL     1      -2.260   3.433   9.540  1.00  0.00     0.174 HD
ATOM     29  H41 UNL     1      -1.375   4.178  10.855  1.00  0.00     0.174 HD
ENDBRANCH   8  27
TORSDOF 6
ENDMDL
MODEL 5
REMARK VINA RESULT: -7.372857140      2.333      5.355
REMARK  6 active torsions:
REMARK  status: ('A' for Active; 'I' for Inactive)
REMARK    1  A    between atoms: C2_2  and  C3_3 
REMARK    2  A    between atoms: C3_3  and  C4_4 
REMARK    3  A    between atoms: C4_4  and  C5_5 
REMARK    4  A    between atoms: C5_5  and  C6_6 
REMARK    5  A    between atoms: N1_8  and  N2_10 
REMARK    6  A    between atoms: C10_17  and  N4_18 
ROOT
HETATM    1  N2  UNL     1      -3.202   3.383  12.250  1.00  0.00    -0.062 N 
HETATM    2  C7  UNL     1      -4.017   2.866  13.222  1.00  0.00     0.197 A 
HETATM    3  C8  UNL     1      -4.288   1.520  13.249  1.00  0.00     0.075 A 
HETATM    4  C9  UNL     1      -3.701   0.738  12.259  1.00  0.00     0.270 A 
HETATM    5  O1  UNL     1      -3.959  -0.501  12.295  1.00  0.00    -0.267 OA
HETATM    6  N3  UNL     1      -2.909   1.291  11.323  1.00  0.00    -0.154 N 
ATOM      7  H3  UNL     1      -2.494   0.693  10.609  1.00  0.00     0.187 HD
HETATM    8  C10 UNL     1      -2.648   2.611  11.303  1.00  0.00     0.702 A 
HETATM    9  C11 UNL     1      -5.176   1.224  14.376  1.00  0.00     0.108 C 
HETATM   10  C12 UNL     1      -4.546   0.425  15.477  1.00  0.00     0.186 C 
HETATM   11  O2  UNL     1      -5.556   0.237  16.450  1.00  0.00    -0.355 OA
HETATM   12  C13 UNL     1      -6.043   1.467  16.861  1.00  0.00     0.159 C 
HETATM   13  C14 UNL     1      -7.559   1.488  16.673  1.00  0.00     0.078 C 
HETATM   14  C15 UNL     1      -5.807   1.523  18.377  1.00  0.00     0.078 C 
HETATM   15  O3  UNL     1      -5.419   2.547  16.293  1.00  0.00    -0.325 OA
HETATM   16  C16 UNL     1      -5.565   2.559  14.916  1.00  0.00     0.282 C 
HETATM   17  O4  UNL     1      -4.692   3.438  14.281  1.00  0.00    -0.301 OA
ENDROOT
BRANCH   1  18
HETATM   18  N1  UNL     1      -2.948   4.737  12.246  1.00  0.00    -0.270 N 
HETATM   19  C6  UNL     1      -3.613   5.596  11.590  1.00  0.00     0.096 C 
HETATM   20 CL1  UNL     1      -4.971   5.100  10.593  1.00  0.00    -0.068 Cl
ATOM     21  H1  UNL     1      -2.168   5.073  12.810  1.00  0.00     0.189 HD
BRANCH  19  22
HETATM   22  C5  UNL     1      -3.266   7.035  11.645  1.00  0.00     0.072 C 
BRANCH  22  23
HETATM   23  C4  UNL     1      -4.434   7.808  12.169  1.00  0.00     0.007 C 
BRANCH  23  24
HETATM   24  C3  UNL     1      -5.081   8.624  11.064  1.00  0.00     0.000 C 
BRANCH  24  25
HETATM   25  C2  UNL     1      -6.507   8.981  11.395  1.00  0.00    -0.005 C 
HETATM   26  C1  UNL     1      -7.225   7.683  11.739  1.00  0.00     0.005 C 
ENDBRANCH  24  25
ENDBRANCH  23  24
ENDBRANCH  22  23
ENDBRANCH  19  22
ENDBRANCH   1  18
BRANCH   8  27
HETATM   27  N4  UNL     1      -1.882   3.154  10.402  1.00  0.00    -0.233 N 
ATOM     28  H42 UNL     1      -2.222   3.394   9.471  1.00  0.00     0.174 HD
ATOM     29  H41 UNL     1      -0.905   3.350  10.625  1.00  0.00     0.174 HD
ENDBRANCH   8  27
TORSDOF 6
ENDMDL
