MODEL 1
REMARK VINA RESULT: -7.975068463      0.000      0.000
REMARK  7 active torsions:
REMARK  status: ('A' for Active; 'I' for Inactive)
REMARK    1  A    between atoms: C2_2  and  O1_5 
REMARK    2  A    between atoms: O1_5  and  C5_6 
REMARK       I    between atoms: C5_6  and  N1_8 
REMARK    3  A    between atoms: C8_11  and  N2_12 
REMARK    4  A    between atoms: C10_14  and  C11_15 
REMARK    5  A    between atoms: C11_15  and  N3_17 
REMARK    6  A    between atoms: C11_15  and  C15_22 
REMARK    7  A    between atoms: N3_17  and  C12_19 
ROOT
HETATM    1  N2  UNL     1      -2.070   3.361  12.029  1.00  0.00    -0.348 N 
HETATM    2  C9  UNL     1      -2.916   4.000  12.878  1.00  0.00     0.105 A 
HETATM    3  C10 UNL     1      -3.983   3.190  13.177  1.00  0.00     0.042 A 
HETATM    4  C16 UNL     1      -3.775   2.027  12.488  1.00  0.00     0.023 A 
HETATM    5  C17 UNL     1      -4.549   0.898  12.448  1.00  0.00     0.102 A 
HETATM    6  N4  UNL     1      -4.143  -0.133  11.695  1.00  0.00    -0.371 N 
ATOM      7  H4  UNL     1      -4.705  -0.983  11.651  1.00  0.00     0.164 HD
HETATM    8  C18 UNL     1      -2.997  -0.050  10.999  1.00  0.00     0.132 A 
HETATM    9  C19 UNL     1      -2.191   1.060  11.010  1.00  0.00     0.159 A 
HETATM   10  F2  UNL     1      -1.037   1.141  10.309  1.00  0.00    -0.202 F 
HETATM   11  C20 UNL     1      -2.579   2.144  11.776  1.00  0.00     0.087 A 
ENDROOT
BRANCH   1  12
HETATM   12  C8  UNL     1      -0.834   3.884  11.484  1.00  0.00     0.092 C 
HETATM   13  C7  UNL     1      -0.336   5.109  12.233  1.00  0.00     0.045 C 
HETATM   14  C6  UNL     1       0.678   5.870  11.408  1.00  0.00     0.130 C 
HETATM   15  N1  UNL     1       1.119   4.995  10.345  1.00  0.00    -0.328 N 
HETATM   16  C5  UNL     1       2.419   4.450  10.240  1.00  0.00     0.363 C 
HETATM   17  C22 UNL     1       0.142   4.662   9.320  1.00  0.00     0.130 C 
HETATM   18  O2  UNL     1       2.779   3.693   9.306  1.00  0.00    -0.238 OA
HETATM   19  C21 UNL     1      -1.145   4.308  10.038  1.00  0.00     0.045 C 
BRANCH  16  20
HETATM   20  O1  UNL     1       3.394   4.737  11.202  1.00  0.00    -0.294 OA
BRANCH  20  21
HETATM   21  C2  UNL     1       4.389   5.721  10.966  1.00  0.00     0.061 C 
HETATM   22  C1  UNL     1       3.891   6.790  10.019  1.00  0.00     0.046 C 
HETATM   23  C3  UNL     1       5.679   5.117  10.518  1.00  0.00     0.046 C 
HETATM   24  C4  UNL     1       4.647   6.404  12.306  1.00  0.00     0.046 C 
ENDBRANCH  20  21
ENDBRANCH  16  20
ENDBRANCH   1  12
BRANCH   3  25
HETATM   25  C11 UNL     1      -5.088   3.548  14.059  1.00  0.00     0.291 C 
HETATM   26  F1  UNL     1      -6.237   2.968  13.484  1.00  0.00    -0.202 F 
BRANCH  25  27
HETATM   27  N3  UNL     1      -5.016   3.021  15.374  1.00  0.00    -0.371 N 
ATOM     28  H3  UNL     1      -4.120   2.848  15.831  1.00  0.00     0.157 HD
BRANCH  27  29
HETATM   29  C12 UNL     1      -6.250   2.743  16.028  1.00  0.00     0.080 A 
HETATM   30  C13 UNL     1      -6.068   2.261  17.472  1.00  0.00     0.027 A 
HETATM   31  C14 UNL     1      -6.738   3.584  17.185  1.00  0.00     0.027 A 
ENDBRANCH  27  29
ENDBRANCH  25  27
BRANCH  25  32
HETATM   32  C15 UNL     1      -5.386   4.998  14.094  1.00  0.00     0.241 C 
HETATM   33  O3  UNL     1      -4.931   5.777  14.965  1.00  0.00    -0.644 OA
HETATM   34  O4  UNL     1      -6.215   5.608  13.132  1.00  0.00    -0.644 OA
ENDBRANCH  25  32
ENDBRANCH   3  25
TORSDOF 7
ENDMDL
MODEL 2
REMARK VINA RESULT: -7.766010914      4.634      8.362
REMARK  7 active torsions:
REMARK  status: ('A' for Active; 'I' for Inactive)
REMARK    1  A    between atoms: C2_2  and  O1_5 
REMARK    2  A    between atoms: O1_5  and  C5_6 
REMARK       I    between atoms: C5_6  and  N1_8 
REMARK    3  A    between atoms: C8_11  and  N2_12 
REMARK    4  A    between atoms: C10_14  and  C11_15 
REMARK    5  A    between atoms: C11_15  and  N3_17 
REMARK    6  A    between atoms: C11_15  and  C15_22 
REMARK    7  A    between atoms: N3_17  and  C12_19 
ROOT
HETATM    1  N2  UNL     1      -5.133   5.740  11.743  1.00  0.00    -0.348 N 
HETATM    2  C9  UNL     1      -6.024   6.706  11.402  1.00  0.00     0.105 A 
HETATM    3  C10 UNL     1      -5.747   7.178  10.143  1.00  0.00     0.042 A 
HETATM    4  C16 UNL     1      -4.655   6.475   9.712  1.00  0.00     0.023 A 
HETATM    5  C17 UNL     1      -3.985   6.567   8.520  1.00  0.00     0.102 A 
HETATM    6  N4  UNL     1      -2.930   5.769   8.314  1.00  0.00    -0.371 N 
ATOM      7  H4  UNL     1      -2.416   5.822   7.434  1.00  0.00     0.164 HD
HETATM    8  C18 UNL     1      -2.546   4.899   9.263  1.00  0.00     0.132 A 
HETATM    9  C19 UNL     1      -3.187   4.773  10.469  1.00  0.00     0.159 A 
HETATM   10  F2  UNL     1      -2.799   3.895  11.423  1.00  0.00    -0.202 F 
HETATM   11  C20 UNL     1      -4.280   5.581  10.717  1.00  0.00     0.087 A 
ENDROOT
BRANCH   1  12
HETATM   12  C8  UNL     1      -5.093   5.002  12.989  1.00  0.00     0.092 C 
HETATM   13  C7  UNL     1      -6.377   5.139  13.792  1.00  0.00     0.045 C 
HETATM   14  C6  UNL     1      -6.157   4.737  15.233  1.00  0.00     0.130 C 
HETATM   15  N1  UNL     1      -4.911   4.006  15.296  1.00  0.00    -0.328 N 
HETATM   16  C5  UNL     1      -4.803   2.626  15.581  1.00  0.00     0.363 C 
HETATM   17  C22 UNL     1      -3.693   4.760  15.044  1.00  0.00     0.130 C 
HETATM   18  O2  UNL     1      -3.709   2.013  15.632  1.00  0.00    -0.238 OA
HETATM   19  C21 UNL     1      -3.950   5.613  13.818  1.00  0.00     0.045 C 
BRANCH  16  20
HETATM   20  O1  UNL     1      -5.945   1.855  15.827  1.00  0.00    -0.294 OA
BRANCH  20  21
HETATM   21  C2  UNL     1      -6.296   1.466  17.147  1.00  0.00     0.061 C 
HETATM   22  C1  UNL     1      -6.004   2.568  18.140  1.00  0.00     0.046 C 
HETATM   23  C3  UNL     1      -5.668   0.168  17.533  1.00  0.00     0.046 C 
HETATM   24  C4  UNL     1      -7.808   1.260  17.148  1.00  0.00     0.046 C 
ENDBRANCH  20  21
ENDBRANCH  16  20
ENDBRANCH   1  12
BRANCH   3  25
HETATM   25  C11 UNL     1      -6.498   8.219   9.451  1.00  0.00     0.291 C 
HETATM   26  F1  UNL     1      -7.548   8.574  10.322  1.00  0.00    -0.202 F 
BRANCH  25  27
HETATM   27  N3  UNL     1      -5.789   9.422   9.202  1.00  0.00    -0.371 N 
ATOM     28  H3  UNL     1      -5.152   9.511   8.409  1.00  0.00     0.157 HD
BRANCH  27  29
HETATM   29  C12 UNL     1      -6.005  10.499  10.108  1.00  0.00     0.080 A 
HETATM   30  C13 UNL     1      -4.890  11.551  10.065  1.00  0.00     0.027 A 
HETATM   31  C14 UNL     1      -6.289  11.899   9.616  1.00  0.00     0.027 A 
ENDBRANCH  27  29
ENDBRANCH  25  27
BRANCH  25  32
HETATM   32  C15 UNL     1      -7.181   7.752   8.222  1.00  0.00     0.241 C 
HETATM   33  O3  UNL     1      -7.182   8.394   7.145  1.00  0.00    -0.644 OA
HETATM   34  O4  UNL     1      -7.887   6.534   8.184  1.00  0.00    -0.644 OA
ENDBRANCH  25  32
ENDBRANCH   3  25
TORSDOF 7
ENDMDL
MODEL 3
REMARK VINA RESULT: -7.657606939      1.386      1.634
REMARK  7 active torsions:
REMARK  status: ('A' for Active; 'I' for Inactive)
REMARK    1  A    between atoms: C2_2  and  O1_5 
REMARK    2  A    between atoms: O1_5  and  C5_6 
REMARK       I    between atoms: C5_6  and  N1_8 
REMARK    3  A    between atoms: C8_11  and  N2_12 
REMARK    4  A    between atoms: C10_14  and  C11_15 
REMARK    5  A    between atoms: C11_15  and  N3_17 
REMARK    6  A    between atoms: C11_15  and  C15_22 
REMARK    7  A    between atoms: N3_17  and  C12_19 
ROOT
HETATM    1  N2  UNL     1      -2.480   4.327  12.308  1.00  0.00    -0.348 N 
HETATM    2  C9  UNL     1      -3.418   4.636  13.239  1.00  0.00     0.105 A 
HETATM    3  C10 UNL     1      -4.204   3.541  13.496  1.00  0.00     0.042 A 
HETATM    4  C16 UNL     1      -3.727   2.541  12.694  1.00  0.00     0.023 A 
HETATM    5  C17 UNL     1      -4.164   1.248  12.573  1.00  0.00     0.102 A 
HETATM    6  N4  UNL     1      -3.536   0.435  11.714  1.00  0.00    -0.371 N 
ATOM      7  H4  UNL     1      -3.846  -0.530  11.608  1.00  0.00     0.164 HD
HETATM    8  C18 UNL     1      -2.498   0.889  10.991  1.00  0.00     0.132 A 
HETATM    9  C19 UNL     1      -2.026   2.174  11.080  1.00  0.00     0.159 A 
HETATM   10  F2  UNL     1      -0.980   2.629  10.353  1.00  0.00    -0.202 F 
HETATM   11  C20 UNL     1      -2.651   3.042  11.957  1.00  0.00     0.087 A 
ENDROOT
BRANCH   1  12
HETATM   12  C8  UNL     1      -1.467   5.214  11.774  1.00  0.00     0.092 C 
HETATM   13  C7  UNL     1      -0.697   5.947  12.862  1.00  0.00     0.045 C 
HETATM   14  C6  UNL     1       0.025   7.148  12.295  1.00  0.00     0.130 C 
HETATM   15  N1  UNL     1       0.057   6.999  10.857  1.00  0.00    -0.328 N 
HETATM   16  C5  UNL     1       1.226   6.762  10.099  1.00  0.00     0.363 C 
HETATM   17  C22 UNL     1      -1.215   7.103  10.158  1.00  0.00     0.130 C 
HETATM   18  O2  UNL     1       1.228   6.638   8.851  1.00  0.00    -0.238 OA
HETATM   19  C21 UNL     1      -2.212   6.266  10.933  1.00  0.00     0.045 C 
BRANCH  16  20
HETATM   20  O1  UNL     1       2.473   6.651  10.725  1.00  0.00    -0.294 OA
BRANCH  20  21
HETATM   21  C2  UNL     1       3.071   5.383  10.945  1.00  0.00     0.061 C 
HETATM   22  C1  UNL     1       4.203   5.133   9.974  1.00  0.00     0.046 C 
HETATM   23  C3  UNL     1       2.064   4.281  10.944  1.00  0.00     0.046 C 
HETATM   24  C4  UNL     1       3.689   5.434  12.340  1.00  0.00     0.046 C 
ENDBRANCH  20  21
ENDBRANCH  16  20
ENDBRANCH   1  12
BRANCH   3  25
HETATM   25  C11 UNL     1      -5.312   3.505  14.443  1.00  0.00     0.291 C 
HETATM   26  F1  UNL     1      -6.270   2.639  13.877  1.00  0.00    -0.202 F 
BRANCH  25  27
HETATM   27  N3  UNL     1      -5.011   2.955  15.716  1.00  0.00    -0.371 N 
ATOM     28  H3  UNL     1      -4.231   3.300  16.275  1.00  0.00     0.157 HD
BRANCH  27  29
HETATM   29  C12 UNL     1      -5.849   1.900  16.179  1.00  0.00     0.080 A 
HETATM   30  C13 UNL     1      -5.698   1.631  17.681  1.00  0.00     0.027 A 
HETATM   31  C14 UNL     1      -6.999   2.161  17.124  1.00  0.00     0.027 A 
ENDBRANCH  27  29
ENDBRANCH  25  27
BRANCH  25  32
HETATM   32  C15 UNL     1      -6.023   4.796  14.588  1.00  0.00     0.241 C 
HETATM   33  O3  UNL     1      -6.020   5.473  15.643  1.00  0.00    -0.644 OA
HETATM   34  O4  UNL     1      -6.762   5.358  13.528  1.00  0.00    -0.644 OA
ENDBRANCH  25  32
ENDBRANCH   3  25
TORSDOF 7
ENDMDL
MODEL 4
REMARK VINA RESULT: -7.485318625      2.730      3.247
REMARK  7 active torsions:
REMARK  status: ('A' for Active; 'I' for Inactive)
REMARK    1  A    between atoms: C2_2  and  O1_5 
REMARK    2  A    between atoms: O1_5  and  C5_6 
REMARK       I    between atoms: C5_6  and  N1_8 
REMARK    3  A    between atoms: C8_11  and  N2_12 
REMARK    4  A    between atoms: C10_14  and  C11_15 
REMARK    5  A    between atoms: C11_15  and  N3_17 
REMARK    6  A    between atoms: C11_15  and  C15_22 
REMARK    7  A    between atoms: N3_17  and  C12_19 
ROOT
HETATM    1  N2  UNL     1      -3.125   4.520  13.077  1.00  0.00    -0.348 N 
HETATM    2  C9  UNL     1      -3.572   4.244  14.329  1.00  0.00     0.105 A 
HETATM    3  C10 UNL     1      -4.240   3.045  14.335  1.00  0.00     0.042 A 
HETATM    4  C16 UNL     1      -4.196   2.585  13.048  1.00  0.00     0.023 A 
HETATM    5  C17 UNL     1      -4.716   1.429  12.526  1.00  0.00     0.102 A 
HETATM    6  N4  UNL     1      -4.548   1.182  11.221  1.00  0.00    -0.371 N 
ATOM      7  H4  UNL     1      -4.927   0.329  10.812  1.00  0.00     0.164 HD
HETATM    8  C18 UNL     1      -3.881   2.056  10.449  1.00  0.00     0.132 A 
HETATM    9  C19 UNL     1      -3.343   3.224  10.928  1.00  0.00     0.159 A 
HETATM   10  F2  UNL     1      -2.671   4.102  10.149  1.00  0.00    -0.202 F 
HETATM   11  C20 UNL     1      -3.498   3.512  12.272  1.00  0.00     0.087 A 
ENDROOT
BRANCH   1  12
HETATM   12  C8  UNL     1      -2.377   5.691  12.665  1.00  0.00     0.092 C 
HETATM   13  C7  UNL     1      -1.537   6.275  13.790  1.00  0.00     0.045 C 
HETATM   14  C6  UNL     1      -1.126   7.695  13.473  1.00  0.00     0.130 C 
HETATM   15  N1  UNL     1      -1.343   7.907  12.060  1.00  0.00    -0.328 N 
HETATM   16  C5  UNL     1      -0.316   8.094  11.107  1.00  0.00     0.363 C 
HETATM   17  C22 UNL     1      -2.725   7.925  11.603  1.00  0.00     0.130 C 
HETATM   18  O2  UNL     1      -0.530   8.277   9.885  1.00  0.00    -0.238 OA
HETATM   19  C21 UNL     1      -3.419   6.747  12.255  1.00  0.00     0.045 C 
BRANCH  16  20
HETATM   20  O1  UNL     1       1.029   8.081  11.495  1.00  0.00    -0.294 OA
BRANCH  20  21
HETATM   21  C2  UNL     1       1.867   6.975  11.197  1.00  0.00     0.061 C 
HETATM   22  C1  UNL     1       2.618   7.189   9.901  1.00  0.00     0.046 C 
HETATM   23  C3  UNL     1       1.118   5.684  11.216  1.00  0.00     0.046 C 
HETATM   24  C4  UNL     1       2.912   6.913  12.307  1.00  0.00     0.046 C 
ENDBRANCH  20  21
ENDBRANCH  16  20
ENDBRANCH   1  12
BRANCH   3  25
HETATM   25  C11 UNL     1      -4.855   2.431  15.507  1.00  0.00     0.291 C 
HETATM   26  F1  UNL     1      -4.487   3.242  16.600  1.00  0.00    -0.202 F 
BRANCH  25  27
HETATM   27  N3  UNL     1      -6.273   2.409  15.513  1.00  0.00    -0.371 N 
ATOM     28  H3  UNL     1      -6.808   2.301  14.651  1.00  0.00     0.157 HD
BRANCH  27  29
HETATM   29  C12 UNL     1      -6.916   2.543  16.776  1.00  0.00     0.080 A 
HETATM   30  C13 UNL     1      -7.721   1.299  17.174  1.00  0.00     0.027 A 
HETATM   31  C14 UNL     1      -6.502   1.708  17.966  1.00  0.00     0.027 A 
ENDBRANCH  27  29
ENDBRANCH  25  27
BRANCH  25  32
HETATM   32  C15 UNL     1      -4.310   1.095  15.842  1.00  0.00     0.241 C 
HETATM   33  O3  UNL     1      -3.288   0.921  16.547  1.00  0.00    -0.644 OA
HETATM   34  O4  UNL     1      -4.918  -0.090  15.382  1.00  0.00    -0.644 OA
ENDBRANCH  25  32
ENDBRANCH   3  25
TORSDOF 7
ENDMDL
MODEL 5
REMARK VINA RESULT: -7.484210023      4.563      8.276
REMARK  7 active torsions:
REMARK  status: ('A' for Active; 'I' for Inactive)
REMARK    1  A    between atoms: C2_2  and  O1_5 
REMARK    2  A    between atoms: O1_5  and  C5_6 
REMARK       I    between atoms: C5_6  and  N1_8 
REMARK    3  A    between atoms: C8_11  and  N2_12 
REMARK    4  A    between atoms: C10_14  and  C11_15 
REMARK    5  A    between atoms: C11_15  and  N3_17 
REMARK    6  A    between atoms: C11_15  and  C15_22 
REMARK    7  A    between atoms: N3_17  and  C12_19 
ROOT
HETATM    1  N2  UNL     1      -4.843   5.736  11.804  1.00  0.00    -0.348 N 
HETATM    2  C9  UNL     1      -5.619   6.800  11.474  1.00  0.00     0.105 A 
HETATM    3  C10 UNL     1      -5.302   7.242  10.214  1.00  0.00     0.042 A 
HETATM    4  C16 UNL     1      -4.303   6.420   9.770  1.00  0.00     0.023 A 
HETATM    5  C17 UNL     1      -3.639   6.438   8.572  1.00  0.00     0.102 A 
HETATM    6  N4  UNL     1      -2.686   5.524   8.352  1.00  0.00    -0.371 N 
ATOM      7  H4  UNL     1      -2.178   5.520   7.468  1.00  0.00     0.164 HD
HETATM    8  C18 UNL     1      -2.396   4.611   9.295  1.00  0.00     0.132 A 
HETATM    9  C19 UNL     1      -3.035   4.555  10.507  1.00  0.00     0.159 A 
HETATM   10  F2  UNL     1      -2.743   3.634  11.454  1.00  0.00    -0.202 F 
HETATM   11  C20 UNL     1      -4.025   5.484  10.769  1.00  0.00     0.087 A 
ENDROOT
BRANCH   1  12
HETATM   12  C8  UNL     1      -4.878   4.993  13.047  1.00  0.00     0.092 C 
HETATM   13  C7  UNL     1      -6.179   5.188  13.810  1.00  0.00     0.045 C 
HETATM   14  C6  UNL     1      -6.022   4.772  15.255  1.00  0.00     0.130 C 
HETATM   15  N1  UNL     1      -4.815   3.983  15.354  1.00  0.00    -0.328 N 
HETATM   16  C5  UNL     1      -4.780   2.599  15.636  1.00  0.00     0.363 C 
HETATM   17  C22 UNL     1      -3.555   4.680  15.144  1.00  0.00     0.130 C 
HETATM   18  O2  UNL     1      -3.718   1.935  15.718  1.00  0.00    -0.238 OA
HETATM   19  C21 UNL     1      -3.734   5.548  13.914  1.00  0.00     0.045 C 
BRANCH  16  20
HETATM   20  O1  UNL     1      -5.964   1.881  15.843  1.00  0.00    -0.294 OA
BRANCH  20  21
HETATM   21  C2  UNL     1      -6.349   1.461  17.143  1.00  0.00     0.061 C 
HETATM   22  C1  UNL     1      -6.107   2.548  18.166  1.00  0.00     0.046 C 
HETATM   23  C3  UNL     1      -5.710   0.166  17.525  1.00  0.00     0.046 C 
HETATM   24  C4  UNL     1      -7.856   1.228  17.093  1.00  0.00     0.046 C 
ENDBRANCH  20  21
ENDBRANCH  16  20
ENDBRANCH   1  12
BRANCH   3  25
HETATM   25  C11 UNL     1      -5.934   8.366   9.533  1.00  0.00     0.291 C 
HETATM   26  F1  UNL     1      -5.497   8.295   8.195  1.00  0.00    -0.202 F 
BRANCH  25  27
HETATM   27  N3  UNL     1      -7.351   8.326   9.472  1.00  0.00    -0.371 N 
ATOM     28  H3  UNL     1      -7.923   8.404  10.312  1.00  0.00     0.157 HD
BRANCH  27  29
HETATM   29  C12 UNL     1      -7.937   8.171   8.183  1.00  0.00     0.080 A 
HETATM   30  C13 UNL     1      -9.451   8.417   8.181  1.00  0.00     0.027 A 
HETATM   31  C14 UNL     1      -8.523   9.348   7.436  1.00  0.00     0.027 A 
ENDBRANCH  27  29
ENDBRANCH  25  27
BRANCH  25  32
HETATM   32  C15 UNL     1      -5.470   9.692  10.002  1.00  0.00     0.241 C 
HETATM   33  O3  UNL     1      -6.208  10.704  10.057  1.00  0.00    -0.644 OA
HETATM   34  O4  UNL     1      -4.144   9.906  10.426  1.00  0.00    -0.644 OA
ENDBRANCH  25  32
ENDBRANCH   3  25
TORSDOF 7
ENDMDL
