MODEL 1
REMARK VINA RESULT: -6.533883861      0.000      0.000
REMARK  8 active torsions:
REMARK  status: ('A' for Active; 'I' for Inactive)
REMARK    1  A    between atoms: C2_2  and  O1_3 
REMARK    2  A    between atoms: C9_12  and  N1_13 
REMARK    3  A    between atoms: N1_13  and  O2_14 
REMARK    4  A    between atoms: O2_14  and  C10_15 
REMARK    5  A    between atoms: C10_15  and  C11_16 
REMARK    6  A    between atoms: C11_16  and  O3_17 
REMARK    7  A    between atoms: C11_16  and  C12_19 
REMARK    8  A    between atoms: C12_19  and  N2_20 
ROOT
HETATM    1  C1  UNL     1      -5.953   1.813  18.203  1.00  0.00     0.054 C 
HETATM    2  C2  UNL     1      -5.764   1.812  16.683  1.00  0.00     0.116 C 
HETATM    3  C3  UNL     1      -6.538   2.917  16.047  1.00  0.00     0.057 C 
HETATM    4  C4  UNL     1      -5.557   3.891  15.459  1.00  0.00    -0.013 C 
HETATM    5  C5  UNL     1      -5.922   5.312  15.897  1.00  0.00     0.018 C 
HETATM    6  C6  UNL     1      -4.259   3.541  16.085  1.00  0.00     0.092 C 
HETATM    7  C7  UNL     1      -3.071   3.980  15.366  1.00  0.00     0.008 C 
HETATM    8  C8  UNL     1      -3.167   4.576  14.197  1.00  0.00     0.048 C 
HETATM    9 BR1  UNL     1      -1.542   5.104  13.353  1.00  0.00    -0.048 Br
HETATM   10  C9  UNL     1      -4.453   4.845  13.532  1.00  0.00     0.143 C 
HETATM   11  C16 UNL     1      -5.546   3.879  13.969  1.00  0.00     0.021 C 
HETATM   12  C17 UNL     1      -6.856   4.400  13.427  1.00  0.00     0.023 C 
HETATM   13  C18 UNL     1      -5.286   2.560  13.330  1.00  0.00     0.023 C 
HETATM   14  C19 UNL     1      -4.312   2.084  16.369  1.00  0.00     0.169 C 
HETATM   15  O4  UNL     1      -3.412   1.294  16.355  1.00  0.00    -0.294 OA
ENDROOT
BRANCH  10  16
HETATM   16  N1  UNL     1      -4.675   5.724  12.720  1.00  0.00    -0.284 NA
BRANCH  16  17
HETATM   17  O2  UNL     1      -4.552   6.794  12.073  1.00  0.00    -0.206 OA
BRANCH  17  18
HETATM   18  C10 UNL     1      -3.942   7.295  10.934  1.00  0.00     0.251 C 
BRANCH  18  19
HETATM   19  C11 UNL     1      -4.626   6.746   9.672  1.00  0.00     0.165 C 
BRANCH  19  20
HETATM   20  O3  UNL     1      -5.692   5.923  10.007  1.00  0.00    -0.392 OA
ATOM     21  H3  UNL     1      -6.172   5.661   9.231  1.00  0.00     0.210 HD
ENDBRANCH  19  20
BRANCH  19  22
HETATM   22  C12 UNL     1      -3.676   5.937   8.841  1.00  0.00     0.182 C 
BRANCH  22  23
HETATM   23  N2  UNL     1      -3.106   4.807   9.511  1.00  0.00    -0.301 N 
HETATM   24  C13 UNL     1      -1.780   4.509   9.607  1.00  0.00     0.111 A 
HETATM   25  C14 UNL     1      -1.664   3.349  10.323  1.00  0.00     0.037 A 
HETATM   26  C15 UNL     1      -2.958   2.956  10.656  1.00  0.00     0.108 A 
HETATM   27  N3  UNL     1      -3.776   3.874  10.139  1.00  0.00    -0.310 N 
ATOM     28  H3  UNL     1      -4.792   3.851  10.222  1.00  0.00     0.186 HD
ENDBRANCH  22  23
ENDBRANCH  19  22
ENDBRANCH  18  19
ENDBRANCH  17  18
ENDBRANCH  16  17
ENDBRANCH  10  16
BRANCH   2  29
HETATM   29  O1  UNL     1      -6.163   0.591  16.157  1.00  0.00    -0.382 OA
ATOM     30  H1  UNL     1      -5.637   0.379  15.395  1.00  0.00     0.211 HD
ENDBRANCH   2  29
TORSDOF 8
ENDMDL
MODEL 2
REMARK VINA RESULT: -6.524856166      3.929      8.037
REMARK  8 active torsions:
REMARK  status: ('A' for Active; 'I' for Inactive)
REMARK    1  A    between atoms: C2_2  and  O1_3 
REMARK    2  A    between atoms: C9_12  and  N1_13 
REMARK    3  A    between atoms: N1_13  and  O2_14 
REMARK    4  A    between atoms: O2_14  and  C10_15 
REMARK    5  A    between atoms: C10_15  and  C11_16 
REMARK    6  A    between atoms: C11_16  and  O3_17 
REMARK    7  A    between atoms: C11_16  and  C12_19 
REMARK    8  A    between atoms: C12_19  and  N2_20 
ROOT
HETATM    1  C1  UNL     1      -9.000   9.988   5.836  1.00  0.00     0.054 C 
HETATM    2  C2  UNL     1      -8.014  10.015   7.008  1.00  0.00     0.116 C 
HETATM    3  C3  UNL     1      -8.450   9.091   8.095  1.00  0.00     0.057 C 
HETATM    4  C4  UNL     1      -7.441   7.981   8.192  1.00  0.00    -0.013 C 
HETATM    5  C5  UNL     1      -8.164   6.632   8.203  1.00  0.00     0.018 C 
HETATM    6  C6  UNL     1      -6.663   8.070   6.932  1.00  0.00     0.092 C 
HETATM    7  C7  UNL     1      -5.343   7.456   6.959  1.00  0.00     0.008 C 
HETATM    8  C8  UNL     1      -4.860   6.932   8.066  1.00  0.00     0.048 C 
HETATM    9 BR1  UNL     1      -3.122   6.157   7.976  1.00  0.00    -0.048 Br
HETATM   10  C9  UNL     1      -5.598   6.922   9.341  1.00  0.00     0.143 C 
HETATM   11  C16 UNL     1      -6.617   8.049   9.431  1.00  0.00     0.021 C 
HETATM   12  C17 UNL     1      -7.473   7.791  10.649  1.00  0.00     0.023 C 
HETATM   13  C18 UNL     1      -5.885   9.325   9.658  1.00  0.00     0.023 C 
HETATM   14  C19 UNL     1      -6.676   9.502   6.534  1.00  0.00     0.169 C 
HETATM   15  O4  UNL     1      -5.821  10.119   5.965  1.00  0.00    -0.294 OA
ENDROOT
BRANCH  10  16
HETATM   16  N1  UNL     1      -5.450   6.129  10.252  1.00  0.00    -0.284 NA
BRANCH  16  17
HETATM   17  O2  UNL     1      -4.914   5.507  11.203  1.00  0.00    -0.206 OA
BRANCH  17  18
HETATM   18  C10 UNL     1      -3.694   4.971  11.582  1.00  0.00     0.251 C 
BRANCH  18  19
HETATM   19  C11 UNL     1      -3.480   3.601  10.921  1.00  0.00     0.165 C 
BRANCH  19  20
HETATM   20  O3  UNL     1      -4.690   3.051  10.524  1.00  0.00    -0.392 OA
ATOM     21  H3  UNL     1      -4.688   2.870   9.591  1.00  0.00     0.210 HD
ENDBRANCH  19  20
BRANCH  19  22
HETATM   22  C12 UNL     1      -2.834   2.632  11.865  1.00  0.00     0.182 C 
BRANCH  22  23
HETATM   23  N2  UNL     1      -3.178   1.259  11.645  1.00  0.00    -0.301 N 
HETATM   24  C13 UNL     1      -2.503   0.372  10.862  1.00  0.00     0.111 A 
HETATM   25  C14 UNL     1      -3.164  -0.824  10.922  1.00  0.00     0.037 A 
HETATM   26  C15 UNL     1      -4.257  -0.633  11.764  1.00  0.00     0.108 A 
HETATM   27  N3  UNL     1      -4.208   0.638  12.164  1.00  0.00    -0.310 N 
ATOM     28  H3  UNL     1      -4.884   1.071  12.792  1.00  0.00     0.186 HD
ENDBRANCH  22  23
ENDBRANCH  19  22
ENDBRANCH  18  19
ENDBRANCH  17  18
ENDBRANCH  16  17
ENDBRANCH  10  16
BRANCH   2  29
HETATM   29  O1  UNL     1      -7.901  11.306   7.503  1.00  0.00    -0.382 OA
ATOM     30  H1  UNL     1      -8.308  11.362   8.359  1.00  0.00     0.211 HD
ENDBRANCH   2  29
TORSDOF 8
ENDMDL
MODEL 3
REMARK VINA RESULT: -6.460365078      3.541      8.195
REMARK  8 active torsions:
REMARK  status: ('A' for Active; 'I' for Inactive)
REMARK    1  A    between atoms: C2_2  and  O1_3 
REMARK    2  A    between atoms: C9_12  and  N1_13 
REMARK    3  A    between atoms: N1_13  and  O2_14 
REMARK    4  A    between atoms: O2_14  and  C10_15 
REMARK    5  A    between atoms: C10_15  and  C11_16 
REMARK    6  A    between atoms: C11_16  and  O3_17 
REMARK    7  A    between atoms: C11_16  and  C12_19 
REMARK    8  A    between atoms: C12_19  and  N2_20 
ROOT
HETATM    1  C1  UNL     1      -8.669   9.936   5.911  1.00  0.00     0.054 C 
HETATM    2  C2  UNL     1      -7.727   9.951   7.119  1.00  0.00     0.116 C 
HETATM    3  C3  UNL     1      -8.191   9.001   8.171  1.00  0.00     0.057 C 
HETATM    4  C4  UNL     1      -7.173   7.901   8.283  1.00  0.00    -0.013 C 
HETATM    5  C5  UNL     1      -7.880   6.544   8.241  1.00  0.00     0.018 C 
HETATM    6  C6  UNL     1      -6.351   8.024   7.056  1.00  0.00     0.092 C 
HETATM    7  C7  UNL     1      -5.025   7.424   7.119  1.00  0.00     0.008 C 
HETATM    8  C8  UNL     1      -4.577   6.884   8.233  1.00  0.00     0.048 C 
HETATM    9 BR1  UNL     1      -2.828   6.131   8.193  1.00  0.00    -0.048 Br
HETATM   10  C9  UNL     1      -5.361   6.841   9.479  1.00  0.00     0.143 C 
HETATM   11  C16 UNL     1      -6.397   7.954   9.553  1.00  0.00     0.021 C 
HETATM   12  C17 UNL     1      -7.294   7.662  10.733  1.00  0.00     0.023 C 
HETATM   13  C18 UNL     1      -5.688   9.234   9.831  1.00  0.00     0.023 C 
HETATM   14  C19 UNL     1      -6.366   9.463   6.685  1.00  0.00     0.169 C 
HETATM   15  O4  UNL     1      -5.499  10.101   6.160  1.00  0.00    -0.294 OA
ENDROOT
BRANCH  10  16
HETATM   16  N1  UNL     1      -5.238   6.032  10.379  1.00  0.00    -0.284 NA
BRANCH  16  17
HETATM   17  O2  UNL     1      -4.855   5.016  11.012  1.00  0.00    -0.206 OA
BRANCH  17  18
HETATM   18  C10 UNL     1      -4.124   3.853  10.832  1.00  0.00     0.251 C 
BRANCH  18  19
HETATM   19  C11 UNL     1      -4.469   2.826  11.922  1.00  0.00     0.165 C 
BRANCH  19  20
HETATM   20  O3  UNL     1      -5.536   2.031  11.529  1.00  0.00    -0.392 OA
ATOM     21  H3  UNL     1      -5.532   1.204  11.998  1.00  0.00     0.210 HD
ENDBRANCH  19  20
BRANCH  19  22
HETATM   22  C12 UNL     1      -4.856   3.497  13.205  1.00  0.00     0.182 C 
BRANCH  22  23
HETATM   23  N2  UNL     1      -4.731   2.677  14.372  1.00  0.00    -0.301 N 
HETATM   24  C13 UNL     1      -4.929   3.070  15.661  1.00  0.00     0.111 A 
HETATM   25  C14 UNL     1      -4.705   1.988  16.467  1.00  0.00     0.037 A 
HETATM   26  C15 UNL     1      -4.367   0.930  15.627  1.00  0.00     0.108 A 
HETATM   27  N3  UNL     1      -4.401   1.410  14.383  1.00  0.00    -0.310 N 
ATOM     28  H3  UNL     1      -4.196   0.861  13.548  1.00  0.00     0.186 HD
ENDBRANCH  22  23
ENDBRANCH  19  22
ENDBRANCH  18  19
ENDBRANCH  17  18
ENDBRANCH  16  17
ENDBRANCH  10  16
BRANCH   2  29
HETATM   29  O1  UNL     1      -7.648  11.234   7.642  1.00  0.00    -0.382 OA
ATOM     30  H1  UNL     1      -7.293  11.828   6.993  1.00  0.00     0.211 HD
ENDBRANCH   2  29
TORSDOF 8
ENDMDL
MODEL 4
REMARK VINA RESULT: -6.416311262      2.212      3.312
REMARK  8 active torsions:
REMARK  status: ('A' for Active; 'I' for Inactive)
REMARK    1  A    between atoms: C2_2  and  O1_3 
REMARK    2  A    between atoms: C9_12  and  N1_13 
REMARK    3  A    between atoms: N1_13  and  O2_14 
REMARK    4  A    between atoms: O2_14  and  C10_15 
REMARK    5  A    between atoms: C10_15  and  C11_16 
REMARK    6  A    between atoms: C11_16  and  O3_17 
REMARK    7  A    between atoms: C11_16  and  C12_19 
REMARK    8  A    between atoms: C12_19  and  N2_20 
ROOT
HETATM    1  C1  UNL     1      -5.898   1.922  18.169  1.00  0.00     0.054 C 
HETATM    2  C2  UNL     1      -5.760   1.916  16.643  1.00  0.00     0.116 C 
HETATM    3  C3  UNL     1      -6.496   3.062  16.035  1.00  0.00     0.057 C 
HETATM    4  C4  UNL     1      -5.485   3.987  15.417  1.00  0.00    -0.013 C 
HETATM    5  C5  UNL     1      -5.761   5.422  15.870  1.00  0.00     0.018 C 
HETATM    6  C6  UNL     1      -4.188   3.567  15.999  1.00  0.00     0.092 C 
HETATM    7  C7  UNL     1      -3.002   3.946  15.242  1.00  0.00     0.008 C 
HETATM    8  C8  UNL     1      -3.105   4.550  14.078  1.00  0.00     0.048 C 
HETATM    9 BR1  UNL     1      -1.484   4.997  13.182  1.00  0.00    -0.048 Br
HETATM   10  C9  UNL     1      -4.397   4.889  13.457  1.00  0.00     0.143 C 
HETATM   11  C16 UNL     1      -5.523   3.979  13.928  1.00  0.00     0.021 C 
HETATM   12  C17 UNL     1      -6.822   4.569  13.430  1.00  0.00     0.023 C 
HETATM   13  C18 UNL     1      -5.354   2.651  13.278  1.00  0.00     0.023 C 
HETATM   14  C19 UNL     1      -4.307   2.113  16.282  1.00  0.00     0.169 C 
HETATM   15  O4  UNL     1      -3.450   1.278  16.237  1.00  0.00    -0.294 OA
ENDROOT
BRANCH  10  16
HETATM   16  N1  UNL     1      -4.599   5.781  12.654  1.00  0.00    -0.284 NA
BRANCH  16  17
HETATM   17  O2  UNL     1      -4.383   6.749  11.884  1.00  0.00    -0.206 OA
BRANCH  17  18
HETATM   18  C10 UNL     1      -5.034   7.549  10.958  1.00  0.00     0.251 C 
BRANCH  18  19
HETATM   19  C11 UNL     1      -5.831   6.685   9.968  1.00  0.00     0.165 C 
BRANCH  19  20
HETATM   20  O3  UNL     1      -5.381   5.373   9.986  1.00  0.00    -0.392 OA
ATOM     21  H3  UNL     1      -5.582   4.936   9.166  1.00  0.00     0.210 HD
ENDBRANCH  19  20
BRANCH  19  22
HETATM   22  C12 UNL     1      -5.691   7.190   8.563  1.00  0.00     0.182 C 
BRANCH  22  23
HETATM   23  N2  UNL     1      -6.818   7.925   8.074  1.00  0.00    -0.301 N 
HETATM   24  C13 UNL     1      -8.034   8.035   8.676  1.00  0.00     0.111 A 
HETATM   25  C14 UNL     1      -8.825   8.819   7.882  1.00  0.00     0.037 A 
HETATM   26  C15 UNL     1      -8.049   9.180   6.783  1.00  0.00     0.108 A 
HETATM   27  N3  UNL     1      -6.856   8.611   6.959  1.00  0.00    -0.310 N 
ATOM     28  H3  UNL     1      -6.075   8.698   6.310  1.00  0.00     0.186 HD
ENDBRANCH  22  23
ENDBRANCH  19  22
ENDBRANCH  18  19
ENDBRANCH  17  18
ENDBRANCH  16  17
ENDBRANCH  10  16
BRANCH   2  29
HETATM   29  O1  UNL     1      -6.239   0.720  16.128  1.00  0.00    -0.382 OA
ATOM     30  H1  UNL     1      -6.642   0.869  15.281  1.00  0.00     0.211 HD
ENDBRANCH   2  29
TORSDOF 8
ENDMDL
MODEL 5
REMARK VINA RESULT: -6.414886780      2.560      7.009
REMARK  8 active torsions:
REMARK  status: ('A' for Active; 'I' for Inactive)
REMARK    1  A    between atoms: C2_2  and  O1_3 
REMARK    2  A    between atoms: C9_12  and  N1_13 
REMARK    3  A    between atoms: N1_13  and  O2_14 
REMARK    4  A    between atoms: O2_14  and  C10_15 
REMARK    5  A    between atoms: C10_15  and  C11_16 
REMARK    6  A    between atoms: C11_16  and  O3_17 
REMARK    7  A    between atoms: C11_16  and  C12_19 
REMARK    8  A    between atoms: C12_19  and  N2_20 
ROOT
HETATM    1  C1  UNL     1      -2.946   7.386   9.266  1.00  0.00     0.054 C 
HETATM    2  C2  UNL     1      -2.258   6.330  10.137  1.00  0.00     0.116 C 
HETATM    3  C3  UNL     1      -2.746   6.397  11.545  1.00  0.00     0.057 C 
HETATM    4  C4  UNL     1      -3.496   5.127  11.836  1.00  0.00    -0.013 C 
HETATM    5  C5  UNL     1      -4.848   5.466  12.469  1.00  0.00     0.018 C 
HETATM    6  C6  UNL     1      -3.754   4.530  10.504  1.00  0.00     0.092 C 
HETATM    7  C7  UNL     1      -4.023   3.098  10.494  1.00  0.00     0.008 C 
HETATM    8  C8  UNL     1      -3.958   2.388  11.599  1.00  0.00     0.048 C 
HETATM    9 BR1  UNL     1      -4.332   0.525  11.461  1.00  0.00    -0.048 Br
HETATM   10  C9  UNL     1      -3.614   2.966  12.910  1.00  0.00     0.143 C 
HETATM   11  C16 UNL     1      -2.778   4.232  12.785  1.00  0.00     0.021 C 
HETATM   12  C17 UNL     1      -2.704   4.864  14.155  1.00  0.00     0.023 C 
HETATM   13  C18 UNL     1      -1.396   3.841  12.394  1.00  0.00     0.023 C 
HETATM   14  C19 UNL     1      -2.631   4.957   9.630  1.00  0.00     0.169 C 
HETATM   15  O4  UNL     1      -2.127   4.356   8.724  1.00  0.00    -0.294 OA
ENDROOT
BRANCH  10  16
HETATM   16  N1  UNL     1      -3.936   2.525  13.998  1.00  0.00    -0.284 NA
BRANCH  16  17
HETATM   17  O2  UNL     1      -3.987   1.767  14.998  1.00  0.00    -0.206 OA
BRANCH  17  18
HETATM   18  C10 UNL     1      -4.549   0.569  15.408  1.00  0.00     0.251 C 
BRANCH  18  19
HETATM   19  C11 UNL     1      -5.343   0.763  16.709  1.00  0.00     0.165 C 
BRANCH  19  20
HETATM   20  O3  UNL     1      -5.638  -0.461  17.293  1.00  0.00    -0.392 OA
ATOM     21  H3  UNL     1      -5.906  -0.347  18.198  1.00  0.00     0.210 HD
ENDBRANCH  19  20
BRANCH  19  22
HETATM   22  C12 UNL     1      -6.642   1.468  16.459  1.00  0.00     0.182 C 
BRANCH  22  23
HETATM   23  N2  UNL     1      -6.554   2.897  16.431  1.00  0.00    -0.301 N 
HETATM   24  C13 UNL     1      -6.791   3.742  17.472  1.00  0.00     0.111 A 
HETATM   25  C14 UNL     1      -6.601   5.020  17.024  1.00  0.00     0.037 A 
HETATM   26  C15 UNL     1      -6.242   4.922  15.682  1.00  0.00     0.108 A 
HETATM   27  N3  UNL     1      -6.232   3.621  15.388  1.00  0.00    -0.310 N 
ATOM     28  H3  UNL     1      -6.004   3.239  14.471  1.00  0.00     0.186 HD
ENDBRANCH  22  23
ENDBRANCH  19  22
ENDBRANCH  18  19
ENDBRANCH  17  18
ENDBRANCH  16  17
ENDBRANCH  10  16
BRANCH   2  29
HETATM   29  O1  UNL     1      -0.883   6.512  10.105  1.00  0.00    -0.382 OA
ATOM     30  H1  UNL     1      -0.678   7.370   9.755  1.00  0.00     0.211 HD
ENDBRANCH   2  29
TORSDOF 8
ENDMDL
