MODEL 1
REMARK VINA RESULT: -8.457679279      0.000      0.000
REMARK  6 active torsions:
REMARK  status: ('A' for Active; 'I' for Inactive)
REMARK    1  A    between atoms: C2_2  and  C4_4 
REMARK    2  A    between atoms: C6_6  and  O1_7 
REMARK    3  A    between atoms: N1_10  and  C8_11 
REMARK    4  A    between atoms: C10_13  and  N2_14 
REMARK    5  A    between atoms: C15_20  and  N3_21 
REMARK    6  A    between atoms: C22_28  and  C23_29 
ROOT
HETATM    1  C8  UNL     1      -3.250   3.853  12.119  1.00  0.00     0.107 A 
HETATM    2  C9  UNL     1      -2.950   2.676  11.474  1.00  0.00     0.081 A 
HETATM    3  C10 UNL     1      -3.355   1.423  11.912  1.00  0.00     0.076 A 
HETATM    4  C14 UNL     1      -4.103   1.355  13.063  1.00  0.00     0.186 A 
HETATM    5  F1  UNL     1      -4.506   0.126  13.506  1.00  0.00    -0.200 F 
HETATM    6  C15 UNL     1      -4.419   2.531  13.730  1.00  0.00     0.147 A 
HETATM    7  N4  UNL     1      -3.998   3.692  13.254  1.00  0.00    -0.326 N 
ATOM      8  H4  UNL     1      -4.250   4.533  13.775  1.00  0.00     0.169 HD
ENDROOT
BRANCH   6   9
HETATM    9  N3  UNL     1      -5.204   2.476  14.918  1.00  0.00    -0.350 N 
HETATM   10  C16 UNL     1      -4.933   1.387  15.828  1.00  0.00     0.126 C 
HETATM   11  C17 UNL     1      -4.987   1.775  17.273  1.00  0.00     0.028 C 
HETATM   12  C18 UNL     1      -6.351   2.394  17.512  1.00  0.00    -0.044 C 
HETATM   13  C19 UNL     1      -6.442   2.771  18.967  1.00  0.00     0.015 C 
HETATM   14  C20 UNL     1      -7.476   1.480  17.116  1.00  0.00     0.015 C 
HETATM   15  C21 UNL     1      -6.408   3.646  16.705  1.00  0.00     0.045 C 
HETATM   16  C22 UNL     1      -6.228   3.431  15.210  1.00  0.00     0.187 C 
BRANCH  16  17
HETATM   17  C23 UNL     1      -6.001   4.773  14.641  1.00  0.00     0.196 C 
HETATM   18  O2  UNL     1      -5.201   5.565  15.156  1.00  0.00    -0.646 OA
HETATM   19  O3  UNL     1      -6.699   5.143  13.510  1.00  0.00    -0.646 OA
ENDBRANCH  16  17
ENDBRANCH   6   9
BRANCH   3  20
HETATM   20  N2  UNL     1      -3.023   0.235  11.218  1.00  0.00    -0.378 N 
HETATM   21  C11 UNL     1      -1.886  -0.662  11.179  1.00  0.00     0.124 C 
HETATM   22  C12 UNL     1      -2.835  -1.770  10.775  1.00  0.00     0.040 C 
HETATM   23  C13 UNL     1      -3.663  -0.618  10.238  1.00  0.00     0.124 C 
ENDBRANCH   3  20
BRANCH   1  24
HETATM   24  N1  UNL     1      -2.865   5.141  11.753  1.00  0.00    -0.360 N 
HETATM   25  C4  UNL     1      -3.318   6.211  10.942  1.00  0.00     0.091 C 
HETATM   26  C5  UNL     1      -3.439   7.333  11.970  1.00  0.00     0.059 C 
HETATM   27  C6  UNL     1      -2.219   7.049  12.858  1.00  0.00     0.138 C 
HETATM   28  C7  UNL     1      -1.614   5.752  12.315  1.00  0.00     0.156 C 
BRANCH  25  29
HETATM   29  C2  UNL     1      -4.486   6.058  10.069  1.00  0.00     0.000 C 
HETATM   30  C1  UNL     1      -5.587   6.966  10.687  1.00  0.00     0.011 C 
HETATM   31  C3  UNL     1      -4.189   6.652   8.715  1.00  0.00     0.011 C 
ENDBRANCH  25  29
BRANCH  27  32
HETATM   32  O1  UNL     1      -2.611   6.812  14.161  1.00  0.00    -0.394 OA
ATOM     33  H1  UNL     1      -2.394   7.552  14.716  1.00  0.00     0.210 HD
ENDBRANCH  27  32
ENDBRANCH   1  24
TORSDOF 6
ENDMDL
MODEL 2
REMARK VINA RESULT: -8.276172490      1.341      2.364
REMARK  6 active torsions:
REMARK  status: ('A' for Active; 'I' for Inactive)
REMARK    1  A    between atoms: C2_2  and  C4_4 
REMARK    2  A    between atoms: C6_6  and  O1_7 
REMARK    3  A    between atoms: N1_10  and  C8_11 
REMARK    4  A    between atoms: C10_13  and  N2_14 
REMARK    5  A    between atoms: C15_20  and  N3_21 
REMARK    6  A    between atoms: C22_28  and  C23_29 
ROOT
HETATM    1  C8  UNL     1      -3.425   3.482  11.920  1.00  0.00     0.107 A 
HETATM    2  C9  UNL     1      -3.103   2.260  11.377  1.00  0.00     0.081 A 
HETATM    3  C10 UNL     1      -3.456   1.041  11.938  1.00  0.00     0.076 A 
HETATM    4  C14 UNL     1      -4.169   1.056  13.112  1.00  0.00     0.186 A 
HETATM    5  F1  UNL     1      -4.520  -0.139  13.677  1.00  0.00    -0.200 F 
HETATM    6  C15 UNL     1      -4.505   2.278  13.679  1.00  0.00     0.147 A 
HETATM    7  N4  UNL     1      -4.135   3.403  13.088  1.00  0.00    -0.326 N 
ATOM      8  H4  UNL     1      -4.401   4.279  13.537  1.00  0.00     0.169 HD
ENDROOT
BRANCH   6   9
HETATM    9  N3  UNL     1      -5.256   2.308  14.890  1.00  0.00    -0.350 N 
HETATM   10  C16 UNL     1      -4.968   1.277  15.861  1.00  0.00     0.126 C 
HETATM   11  C17 UNL     1      -4.976   1.757  17.278  1.00  0.00     0.028 C 
HETATM   12  C18 UNL     1      -6.327   2.406  17.516  1.00  0.00    -0.044 C 
HETATM   13  C19 UNL     1      -6.371   2.876  18.946  1.00  0.00     0.015 C 
HETATM   14  C20 UNL     1      -7.472   1.482  17.212  1.00  0.00     0.015 C 
HETATM   15  C21 UNL     1      -6.396   3.604  16.632  1.00  0.00     0.045 C 
HETATM   16  C22 UNL     1      -6.261   3.292  15.150  1.00  0.00     0.187 C 
BRANCH  16  17
HETATM   17  C23 UNL     1      -6.038   4.592  14.489  1.00  0.00     0.196 C 
HETATM   18  O2  UNL     1      -6.710   4.942  13.510  1.00  0.00    -0.646 OA
HETATM   19  O3  UNL     1      -5.056   5.428  14.980  1.00  0.00    -0.646 OA
ENDBRANCH  16  17
ENDBRANCH   6   9
BRANCH   3  20
HETATM   20  N2  UNL     1      -3.104  -0.196  11.345  1.00  0.00    -0.378 N 
HETATM   21  C11 UNL     1      -1.882  -0.955  11.175  1.00  0.00     0.124 C 
HETATM   22  C12 UNL     1      -2.726  -2.211  11.129  1.00  0.00     0.040 C 
HETATM   23  C13 UNL     1      -3.798  -1.254  10.643  1.00  0.00     0.124 C 
ENDBRANCH   3  20
BRANCH   1  24
HETATM   24  N1  UNL     1      -3.092   4.742  11.428  1.00  0.00    -0.360 N 
HETATM   25  C4  UNL     1      -1.981   5.618  11.374  1.00  0.00     0.091 C 
HETATM   26  C5  UNL     1      -1.815   5.797   9.867  1.00  0.00     0.059 C 
HETATM   27  C6  UNL     1      -3.281   5.831   9.413  1.00  0.00     0.138 C 
HETATM   28  C7  UNL     1      -4.104   5.557  10.675  1.00  0.00     0.156 C 
BRANCH  25  29
HETATM   29  C2  UNL     1      -0.739   5.311  12.090  1.00  0.00     0.000 C 
HETATM   30  C1  UNL     1       0.093   4.428  11.118  1.00  0.00     0.011 C 
HETATM   31  C3  UNL     1       0.067   6.573  12.275  1.00  0.00     0.011 C 
ENDBRANCH  25  29
BRANCH  27  32
HETATM   32  O1  UNL     1      -3.536   4.809   8.520  1.00  0.00    -0.394 OA
ATOM     33  H1  UNL     1      -4.146   5.094   7.850  1.00  0.00     0.210 HD
ENDBRANCH  27  32
ENDBRANCH   1  24
TORSDOF 6
ENDMDL
MODEL 3
REMARK VINA RESULT: -8.105098184      2.079      6.159
REMARK  6 active torsions:
REMARK  status: ('A' for Active; 'I' for Inactive)
REMARK    1  A    between atoms: C2_2  and  C4_4 
REMARK    2  A    between atoms: C6_6  and  O1_7 
REMARK    3  A    between atoms: N1_10  and  C8_11 
REMARK    4  A    between atoms: C10_13  and  N2_14 
REMARK    5  A    between atoms: C15_20  and  N3_21 
REMARK    6  A    between atoms: C22_28  and  C23_29 
ROOT
HETATM    1  C8  UNL     1      -4.628   2.840  13.384  1.00  0.00     0.107 A 
HETATM    2  C9  UNL     1      -4.530   1.561  12.887  1.00  0.00     0.081 A 
HETATM    3  C10 UNL     1      -3.572   1.154  11.968  1.00  0.00     0.076 A 
HETATM    4  C14 UNL     1      -2.666   2.088  11.528  1.00  0.00     0.186 A 
HETATM    5  F1  UNL     1      -1.720   1.700  10.620  1.00  0.00    -0.200 F 
HETATM    6  C15 UNL     1      -2.745   3.385  12.016  1.00  0.00     0.147 A 
HETATM    7  N4  UNL     1      -3.686   3.703  12.892  1.00  0.00    -0.326 N 
ATOM      8  H4  UNL     1      -3.711   4.667  13.226  1.00  0.00     0.169 HD
ENDROOT
BRANCH   6   9
HETATM    9  N3  UNL     1      -1.804   4.360  11.577  1.00  0.00    -0.350 N 
HETATM   10  C16 UNL     1      -0.443   4.208  12.038  1.00  0.00     0.126 C 
HETATM   11  C17 UNL     1       0.589   4.526  11.003  1.00  0.00     0.028 C 
HETATM   12  C18 UNL     1       0.305   5.934  10.516  1.00  0.00    -0.044 C 
HETATM   13  C19 UNL     1       1.348   6.290   9.488  1.00  0.00     0.015 C 
HETATM   14  C20 UNL     1       0.280   6.937  11.634  1.00  0.00     0.015 C 
HETATM   15  C21 UNL     1      -1.022   5.901   9.836  1.00  0.00     0.045 C 
HETATM   16  C22 UNL     1      -2.167   5.457  10.732  1.00  0.00     0.187 C 
BRANCH  16  17
HETATM   17  C23 UNL     1      -3.299   5.188   9.825  1.00  0.00     0.196 C 
HETATM   18  O2  UNL     1      -3.124   4.689   8.705  1.00  0.00    -0.646 OA
HETATM   19  O3  UNL     1      -4.576   5.502  10.243  1.00  0.00    -0.646 OA
ENDBRANCH  16  17
ENDBRANCH   6   9
BRANCH   3  20
HETATM   20  N2  UNL     1      -3.507  -0.174  11.481  1.00  0.00    -0.378 N 
HETATM   21  C11 UNL     1      -2.864  -0.841  10.367  1.00  0.00     0.124 C 
HETATM   22  C12 UNL     1      -2.858  -2.109  11.193  1.00  0.00     0.040 C 
HETATM   23  C13 UNL     1      -4.049  -1.458  11.870  1.00  0.00     0.124 C 
ENDBRANCH   3  20
BRANCH   1  24
HETATM   24  N1  UNL     1      -5.568   3.327  14.290  1.00  0.00    -0.360 N 
HETATM   25  C4  UNL     1      -6.195   2.944  15.501  1.00  0.00     0.091 C 
HETATM   26  C5  UNL     1      -5.801   4.099  16.418  1.00  0.00     0.059 C 
HETATM   27  C6  UNL     1      -5.886   5.286  15.448  1.00  0.00     0.138 C 
HETATM   28  C7  UNL     1      -6.202   4.671  14.081  1.00  0.00     0.156 C 
BRANCH  25  29
HETATM   29  C2  UNL     1      -5.984   1.612  16.076  1.00  0.00     0.000 C 
HETATM   30  C1  UNL     1      -4.627   1.696  16.830  1.00  0.00     0.011 C 
HETATM   31  C3  UNL     1      -7.019   1.348  17.140  1.00  0.00     0.011 C 
ENDBRANCH  25  29
BRANCH  27  32
HETATM   32  O1  UNL     1      -4.663   5.919  15.347  1.00  0.00    -0.394 OA
ATOM     33  H1  UNL     1      -4.714   6.650  14.742  1.00  0.00     0.210 HD
ENDBRANCH  27  32
ENDBRANCH   1  24
TORSDOF 6
ENDMDL
MODEL 4
REMARK VINA RESULT: -7.981103031      1.869      5.929
REMARK  6 active torsions:
REMARK  status: ('A' for Active; 'I' for Inactive)
REMARK    1  A    between atoms: C2_2  and  C4_4 
REMARK    2  A    between atoms: C6_6  and  O1_7 
REMARK    3  A    between atoms: N1_10  and  C8_11 
REMARK    4  A    between atoms: C10_13  and  N2_14 
REMARK    5  A    between atoms: C15_20  and  N3_21 
REMARK    6  A    between atoms: C22_28  and  C23_29 
ROOT
HETATM    1  C8  UNL     1      -4.280   2.510  14.605  1.00  0.00     0.107 A 
HETATM    2  C9  UNL     1      -4.198   1.557  13.617  1.00  0.00     0.081 A 
HETATM    3  C10 UNL     1      -3.705   1.797  12.342  1.00  0.00     0.076 A 
HETATM    4  C14 UNL     1      -3.275   3.068  12.048  1.00  0.00     0.186 A 
HETATM    5  F1  UNL     1      -2.790   3.318  10.794  1.00  0.00    -0.200 F 
HETATM    6  C15 UNL     1      -3.348   4.047  13.029  1.00  0.00     0.147 A 
HETATM    7  N4  UNL     1      -3.830   3.746  14.225  1.00  0.00    -0.326 N 
ATOM      8  H4  UNL     1      -3.868   4.494  14.918  1.00  0.00     0.169 HD
ENDROOT
BRANCH   6   9
HETATM    9  N3  UNL     1      -2.894   5.366  12.741  1.00  0.00    -0.350 N 
HETATM   10  C16 UNL     1      -1.467   5.590  12.792  1.00  0.00     0.126 C 
HETATM   11  C17 UNL     1      -0.956   6.496  11.716  1.00  0.00     0.028 C 
HETATM   12  C18 UNL     1      -1.742   7.789  11.818  1.00  0.00    -0.044 C 
HETATM   13  C19 UNL     1      -1.228   8.730  10.760  1.00  0.00     0.015 C 
HETATM   14  C20 UNL     1      -1.657   8.409  13.184  1.00  0.00     0.015 C 
HETATM   15  C21 UNL     1      -3.161   7.463  11.498  1.00  0.00     0.045 C 
HETATM   16  C22 UNL     1      -3.789   6.439  12.430  1.00  0.00     0.187 C 
BRANCH  16  17
HETATM   17  C23 UNL     1      -5.045   6.025  11.776  1.00  0.00     0.196 C 
HETATM   18  O2  UNL     1      -5.083   5.747  10.571  1.00  0.00    -0.646 OA
HETATM   19  O3  UNL     1      -6.195   5.948  12.534  1.00  0.00    -0.646 OA
ENDBRANCH  16  17
ENDBRANCH   6   9
BRANCH   3  20
HETATM   20  N2  UNL     1      -3.638   0.785  11.354  1.00  0.00    -0.378 N 
HETATM   21  C11 UNL     1      -2.580   0.110  10.630  1.00  0.00     0.124 C 
HETATM   22  C12 UNL     1      -3.502  -1.082  10.489  1.00  0.00     0.040 C 
HETATM   23  C13 UNL     1      -4.586  -0.029  10.623  1.00  0.00     0.124 C 
ENDBRANCH   3  20
BRANCH   1  24
HETATM   24  N1  UNL     1      -4.777   2.351  15.896  1.00  0.00    -0.360 N 
HETATM   25  C4  UNL     1      -5.796   2.873  16.730  1.00  0.00     0.091 C 
HETATM   26  C5  UNL     1      -6.586   1.611  17.062  1.00  0.00     0.059 C 
HETATM   27  C6  UNL     1      -5.453   0.584  17.200  1.00  0.00     0.138 C 
HETATM   28  C7  UNL     1      -4.174   1.338  16.826  1.00  0.00     0.156 C 
BRANCH  25  29
HETATM   29  C2  UNL     1      -6.618   4.009  16.301  1.00  0.00     0.000 C 
HETATM   30  C1  UNL     1      -7.396   4.461  17.569  1.00  0.00     0.011 C 
HETATM   31  C3  UNL     1      -5.728   5.172  15.940  1.00  0.00     0.011 C 
ENDBRANCH  25  29
BRANCH  27  32
HETATM   32  O1  UNL     1      -5.613  -0.442  16.290  1.00  0.00    -0.394 OA
ATOM     33  H1  UNL     1      -4.780  -0.675  15.898  1.00  0.00     0.210 HD
ENDBRANCH  27  32
ENDBRANCH   1  24
TORSDOF 6
ENDMDL
MODEL 5
REMARK VINA RESULT: -7.832415809      2.891      4.586
REMARK  6 active torsions:
REMARK  status: ('A' for Active; 'I' for Inactive)
REMARK    1  A    between atoms: C2_2  and  C4_4 
REMARK    2  A    between atoms: C6_6  and  O1_7 
REMARK    3  A    between atoms: N1_10  and  C8_11 
REMARK    4  A    between atoms: C10_13  and  N2_14 
REMARK    5  A    between atoms: C15_20  and  N3_21 
REMARK    6  A    between atoms: C22_28  and  C23_29 
ROOT
HETATM    1  C8  UNL     1      -3.588   5.969   9.803  1.00  0.00     0.107 A 
HETATM    2  C9  UNL     1      -2.257   5.783   9.513  1.00  0.00     0.081 A 
HETATM    3  C10 UNL     1      -1.380   5.054  10.305  1.00  0.00     0.076 A 
HETATM    4  C14 UNL     1      -1.875   4.484  11.453  1.00  0.00     0.186 A 
HETATM    5  F1  UNL     1      -1.022   3.766  12.244  1.00  0.00    -0.200 F 
HETATM    6  C15 UNL     1      -3.216   4.658  11.767  1.00  0.00     0.147 A 
HETATM    7  N4  UNL     1      -3.994   5.366  10.964  1.00  0.00    -0.326 N 
ATOM      8  H4  UNL     1      -4.973   5.472  11.230  1.00  0.00     0.169 HD
ENDROOT
BRANCH   6   9
HETATM    9  N3  UNL     1      -3.745   4.061  12.948  1.00  0.00    -0.350 N 
HETATM   10  C16 UNL     1      -3.951   4.933  14.082  1.00  0.00     0.126 C 
HETATM   11  C17 UNL     1      -5.205   4.648  14.847  1.00  0.00     0.028 C 
HETATM   12  C18 UNL     1      -5.152   3.186  15.251  1.00  0.00    -0.044 C 
HETATM   13  C19 UNL     1      -6.393   2.879  16.047  1.00  0.00     0.015 C 
HETATM   14  C20 UNL     1      -3.911   2.847  16.027  1.00  0.00     0.015 C 
HETATM   15  C21 UNL     1      -5.197   2.386  13.995  1.00  0.00     0.045 C 
HETATM   16  C22 UNL     1      -4.050   2.666  13.037  1.00  0.00     0.187 C 
BRANCH  16  17
HETATM   17  C23 UNL     1      -4.436   2.036  11.760  1.00  0.00     0.196 C 
HETATM   18  O2  UNL     1      -5.601   2.081  11.345  1.00  0.00    -0.646 OA
HETATM   19  O3  UNL     1      -3.470   1.386  11.020  1.00  0.00    -0.646 OA
ENDBRANCH  16  17
ENDBRANCH   6   9
BRANCH   3  20
HETATM   20  N2  UNL     1      -0.015   4.888   9.968  1.00  0.00    -0.378 N 
HETATM   21  C11 UNL     1       1.247   5.381  10.479  1.00  0.00     0.124 C 
HETATM   22  C12 UNL     1       1.900   4.127   9.938  1.00  0.00     0.040 C 
HETATM   23  C13 UNL     1       0.734   4.156   8.969  1.00  0.00     0.124 C 
ENDBRANCH   3  20
BRANCH   1  24
HETATM   24  N1  UNL     1      -4.521   6.700   9.071  1.00  0.00    -0.360 N 
HETATM   25  C4  UNL     1      -5.445   7.757   9.254  1.00  0.00     0.091 C 
HETATM   26  C5  UNL     1      -4.943   8.773   8.232  1.00  0.00     0.059 C 
HETATM   27  C6  UNL     1      -4.526   7.847   7.080  1.00  0.00     0.138 C 
HETATM   28  C7  UNL     1      -4.727   6.424   7.609  1.00  0.00     0.156 C 
BRANCH  25  29
HETATM   29  C2  UNL     1      -5.704   8.314  10.586  1.00  0.00     0.000 C 
HETATM   30  C1  UNL     1      -5.932   9.835  10.363  1.00  0.00     0.011 C 
HETATM   31  C3  UNL     1      -7.016   7.785  11.111  1.00  0.00     0.011 C 
ENDBRANCH  25  29
BRANCH  27  32
HETATM   32  O1  UNL     1      -3.184   7.999   6.795  1.00  0.00    -0.394 OA
ATOM     33  H1  UNL     1      -2.959   7.549   5.989  1.00  0.00     0.210 HD
ENDBRANCH  27  32
ENDBRANCH   1  24
TORSDOF 6
ENDMDL
