MODEL 1
REMARK VINA RESULT: -7.466939484      0.000      0.000
REMARK  8 active torsions:
REMARK  status: ('A' for Active; 'I' for Inactive)
REMARK    1  A    between atoms: C2_2  and  C3_3 
REMARK    2  A    between atoms: C3_3  and  C4_4 
REMARK    3  A    between atoms: C4_4  and  N1_5 
REMARK    4  A    between atoms: N1_5  and  C5_6 
REMARK    5  A    between atoms: C5_6  and  O1_7 
REMARK    6  A    between atoms: C5_6  and  N2_9 
REMARK    7  A    between atoms: N2_9  and  C6_11 
REMARK    8  A    between atoms: C10_16  and  C11_17 
REMARK       I    between atoms: N3_21  and  C14_23 
ROOT
HETATM    1  C11 UNL     1      -3.580   5.164  11.562  1.00  0.00     0.030 C 
HETATM    2  S1  UNL     1      -3.842   6.194  13.008  1.00  0.00    -0.125 SA
HETATM    3  C12 UNL     1      -4.735   5.136  14.181  1.00  0.00     0.133 C 
HETATM    4  C13 UNL     1      -4.583   3.715  13.884  1.00  0.00     0.020 C 
HETATM    5  N3  UNL     1      -5.181   2.870  14.635  1.00  0.00    -0.333 N 
ATOM      6  H3  UNL     1      -5.042   1.890  14.387  1.00  0.00     0.168 HD
HETATM    7  C14 UNL     1      -5.970   3.089  15.710  1.00  0.00     0.217 C 
HETATM    8  C15 UNL     1      -6.508   1.946  16.547  1.00  0.00     0.117 C 
HETATM    9  O2  UNL     1      -6.357   4.237  16.143  1.00  0.00    -0.274 OA
HETATM   10  C16 UNL     1      -3.802   3.035  12.802  1.00  0.00     0.181 C 
HETATM   11  C17 UNL     1      -4.715   2.311  11.904  1.00  0.00     0.073 C 
HETATM   12  N4  UNL     1      -5.460   1.769  11.176  1.00  0.00    -0.196 NA
HETATM   13  C18 UNL     1      -2.895   3.922  12.014  1.00  0.00     0.192 C 
HETATM   14  C19 UNL     1      -2.055   3.225  11.088  1.00  0.00     0.092 C 
HETATM   15  N5  UNL     1      -1.419   2.644  10.328  1.00  0.00    -0.195 NA
HETATM   16  C20 UNL     1      -1.896   4.388  13.101  1.00  0.00     0.092 C 
HETATM   17  N6  UNL     1      -1.164   4.773  13.943  1.00  0.00    -0.195 NA
ENDROOT
BRANCH   1  18
HETATM   18  C10 UNL     1      -3.369   5.774  10.269  1.00  0.00     0.020 A 
HETATM   19  C9  UNL     1      -2.317   6.724  10.196  1.00  0.00     0.127 A 
HETATM   20  C8  UNL     1      -2.221   7.473   9.075  1.00  0.00     0.045 A 
HETATM   21  F1  UNL     1      -1.516   6.802  11.279  1.00  0.00    -0.205 F 
HETATM   22  C7  UNL     1      -3.121   7.332   8.018  1.00  0.00     0.032 A 
HETATM   23  C6  UNL     1      -4.146   6.444   8.048  1.00  0.00     0.037 A 
HETATM   24  C21 UNL     1      -4.259   5.641   9.207  1.00  0.00     0.045 A 
BRANCH  23  25
HETATM   25  N2  UNL     1      -5.164   6.290   7.081  1.00  0.00    -0.311 N 
ATOM     26  H2  UNL     1      -5.110   5.459   6.492  1.00  0.00     0.170 HD
BRANCH  25  27
HETATM   27  C5  UNL     1      -6.258   7.169   6.842  1.00  0.00     0.293 C 
BRANCH  27  28
HETATM   28  N1  UNL     1      -7.083   7.392   7.672  1.00  0.00    -0.410 NA
BRANCH  28  29
HETATM   29  C4  UNL     1      -7.668   7.873   8.822  1.00  0.00     0.226 C 
BRANCH  29  30
HETATM   30  C3  UNL     1      -6.784   8.890   9.582  1.00  0.00     0.059 C 
BRANCH  30  31
HETATM   31  C2  UNL     1      -6.330   8.294  10.833  1.00  0.00    -0.034 C 
HETATM   32  C1  UNL     1      -7.204   7.625  11.598  1.00  0.00     0.007 C 
ENDBRANCH  30  31
ENDBRANCH  29  30
ENDBRANCH  28  29
ENDBRANCH  27  28
BRANCH  27  33
HETATM   33  O1  UNL     1      -6.431   7.845   5.586  1.00  0.00    -0.322 OA
ATOM     34  H1  UNL     1      -6.232   8.774   5.584  1.00  0.00     0.222 HD
ENDBRANCH  27  33
ENDBRANCH  25  27
ENDBRANCH  23  25
ENDBRANCH   1  18
TORSDOF 8
ENDMDL
MODEL 2
REMARK VINA RESULT: -7.332317731      2.944      7.254
REMARK  8 active torsions:
REMARK  status: ('A' for Active; 'I' for Inactive)
REMARK    1  A    between atoms: C2_2  and  C3_3 
REMARK    2  A    between atoms: C3_3  and  C4_4 
REMARK    3  A    between atoms: C4_4  and  N1_5 
REMARK    4  A    between atoms: N1_5  and  C5_6 
REMARK    5  A    between atoms: C5_6  and  O1_7 
REMARK    6  A    between atoms: C5_6  and  N2_9 
REMARK    7  A    between atoms: N2_9  and  C6_11 
REMARK    8  A    between atoms: C10_16  and  C11_17 
REMARK       I    between atoms: N3_21  and  C14_23 
ROOT
HETATM    1  C11 UNL     1      -3.400   4.522  12.082  1.00  0.00     0.030 C 
HETATM    2  S1  UNL     1      -1.734   5.164  12.264  1.00  0.00    -0.125 SA
HETATM    3  C12 UNL     1      -1.800   6.840  11.572  1.00  0.00     0.133 C 
HETATM    4  C13 UNL     1      -3.159   7.371  11.515  1.00  0.00     0.020 C 
HETATM    5  N3  UNL     1      -3.334   8.542  11.031  1.00  0.00    -0.333 N 
ATOM      6  H3  UNL     1      -4.301   8.869  11.014  1.00  0.00     0.168 HD
HETATM    7  C14 UNL     1      -2.422   9.409  10.538  1.00  0.00     0.217 C 
HETATM    8  C15 UNL     1      -2.809  10.808  10.103  1.00  0.00     0.117 C 
HETATM    9  O2  UNL     1      -1.167   9.175  10.373  1.00  0.00    -0.274 OA
HETATM   10  C16 UNL     1      -4.453   6.758  11.954  1.00  0.00     0.181 C 
HETATM   11  C17 UNL     1      -5.333   6.558  10.792  1.00  0.00     0.073 C 
HETATM   12  N4  UNL     1      -6.009   6.372   9.849  1.00  0.00    -0.196 NA
HETATM   13  C18 UNL     1      -4.327   5.489  12.732  1.00  0.00     0.192 C 
HETATM   14  C19 UNL     1      -5.565   5.004  13.263  1.00  0.00     0.092 C 
HETATM   15  N5  UNL     1      -6.576   4.618  13.646  1.00  0.00    -0.195 NA
HETATM   16  C20 UNL     1      -3.577   5.975  13.997  1.00  0.00     0.092 C 
HETATM   17  N6  UNL     1      -2.968   6.343  14.938  1.00  0.00    -0.195 NA
ENDROOT
BRANCH   1  18
HETATM   18  C10 UNL     1      -3.625   3.095  12.044  1.00  0.00     0.020 A 
HETATM   19  C9  UNL     1      -4.049   2.568  10.796  1.00  0.00     0.127 A 
HETATM   20  C8  UNL     1      -4.476   1.286  10.766  1.00  0.00     0.045 A 
HETATM   21  F1  UNL     1      -4.003   3.418   9.750  1.00  0.00    -0.205 F 
HETATM   22  C7  UNL     1      -4.509   0.496  11.916  1.00  0.00     0.032 A 
HETATM   23  C6  UNL     1      -4.122   0.960  13.130  1.00  0.00     0.037 A 
HETATM   24  C21 UNL     1      -3.660   2.296  13.183  1.00  0.00     0.045 A 
BRANCH  23  25
HETATM   25  N2  UNL     1      -4.207   0.281  14.365  1.00  0.00    -0.311 N 
ATOM     26  H2  UNL     1      -4.065  -0.729  14.340  1.00  0.00     0.170 HD
BRANCH  25  27
HETATM   27  C5  UNL     1      -4.468   0.854  15.642  1.00  0.00     0.293 C 
BRANCH  27  28
HETATM   28  N1  UNL     1      -5.558   0.856  16.123  1.00  0.00    -0.410 NA
BRANCH  28  29
HETATM   29  C4  UNL     1      -6.651   1.262  16.856  1.00  0.00     0.226 C 
BRANCH  29  30
HETATM   30  C3  UNL     1      -6.287   1.780  18.268  1.00  0.00     0.059 C 
BRANCH  30  31
HETATM   31  C2  UNL     1      -6.417   3.231  18.298  1.00  0.00    -0.034 C 
HETATM   32  C1  UNL     1      -6.851   3.875  17.205  1.00  0.00     0.007 C 
ENDBRANCH  30  31
ENDBRANCH  29  30
ENDBRANCH  28  29
ENDBRANCH  27  28
BRANCH  27  33
HETATM   33  O1  UNL     1      -3.433   1.463  16.430  1.00  0.00    -0.322 OA
ATOM     34  H1  UNL     1      -3.409   2.413  16.421  1.00  0.00     0.222 HD
ENDBRANCH  27  33
ENDBRANCH  25  27
ENDBRANCH  23  25
ENDBRANCH   1  18
TORSDOF 8
ENDMDL
MODEL 3
REMARK VINA RESULT: -7.302734789      3.617      7.478
REMARK  8 active torsions:
REMARK  status: ('A' for Active; 'I' for Inactive)
REMARK    1  A    between atoms: C2_2  and  C3_3 
REMARK    2  A    between atoms: C3_3  and  C4_4 
REMARK    3  A    between atoms: C4_4  and  N1_5 
REMARK    4  A    between atoms: N1_5  and  C5_6 
REMARK    5  A    between atoms: C5_6  and  O1_7 
REMARK    6  A    between atoms: C5_6  and  N2_9 
REMARK    7  A    between atoms: N2_9  and  C6_11 
REMARK    8  A    between atoms: C10_16  and  C11_17 
REMARK       I    between atoms: N3_21  and  C14_23 
ROOT
HETATM    1  C11 UNL     1      -2.525   5.733  12.658  1.00  0.00     0.030 C 
HETATM    2  S1  UNL     1      -2.253   7.330  13.432  1.00  0.00    -0.125 SA
HETATM    3  C12 UNL     1      -0.523   7.738  13.067  1.00  0.00     0.133 C 
HETATM    4  C13 UNL     1       0.004   6.988  11.931  1.00  0.00     0.020 C 
HETATM    5  N3  UNL     1       1.221   7.180  11.588  1.00  0.00    -0.333 N 
ATOM      6  H3  UNL     1       1.541   6.634  10.788  1.00  0.00     0.168 HD
HETATM    7  C14 UNL     1       2.144   8.003  12.133  1.00  0.00     0.217 C 
HETATM    8  C15 UNL     1       3.516   8.177  11.516  1.00  0.00     0.117 C 
HETATM    9  O2  UNL     1       1.992   8.709  13.198  1.00  0.00    -0.274 OA
HETATM   10  C16 UNL     1      -0.667   5.985  11.044  1.00  0.00     0.181 C 
HETATM   11  C17 UNL     1      -0.021   4.672  11.193  1.00  0.00     0.073 C 
HETATM   12  N4  UNL     1       0.483   3.622  11.350  1.00  0.00    -0.196 NA
HETATM   13  C18 UNL     1      -2.144   5.859  11.225  1.00  0.00     0.192 C 
HETATM   14  C19 UNL     1      -2.779   5.004  10.268  1.00  0.00     0.092 C 
HETATM   15  N5  UNL     1      -3.258   4.285   9.510  1.00  0.00    -0.195 NA
HETATM   16  C20 UNL     1      -2.629   7.268  10.803  1.00  0.00     0.092 C 
HETATM   17  N6  UNL     1      -2.988   8.356  10.522  1.00  0.00    -0.195 NA
ENDROOT
BRANCH   1  18
HETATM   18  C10 UNL     1      -3.578   4.868  13.138  1.00  0.00     0.020 A 
HETATM   19  C9  UNL     1      -4.899   5.374  13.019  1.00  0.00     0.127 A 
HETATM   20  C8  UNL     1      -5.890   4.701  13.644  1.00  0.00     0.045 A 
HETATM   21  F1  UNL     1      -5.034   6.507  12.298  1.00  0.00    -0.205 F 
HETATM   22  C7  UNL     1      -5.639   3.549  14.390  1.00  0.00     0.032 A 
HETATM   23  C6  UNL     1      -4.393   3.034  14.538  1.00  0.00     0.037 A 
HETATM   24  C21 UNL     1      -3.341   3.716  13.882  1.00  0.00     0.045 A 
BRANCH  23  25
HETATM   25  N2  UNL     1      -4.017   1.937  15.345  1.00  0.00    -0.311 N 
ATOM     26  H2  UNL     1      -3.218   2.079  15.962  1.00  0.00     0.170 HD
BRANCH  25  27
HETATM   27  C5  UNL     1      -4.635   0.656  15.389  1.00  0.00     0.293 C 
BRANCH  27  28
HETATM   28  N1  UNL     1      -5.252   0.283  16.338  1.00  0.00    -0.410 NA
BRANCH  28  29
HETATM   29  C4  UNL     1      -6.139   0.289  17.391  1.00  0.00     0.226 C 
BRANCH  29  30
HETATM   30  C3  UNL     1      -7.113   1.491  17.368  1.00  0.00     0.059 C 
BRANCH  30  31
HETATM   31  C2  UNL     1      -6.461   2.651  17.964  1.00  0.00    -0.034 C 
HETATM   32  C1  UNL     1      -6.794   3.880  17.544  1.00  0.00     0.007 C 
ENDBRANCH  30  31
ENDBRANCH  29  30
ENDBRANCH  28  29
ENDBRANCH  27  28
BRANCH  27  33
HETATM   33  O1  UNL     1      -4.556  -0.266  14.290  1.00  0.00    -0.322 OA
ATOM     34  H1  UNL     1      -4.543   0.122  13.422  1.00  0.00     0.222 HD
ENDBRANCH  27  33
ENDBRANCH  25  27
ENDBRANCH  23  25
ENDBRANCH   1  18
TORSDOF 8
ENDMDL
MODEL 4
REMARK VINA RESULT: -7.295629948      2.893      7.748
REMARK  8 active torsions:
REMARK  status: ('A' for Active; 'I' for Inactive)
REMARK    1  A    between atoms: C2_2  and  C3_3 
REMARK    2  A    between atoms: C3_3  and  C4_4 
REMARK    3  A    between atoms: C4_4  and  N1_5 
REMARK    4  A    between atoms: N1_5  and  C5_6 
REMARK    5  A    between atoms: C5_6  and  O1_7 
REMARK    6  A    between atoms: C5_6  and  N2_9 
REMARK    7  A    between atoms: N2_9  and  C6_11 
REMARK    8  A    between atoms: C10_16  and  C11_17 
REMARK       I    between atoms: N3_21  and  C14_23 
ROOT
HETATM    1  C11 UNL     1      -3.372   5.071  11.616  1.00  0.00     0.030 C 
HETATM    2  S1  UNL     1      -2.748   3.997  10.320  1.00  0.00    -0.125 SA
HETATM    3  C12 UNL     1      -2.406   5.100   8.921  1.00  0.00     0.133 C 
HETATM    4  C13 UNL     1      -2.259   6.495   9.328  1.00  0.00     0.020 C 
HETATM    5  N3  UNL     1      -2.031   7.371   8.425  1.00  0.00    -0.333 N 
ATOM      6  H3  UNL     1      -1.934   8.330   8.760  1.00  0.00     0.168 HD
HETATM    7  C14 UNL     1      -1.898   7.208   7.089  1.00  0.00     0.217 C 
HETATM    8  C15 UNL     1      -1.518   8.361   6.183  1.00  0.00     0.117 C 
HETATM    9  O2  UNL     1      -2.074   6.111   6.440  1.00  0.00    -0.274 OA
HETATM   10  C16 UNL     1      -2.325   7.113  10.691  1.00  0.00     0.181 C 
HETATM   11  C17 UNL     1      -3.464   8.040  10.767  1.00  0.00     0.073 C 
HETATM   12  N4  UNL     1      -4.399   8.749  10.822  1.00  0.00    -0.196 NA
HETATM   13  C18 UNL     1      -2.366   6.147  11.829  1.00  0.00     0.192 C 
HETATM   14  C19 UNL     1      -2.280   6.761  13.120  1.00  0.00     0.092 C 
HETATM   15  N5  UNL     1      -2.246   7.282  14.143  1.00  0.00    -0.195 NA
HETATM   16  C20 UNL     1      -0.992   5.446  11.690  1.00  0.00     0.092 C 
HETATM   17  N6  UNL     1       0.037   4.885  11.552  1.00  0.00    -0.195 NA
ENDROOT
BRANCH   1  18
HETATM   18  C10 UNL     1      -4.205   4.529  12.665  1.00  0.00     0.020 A 
HETATM   19  C9  UNL     1      -5.330   5.314  13.031  1.00  0.00     0.127 A 
HETATM   20  C8  UNL     1      -6.010   4.959  14.143  1.00  0.00     0.045 A 
HETATM   21  F1  UNL     1      -5.601   6.366  12.231  1.00  0.00    -0.205 F 
HETATM   22  C7  UNL     1      -5.630   3.863  14.919  1.00  0.00     0.032 A 
HETATM   23  C6  UNL     1      -4.558   3.091  14.612  1.00  0.00     0.037 A 
HETATM   24  C21 UNL     1      -3.837   3.437  13.446  1.00  0.00     0.045 A 
BRANCH  23  25
HETATM   25  N2  UNL     1      -4.031   2.027  15.377  1.00  0.00    -0.311 N 
ATOM     26  H2  UNL     1      -3.177   2.221  15.900  1.00  0.00     0.170 HD
BRANCH  25  27
HETATM   27  C5  UNL     1      -4.566   0.713  15.497  1.00  0.00     0.293 C 
BRANCH  27  28
HETATM   28  N1  UNL     1      -5.072   0.325  16.504  1.00  0.00    -0.410 NA
BRANCH  28  29
HETATM   29  C4  UNL     1      -5.972   0.204  17.538  1.00  0.00     0.226 C 
BRANCH  29  30
HETATM   30  C3  UNL     1      -7.274   1.011  17.319  1.00  0.00     0.059 C 
BRANCH  30  31
HETATM   31  C2  UNL     1      -7.023   2.418  17.605  1.00  0.00    -0.034 C 
HETATM   32  C1  UNL     1      -6.236   2.748  18.640  1.00  0.00     0.007 C 
ENDBRANCH  30  31
ENDBRANCH  29  30
ENDBRANCH  28  29
ENDBRANCH  27  28
BRANCH  27  33
HETATM   33  O1  UNL     1      -4.530  -0.226  14.411  1.00  0.00    -0.322 OA
ATOM     34  H1  UNL     1      -5.346  -0.347  13.939  1.00  0.00     0.222 HD
ENDBRANCH  27  33
ENDBRANCH  25  27
ENDBRANCH  23  25
ENDBRANCH   1  18
TORSDOF 8
ENDMDL
MODEL 5
REMARK VINA RESULT: -7.191321170      3.372      7.426
REMARK  8 active torsions:
REMARK  status: ('A' for Active; 'I' for Inactive)
REMARK    1  A    between atoms: C2_2  and  C3_3 
REMARK    2  A    between atoms: C3_3  and  C4_4 
REMARK    3  A    between atoms: C4_4  and  N1_5 
REMARK    4  A    between atoms: N1_5  and  C5_6 
REMARK    5  A    between atoms: C5_6  and  O1_7 
REMARK    6  A    between atoms: C5_6  and  N2_9 
REMARK    7  A    between atoms: N2_9  and  C6_11 
REMARK    8  A    between atoms: C10_16  and  C11_17 
REMARK       I    between atoms: N3_21  and  C14_23 
ROOT
HETATM    1  C11 UNL     1      -3.040   5.181  12.850  1.00  0.00     0.030 C 
HETATM    2  S1  UNL     1      -2.409   6.834  13.150  1.00  0.00    -0.125 SA
HETATM    3  C12 UNL     1      -0.708   6.808  12.519  1.00  0.00     0.133 C 
HETATM    4  C13 UNL     1      -0.477   5.722  11.570  1.00  0.00     0.020 C 
HETATM    5  N3  UNL     1       0.692   5.592  11.068  1.00  0.00    -0.333 N 
ATOM      6  H3  UNL     1       0.801   4.820  10.409  1.00  0.00     0.168 HD
HETATM    7  C14 UNL     1       1.803   6.331  11.284  1.00  0.00     0.217 C 
HETATM    8  C15 UNL     1       3.081   6.088  10.508  1.00  0.00     0.117 C 
HETATM    9  O2  UNL     1       1.922   7.286  12.138  1.00  0.00    -0.274 OA
HETATM   10  C16 UNL     1      -1.420   4.683  11.047  1.00  0.00     0.181 C 
HETATM   11  C17 UNL     1      -0.976   3.345  11.466  1.00  0.00     0.073 C 
HETATM   12  N4  UNL     1      -0.627   2.287  11.840  1.00  0.00    -0.196 NA
HETATM   13  C18 UNL     1      -2.857   4.887  11.402  1.00  0.00     0.192 C 
HETATM   14  C19 UNL     1      -3.751   3.966  10.769  1.00  0.00     0.092 C 
HETATM   15  N5  UNL     1      -4.443   3.192  10.278  1.00  0.00    -0.195 NA
HETATM   16  C20 UNL     1      -3.168   6.221  10.679  1.00  0.00     0.092 C 
HETATM   17  N6  UNL     1      -3.387   7.258  10.162  1.00  0.00    -0.195 NA
ENDROOT
BRANCH   1  18
HETATM   18  C10 UNL     1      -4.136   4.671  13.641  1.00  0.00     0.020 A 
HETATM   19  C9  UNL     1      -5.345   5.412  13.576  1.00  0.00     0.127 A 
HETATM   20  C8  UNL     1      -6.322   5.102  14.457  1.00  0.00     0.045 A 
HETATM   21  F1  UNL     1      -5.393   6.381  12.639  1.00  0.00    -0.205 F 
HETATM   22  C7  UNL     1      -6.161   4.094  15.409  1.00  0.00     0.032 A 
HETATM   23  C6  UNL     1      -5.020   3.367  15.513  1.00  0.00     0.037 A 
HETATM   24  C21 UNL     1      -3.988   3.666  14.593  1.00  0.00     0.045 A 
BRANCH  23  25
HETATM   25  N2  UNL     1      -4.718   2.398  16.495  1.00  0.00    -0.311 N 
ATOM     26  H2  UNL     1      -4.334   2.746  17.374  1.00  0.00     0.170 HD
BRANCH  25  27
HETATM   27  C5  UNL     1      -4.892   0.989  16.391  1.00  0.00     0.293 C 
BRANCH  27  28
HETATM   28  N1  UNL     1      -4.756   0.411  15.358  1.00  0.00    -0.410 NA
BRANCH  28  29
HETATM   29  C4  UNL     1      -4.148  -0.161  14.263  1.00  0.00     0.226 C 
BRANCH  29  30
HETATM   30  C3  UNL     1      -4.195   0.730  12.998  1.00  0.00     0.059 C 
BRANCH  30  31
HETATM   31  C2  UNL     1      -4.225  -0.117  11.813  1.00  0.00    -0.034 C 
HETATM   32  C1  UNL     1      -3.225  -0.037  10.922  1.00  0.00     0.007 C 
ENDBRANCH  30  31
ENDBRANCH  29  30
ENDBRANCH  28  29
ENDBRANCH  27  28
BRANCH  27  33
HETATM   33  O1  UNL     1      -5.240   0.179  17.524  1.00  0.00    -0.322 OA
ATOM     34  H1  UNL     1      -5.826  -0.549  17.350  1.00  0.00     0.222 HD
ENDBRANCH  27  33
ENDBRANCH  25  27
ENDBRANCH  23  25
ENDBRANCH   1  18
TORSDOF 8
ENDMDL
