MODEL 1
REMARK VINA RESULT: -7.679858073      0.000      0.000
REMARK  11 active torsions:
REMARK  status: ('A' for Active; 'I' for Inactive)
REMARK    1  A    between atoms: O1_2  and  C2_3 
REMARK    2  A    between atoms: C5_6  and  C6_7 
REMARK    3  A    between atoms: C6_7  and  N1_8 
REMARK    4  A    between atoms: N1_8  and  C7_11 
REMARK    5  A    between atoms: C7_11  and  C8_12 
REMARK    6  A    between atoms: C8_12  and  N2_13 
REMARK    7  A    between atoms: N2_13  and  C9_15 
REMARK    8  A    between atoms: C9_15  and  C10_19 
REMARK    9  A    between atoms: C10_19  and  C11_20 
REMARK   10  A    between atoms: C18_27  and  N4_28 
REMARK   11  A    between atoms: N4_28  and  S1_30 
ROOT
HETATM    1  N1  UNL     1      18.067   8.020  24.644  1.00  0.00    -0.070 N 
ATOM      2  H11 UNL     1      18.437   8.400  25.516  1.00  0.00     0.277 HD
ATOM      3  H12 UNL     1      17.284   7.481  25.011  1.00  0.00     0.277 HD
ENDROOT
BRANCH   1   4
HETATM    4  C6  UNL     1      19.040   7.146  24.013  1.00  0.00     0.270 C 
BRANCH   4   5
HETATM    5  C5  UNL     1      20.382   7.679  24.373  1.00  0.00    -0.030 A 
HETATM    6  C4  UNL     1      20.905   7.570  25.655  1.00  0.00     0.012 A 
HETATM    7  C3  UNL     1      22.142   8.072  25.977  1.00  0.00     0.040 A 
HETATM    8  C2  UNL     1      22.925   8.706  25.058  1.00  0.00     0.095 A 
HETATM    9  C18 UNL     1      22.435   8.834  23.759  1.00  0.00     0.076 A 
HETATM   10  C17 UNL     1      21.193   8.326  23.448  1.00  0.00     0.041 A 
BRANCH   8  11
HETATM   11  O1  UNL     1      24.190   9.223  25.380  1.00  0.00    -0.354 OA
HETATM   12  C1  UNL     1      25.262   8.368  25.725  1.00  0.00     0.210 C 
ENDBRANCH   8  11
BRANCH   9  13
HETATM   13  N4  UNL     1      23.238   9.497  22.776  1.00  0.00    -0.282 N 
ATOM     14  H4  UNL     1      23.173  10.513  22.713  1.00  0.00     0.178 HD
BRANCH  13  15
HETATM   15  S1  UNL     1      24.299   8.692  21.700  1.00  0.00     0.227 S 
HETATM   16  C19 UNL     1      23.467   8.333  20.175  1.00  0.00     0.186 C 
HETATM   17  O2  UNL     1      25.485   9.560  21.436  1.00  0.00    -0.206 OA
HETATM   18  O3  UNL     1      24.815   7.420  22.324  1.00  0.00    -0.206 OA
ENDBRANCH  13  15
ENDBRANCH   9  13
ENDBRANCH   4   5
ENDBRANCH   1   4
BRANCH   1  19
HETATM   19  C7  UNL     1      17.601   9.073  23.793  1.00  0.00     0.252 C 
BRANCH  19  20
HETATM   20  C8  UNL     1      17.287  10.261  24.693  1.00  0.00     0.148 C 
BRANCH  20  21
HETATM   21  N2  UNL     1      15.881  10.555  24.761  1.00  0.00    -0.378 N 
ATOM     22  H2  UNL     1      15.457  11.269  24.166  1.00  0.00     0.160 HD
BRANCH  21  23
HETATM   23  C9  UNL     1      15.096   9.801  25.702  1.00  0.00     0.074 C 
HETATM   24  N3  UNL     1      15.611   9.350  26.792  1.00  0.00    -0.389 N 
ATOM     25  H32 UNL     1      16.594   9.518  27.008  1.00  0.00     0.157 HD
ATOM     26  H31 UNL     1      15.055   8.817  27.460  1.00  0.00     0.157 HD
BRANCH  23  27
HETATM   27  C10 UNL     1      13.673   9.559  25.389  1.00  0.00     0.114 C 
BRANCH  27  28
HETATM   28  C11 UNL     1      13.481   8.113  25.108  1.00  0.00    -0.051 A 
HETATM   29  C12 UNL     1      14.477   7.319  24.621  1.00  0.00     0.007 A 
HETATM   30  C13 UNL     1      14.268   5.969  24.378  1.00  0.00     0.001 A 
HETATM   31  C14 UNL     1      13.016   5.482  24.652  1.00  0.00     0.000 A 
HETATM   32  C15 UNL     1      11.982   6.247  25.143  1.00  0.00     0.001 A 
HETATM   33  C16 UNL     1      12.231   7.585  25.372  1.00  0.00     0.007 A 
ENDBRANCH  27  28
ENDBRANCH  23  27
ENDBRANCH  21  23
ENDBRANCH  20  21
ENDBRANCH  19  20
ENDBRANCH   1  19
TORSDOF 11
ENDMDL
MODEL 2
REMARK VINA RESULT: -7.675292561      2.131      3.626
REMARK  11 active torsions:
REMARK  status: ('A' for Active; 'I' for Inactive)
REMARK    1  A    between atoms: O1_2  and  C2_3 
REMARK    2  A    between atoms: C5_6  and  C6_7 
REMARK    3  A    between atoms: C6_7  and  N1_8 
REMARK    4  A    between atoms: N1_8  and  C7_11 
REMARK    5  A    between atoms: C7_11  and  C8_12 
REMARK    6  A    between atoms: C8_12  and  N2_13 
REMARK    7  A    between atoms: N2_13  and  C9_15 
REMARK    8  A    between atoms: C9_15  and  C10_19 
REMARK    9  A    between atoms: C10_19  and  C11_20 
REMARK   10  A    between atoms: C18_27  and  N4_28 
REMARK   11  A    between atoms: N4_28  and  S1_30 
ROOT
HETATM    1  N1  UNL     1      16.562  10.429  24.849  1.00  0.00    -0.070 N 
ATOM      2  H11 UNL     1      16.395   9.658  24.202  1.00  0.00     0.277 HD
ATOM      3  H12 UNL     1      16.828  11.155  24.184  1.00  0.00     0.277 HD
ENDROOT
BRANCH   1   4
HETATM    4  C6  UNL     1      17.666  10.120  25.740  1.00  0.00     0.270 C 
BRANCH   4   5
HETATM    5  C5  UNL     1      18.700   9.444  24.912  1.00  0.00    -0.030 A 
HETATM    6  C4  UNL     1      18.655   9.439  23.524  1.00  0.00     0.012 A 
HETATM    7  C3  UNL     1      19.612   8.805  22.771  1.00  0.00     0.040 A 
HETATM    8  C2  UNL     1      20.660   8.145  23.342  1.00  0.00     0.095 A 
HETATM    9  C18 UNL     1      20.741   8.128  24.734  1.00  0.00     0.076 A 
HETATM   10  C17 UNL     1      19.775   8.768  25.479  1.00  0.00     0.041 A 
BRANCH   8  11
HETATM   11  O1  UNL     1      21.642   7.493  22.579  1.00  0.00    -0.354 OA
HETATM   12  C1  UNL     1      22.123   8.056  21.374  1.00  0.00     0.210 C 
ENDBRANCH   8  11
BRANCH   9  13
HETATM   13  N4  UNL     1      21.831   7.441  25.358  1.00  0.00    -0.282 N 
ATOM     14  H4  UNL     1      21.713   6.450  25.567  1.00  0.00     0.178 HD
BRANCH  13  15
HETATM   15  S1  UNL     1      23.319   8.177  25.776  1.00  0.00     0.227 S 
HETATM   16  C19 UNL     1      23.790   9.353  24.535  1.00  0.00     0.186 C 
HETATM   17  O2  UNL     1      23.177   8.864  27.095  1.00  0.00    -0.206 OA
HETATM   18  O3  UNL     1      24.395   7.132  25.938  1.00  0.00    -0.206 OA
ENDBRANCH  13  15
ENDBRANCH   9  13
ENDBRANCH   4   5
ENDBRANCH   1   4
BRANCH   1  19
HETATM   19  C7  UNL     1      15.354  10.786  25.530  1.00  0.00     0.252 C 
BRANCH  19  20
HETATM   20  C8  UNL     1      14.724   9.490  26.020  1.00  0.00     0.148 C 
BRANCH  20  21
HETATM   21  N2  UNL     1      13.639   9.045  25.187  1.00  0.00    -0.378 N 
ATOM     22  H2  UNL     1      13.198   9.668  24.510  1.00  0.00     0.160 HD
BRANCH  21  23
HETATM   23  C9  UNL     1      13.202   7.683  25.349  1.00  0.00     0.074 C 
HETATM   24  N3  UNL     1      11.958   7.366  25.258  1.00  0.00    -0.389 N 
ATOM     25  H32 UNL     1      11.253   8.080  25.071  1.00  0.00     0.157 HD
ATOM     26  H31 UNL     1      11.647   6.401  25.372  1.00  0.00     0.157 HD
BRANCH  23  27
HETATM   27  C10 UNL     1      14.222   6.650  25.621  1.00  0.00     0.114 C 
BRANCH  27  28
HETATM   28  C11 UNL     1      14.944   6.343  24.360  1.00  0.00    -0.051 A 
HETATM   29  C12 UNL     1      16.221   6.759  24.122  1.00  0.00     0.007 A 
HETATM   30  C13 UNL     1      16.871   6.448  22.937  1.00  0.00     0.001 A 
HETATM   31  C14 UNL     1      16.166   5.705  22.026  1.00  0.00     0.000 A 
HETATM   32  C15 UNL     1      14.876   5.265  22.224  1.00  0.00     0.001 A 
HETATM   33  C16 UNL     1      14.265   5.595  23.416  1.00  0.00     0.007 A 
ENDBRANCH  27  28
ENDBRANCH  23  27
ENDBRANCH  21  23
ENDBRANCH  20  21
ENDBRANCH  19  20
ENDBRANCH   1  19
TORSDOF 11
ENDMDL
MODEL 3
REMARK VINA RESULT: -7.665417480      4.036      8.523
REMARK  11 active torsions:
REMARK  status: ('A' for Active; 'I' for Inactive)
REMARK    1  A    between atoms: O1_2  and  C2_3 
REMARK    2  A    between atoms: C5_6  and  C6_7 
REMARK    3  A    between atoms: C6_7  and  N1_8 
REMARK    4  A    between atoms: N1_8  and  C7_11 
REMARK    5  A    between atoms: C7_11  and  C8_12 
REMARK    6  A    between atoms: C8_12  and  N2_13 
REMARK    7  A    between atoms: N2_13  and  C9_15 
REMARK    8  A    between atoms: C9_15  and  C10_19 
REMARK    9  A    between atoms: C10_19  and  C11_20 
REMARK   10  A    between atoms: C18_27  and  N4_28 
REMARK   11  A    between atoms: N4_28  and  S1_30 
ROOT
HETATM    1  N1  UNL     1      17.687   7.538  21.468  1.00  0.00    -0.070 N 
ATOM      2  H11 UNL     1      17.359   8.210  22.162  1.00  0.00     0.277 HD
ATOM      3  H12 UNL     1      17.276   7.945  20.629  1.00  0.00     0.277 HD
ENDROOT
BRANCH   1   4
HETATM    4  C6  UNL     1      17.131   6.221  21.726  1.00  0.00     0.270 C 
BRANCH   4   5
HETATM    5  C5  UNL     1      16.133   6.391  22.817  1.00  0.00    -0.030 A 
HETATM    6  C4  UNL     1      15.006   5.587  22.925  1.00  0.00     0.012 A 
HETATM    7  C3  UNL     1      14.088   5.758  23.933  1.00  0.00     0.040 A 
HETATM    8  C2  UNL     1      14.232   6.727  24.882  1.00  0.00     0.095 A 
HETATM    9  C18 UNL     1      15.352   7.555  24.808  1.00  0.00     0.076 A 
HETATM   10  C17 UNL     1      16.265   7.373  23.793  1.00  0.00     0.041 A 
BRANCH   8  11
HETATM   11  O1  UNL     1      13.298   6.909  25.914  1.00  0.00    -0.354 OA
HETATM   12  C1  UNL     1      11.926   6.628  25.716  1.00  0.00     0.210 C 
ENDBRANCH   8  11
BRANCH   9  13
HETATM   13  N4  UNL     1      15.525   8.580  25.792  1.00  0.00    -0.282 N 
ATOM     14  H4  UNL     1      15.520   8.304  26.774  1.00  0.00     0.178 HD
BRANCH  13  15
HETATM   15  S1  UNL     1      15.738  10.238  25.426  1.00  0.00     0.227 S 
HETATM   16  C19 UNL     1      16.248  11.124  26.875  1.00  0.00     0.186 C 
HETATM   17  O2  UNL     1      16.771  10.379  24.357  1.00  0.00    -0.206 OA
HETATM   18  O3  UNL     1      14.459  10.824  24.881  1.00  0.00    -0.206 OA
ENDBRANCH  13  15
ENDBRANCH   9  13
ENDBRANCH   4   5
ENDBRANCH   1   4
BRANCH   1  19
HETATM   19  C7  UNL     1      19.116   7.553  21.388  1.00  0.00     0.252 C 
BRANCH  19  20
HETATM   20  C8  UNL     1      19.619   8.291  22.622  1.00  0.00     0.148 C 
BRANCH  20  21
HETATM   21  N2  UNL     1      19.862   7.416  23.737  1.00  0.00    -0.378 N 
ATOM     22  H2  UNL     1      19.835   6.401  23.633  1.00  0.00     0.160 HD
BRANCH  21  23
HETATM   23  C9  UNL     1      20.144   8.032  25.007  1.00  0.00     0.074 C 
HETATM   24  N3  UNL     1      19.459   9.036  25.429  1.00  0.00    -0.389 N 
ATOM     25  H32 UNL     1      18.699   9.418  24.866  1.00  0.00     0.157 HD
ATOM     26  H31 UNL     1      19.658   9.473  26.329  1.00  0.00     0.157 HD
BRANCH  23  27
HETATM   27  C10 UNL     1      21.245   7.478  25.822  1.00  0.00     0.114 C 
BRANCH  27  28
HETATM   28  C11 UNL     1      22.450   8.328  25.644  1.00  0.00    -0.051 A 
HETATM   29  C12 UNL     1      22.868   8.766  24.423  1.00  0.00     0.007 A 
HETATM   30  C13 UNL     1      23.994   9.566  24.291  1.00  0.00     0.001 A 
HETATM   31  C14 UNL     1      24.658   9.888  25.447  1.00  0.00     0.000 A 
HETATM   32  C15 UNL     1      24.271   9.467  26.700  1.00  0.00     0.001 A 
HETATM   33  C16 UNL     1      23.146   8.673  26.788  1.00  0.00     0.007 A 
ENDBRANCH  27  28
ENDBRANCH  23  27
ENDBRANCH  21  23
ENDBRANCH  20  21
ENDBRANCH  19  20
ENDBRANCH   1  19
TORSDOF 11
ENDMDL
MODEL 4
REMARK VINA RESULT: -7.649767359      4.173      5.735
REMARK  11 active torsions:
REMARK  status: ('A' for Active; 'I' for Inactive)
REMARK    1  A    between atoms: O1_2  and  C2_3 
REMARK    2  A    between atoms: C5_6  and  C6_7 
REMARK    3  A    between atoms: C6_7  and  N1_8 
REMARK    4  A    between atoms: N1_8  and  C7_11 
REMARK    5  A    between atoms: C7_11  and  C8_12 
REMARK    6  A    between atoms: C8_12  and  N2_13 
REMARK    7  A    between atoms: N2_13  and  C9_15 
REMARK    8  A    between atoms: C9_15  and  C10_19 
REMARK    9  A    between atoms: C10_19  and  C11_20 
REMARK   10  A    between atoms: C18_27  and  N4_28 
REMARK   11  A    between atoms: N4_28  and  S1_30 
ROOT
HETATM    1  N1  UNL     1      18.197   8.344  25.106  1.00  0.00    -0.070 N 
ATOM      2  H11 UNL     1      18.071   7.913  26.022  1.00  0.00     0.277 HD
ATOM      3  H12 UNL     1      17.237   8.299  24.764  1.00  0.00     0.277 HD
ENDROOT
BRANCH   1   4
HETATM    4  C6  UNL     1      19.075   7.538  24.277  1.00  0.00     0.270 C 
BRANCH   4   5
HETATM    5  C5  UNL     1      18.208   6.865  23.273  1.00  0.00    -0.030 A 
HETATM    6  C4  UNL     1      17.507   7.572  22.303  1.00  0.00     0.012 A 
HETATM    7  C3  UNL     1      16.704   6.940  21.386  1.00  0.00     0.040 A 
HETATM    8  C2  UNL     1      16.548   5.585  21.376  1.00  0.00     0.095 A 
HETATM    9  C18 UNL     1      17.236   4.840  22.333  1.00  0.00     0.076 A 
HETATM   10  C17 UNL     1      18.039   5.485  23.248  1.00  0.00     0.041 A 
BRANCH   8  11
HETATM   11  O1  UNL     1      15.728   4.932  20.442  1.00  0.00    -0.354 OA
HETATM   12  C1  UNL     1      14.937   5.665  19.526  1.00  0.00     0.210 C 
ENDBRANCH   8  11
BRANCH   9  13
HETATM   13  N4  UNL     1      17.087   3.417  22.344  1.00  0.00    -0.282 N 
ATOM     14  H4  UNL     1      16.329   3.020  22.899  1.00  0.00     0.178 HD
BRANCH  13  15
HETATM   15  S1  UNL     1      18.101   2.338  21.484  1.00  0.00     0.227 S 
HETATM   16  C19 UNL     1      17.294   1.788  20.003  1.00  0.00     0.186 C 
HETATM   17  O2  UNL     1      19.378   3.030  21.137  1.00  0.00    -0.206 OA
HETATM   18  O3  UNL     1      18.463   1.156  22.348  1.00  0.00    -0.206 OA
ENDBRANCH  13  15
ENDBRANCH   9  13
ENDBRANCH   4   5
ENDBRANCH   1   4
BRANCH   1  19
HETATM   19  C7  UNL     1      18.621   9.704  25.242  1.00  0.00     0.252 C 
BRANCH  19  20
HETATM   20  C8  UNL     1      17.368  10.536  25.480  1.00  0.00     0.148 C 
BRANCH  20  21
HETATM   21  N2  UNL     1      16.262  10.129  24.656  1.00  0.00    -0.378 N 
ATOM     22  H2  UNL     1      16.382   9.940  23.660  1.00  0.00     0.160 HD
BRANCH  21  23
HETATM   23  C9  UNL     1      14.979  10.001  25.294  1.00  0.00     0.074 C 
HETATM   24  N3  UNL     1      14.065  10.895  25.142  1.00  0.00    -0.389 N 
ATOM     25  H32 UNL     1      14.236  11.718  24.564  1.00  0.00     0.157 HD
ATOM     26  H31 UNL     1      13.155  10.804  25.594  1.00  0.00     0.157 HD
BRANCH  23  27
HETATM   27  C10 UNL     1      14.731   8.810  26.131  1.00  0.00     0.114 C 
BRANCH  27  28
HETATM   28  C11 UNL     1      14.005   7.796  25.324  1.00  0.00    -0.051 A 
HETATM   29  C12 UNL     1      14.641   6.779  24.675  1.00  0.00     0.007 A 
HETATM   30  C13 UNL     1      13.933   5.843  23.935  1.00  0.00     0.001 A 
HETATM   31  C14 UNL     1      12.571   5.995  23.894  1.00  0.00     0.000 A 
HETATM   32  C15 UNL     1      11.889   7.006  24.534  1.00  0.00     0.001 A 
HETATM   33  C16 UNL     1      12.630   7.917  25.259  1.00  0.00     0.007 A 
ENDBRANCH  27  28
ENDBRANCH  23  27
ENDBRANCH  21  23
ENDBRANCH  20  21
ENDBRANCH  19  20
ENDBRANCH   1  19
TORSDOF 11
ENDMDL
MODEL 5
REMARK VINA RESULT: -7.606212828      4.201      5.878
REMARK  11 active torsions:
REMARK  status: ('A' for Active; 'I' for Inactive)
REMARK    1  A    between atoms: O1_2  and  C2_3 
REMARK    2  A    between atoms: C5_6  and  C6_7 
REMARK    3  A    between atoms: C6_7  and  N1_8 
REMARK    4  A    between atoms: N1_8  and  C7_11 
REMARK    5  A    between atoms: C7_11  and  C8_12 
REMARK    6  A    between atoms: C8_12  and  N2_13 
REMARK    7  A    between atoms: N2_13  and  C9_15 
REMARK    8  A    between atoms: C9_15  and  C10_19 
REMARK    9  A    between atoms: C10_19  and  C11_20 
REMARK   10  A    between atoms: C18_27  and  N4_28 
REMARK   11  A    between atoms: N4_28  and  S1_30 
ROOT
HETATM    1  N1  UNL     1      18.171   8.327  25.089  1.00  0.00    -0.070 N 
ATOM      2  H11 UNL     1      18.048   7.897  26.006  1.00  0.00     0.277 HD
ATOM      3  H12 UNL     1      17.211   8.280  24.749  1.00  0.00     0.277 HD
ENDROOT
BRANCH   1   4
HETATM    4  C6  UNL     1      19.049   7.522  24.258  1.00  0.00     0.270 C 
BRANCH   4   5
HETATM    5  C5  UNL     1      18.181   6.845  23.259  1.00  0.00    -0.030 A 
HETATM    6  C4  UNL     1      17.431   7.550  22.326  1.00  0.00     0.012 A 
HETATM    7  C3  UNL     1      16.627   6.913  21.413  1.00  0.00     0.040 A 
HETATM    8  C2  UNL     1      16.519   5.554  21.371  1.00  0.00     0.095 A 
HETATM    9  C18 UNL     1      17.257   4.810  22.291  1.00  0.00     0.076 A 
HETATM   10  C17 UNL     1      18.060   5.461  23.202  1.00  0.00     0.041 A 
BRANCH   8  11
HETATM   11  O1  UNL     1      15.699   4.896  20.441  1.00  0.00    -0.354 OA
HETATM   12  C1  UNL     1      14.805   5.617  19.616  1.00  0.00     0.210 C 
ENDBRANCH   8  11
BRANCH   9  13
HETATM   13  N4  UNL     1      17.159   3.383  22.268  1.00  0.00    -0.282 N 
ATOM     14  H4  UNL     1      16.482   2.941  22.889  1.00  0.00     0.178 HD
BRANCH  13  15
HETATM   15  S1  UNL     1      18.108   2.370  21.265  1.00  0.00     0.227 S 
HETATM   16  C19 UNL     1      18.685   0.966  22.184  1.00  0.00     0.186 C 
HETATM   17  O2  UNL     1      17.285   1.912  20.107  1.00  0.00    -0.206 OA
HETATM   18  O3  UNL     1      19.276   3.137  20.699  1.00  0.00    -0.206 OA
ENDBRANCH  13  15
ENDBRANCH   9  13
ENDBRANCH   4   5
ENDBRANCH   1   4
BRANCH   1  19
HETATM   19  C7  UNL     1      18.593   9.688  25.223  1.00  0.00     0.252 C 
BRANCH  19  20
HETATM   20  C8  UNL     1      17.342  10.514  25.490  1.00  0.00     0.148 C 
BRANCH  20  21
HETATM   21  N2  UNL     1      16.235  10.139  24.652  1.00  0.00    -0.378 N 
ATOM     22  H2  UNL     1      16.356   9.976  23.651  1.00  0.00     0.160 HD
BRANCH  21  23
HETATM   23  C9  UNL     1      14.949  10.004  25.283  1.00  0.00     0.074 C 
HETATM   24  N3  UNL     1      14.031  10.893  25.127  1.00  0.00    -0.389 N 
ATOM     25  H32 UNL     1      14.201  11.717  24.550  1.00  0.00     0.157 HD
ATOM     26  H31 UNL     1      13.119  10.797  25.574  1.00  0.00     0.157 HD
BRANCH  23  27
HETATM   27  C10 UNL     1      14.703   8.810  26.118  1.00  0.00     0.114 C 
BRANCH  27  28
HETATM   28  C11 UNL     1      13.917   7.826  25.331  1.00  0.00    -0.051 A 
HETATM   29  C12 UNL     1      12.563   7.906  25.193  1.00  0.00     0.007 A 
HETATM   30  C13 UNL     1      11.858   6.975  24.444  1.00  0.00     0.001 A 
HETATM   31  C14 UNL     1      12.592   5.978  23.856  1.00  0.00     0.000 A 
HETATM   32  C15 UNL     1      13.959   5.858  23.970  1.00  0.00     0.001 A 
HETATM   33  C16 UNL     1      14.623   6.805  24.723  1.00  0.00     0.007 A 
ENDBRANCH  27  28
ENDBRANCH  23  27
ENDBRANCH  21  23
ENDBRANCH  20  21
ENDBRANCH  19  20
ENDBRANCH   1  19
TORSDOF 11
ENDMDL
