MODEL 1
REMARK VINA RESULT: -6.916165573      0.000      0.000
REMARK  13 active torsions:
REMARK  status: ('A' for Active; 'I' for Inactive)
REMARK    1  A    between atoms: C2_2  and  C3_3 
REMARK    2  A    between atoms: C6_8  and  N2_9 
REMARK    3  A    between atoms: N2_9  and  C7_11 
REMARK    4  A    between atoms: C7_11  and  C8_12 
REMARK    5  A    between atoms: C8_12  and  C9_13 
REMARK    6  A    between atoms: C9_13  and  C10_14 
REMARK    7  A    between atoms: C10_14  and  C11_15 
REMARK    8  A    between atoms: C11_15  and  C12_16 
REMARK    9  A    between atoms: C12_16  and  C13_17 
REMARK   10  A    between atoms: C13_17  and  N3_18 
REMARK   11  A    between atoms: N7_32  and  C18_34 
REMARK   12  A    between atoms: C18_34  and  C19_35 
REMARK   13  A    between atoms: C19_35  and  O1_36 
ROOT
HETATM    1  C3  UNL     1      13.902   6.575  24.546  1.00  0.00    -0.013 A 
HETATM    2  C4  UNL     1      14.398   5.512  23.800  1.00  0.00     0.043 A 
HETATM    3  C5  UNL     1      15.732   5.462  23.462  1.00  0.00     0.080 A 
HETATM    4  N1  UNL     1      16.288   4.463  22.741  1.00  0.00    -0.190 N 
ATOM      5  H1  UNL     1      15.690   3.700  22.427  1.00  0.00     0.184 HD
HETATM    6  C6  UNL     1      17.582   4.430  22.422  1.00  0.00     0.680 A 
HETATM    7  N4  UNL     1      18.388   5.432  22.831  1.00  0.00    -0.175 N 
ATOM      8  H4  UNL     1      19.381   5.423  22.597  1.00  0.00     0.186 HD
HETATM    9  C14 UNL     1      17.868   6.448  23.555  1.00  0.00     0.145 A 
HETATM   10  N5  UNL     1      18.598   7.420  23.963  1.00  0.00    -0.378 N 
ATOM     11  H5  UNL     1      18.192   8.181  24.508  1.00  0.00     0.160 HD
HETATM   12  C15 UNL     1      20.007   7.419  23.638  1.00  0.00     0.147 C 
HETATM   13  C16 UNL     1      16.525   6.503  23.897  1.00  0.00     0.106 A 
HETATM   14  N6  UNL     1      16.015   7.523  24.622  1.00  0.00    -0.337 N 
ATOM     15  H6  UNL     1      16.645   8.269  24.919  1.00  0.00     0.167 HD
HETATM   16  C17 UNL     1      14.721   7.606  24.971  1.00  0.00     0.108 A 
HETATM   17  N7  UNL     1      14.203   8.558  25.658  1.00  0.00    -0.374 N 
ATOM     18  H7  UNL     1      13.203   8.484  25.845  1.00  0.00     0.161 HD
ENDROOT
BRANCH   6  19
HETATM   19  N2  UNL     1      18.096   3.470  21.736  1.00  0.00    -0.226 N 
ATOM     20  H2  UNL     1      19.078   3.226  21.864  1.00  0.00     0.177 HD
BRANCH  19  21
HETATM   21  C7  UNL     1      17.302   2.745  20.797  1.00  0.00     0.138 C 
BRANCH  21  22
HETATM   22  C8  UNL     1      17.141   3.469  19.481  1.00  0.00     0.020 C 
BRANCH  22  23
HETATM   23  C9  UNL     1      15.700   3.769  19.169  1.00  0.00     0.002 C 
BRANCH  23  24
HETATM   24  C10 UNL     1      15.408   5.237  19.395  1.00  0.00     0.000 C 
BRANCH  24  25
HETATM   25  C11 UNL     1      16.641   6.059  19.179  1.00  0.00     0.002 C 
BRANCH  25  26
HETATM   26  C12 UNL     1      16.679   7.221  20.131  1.00  0.00     0.027 C 
BRANCH  26  27
HETATM   27  C13 UNL     1      18.039   7.905  20.114  1.00  0.00     0.229 C 
BRANCH  27  28
HETATM   28  N3  UNL     1      18.007   9.073  20.973  1.00  0.00    -0.079 N 
ATOM     29  H33 UNL     1      17.427   9.818  20.588  1.00  0.00     0.274 HD
ATOM     30  H32 UNL     1      17.480   8.905  21.830  1.00  0.00     0.274 HD
ATOM     31  H31 UNL     1      18.960   9.384  21.160  1.00  0.00     0.274 HD
ENDBRANCH  27  28
ENDBRANCH  26  27
ENDBRANCH  25  26
ENDBRANCH  24  25
ENDBRANCH  23  24
ENDBRANCH  22  23
ENDBRANCH  21  22
ENDBRANCH  19  21
ENDBRANCH   6  19
BRANCH   1  32
HETATM   32  C2  UNL     1      12.474   6.636  24.912  1.00  0.00     0.038 C 
HETATM   33  C1  UNL     1      11.555   6.715  23.726  1.00  0.00     0.010 C 
ENDBRANCH   1  32
BRANCH  17  34
HETATM   34  C18 UNL     1      14.862   9.708  26.190  1.00  0.00     0.147 C 
BRANCH  34  35
HETATM   35  C19 UNL     1      14.914  10.866  25.256  1.00  0.00     0.186 C 
BRANCH  35  36
HETATM   36  O1  UNL     1      16.055  10.827  24.487  1.00  0.00    -0.394 OA
HETATM   37  C20 UNL     1      17.234  10.963  25.171  1.00  0.00     0.201 C 
ENDBRANCH  35  36
ENDBRANCH  34  35
ENDBRANCH  17  34
TORSDOF 13
ENDMDL
MODEL 2
REMARK VINA RESULT: -6.916040607      1.815      2.042
REMARK  13 active torsions:
REMARK  status: ('A' for Active; 'I' for Inactive)
REMARK    1  A    between atoms: C2_2  and  C3_3 
REMARK    2  A    between atoms: C6_8  and  N2_9 
REMARK    3  A    between atoms: N2_9  and  C7_11 
REMARK    4  A    between atoms: C7_11  and  C8_12 
REMARK    5  A    between atoms: C8_12  and  C9_13 
REMARK    6  A    between atoms: C9_13  and  C10_14 
REMARK    7  A    between atoms: C10_14  and  C11_15 
REMARK    8  A    between atoms: C11_15  and  C12_16 
REMARK    9  A    between atoms: C12_16  and  C13_17 
REMARK   10  A    between atoms: C13_17  and  N3_18 
REMARK   11  A    between atoms: N7_32  and  C18_34 
REMARK   12  A    between atoms: C18_34  and  C19_35 
REMARK   13  A    between atoms: C19_35  and  O1_36 
ROOT
HETATM    1  C3  UNL     1      13.830   7.288  24.806  1.00  0.00    -0.013 A 
HETATM    2  C4  UNL     1      14.117   6.106  24.131  1.00  0.00     0.043 A 
HETATM    3  C5  UNL     1      15.400   5.843  23.704  1.00  0.00     0.080 A 
HETATM    4  N1  UNL     1      15.756   4.719  23.044  1.00  0.00    -0.190 N 
ATOM      5  H1  UNL     1      15.038   4.022  22.848  1.00  0.00     0.184 HD
HETATM    6  C6  UNL     1      17.003   4.478  22.638  1.00  0.00     0.680 A 
HETATM    7  N4  UNL     1      17.966   5.390  22.891  1.00  0.00    -0.175 N 
ATOM      8  H4  UNL     1      18.926   5.222  22.587  1.00  0.00     0.186 HD
HETATM    9  C14 UNL     1      17.647   6.526  23.549  1.00  0.00     0.145 A 
HETATM   10  N5  UNL     1      18.531   7.418  23.808  1.00  0.00    -0.378 N 
ATOM     11  H5  UNL     1      18.276   8.271  24.306  1.00  0.00     0.160 HD
HETATM   12  C15 UNL     1      19.895   7.193  23.385  1.00  0.00     0.147 C 
HETATM   13  C16 UNL     1      16.357   6.796  23.979  1.00  0.00     0.106 A 
HETATM   14  N6  UNL     1      16.049   7.936  24.638  1.00  0.00    -0.337 N 
ATOM     15  H6  UNL     1      16.795   8.609  24.817  1.00  0.00     0.167 HD
HETATM   16  C17 UNL     1      14.812   8.227  25.069  1.00  0.00     0.108 A 
HETATM   17  N7  UNL     1      14.484   9.296  25.698  1.00  0.00    -0.374 N 
ATOM     18  H7  UNL     1      13.502   9.379  25.963  1.00  0.00     0.161 HD
ENDROOT
BRANCH   6  19
HETATM   19  N2  UNL     1      17.325   3.402  22.012  1.00  0.00    -0.226 N 
ATOM     20  H2  UNL     1      17.558   2.560  22.539  1.00  0.00     0.177 HD
BRANCH  19  21
HETATM   21  C7  UNL     1      17.360   3.376  20.585  1.00  0.00     0.138 C 
BRANCH  21  22
HETATM   22  C8  UNL     1      16.008   3.101  19.969  1.00  0.00     0.020 C 
BRANCH  22  23
HETATM   23  C9  UNL     1      15.624   4.143  18.953  1.00  0.00     0.002 C 
BRANCH  23  24
HETATM   24  C10 UNL     1      14.931   5.307  19.629  1.00  0.00     0.000 C 
BRANCH  24  25
HETATM   25  C11 UNL     1      14.034   6.019  18.664  1.00  0.00     0.002 C 
BRANCH  25  26
HETATM   26  C12 UNL     1      14.729   7.215  18.076  1.00  0.00     0.027 C 
BRANCH  26  27
HETATM   27  C13 UNL     1      14.246   7.491  16.658  1.00  0.00     0.229 C 
BRANCH  27  28
HETATM   28  N3  UNL     1      14.609   8.842  16.277  1.00  0.00    -0.079 N 
ATOM     29  H33 UNL     1      13.896   9.283  15.696  1.00  0.00     0.274 HD
ATOM     30  H32 UNL     1      14.574   9.487  17.066  1.00  0.00     0.274 HD
ATOM     31  H31 UNL     1      15.524   8.834  15.825  1.00  0.00     0.274 HD
ENDBRANCH  27  28
ENDBRANCH  26  27
ENDBRANCH  25  26
ENDBRANCH  24  25
ENDBRANCH  23  24
ENDBRANCH  22  23
ENDBRANCH  21  22
ENDBRANCH  19  21
ENDBRANCH   6  19
BRANCH   1  32
HETATM   32  C2  UNL     1      12.459   7.578  25.266  1.00  0.00     0.038 C 
HETATM   33  C1  UNL     1      11.652   6.345  25.558  1.00  0.00     0.010 C 
ENDBRANCH   1  32
BRANCH  17  34
HETATM   34  C18 UNL     1      15.332  10.385  26.069  1.00  0.00     0.147 C 
BRANCH  34  35
HETATM   35  C19 UNL     1      16.248  10.083  27.203  1.00  0.00     0.186 C 
BRANCH  35  36
HETATM   36  O1  UNL     1      16.160  11.052  28.177  1.00  0.00    -0.394 OA
HETATM   37  C20 UNL     1      16.740  12.254  27.868  1.00  0.00     0.201 C 
ENDBRANCH  35  36
ENDBRANCH  34  35
ENDBRANCH  17  34
TORSDOF 13
ENDMDL
MODEL 3
REMARK VINA RESULT: -6.809206498      1.473      1.682
REMARK  13 active torsions:
REMARK  status: ('A' for Active; 'I' for Inactive)
REMARK    1  A    between atoms: C2_2  and  C3_3 
REMARK    2  A    between atoms: C6_8  and  N2_9 
REMARK    3  A    between atoms: N2_9  and  C7_11 
REMARK    4  A    between atoms: C7_11  and  C8_12 
REMARK    5  A    between atoms: C8_12  and  C9_13 
REMARK    6  A    between atoms: C9_13  and  C10_14 
REMARK    7  A    between atoms: C10_14  and  C11_15 
REMARK    8  A    between atoms: C11_15  and  C12_16 
REMARK    9  A    between atoms: C12_16  and  C13_17 
REMARK   10  A    between atoms: C13_17  and  N3_18 
REMARK   11  A    between atoms: N7_32  and  C18_34 
REMARK   12  A    between atoms: C18_34  and  C19_35 
REMARK   13  A    between atoms: C19_35  and  O1_36 
ROOT
HETATM    1  C3  UNL     1      13.945   6.570  24.721  1.00  0.00    -0.013 A 
HETATM    2  C4  UNL     1      14.383   5.498  23.951  1.00  0.00     0.043 A 
HETATM    3  C5  UNL     1      15.684   5.450  23.502  1.00  0.00     0.080 A 
HETATM    4  N1  UNL     1      16.184   4.443  22.752  1.00  0.00    -0.190 N 
ATOM      5  H1  UNL     1      15.566   3.672  22.500  1.00  0.00     0.184 HD
HETATM    6  C6  UNL     1      17.446   4.411  22.325  1.00  0.00     0.680 A 
HETATM    7  N4  UNL     1      18.277   5.425  22.650  1.00  0.00    -0.175 N 
ATOM      8  H4  UNL     1      19.247   5.417  22.332  1.00  0.00     0.186 HD
HETATM    9  C14 UNL     1      17.813   6.449  23.399  1.00  0.00     0.145 A 
HETATM   10  N5  UNL     1      18.569   7.431  23.729  1.00  0.00    -0.378 N 
ATOM     11  H5  UNL     1      18.205   8.197  24.295  1.00  0.00     0.160 HD
HETATM   12  C15 UNL     1      19.945   7.432  23.287  1.00  0.00     0.147 C 
HETATM   13  C16 UNL     1      16.504   6.501  23.853  1.00  0.00     0.106 A 
HETATM   14  N6  UNL     1      16.050   7.531  24.603  1.00  0.00    -0.337 N 
ATOM     15  H6  UNL     1      16.698   8.284  24.834  1.00  0.00     0.167 HD
HETATM   16  C17 UNL     1      14.790   7.612  25.059  1.00  0.00     0.108 A 
HETATM   17  N7  UNL     1      14.326   8.571  25.773  1.00  0.00    -0.374 N 
ATOM     18  H7  UNL     1      13.346   8.495  26.045  1.00  0.00     0.161 HD
ENDROOT
BRANCH   6  19
HETATM   19  N2  UNL     1      17.906   3.445  21.612  1.00  0.00    -0.226 N 
ATOM     20  H2  UNL     1      18.814   3.038  21.837  1.00  0.00     0.177 HD
BRANCH  19  21
HETATM   21  C7  UNL     1      17.156   2.936  20.510  1.00  0.00     0.138 C 
BRANCH  21  22
HETATM   22  C8  UNL     1      16.985   3.946  19.399  1.00  0.00     0.020 C 
BRANCH  22  23
HETATM   23  C9  UNL     1      15.541   4.134  19.019  1.00  0.00     0.002 C 
BRANCH  23  24
HETATM   24  C10 UNL     1      15.009   5.426  19.602  1.00  0.00     0.000 C 
BRANCH  24  25
HETATM   25  C11 UNL     1      14.089   6.103  18.632  1.00  0.00     0.002 C 
BRANCH  25  26
HETATM   26  C12 UNL     1      14.781   7.257  17.962  1.00  0.00     0.027 C 
BRANCH  26  27
HETATM   27  C13 UNL     1      14.188   7.532  16.587  1.00  0.00     0.229 C 
BRANCH  27  28
HETATM   28  N3  UNL     1      14.582   8.856  16.144  1.00  0.00    -0.079 N 
ATOM     29  H33 UNL     1      14.496   9.551  16.885  1.00  0.00     0.274 HD
ATOM     30  H32 UNL     1      15.588   8.927  15.994  1.00  0.00     0.274 HD
ATOM     31  H31 UNL     1      14.048   9.110  15.313  1.00  0.00     0.274 HD
ENDBRANCH  27  28
ENDBRANCH  26  27
ENDBRANCH  25  26
ENDBRANCH  24  25
ENDBRANCH  23  24
ENDBRANCH  22  23
ENDBRANCH  21  22
ENDBRANCH  19  21
ENDBRANCH   6  19
BRANCH   1  32
HETATM   32  C2  UNL     1      12.553   6.630  25.205  1.00  0.00     0.038 C 
HETATM   33  C1  UNL     1      11.542   6.785  24.104  1.00  0.00     0.010 C 
ENDBRANCH   1  32
BRANCH  17  34
HETATM   34  C18 UNL     1      15.020   9.734  26.231  1.00  0.00     0.147 C 
BRANCH  34  35
HETATM   35  C19 UNL     1      15.006  10.869  25.267  1.00  0.00     0.186 C 
BRANCH  35  36
HETATM   36  O1  UNL     1      16.115  10.834  24.451  1.00  0.00    -0.394 OA
HETATM   37  C20 UNL     1      17.323  10.898  25.093  1.00  0.00     0.201 C 
ENDBRANCH  35  36
ENDBRANCH  34  35
ENDBRANCH  17  34
TORSDOF 13
ENDMDL
MODEL 4
REMARK VINA RESULT: -6.789371202      2.421      6.713
REMARK  13 active torsions:
REMARK  status: ('A' for Active; 'I' for Inactive)
REMARK    1  A    between atoms: C2_2  and  C3_3 
REMARK    2  A    between atoms: C6_8  and  N2_9 
REMARK    3  A    between atoms: N2_9  and  C7_11 
REMARK    4  A    between atoms: C7_11  and  C8_12 
REMARK    5  A    between atoms: C8_12  and  C9_13 
REMARK    6  A    between atoms: C9_13  and  C10_14 
REMARK    7  A    between atoms: C10_14  and  C11_15 
REMARK    8  A    between atoms: C11_15  and  C12_16 
REMARK    9  A    between atoms: C12_16  and  C13_17 
REMARK   10  A    between atoms: C13_17  and  N3_18 
REMARK   11  A    between atoms: N7_32  and  C18_34 
REMARK   12  A    between atoms: C18_34  and  C19_35 
REMARK   13  A    between atoms: C19_35  and  O1_36 
ROOT
HETATM    1  C3  UNL     1      19.751   7.864  23.763  1.00  0.00    -0.013 A 
HETATM    2  C4  UNL     1      18.525   7.835  24.418  1.00  0.00     0.043 A 
HETATM    3  C5  UNL     1      17.497   7.057  23.934  1.00  0.00     0.080 A 
HETATM    4  N1  UNL     1      16.279   6.975  24.514  1.00  0.00    -0.190 N 
ATOM      5  H1  UNL     1      16.106   7.519  25.358  1.00  0.00     0.184 HD
HETATM    6  C6  UNL     1      15.293   6.217  24.033  1.00  0.00     0.680 A 
HETATM    7  N4  UNL     1      15.507   5.490  22.915  1.00  0.00    -0.175 N 
ATOM      8  H4  UNL     1      14.764   4.903  22.532  1.00  0.00     0.186 HD
HETATM    9  C14 UNL     1      16.712   5.546  22.308  1.00  0.00     0.145 A 
HETATM   10  N5  UNL     1      16.957   4.872  21.244  1.00  0.00    -0.378 N 
ATOM     11  H5  UNL     1      17.872   4.924  20.796  1.00  0.00     0.160 HD
HETATM   12  C15 UNL     1      15.914   4.037  20.692  1.00  0.00     0.147 C 
HETATM   13  C16 UNL     1      17.750   6.329  22.791  1.00  0.00     0.106 A 
HETATM   14  N6  UNL     1      18.953   6.377  22.176  1.00  0.00    -0.337 N 
ATOM     15  H6  UNL     1      19.089   5.818  21.333  1.00  0.00     0.167 HD
HETATM   16  C17 UNL     1      19.978   7.122  22.618  1.00  0.00     0.108 A 
HETATM   17  N7  UNL     1      21.132   7.191  22.062  1.00  0.00    -0.374 N 
ATOM     18  H7  UNL     1      21.813   7.802  22.513  1.00  0.00     0.161 HD
ENDROOT
BRANCH   6  19
HETATM   19  N2  UNL     1      14.140   6.149  24.598  1.00  0.00    -0.226 N 
ATOM     20  H2  UNL     1      13.476   5.431  24.309  1.00  0.00     0.177 HD
BRANCH  19  21
HETATM   21  C7  UNL     1      13.782   7.072  25.626  1.00  0.00     0.138 C 
BRANCH  21  22
HETATM   22  C8  UNL     1      12.678   8.016  25.211  1.00  0.00     0.020 C 
BRANCH  22  23
HETATM   23  C9  UNL     1      13.106   9.457  25.284  1.00  0.00     0.002 C 
BRANCH  23  24
HETATM   24  C10 UNL     1      14.458   9.571  25.954  1.00  0.00     0.000 C 
BRANCH  24  25
HETATM   25  C11 UNL     1      15.338  10.526  25.206  1.00  0.00     0.002 C 
BRANCH  25  26
HETATM   26  C12 UNL     1      16.513  10.937  26.050  1.00  0.00     0.027 C 
BRANCH  26  27
HETATM   27  C13 UNL     1      16.131  11.024  27.521  1.00  0.00     0.229 C 
BRANCH  27  28
HETATM   28  N3  UNL     1      15.864  12.405  27.872  1.00  0.00    -0.079 N 
ATOM     29  H33 UNL     1      14.968  12.516  28.346  1.00  0.00     0.274 HD
ATOM     30  H32 UNL     1      16.468  12.735  28.624  1.00  0.00     0.274 HD
ATOM     31  H31 UNL     1      15.932  12.988  27.038  1.00  0.00     0.274 HD
ENDBRANCH  27  28
ENDBRANCH  26  27
ENDBRANCH  25  26
ENDBRANCH  24  25
ENDBRANCH  23  24
ENDBRANCH  22  23
ENDBRANCH  21  22
ENDBRANCH  19  21
ENDBRANCH   6  19
BRANCH   1  32
HETATM   32  C2  UNL     1      20.858   8.695  24.275  1.00  0.00     0.038 C 
HETATM   33  C1  UNL     1      21.351   8.268  25.629  1.00  0.00     0.010 C 
ENDBRANCH   1  32
BRANCH  17  34
HETATM   34  C18 UNL     1      21.575   6.513  20.884  1.00  0.00     0.147 C 
BRANCH  34  35
HETATM   35  C19 UNL     1      21.234   7.213  19.615  1.00  0.00     0.186 C 
BRANCH  35  36
HETATM   36  O1  UNL     1      20.001   6.814  19.150  1.00  0.00    -0.394 OA
HETATM   37  C20 UNL     1      19.131   7.825  18.838  1.00  0.00     0.201 C 
ENDBRANCH  35  36
ENDBRANCH  34  35
ENDBRANCH  17  34
TORSDOF 13
ENDMDL
MODEL 5
REMARK VINA RESULT: -6.711624148      2.721      6.368
REMARK  13 active torsions:
REMARK  status: ('A' for Active; 'I' for Inactive)
REMARK    1  A    between atoms: C2_2  and  C3_3 
REMARK    2  A    between atoms: C6_8  and  N2_9 
REMARK    3  A    between atoms: N2_9  and  C7_11 
REMARK    4  A    between atoms: C7_11  and  C8_12 
REMARK    5  A    between atoms: C8_12  and  C9_13 
REMARK    6  A    between atoms: C9_13  and  C10_14 
REMARK    7  A    between atoms: C10_14  and  C11_15 
REMARK    8  A    between atoms: C11_15  and  C12_16 
REMARK    9  A    between atoms: C12_16  and  C13_17 
REMARK   10  A    between atoms: C13_17  and  N3_18 
REMARK   11  A    between atoms: N7_32  and  C18_34 
REMARK   12  A    between atoms: C18_34  and  C19_35 
REMARK   13  A    between atoms: C19_35  and  O1_36 
ROOT
HETATM    1  C3  UNL     1      18.615   7.496  23.958  1.00  0.00    -0.013 A 
HETATM    2  C4  UNL     1      17.255   7.727  23.791  1.00  0.00     0.043 A 
HETATM    3  C5  UNL     1      16.607   8.664  24.567  1.00  0.00     0.080 A 
HETATM    4  N1  UNL     1      15.290   8.945  24.463  1.00  0.00    -0.190 N 
ATOM      5  H1  UNL     1      14.738   8.438  23.772  1.00  0.00     0.184 HD
HETATM    6  C6  UNL     1      14.678   9.854  25.222  1.00  0.00     0.680 A 
HETATM    7  N4  UNL     1      15.395  10.535  26.142  1.00  0.00    -0.175 N 
ATOM      8  H4  UNL     1      14.944  11.235  26.731  1.00  0.00     0.186 HD
HETATM    9  C14 UNL     1      16.715  10.280  26.274  1.00  0.00     0.145 A 
HETATM   10  N5  UNL     1      17.432  10.904  27.136  1.00  0.00    -0.378 N 
ATOM     11  H5  UNL     1      18.428  10.702  27.225  1.00  0.00     0.160 HD
HETATM   12  C15 UNL     1      16.806  11.899  27.977  1.00  0.00     0.147 C 
HETATM   13  C16 UNL     1      17.371   9.338  25.495  1.00  0.00     0.106 A 
HETATM   14  N6  UNL     1      18.693   9.092  25.636  1.00  0.00    -0.337 N 
ATOM     15  H6  UNL     1      19.212   9.620  26.338  1.00  0.00     0.167 HD
HETATM   16  C17 UNL     1      19.357   8.189  24.898  1.00  0.00     0.108 A 
HETATM   17  N7  UNL     1      20.609   7.931  25.003  1.00  0.00    -0.374 N 
ATOM     18  H7  UNL     1      20.975   7.217  24.372  1.00  0.00     0.161 HD
ENDROOT
BRANCH   6  19
HETATM   19  N2  UNL     1      13.423  10.112  25.109  1.00  0.00    -0.226 N 
ATOM     20  H2  UNL     1      13.122  10.973  24.654  1.00  0.00     0.177 HD
BRANCH  19  21
HETATM   21  C7  UNL     1      12.448   9.200  25.616  1.00  0.00     0.138 C 
BRANCH  21  22
HETATM   22  C8  UNL     1      12.268   7.985  24.737  1.00  0.00     0.020 C 
BRANCH  22  23
HETATM   23  C9  UNL     1      12.054   6.730  25.540  1.00  0.00     0.002 C 
BRANCH  23  24
HETATM   24  C10 UNL     1      12.638   5.536  24.814  1.00  0.00     0.000 C 
BRANCH  24  25
HETATM   25  C11 UNL     1      13.465   5.982  23.648  1.00  0.00     0.002 C 
BRANCH  25  26
HETATM   26  C12 UNL     1      14.790   5.271  23.634  1.00  0.00     0.027 C 
BRANCH  26  27
HETATM   27  C13 UNL     1      15.369   5.213  22.227  1.00  0.00     0.229 C 
BRANCH  27  28
HETATM   28  N3  UNL     1      16.354   4.150  22.151  1.00  0.00    -0.079 N 
ATOM     29  H33 UNL     1      17.163   4.414  21.590  1.00  0.00     0.274 HD
ATOM     30  H32 UNL     1      16.833   4.005  23.040  1.00  0.00     0.274 HD
ATOM     31  H31 UNL     1      15.909   3.298  21.809  1.00  0.00     0.274 HD
ENDBRANCH  27  28
ENDBRANCH  26  27
ENDBRANCH  25  26
ENDBRANCH  24  25
ENDBRANCH  23  24
ENDBRANCH  22  23
ENDBRANCH  21  22
ENDBRANCH  19  21
ENDBRANCH   6  19
BRANCH   1  32
HETATM   32  C2  UNL     1      19.316   6.495  23.132  1.00  0.00     0.038 C 
HETATM   33  C1  UNL     1      19.003   6.604  21.666  1.00  0.00     0.010 C 
ENDBRANCH   1  32
BRANCH  17  34
HETATM   34  C18 UNL     1      21.551   8.525  25.899  1.00  0.00     0.147 C 
BRANCH  34  35
HETATM   35  C19 UNL     1      22.373   7.542  26.656  1.00  0.00     0.186 C 
BRANCH  35  36
HETATM   36  O1  UNL     1      23.478   7.161  25.928  1.00  0.00    -0.394 OA
HETATM   37  C20 UNL     1      24.411   8.140  25.714  1.00  0.00     0.201 C 
ENDBRANCH  35  36
ENDBRANCH  34  35
ENDBRANCH  17  34
TORSDOF 13
ENDMDL
