MODEL 1
REMARK VINA RESULT: -7.679759241      0.000      0.000
REMARK  11 active torsions:
REMARK  status: ('A' for Active; 'I' for Inactive)
REMARK    1  A    between atoms: O1_2  and  C2_3 
REMARK    2  A    between atoms: C2_3  and  C3_4 
REMARK    3  A    between atoms: C3_4  and  C4_5 
REMARK    4  A    between atoms: C6_7  and  N1_8 
REMARK    5  A    between atoms: N1_8  and  C7_10 
REMARK    6  A    between atoms: C7_10  and  C8_11 
REMARK    7  A    between atoms: C8_11  and  N2_12 
REMARK    8  A    between atoms: N6_20  and  C11_22 
REMARK    9  A    between atoms: C11_22  and  C12_23 
REMARK   10  A    between atoms: C12_23  and  C13_24 
REMARK   11  A    between atoms: C16_27  and  O2_28 
ROOT
HETATM    1  C4  UNL     1      15.933   6.122  22.990  1.00  0.00    -0.049 A 
HETATM    2  C5  UNL     1      15.191   6.823  23.916  1.00  0.00     0.055 A 
HETATM    3  C6  UNL     1      15.794   7.667  24.813  1.00  0.00     0.102 A 
HETATM    4  N5  UNL     1      17.121   7.816  24.792  1.00  0.00    -0.329 N 
ATOM      5  H5  UNL     1      17.564   8.446  25.462  1.00  0.00     0.169 HD
HETATM    6  C10 UNL     1      17.878   7.157  23.912  1.00  0.00     0.102 A 
HETATM    7  N6  UNL     1      19.176   7.338  23.932  1.00  0.00    -0.376 N 
ATOM      8  H6  UNL     1      19.768   6.841  23.266  1.00  0.00     0.161 HD
HETATM    9  C20 UNL     1      17.303   6.307  23.005  1.00  0.00     0.055 A 
ENDROOT
BRANCH   7  10
HETATM   10  C11 UNL     1      19.773   8.234  24.891  1.00  0.00     0.126 C 
BRANCH  10  11
HETATM   11  C12 UNL     1      20.963   7.518  25.494  1.00  0.00     0.058 C 
BRANCH  11  12
HETATM   12  C13 UNL     1      22.208   8.294  25.407  1.00  0.00    -0.057 A 
HETATM   13  C14 UNL     1      22.952   8.498  26.573  1.00  0.00     0.010 A 
HETATM   14  C15 UNL     1      24.116   9.227  26.477  1.00  0.00     0.037 A 
HETATM   15  C16 UNL     1      24.583   9.762  25.291  1.00  0.00     0.068 A 
HETATM   16  C18 UNL     1      23.829   9.545  24.152  1.00  0.00     0.037 A 
HETATM   17  C19 UNL     1      22.651   8.816  24.221  1.00  0.00     0.010 A 
BRANCH  15  18
HETATM   18  O2  UNL     1      25.766  10.480  25.299  1.00  0.00    -0.356 OA
HETATM   19  C17 UNL     1      25.824  11.868  25.085  1.00  0.00     0.210 C 
ENDBRANCH  15  18
ENDBRANCH  11  12
ENDBRANCH  10  11
ENDBRANCH   7  10
BRANCH   3  20
HETATM   20  N1  UNL     1      15.036   8.387  25.764  1.00  0.00    -0.375 N 
ATOM     21  H1  UNL     1      15.039   8.092  26.740  1.00  0.00     0.161 HD
BRANCH  20  22
HETATM   22  C7  UNL     1      14.266   9.527  25.371  1.00  0.00     0.141 C 
BRANCH  22  23
HETATM   23  C8  UNL     1      15.192  10.713  25.217  1.00  0.00     0.141 C 
BRANCH  23  24
HETATM   24  N2  UNL     1      15.476  11.229  26.537  1.00  0.00    -0.365 N 
HETATM   25  C9  UNL     1      16.583  11.039  27.151  1.00  0.00     0.197 C 
HETATM   26  N3  UNL     1      16.762  11.586  28.440  1.00  0.00    -0.067 NA
HETATM   27  N4  UNL     1      17.627  10.294  26.563  1.00  0.00    -0.067 NA
ATOM     28  H2  UNL     1      14.753  11.775  27.006  1.00  0.00     0.161 HD
ENDBRANCH  23  24
ENDBRANCH  22  23
ENDBRANCH  20  22
ENDBRANCH   3  20
BRANCH   1  29
HETATM   29  C3  UNL     1      15.309   5.189  21.993  1.00  0.00     0.065 C 
BRANCH  29  30
HETATM   30  C2  UNL     1      15.690   5.597  20.582  1.00  0.00     0.171 C 
BRANCH  30  31
HETATM   31  O1  UNL     1      16.247   4.573  19.845  1.00  0.00    -0.396 OA
HETATM   32  C1  UNL     1      16.060   3.312  20.364  1.00  0.00     0.201 C 
ENDBRANCH  30  31
ENDBRANCH  29  30
ENDBRANCH   1  29
TORSDOF 11
ENDMDL
MODEL 2
REMARK VINA RESULT: -7.593380455      2.652      8.219
REMARK  11 active torsions:
REMARK  status: ('A' for Active; 'I' for Inactive)
REMARK    1  A    between atoms: O1_2  and  C2_3 
REMARK    2  A    between atoms: C2_3  and  C3_4 
REMARK    3  A    between atoms: C3_4  and  C4_5 
REMARK    4  A    between atoms: C6_7  and  N1_8 
REMARK    5  A    between atoms: N1_8  and  C7_10 
REMARK    6  A    between atoms: C7_10  and  C8_11 
REMARK    7  A    between atoms: C8_11  and  N2_12 
REMARK    8  A    between atoms: N6_20  and  C11_22 
REMARK    9  A    between atoms: C11_22  and  C12_23 
REMARK   10  A    between atoms: C12_23  and  C13_24 
REMARK   11  A    between atoms: C16_27  and  O2_28 
ROOT
HETATM    1  C4  UNL     1      20.584   8.481  24.391  1.00  0.00    -0.049 A 
HETATM    2  C5  UNL     1      20.106   8.453  23.099  1.00  0.00     0.055 A 
HETATM    3  C6  UNL     1      18.883   8.989  22.786  1.00  0.00     0.102 A 
HETATM    4  N5  UNL     1      18.141   9.549  23.744  1.00  0.00    -0.329 N 
ATOM      5  H5  UNL     1      17.232   9.948  23.506  1.00  0.00     0.169 HD
HETATM    6  C10 UNL     1      18.566   9.598  25.009  1.00  0.00     0.102 A 
HETATM    7  N6  UNL     1      17.801  10.159  25.914  1.00  0.00    -0.376 N 
ATOM      8  H6  UNL     1      18.112  10.204  26.884  1.00  0.00     0.161 HD
HETATM    9  C20 UNL     1      19.783   9.071  25.351  1.00  0.00     0.055 A 
ENDROOT
BRANCH   7  10
HETATM   10  C11 UNL     1      16.520  10.712  25.546  1.00  0.00     0.126 C 
BRANCH  10  11
HETATM   11  C12 UNL     1      15.522  10.268  26.594  1.00  0.00     0.058 C 
BRANCH  11  12
HETATM   12  C13 UNL     1      14.535   9.309  26.080  1.00  0.00    -0.057 A 
HETATM   13  C14 UNL     1      13.302   9.793  25.632  1.00  0.00     0.010 A 
HETATM   14  C15 UNL     1      12.386   8.884  25.153  1.00  0.00     0.037 A 
HETATM   15  C16 UNL     1      12.625   7.523  25.095  1.00  0.00     0.068 A 
HETATM   16  C18 UNL     1      13.852   7.069  25.544  1.00  0.00     0.037 A 
HETATM   17  C19 UNL     1      14.793   7.965  26.032  1.00  0.00     0.010 A 
BRANCH  15  18
HETATM   18  O2  UNL     1      11.638   6.691  24.596  1.00  0.00    -0.356 OA
HETATM   19  C17 UNL     1      11.510   6.384  23.229  1.00  0.00     0.210 C 
ENDBRANCH  15  18
ENDBRANCH  11  12
ENDBRANCH  10  11
ENDBRANCH   7  10
BRANCH   3  20
HETATM   20  N1  UNL     1      18.388   8.963  21.462  1.00  0.00    -0.375 N 
ATOM     21  H1  UNL     1      18.178   9.840  20.985  1.00  0.00     0.161 HD
BRANCH  20  22
HETATM   22  C7  UNL     1      18.179   7.720  20.785  1.00  0.00     0.141 C 
BRANCH  22  23
HETATM   23  C8  UNL     1      16.898   7.098  21.292  1.00  0.00     0.141 C 
BRANCH  23  24
HETATM   24  N2  UNL     1      17.195   5.745  21.705  1.00  0.00    -0.365 N 
HETATM   25  C9  UNL     1      17.319   5.386  22.927  1.00  0.00     0.197 C 
HETATM   26  N3  UNL     1      17.611   4.037  23.226  1.00  0.00    -0.067 NA
HETATM   27  N4  UNL     1      17.170   6.312  23.981  1.00  0.00    -0.067 NA
ATOM     28  H2  UNL     1      17.312   5.035  20.981  1.00  0.00     0.161 HD
ENDBRANCH  23  24
ENDBRANCH  22  23
ENDBRANCH  20  22
ENDBRANCH   3  20
BRANCH   1  29
HETATM   29  C3  UNL     1      21.917   7.904  24.771  1.00  0.00     0.065 C 
BRANCH  29  30
HETATM   30  C2  UNL     1      22.278   8.308  26.189  1.00  0.00     0.171 C 
BRANCH  30  31
HETATM   31  O1  UNL     1      22.909   7.309  26.901  1.00  0.00    -0.396 OA
HETATM   32  C1  UNL     1      22.186   6.146  27.040  1.00  0.00     0.201 C 
ENDBRANCH  30  31
ENDBRANCH  29  30
ENDBRANCH   1  29
TORSDOF 11
ENDMDL
MODEL 3
REMARK VINA RESULT: -7.426871943      1.594      2.029
REMARK  11 active torsions:
REMARK  status: ('A' for Active; 'I' for Inactive)
REMARK    1  A    between atoms: O1_2  and  C2_3 
REMARK    2  A    between atoms: C2_3  and  C3_4 
REMARK    3  A    between atoms: C3_4  and  C4_5 
REMARK    4  A    between atoms: C6_7  and  N1_8 
REMARK    5  A    between atoms: N1_8  and  C7_10 
REMARK    6  A    between atoms: C7_10  and  C8_11 
REMARK    7  A    between atoms: C8_11  and  N2_12 
REMARK    8  A    between atoms: N6_20  and  C11_22 
REMARK    9  A    between atoms: C11_22  and  C12_23 
REMARK   10  A    between atoms: C12_23  and  C13_24 
REMARK   11  A    between atoms: C16_27  and  O2_28 
ROOT
HETATM    1  C4  UNL     1      15.869   5.279  22.551  1.00  0.00    -0.049 A 
HETATM    2  C5  UNL     1      14.876   5.679  23.419  1.00  0.00     0.055 A 
HETATM    3  C6  UNL     1      15.116   6.627  24.380  1.00  0.00     0.102 A 
HETATM    4  N5  UNL     1      16.329   7.176  24.480  1.00  0.00    -0.329 N 
ATOM      5  H5  UNL     1      16.502   7.881  25.197  1.00  0.00     0.169 HD
HETATM    6  C10 UNL     1      17.320   6.818  23.659  1.00  0.00     0.102 A 
HETATM    7  N6  UNL     1      18.494   7.386  23.798  1.00  0.00    -0.376 N 
ATOM      8  H6  UNL     1      19.261   7.123  23.179  1.00  0.00     0.161 HD
HETATM    9  C20 UNL     1      17.110   5.874  22.691  1.00  0.00     0.055 A 
ENDROOT
BRANCH   7  10
HETATM   10  C11 UNL     1      18.707   8.379  24.821  1.00  0.00     0.126 C 
BRANCH  10  11
HETATM   11  C12 UNL     1      19.797   9.306  24.326  1.00  0.00     0.058 C 
BRANCH  11  12
HETATM   12  C13 UNL     1      21.144   8.882  24.733  1.00  0.00    -0.057 A 
HETATM   13  C14 UNL     1      21.289   8.176  25.932  1.00  0.00     0.010 A 
HETATM   14  C15 UNL     1      22.556   7.784  26.301  1.00  0.00     0.037 A 
HETATM   15  C16 UNL     1      23.685   8.053  25.550  1.00  0.00     0.068 A 
HETATM   16  C18 UNL     1      23.515   8.752  24.368  1.00  0.00     0.037 A 
HETATM   17  C19 UNL     1      22.249   9.159  23.973  1.00  0.00     0.010 A 
BRANCH  15  18
HETATM   18  O2  UNL     1      24.915   7.616  26.008  1.00  0.00    -0.356 OA
HETATM   19  C17 UNL     1      26.085   8.393  25.929  1.00  0.00     0.210 C 
ENDBRANCH  15  18
ENDBRANCH  11  12
ENDBRANCH  10  11
ENDBRANCH   7  10
BRANCH   3  20
HETATM   20  N1  UNL     1      14.100   7.040  25.272  1.00  0.00    -0.375 N 
ATOM     21  H1  UNL     1      14.133   6.742  26.247  1.00  0.00     0.161 HD
BRANCH  20  22
HETATM   22  C7  UNL     1      13.027   7.871  24.821  1.00  0.00     0.141 C 
BRANCH  22  23
HETATM   23  C8  UNL     1      13.018   9.144  25.637  1.00  0.00     0.141 C 
BRANCH  23  24
HETATM   24  N2  UNL     1      13.944  10.070  25.025  1.00  0.00    -0.365 N 
HETATM   25  C9  UNL     1      15.121  10.299  25.475  1.00  0.00     0.197 C 
HETATM   26  N3  UNL     1      15.950  11.224  24.803  1.00  0.00    -0.067 NA
HETATM   27  N4  UNL     1      15.604   9.646  26.627  1.00  0.00    -0.067 NA
ATOM     28  H2  UNL     1      13.644  10.569  24.188  1.00  0.00     0.161 HD
ENDBRANCH  23  24
ENDBRANCH  22  23
ENDBRANCH  20  22
ENDBRANCH   3  20
BRANCH   1  29
HETATM   29  C3  UNL     1      15.644   4.245  21.487  1.00  0.00     0.065 C 
BRANCH  29  30
HETATM   30  C2  UNL     1      15.590   4.900  20.119  1.00  0.00     0.171 C 
BRANCH  30  31
HETATM   31  O1  UNL     1      14.460   5.668  19.922  1.00  0.00    -0.396 OA
HETATM   32  C1  UNL     1      14.071   5.804  18.609  1.00  0.00     0.201 C 
ENDBRANCH  30  31
ENDBRANCH  29  30
ENDBRANCH   1  29
TORSDOF 11
ENDMDL
MODEL 4
REMARK VINA RESULT: -7.330872282      2.110      7.459
REMARK  11 active torsions:
REMARK  status: ('A' for Active; 'I' for Inactive)
REMARK    1  A    between atoms: O1_2  and  C2_3 
REMARK    2  A    between atoms: C2_3  and  C3_4 
REMARK    3  A    between atoms: C3_4  and  C4_5 
REMARK    4  A    between atoms: C6_7  and  N1_8 
REMARK    5  A    between atoms: N1_8  and  C7_10 
REMARK    6  A    between atoms: C7_10  and  C8_11 
REMARK    7  A    between atoms: C8_11  and  N2_12 
REMARK    8  A    between atoms: N6_20  and  C11_22 
REMARK    9  A    between atoms: C11_22  and  C12_23 
REMARK   10  A    between atoms: C12_23  and  C13_24 
REMARK   11  A    between atoms: C16_27  and  O2_28 
ROOT
HETATM    1  C4  UNL     1      20.026   8.302  24.942  1.00  0.00    -0.049 A 
HETATM    2  C5  UNL     1      19.197   9.395  25.068  1.00  0.00     0.055 A 
HETATM    3  C6  UNL     1      17.892   9.344  24.652  1.00  0.00     0.102 A 
HETATM    4  N5  UNL     1      17.411   8.219  24.116  1.00  0.00    -0.329 N 
ATOM      5  H5  UNL     1      16.439   8.187  23.808  1.00  0.00     0.169 HD
HETATM    6  C10 UNL     1      18.180   7.136  23.976  1.00  0.00     0.102 A 
HETATM    7  N6  UNL     1      17.661   6.056  23.444  1.00  0.00    -0.376 N 
ATOM      8  H6  UNL     1      18.236   5.221  23.330  1.00  0.00     0.161 HD
HETATM    9  C20 UNL     1      19.487   7.158  24.382  1.00  0.00     0.055 A 
ENDROOT
BRANCH   7  10
HETATM   10  C11 UNL     1      16.283   6.042  23.017  1.00  0.00     0.126 C 
BRANCH  10  11
HETATM   11  C12 UNL     1      16.188   5.096  21.839  1.00  0.00     0.058 C 
BRANCH  11  12
HETATM   12  C13 UNL     1      15.886   5.779  20.574  1.00  0.00    -0.057 A 
HETATM   13  C14 UNL     1      16.831   6.667  20.051  1.00  0.00     0.010 A 
HETATM   14  C15 UNL     1      16.536   7.300  18.865  1.00  0.00     0.037 A 
HETATM   15  C16 UNL     1      15.357   7.103  18.170  1.00  0.00     0.068 A 
HETATM   16  C18 UNL     1      14.439   6.219  18.708  1.00  0.00     0.037 A 
HETATM   17  C19 UNL     1      14.711   5.568  19.902  1.00  0.00     0.010 A 
BRANCH  15  18
HETATM   18  O2  UNL     1      15.154   7.788  16.985  1.00  0.00    -0.356 OA
HETATM   19  C17 UNL     1      16.128   8.617  16.401  1.00  0.00     0.210 C 
ENDBRANCH  15  18
ENDBRANCH  11  12
ENDBRANCH  10  11
ENDBRANCH   7  10
BRANCH   3  20
HETATM   20  N1  UNL     1      17.038  10.463  24.779  1.00  0.00    -0.375 N 
ATOM     21  H1  UNL     1      16.547  10.819  23.959  1.00  0.00     0.161 HD
BRANCH  20  22
HETATM   22  C7  UNL     1      16.854  11.101  26.047  1.00  0.00     0.141 C 
BRANCH  22  23
HETATM   23  C8  UNL     1      15.970  10.228  26.909  1.00  0.00     0.141 C 
BRANCH  23  24
HETATM   24  N2  UNL     1      14.631  10.282  26.368  1.00  0.00    -0.365 N 
HETATM   25  C9  UNL     1      14.055   9.292  25.796  1.00  0.00     0.197 C 
HETATM   26  N3  UNL     1      12.742   9.448  25.300  1.00  0.00    -0.067 NA
HETATM   27  N4  UNL     1      14.708   8.050  25.652  1.00  0.00    -0.067 NA
ATOM     28  H2  UNL     1      14.115  11.159  26.447  1.00  0.00     0.161 HD
ENDBRANCH  23  24
ENDBRANCH  22  23
ENDBRANCH  20  22
ENDBRANCH   3  20
BRANCH   1  29
HETATM   29  C3  UNL     1      21.460   8.320  25.387  1.00  0.00     0.065 C 
BRANCH  29  30
HETATM   30  C2  UNL     1      21.753   7.119  26.267  1.00  0.00     0.171 C 
BRANCH  30  31
HETATM   31  O1  UNL     1      23.100   6.892  26.458  1.00  0.00    -0.396 OA
HETATM   32  C1  UNL     1      23.931   7.877  25.976  1.00  0.00     0.201 C 
ENDBRANCH  30  31
ENDBRANCH  29  30
ENDBRANCH   1  29
TORSDOF 11
ENDMDL
MODEL 5
REMARK VINA RESULT: -7.279979541      2.238      7.770
REMARK  11 active torsions:
REMARK  status: ('A' for Active; 'I' for Inactive)
REMARK    1  A    between atoms: O1_2  and  C2_3 
REMARK    2  A    between atoms: C2_3  and  C3_4 
REMARK    3  A    between atoms: C3_4  and  C4_5 
REMARK    4  A    between atoms: C6_7  and  N1_8 
REMARK    5  A    between atoms: N1_8  and  C7_10 
REMARK    6  A    between atoms: C7_10  and  C8_11 
REMARK    7  A    between atoms: C8_11  and  N2_12 
REMARK    8  A    between atoms: N6_20  and  C11_22 
REMARK    9  A    between atoms: C11_22  and  C12_23 
REMARK   10  A    between atoms: C12_23  and  C13_24 
REMARK   11  A    between atoms: C16_27  and  O2_28 
ROOT
HETATM    1  C4  UNL     1      19.888   8.233  25.146  1.00  0.00    -0.049 A 
HETATM    2  C5  UNL     1      18.954   9.170  25.531  1.00  0.00     0.055 A 
HETATM    3  C6  UNL     1      17.638   9.051  25.162  1.00  0.00     0.102 A 
HETATM    4  N5  UNL     1      17.251   8.011  24.418  1.00  0.00    -0.329 N 
ATOM      5  H5  UNL     1      16.271   7.927  24.147  1.00  0.00     0.169 HD
HETATM    6  C10 UNL     1      18.124   7.081  24.023  1.00  0.00     0.102 A 
HETATM    7  N6  UNL     1      17.695   6.079  23.293  1.00  0.00    -0.376 N 
ATOM      8  H6  UNL     1      18.349   5.361  22.984  1.00  0.00     0.161 HD
HETATM    9  C20 UNL     1      19.443   7.174  24.376  1.00  0.00     0.055 A 
ENDROOT
BRANCH   7  10
HETATM   10  C11 UNL     1      16.303   5.988  22.925  1.00  0.00     0.126 C 
BRANCH  10  11
HETATM   11  C12 UNL     1      16.216   5.070  21.725  1.00  0.00     0.058 C 
BRANCH  11  12
HETATM   12  C13 UNL     1      15.840   5.770  20.489  1.00  0.00    -0.057 A 
HETATM   13  C14 UNL     1      16.743   6.685  19.937  1.00  0.00     0.010 A 
HETATM   14  C15 UNL     1      16.379   7.334  18.779  1.00  0.00     0.037 A 
HETATM   15  C16 UNL     1      15.171   7.127  18.139  1.00  0.00     0.068 A 
HETATM   16  C18 UNL     1      14.296   6.217  18.704  1.00  0.00     0.037 A 
HETATM   17  C19 UNL     1      14.638   5.549  19.871  1.00  0.00     0.010 A 
BRANCH  15  18
HETATM   18  O2  UNL     1      14.899   7.829  16.978  1.00  0.00    -0.356 OA
HETATM   19  C17 UNL     1      14.073   7.331  15.954  1.00  0.00     0.210 C 
ENDBRANCH  15  18
ENDBRANCH  11  12
ENDBRANCH  10  11
ENDBRANCH   7  10
BRANCH   3  20
HETATM   20  N1  UNL     1      16.677  10.008  25.556  1.00  0.00    -0.375 N 
ATOM     21  H1  UNL     1      16.918  10.707  26.259  1.00  0.00     0.161 HD
BRANCH  20  22
HETATM   22  C7  UNL     1      15.368  10.009  24.978  1.00  0.00     0.141 C 
BRANCH  22  23
HETATM   23  C8  UNL     1      14.377   9.522  26.012  1.00  0.00     0.141 C 
BRANCH  23  24
HETATM   24  N2  UNL     1      13.270   8.910  25.312  1.00  0.00    -0.365 N 
HETATM   25  C9  UNL     1      13.016   7.656  25.342  1.00  0.00     0.197 C 
HETATM   26  N3  UNL     1      11.909   7.157  24.622  1.00  0.00    -0.067 NA
HETATM   27  N4  UNL     1      13.822   6.764  26.080  1.00  0.00    -0.067 NA
ATOM     28  H2  UNL     1      12.656   9.512  24.763  1.00  0.00     0.161 HD
ENDBRANCH  23  24
ENDBRANCH  22  23
ENDBRANCH  20  22
ENDBRANCH   3  20
BRANCH   1  29
HETATM   29  C3  UNL     1      21.336   8.330  25.530  1.00  0.00     0.065 C 
BRANCH  29  30
HETATM   30  C2  UNL     1      21.763   7.086  26.287  1.00  0.00     0.171 C 
BRANCH  30  31
HETATM   31  O1  UNL     1      23.132   6.936  26.369  1.00  0.00    -0.396 OA
HETATM   32  C1  UNL     1      23.864   8.028  25.964  1.00  0.00     0.201 C 
ENDBRANCH  30  31
ENDBRANCH  29  30
ENDBRANCH   1  29
TORSDOF 11
ENDMDL
