MODEL 1
REMARK VINA RESULT: -8.229273282      0.000      0.000
REMARK  13 active torsions:
REMARK  status: ('A' for Active; 'I' for Inactive)
REMARK    1  A    between atoms: O1_1  and  C1_3 
REMARK    2  A    between atoms: C4_6  and  O2_7 
REMARK    3  A    between atoms: C5_9  and  C6_10 
REMARK    4  A    between atoms: C6_10  and  O3_11 
REMARK    5  A    between atoms: O3_11  and  C7_12 
REMARK    6  A    between atoms: C7_12  and  C8_13 
REMARK    7  A    between atoms: C8_13  and  O4_14 
REMARK    8  A    between atoms: O4_14  and  C9_15 
REMARK    9  A    between atoms: C9_15  and  C10_16 
REMARK   10  A    between atoms: C10_16  and  C11_17 
REMARK   11  A    between atoms: C11_17  and  C12_18 
REMARK   12  A    between atoms: C12_18  and  N1_19 
REMARK   13  A    between atoms: N1_19  and  C13_22 
ROOT
HETATM    1  C10 UNL     1      18.375  10.255  24.687  1.00  0.00     0.028 C 
ENDROOT
BRANCH   1   2
HETATM    2  C9  UNL     1      18.723   9.015  25.433  1.00  0.00     0.167 C 
BRANCH   2   3
HETATM    3  O4  UNL     1      20.032   9.042  25.821  1.00  0.00    -0.389 OA
BRANCH   3   4
HETATM    4  C8  UNL     1      20.812   7.977  25.466  1.00  0.00     0.193 C 
BRANCH   4   5
HETATM    5  C7  UNL     1      21.518   8.177  24.142  1.00  0.00     0.194 C 
BRANCH   5   6
HETATM    6  O3  UNL     1      21.040   7.396  23.130  1.00  0.00    -0.384 OA
BRANCH   6   7
HETATM    7  C6  UNL     1      20.228   8.010  22.211  1.00  0.00     0.209 C 
BRANCH   7   8
HETATM    8  C5  UNL     1      18.921   7.273  22.058  1.00  0.00     0.001 A 
HETATM    9  C4  UNL     1      17.957   7.737  21.191  1.00  0.00     0.074 A 
HETATM   10  C3  UNL     1      16.742   7.059  21.044  1.00  0.00     0.040 A 
HETATM   11  C2  UNL     1      16.483   5.912  21.760  1.00  0.00     0.039 A 
HETATM   12  C1  UNL     1      17.457   5.449  22.630  1.00  0.00     0.066 A 
HETATM   13  C22 UNL     1      18.666   6.127  22.776  1.00  0.00     0.048 A 
BRANCH   9  14
HETATM   14  O2  UNL     1      18.209   8.887  20.467  1.00  0.00    -0.360 OA
ATOM     15  H2  UNL     1      17.499   9.469  20.224  1.00  0.00     0.217 HD
ENDBRANCH   9  14
BRANCH  12  16
HETATM   16  O1  UNL     1      17.191   4.297  23.349  1.00  0.00    -0.361 OA
ATOM     17  H1  UNL     1      17.315   3.462  22.915  1.00  0.00     0.217 HD
ENDBRANCH  12  16
ENDBRANCH   7   8
ENDBRANCH   6   7
ENDBRANCH   5   6
ENDBRANCH   4   5
ENDBRANCH   3   4
ENDBRANCH   2   3
ENDBRANCH   1   2
BRANCH   1  18
HETATM   18  C11 UNL     1      17.384  11.076  25.499  1.00  0.00     0.029 C 
BRANCH  18  19
HETATM   19  C12 UNL     1      16.810  10.089  26.529  1.00  0.00     0.235 C 
BRANCH  19  20
HETATM   20  N1  UNL     1      15.398  10.363  26.618  1.00  0.00    -0.051 N 
ATOM     21  H12 UNL     1      14.964   9.884  27.408  1.00  0.00     0.280 HD
ATOM     22  H11 UNL     1      15.212  11.323  26.907  1.00  0.00     0.280 HD
BRANCH  20  23
HETATM   23  C13 UNL     1      14.749  10.034  25.351  1.00  0.00     0.308 A 
HETATM   24  C14 UNL     1      15.052   8.606  25.058  1.00  0.00     0.039 A 
HETATM   25  C15 UNL     1      14.141   7.662  24.936  1.00  0.00    -0.025 A 
HETATM   26  C16 UNL     1      14.532   6.355  24.661  1.00  0.00     0.012 A 
HETATM   27  C20 UNL     1      12.799   7.945  25.076  1.00  0.00    -0.011 A 
HETATM   28  C17 UNL     1      13.607   5.347  24.527  1.00  0.00     0.001 A 
HETATM   29  C18 UNL     1      12.252   5.629  24.667  1.00  0.00     0.001 A 
HETATM   30  C19 UNL     1      11.873   6.924  24.939  1.00  0.00     0.013 A 
HETATM   31  C21 UNL     1      12.445   9.192  25.337  1.00  0.00     0.097 A 
HETATM   32  N2  UNL     1      13.350  10.271  25.488  1.00  0.00    -0.368 N 
ATOM     33  H2  UNL     1      13.005  11.208  25.692  1.00  0.00     0.161 HD
ENDBRANCH  20  23
ENDBRANCH  19  20
ENDBRANCH  18  19
ENDBRANCH   1  18
TORSDOF 13
ENDMDL
MODEL 2
REMARK VINA RESULT: -7.885616866      0.976      2.038
REMARK  13 active torsions:
REMARK  status: ('A' for Active; 'I' for Inactive)
REMARK    1  A    between atoms: O1_1  and  C1_3 
REMARK    2  A    between atoms: C4_6  and  O2_7 
REMARK    3  A    between atoms: C5_9  and  C6_10 
REMARK    4  A    between atoms: C6_10  and  O3_11 
REMARK    5  A    between atoms: O3_11  and  C7_12 
REMARK    6  A    between atoms: C7_12  and  C8_13 
REMARK    7  A    between atoms: C8_13  and  O4_14 
REMARK    8  A    between atoms: O4_14  and  C9_15 
REMARK    9  A    between atoms: C9_15  and  C10_16 
REMARK   10  A    between atoms: C10_16  and  C11_17 
REMARK   11  A    between atoms: C11_17  and  C12_18 
REMARK   12  A    between atoms: C12_18  and  N1_19 
REMARK   13  A    between atoms: N1_19  and  C13_22 
ROOT
HETATM    1  C10 UNL     1      18.407  10.377  24.727  1.00  0.00     0.028 C 
ENDROOT
BRANCH   1   2
HETATM    2  C9  UNL     1      18.697   9.159  25.532  1.00  0.00     0.167 C 
BRANCH   2   3
HETATM    3  O4  UNL     1      20.013   8.812  25.417  1.00  0.00    -0.389 OA
BRANCH   3   4
HETATM    4  C8  UNL     1      20.293   7.575  24.910  1.00  0.00     0.193 C 
BRANCH   4   5
HETATM    5  C7  UNL     1      20.477   7.579  23.407  1.00  0.00     0.194 C 
BRANCH   5   6
HETATM    6  O3  UNL     1      19.331   7.346  22.702  1.00  0.00    -0.384 OA
BRANCH   6   7
HETATM    7  C6  UNL     1      18.485   6.392  23.204  1.00  0.00     0.209 C 
BRANCH   7   8
HETATM    8  C5  UNL     1      17.478   5.956  22.170  1.00  0.00     0.001 A 
HETATM    9  C4  UNL     1      16.861   4.729  22.272  1.00  0.00     0.074 A 
HETATM   10  C3  UNL     1      15.925   4.318  21.316  1.00  0.00     0.040 A 
HETATM   11  C2  UNL     1      15.599   5.130  20.253  1.00  0.00     0.039 A 
HETATM   12  C1  UNL     1      16.222   6.364  20.156  1.00  0.00     0.066 A 
HETATM   13  C22 UNL     1      17.154   6.771  21.110  1.00  0.00     0.048 A 
BRANCH   9  14
HETATM   14  O2  UNL     1      17.182   3.907  23.336  1.00  0.00    -0.360 OA
ATOM     15  H2  UNL     1      17.335   4.275  24.198  1.00  0.00     0.217 HD
ENDBRANCH   9  14
BRANCH  12  16
HETATM   16  O1  UNL     1      15.892   7.176  19.086  1.00  0.00    -0.361 OA
ATOM     17  H1  UNL     1      16.592   7.465  18.512  1.00  0.00     0.217 HD
ENDBRANCH  12  16
ENDBRANCH   7   8
ENDBRANCH   6   7
ENDBRANCH   5   6
ENDBRANCH   4   5
ENDBRANCH   3   4
ENDBRANCH   2   3
ENDBRANCH   1   2
BRANCH   1  18
HETATM   18  C11 UNL     1      17.237  11.127  25.345  1.00  0.00     0.029 C 
BRANCH  18  19
HETATM   19  C12 UNL     1      16.748  10.219  26.484  1.00  0.00     0.235 C 
BRANCH  19  20
HETATM   20  N1  UNL     1      15.328  10.435  26.601  1.00  0.00    -0.051 N 
ATOM     21  H12 UNL     1      14.926   9.932  27.393  1.00  0.00     0.280 HD
ATOM     22  H11 UNL     1      15.108  11.384  26.902  1.00  0.00     0.280 HD
BRANCH  20  23
HETATM   23  C13 UNL     1      14.670  10.091  25.341  1.00  0.00     0.308 A 
HETATM   24  C14 UNL     1      15.050   8.689  25.014  1.00  0.00     0.039 A 
HETATM   25  C15 UNL     1      14.194   7.695  24.894  1.00  0.00    -0.025 A 
HETATM   26  C16 UNL     1      14.654   6.419  24.584  1.00  0.00     0.012 A 
HETATM   27  C20 UNL     1      12.841   7.895  25.068  1.00  0.00    -0.011 A 
HETATM   28  C17 UNL     1      13.788   5.360  24.452  1.00  0.00     0.001 A 
HETATM   29  C18 UNL     1      12.422   5.559  24.626  1.00  0.00     0.001 A 
HETATM   30  C19 UNL     1      11.974   6.824  24.931  1.00  0.00     0.013 A 
HETATM   31  C21 UNL     1      12.420   9.114  25.361  1.00  0.00     0.097 A 
HETATM   32  N2  UNL     1      13.263  10.242  25.513  1.00  0.00    -0.368 N 
ATOM     33  H2  UNL     1      12.868  11.153  25.743  1.00  0.00     0.161 HD
ENDBRANCH  20  23
ENDBRANCH  19  20
ENDBRANCH  18  19
ENDBRANCH   1  18
TORSDOF 13
ENDMDL
MODEL 3
REMARK VINA RESULT: -7.825136604      1.698      3.928
REMARK  13 active torsions:
REMARK  status: ('A' for Active; 'I' for Inactive)
REMARK    1  A    between atoms: O1_1  and  C1_3 
REMARK    2  A    between atoms: C4_6  and  O2_7 
REMARK    3  A    between atoms: C5_9  and  C6_10 
REMARK    4  A    between atoms: C6_10  and  O3_11 
REMARK    5  A    between atoms: O3_11  and  C7_12 
REMARK    6  A    between atoms: C7_12  and  C8_13 
REMARK    7  A    between atoms: C8_13  and  O4_14 
REMARK    8  A    between atoms: O4_14  and  C9_15 
REMARK    9  A    between atoms: C9_15  and  C10_16 
REMARK   10  A    between atoms: C10_16  and  C11_17 
REMARK   11  A    between atoms: C11_17  and  C12_18 
REMARK   12  A    between atoms: C12_18  and  N1_19 
REMARK   13  A    between atoms: N1_19  and  C13_22 
ROOT
HETATM    1  C10 UNL     1      18.316  10.370  24.725  1.00  0.00     0.028 C 
ENDROOT
BRANCH   1   2
HETATM    2  C9  UNL     1      18.671   9.133  25.472  1.00  0.00     0.167 C 
BRANCH   2   3
HETATM    3  O4  UNL     1      18.616   8.045  24.648  1.00  0.00    -0.389 OA
BRANCH   3   4
HETATM    4  C8  UNL     1      18.772   8.266  23.309  1.00  0.00     0.193 C 
BRANCH   4   5
HETATM    5  C7  UNL     1      19.625   7.213  22.632  1.00  0.00     0.194 C 
BRANCH   5   6
HETATM    6  O3  UNL     1      20.967   7.380  22.811  1.00  0.00    -0.384 OA
BRANCH   6   7
HETATM    7  C6  UNL     1      21.400   8.657  23.059  1.00  0.00     0.209 C 
BRANCH   7   8
HETATM    8  C5  UNL     1      22.424   8.682  24.165  1.00  0.00     0.001 A 
HETATM    9  C4  UNL     1      23.646   9.288  23.970  1.00  0.00     0.074 A 
HETATM   10  C3  UNL     1      24.601   9.314  24.992  1.00  0.00     0.040 A 
HETATM   11  C2  UNL     1      24.343   8.737  26.215  1.00  0.00     0.039 A 
HETATM   12  C1  UNL     1      23.112   8.130  26.406  1.00  0.00     0.066 A 
HETATM   13  C22 UNL     1      22.161   8.104  25.386  1.00  0.00     0.048 A 
BRANCH   9  14
HETATM   14  O2  UNL     1      23.913   9.870  22.746  1.00  0.00    -0.360 OA
ATOM     15  H2  UNL     1      23.276   9.826  22.043  1.00  0.00     0.217 HD
ENDBRANCH   9  14
BRANCH  12  16
HETATM   16  O1  UNL     1      22.857   7.550  27.636  1.00  0.00    -0.361 OA
ATOM     17  H1  UNL     1      22.553   6.650  27.651  1.00  0.00     0.217 HD
ENDBRANCH  12  16
ENDBRANCH   7   8
ENDBRANCH   6   7
ENDBRANCH   5   6
ENDBRANCH   4   5
ENDBRANCH   3   4
ENDBRANCH   2   3
ENDBRANCH   1   2
BRANCH   1  18
HETATM   18  C11 UNL     1      17.253  11.141  25.493  1.00  0.00     0.029 C 
BRANCH  18  19
HETATM   19  C12 UNL     1      16.788  10.174  26.594  1.00  0.00     0.235 C 
BRANCH  19  20
HETATM   20  N1  UNL     1      15.358  10.322  26.694  1.00  0.00    -0.051 N 
ATOM     21  H12 UNL     1      14.966   9.763  27.452  1.00  0.00     0.280 HD
ATOM     22  H11 UNL     1      15.092  11.245  27.037  1.00  0.00     0.280 HD
BRANCH  20  23
HETATM   23  C13 UNL     1      14.737  10.014  25.406  1.00  0.00     0.308 A 
HETATM   24  C14 UNL     1      15.048   8.591  25.097  1.00  0.00     0.039 A 
HETATM   25  C15 UNL     1      14.141   7.649  24.938  1.00  0.00    -0.025 A 
HETATM   26  C16 UNL     1      14.539   6.347  24.650  1.00  0.00     0.012 A 
HETATM   27  C20 UNL     1      12.796   7.929  25.053  1.00  0.00    -0.011 A 
HETATM   28  C17 UNL     1      13.618   5.341  24.479  1.00  0.00     0.001 A 
HETATM   29  C18 UNL     1      12.260   5.620  24.593  1.00  0.00     0.001 A 
HETATM   30  C19 UNL     1      11.874   6.910  24.879  1.00  0.00     0.013 A 
HETATM   31  C21 UNL     1      12.434   9.171  25.328  1.00  0.00     0.097 A 
HETATM   32  N2  UNL     1      13.335  10.248  25.517  1.00  0.00    -0.368 N 
ATOM     33  H2  UNL     1      12.984  11.181  25.729  1.00  0.00     0.161 HD
ENDBRANCH  20  23
ENDBRANCH  19  20
ENDBRANCH  18  19
ENDBRANCH   1  18
TORSDOF 13
ENDMDL
MODEL 4
REMARK VINA RESULT: -7.580763443      2.520      5.851
REMARK  13 active torsions:
REMARK  status: ('A' for Active; 'I' for Inactive)
REMARK    1  A    between atoms: O1_1  and  C1_3 
REMARK    2  A    between atoms: C4_6  and  O2_7 
REMARK    3  A    between atoms: C5_9  and  C6_10 
REMARK    4  A    between atoms: C6_10  and  O3_11 
REMARK    5  A    between atoms: O3_11  and  C7_12 
REMARK    6  A    between atoms: C7_12  and  C8_13 
REMARK    7  A    between atoms: C8_13  and  O4_14 
REMARK    8  A    between atoms: O4_14  and  C9_15 
REMARK    9  A    between atoms: C9_15  and  C10_16 
REMARK   10  A    between atoms: C10_16  and  C11_17 
REMARK   11  A    between atoms: C11_17  and  C12_18 
REMARK   12  A    between atoms: C12_18  and  N1_19 
REMARK   13  A    between atoms: N1_19  and  C13_22 
ROOT
HETATM    1  C10 UNL     1      12.420   7.658  25.097  1.00  0.00     0.028 C 
ENDROOT
BRANCH   1   2
HETATM    2  C9  UNL     1      13.209   8.864  25.466  1.00  0.00     0.167 C 
BRANCH   2   3
HETATM    3  O4  UNL     1      14.437   8.504  25.946  1.00  0.00    -0.389 OA
BRANCH   3   4
HETATM    4  C8  UNL     1      15.314   9.510  26.238  1.00  0.00     0.193 C 
BRANCH   4   5
HETATM    5  C7  UNL     1      15.398  10.557  25.147  1.00  0.00     0.194 C 
BRANCH   5   6
HETATM    6  O3  UNL     1      16.579  10.558  24.463  1.00  0.00    -0.384 OA
BRANCH   6   7
HETATM    7  C6  UNL     1      16.807   9.495  23.628  1.00  0.00     0.209 C 
BRANCH   7   8
HETATM    8  C5  UNL     1      18.223   8.993  23.755  1.00  0.00     0.001 A 
HETATM    9  C4  UNL     1      18.479   7.760  24.312  1.00  0.00     0.074 A 
HETATM   10  C3  UNL     1      19.790   7.288  24.433  1.00  0.00     0.040 A 
HETATM   11  C2  UNL     1      20.855   8.045  23.999  1.00  0.00     0.039 A 
HETATM   12  C1  UNL     1      20.593   9.284  23.438  1.00  0.00     0.066 A 
HETATM   13  C22 UNL     1      19.285   9.752  23.318  1.00  0.00     0.048 A 
BRANCH   9  14
HETATM   14  O2  UNL     1      17.415   6.994  24.751  1.00  0.00    -0.360 OA
ATOM     15  H2  UNL     1      16.844   6.560  24.128  1.00  0.00     0.217 HD
ENDBRANCH   9  14
BRANCH  12  16
HETATM   16  O1  UNL     1      21.666  10.041  23.003  1.00  0.00    -0.361 OA
ATOM     17  H1  UNL     1      21.929  10.786  23.530  1.00  0.00     0.217 HD
ENDBRANCH  12  16
ENDBRANCH   7   8
ENDBRANCH   6   7
ENDBRANCH   5   6
ENDBRANCH   4   5
ENDBRANCH   3   4
ENDBRANCH   2   3
ENDBRANCH   1   2
BRANCH   1  18
HETATM   18  C11 UNL     1      13.182   6.407  25.508  1.00  0.00     0.029 C 
BRANCH  18  19
HETATM   19  C12 UNL     1      13.534   5.711  24.183  1.00  0.00     0.235 C 
BRANCH  19  20
HETATM   20  N1  UNL     1      14.933   5.965  23.945  1.00  0.00    -0.051 N 
ATOM     21  H12 UNL     1      15.145   6.963  23.931  1.00  0.00     0.280 HD
ATOM     22  H11 UNL     1      15.511   5.702  24.743  1.00  0.00     0.280 HD
BRANCH  20  23
HETATM   23  C13 UNL     1      15.355   5.294  22.717  1.00  0.00     0.308 A 
HETATM   24  C14 UNL     1      15.834   6.349  21.781  1.00  0.00     0.039 A 
HETATM   25  C15 UNL     1      17.059   6.420  21.304  1.00  0.00    -0.025 A 
HETATM   26  C16 UNL     1      17.405   7.449  20.433  1.00  0.00     0.012 A 
HETATM   27  C20 UNL     1      18.014   5.488  21.652  1.00  0.00    -0.011 A 
HETATM   28  C17 UNL     1      18.675   7.552  19.917  1.00  0.00     0.001 A 
HETATM   29  C18 UNL     1      19.640   6.613  20.265  1.00  0.00     0.001 A 
HETATM   30  C19 UNL     1      19.291   5.597  21.127  1.00  0.00     0.013 A 
HETATM   31  C21 UNL     1      17.670   4.517  22.479  1.00  0.00     0.097 A 
HETATM   32  N2  UNL     1      16.380   4.360  23.045  1.00  0.00    -0.368 N 
ATOM     33  H2  UNL     1      16.187   3.586  23.680  1.00  0.00     0.161 HD
ENDBRANCH  20  23
ENDBRANCH  19  20
ENDBRANCH  18  19
ENDBRANCH   1  18
TORSDOF 13
ENDMDL
MODEL 5
REMARK VINA RESULT: -7.489324499      1.263      1.856
REMARK  13 active torsions:
REMARK  status: ('A' for Active; 'I' for Inactive)
REMARK    1  A    between atoms: O1_1  and  C1_3 
REMARK    2  A    between atoms: C4_6  and  O2_7 
REMARK    3  A    between atoms: C5_9  and  C6_10 
REMARK    4  A    between atoms: C6_10  and  O3_11 
REMARK    5  A    between atoms: O3_11  and  C7_12 
REMARK    6  A    between atoms: C7_12  and  C8_13 
REMARK    7  A    between atoms: C8_13  and  O4_14 
REMARK    8  A    between atoms: O4_14  and  C9_15 
REMARK    9  A    between atoms: C9_15  and  C10_16 
REMARK   10  A    between atoms: C10_16  and  C11_17 
REMARK   11  A    between atoms: C11_17  and  C12_18 
REMARK   12  A    between atoms: C12_18  and  N1_19 
REMARK   13  A    between atoms: N1_19  and  C13_22 
ROOT
HETATM    1  C10 UNL     1      18.216  10.531  25.169  1.00  0.00     0.028 C 
ENDROOT
BRANCH   1   2
HETATM    2  C9  UNL     1      18.722   9.151  25.398  1.00  0.00     0.167 C 
BRANCH   2   3
HETATM    3  O4  UNL     1      18.580   8.396  24.268  1.00  0.00    -0.389 OA
BRANCH   3   4
HETATM    4  C8  UNL     1      18.739   9.030  23.068  1.00  0.00     0.193 C 
BRANCH   4   5
HETATM    5  C7  UNL     1      17.507   8.955  22.191  1.00  0.00     0.194 C 
BRANCH   5   6
HETATM    6  O3  UNL     1      17.775   8.791  20.863  1.00  0.00    -0.384 OA
BRANCH   6   7
HETATM    7  C6  UNL     1      18.359   7.607  20.496  1.00  0.00     0.209 C 
BRANCH   7   8
HETATM    8  C5  UNL     1      17.479   6.433  20.842  1.00  0.00     0.001 A 
HETATM    9  C4  UNL     1      16.321   6.196  20.133  1.00  0.00     0.074 A 
HETATM   10  C3  UNL     1      15.500   5.108  20.450  1.00  0.00     0.040 A 
HETATM   11  C2  UNL     1      15.828   4.251  21.475  1.00  0.00     0.039 A 
HETATM   12  C1  UNL     1      16.993   4.493  22.185  1.00  0.00     0.066 A 
HETATM   13  C22 UNL     1      17.811   5.577  21.868  1.00  0.00     0.048 A 
BRANCH   9  14
HETATM   14  O2  UNL     1      15.985   7.052  19.102  1.00  0.00    -0.360 OA
ATOM     15  H2  UNL     1      16.606   7.238  18.409  1.00  0.00     0.217 HD
ENDBRANCH   9  14
BRANCH  12  16
HETATM   16  O1  UNL     1      17.318   3.629  23.215  1.00  0.00    -0.361 OA
ATOM     17  H1  UNL     1      17.245   2.695  23.054  1.00  0.00     0.217 HD
ENDBRANCH  12  16
ENDBRANCH   7   8
ENDBRANCH   6   7
ENDBRANCH   5   6
ENDBRANCH   4   5
ENDBRANCH   3   4
ENDBRANCH   2   3
ENDBRANCH   1   2
BRANCH   1  18
HETATM   18  C11 UNL     1      17.485  11.017  26.411  1.00  0.00     0.029 C 
BRANCH  18  19
HETATM   19  C12 UNL     1      16.460   9.913  26.718  1.00  0.00     0.235 C 
BRANCH  19  20
HETATM   20  N1  UNL     1      15.158  10.524  26.624  1.00  0.00    -0.051 N 
ATOM     21  H12 UNL     1      14.569  10.298  27.426  1.00  0.00     0.280 HD
ATOM     22  H11 UNL     1      15.199  11.535  26.751  1.00  0.00     0.280 HD
BRANCH  20  23
HETATM   23  C13 UNL     1      14.528  10.154  25.357  1.00  0.00     0.308 A 
HETATM   24  C14 UNL     1      15.011   8.790  25.007  1.00  0.00     0.039 A 
HETATM   25  C15 UNL     1      14.232   7.738  24.868  1.00  0.00    -0.025 A 
HETATM   26  C16 UNL     1      14.785   6.505  24.537  1.00  0.00     0.012 A 
HETATM   27  C20 UNL     1      12.867   7.834  25.043  1.00  0.00    -0.011 A 
HETATM   28  C17 UNL     1      14.000   5.387  24.385  1.00  0.00     0.001 A 
HETATM   29  C18 UNL     1      12.623   5.481  24.560  1.00  0.00     0.001 A 
HETATM   30  C19 UNL     1      12.082   6.704  24.887  1.00  0.00     0.013 A 
HETATM   31  C21 UNL     1      12.357   9.012  25.357  1.00  0.00     0.097 A 
HETATM   32  N2  UNL     1      13.114  10.197  25.530  1.00  0.00    -0.368 N 
ATOM     33  H2  UNL     1      12.652  11.072  25.775  1.00  0.00     0.161 HD
ENDBRANCH  20  23
ENDBRANCH  19  20
ENDBRANCH  18  19
ENDBRANCH   1  18
TORSDOF 13
ENDMDL
