MODEL 1
REMARK VINA RESULT: -7.206505310      0.000      0.000
REMARK  12 active torsions:
REMARK  status: ('A' for Active; 'I' for Inactive)
REMARK    1  A    between atoms: C3_5  and  N2_6 
REMARK    2  A    between atoms: N2_6  and  C4_8 
REMARK    3  A    between atoms: C4_8  and  C5_9 
REMARK    4  A    between atoms: C5_9  and  C6_10 
REMARK    5  A    between atoms: C6_10  and  C7_11 
REMARK    6  A    between atoms: C7_11  and  O1_12 
REMARK    7  A    between atoms: O1_12  and  C8_13 
REMARK    8  A    between atoms: C8_13  and  C9_14 
REMARK    9  A    between atoms: C9_14  and  O2_15 
REMARK   10  A    between atoms: O2_15  and  C10_16 
REMARK   11  A    between atoms: C10_16  and  C11_17 
REMARK   12  A    between atoms: C11_17  and  N3_18 
REMARK       I    between atoms: N3_18  and  C12_20 
ROOT
HETATM    1  C4  UNL     1      16.644   4.829  22.138  1.00  0.00     0.121 C 
ENDROOT
BRANCH   1   2
HETATM    2  N2  UNL     1      16.269   5.065  23.525  1.00  0.00    -0.376 N 
ATOM      3  H2  UNL     1      16.268   4.286  24.185  1.00  0.00     0.161 HD
BRANCH   2   4
HETATM    4  C3  UNL     1      15.939   6.244  23.932  1.00  0.00     0.115 A 
HETATM    5  N1  UNL     1      16.826   7.256  24.015  1.00  0.00    -0.332 N 
HETATM    6  C2  UNL     1      16.478   8.474  24.438  1.00  0.00     0.079 A 
ATOM      7  H1  UNL     1      17.795   7.086  23.745  1.00  0.00     0.168 HD
HETATM    8  C1  UNL     1      17.509   9.536  24.502  1.00  0.00     0.089 C 
HETATM    9  N6  UNL     1      15.211   8.725  24.796  1.00  0.00    -0.345 N 
HETATM   10  C19 UNL     1      14.274   7.790  24.746  1.00  0.00     0.053 A 
ATOM     11  H6  UNL     1      14.962   9.662  25.115  1.00  0.00     0.167 HD
HETATM   12  C13 UNL     1      14.641   6.520  24.305  1.00  0.00     0.035 A 
HETATM   13  C17 UNL     1      12.984   8.104  25.127  1.00  0.00    -0.034 A 
HETATM   14  C14 UNL     1      13.668   5.541  24.250  1.00  0.00     0.017 A 
HETATM   15  C15 UNL     1      12.381   5.814  24.619  1.00  0.00     0.002 A 
HETATM   16  C16 UNL     1      12.057   7.085  25.051  1.00  0.00     0.009 A 
HETATM   17  C18 UNL     1      12.555   9.422  25.596  1.00  0.00     0.050 C 
ENDBRANCH   2   4
ENDBRANCH   1   2
BRANCH   1  18
HETATM   18  C5  UNL     1      18.119   4.560  22.072  1.00  0.00     0.022 C 
BRANCH  18  19
HETATM   19  C6  UNL     1      18.789   5.209  20.905  1.00  0.00     0.028 C 
BRANCH  19  20
HETATM   20  C7  UNL     1      18.165   6.596  20.714  1.00  0.00     0.167 C 
BRANCH  20  21
HETATM   21  O1  UNL     1      18.676   7.452  21.649  1.00  0.00    -0.389 OA
BRANCH  21  22
HETATM   22  C8  UNL     1      20.002   7.769  21.544  1.00  0.00     0.193 C 
BRANCH  22  23
HETATM   23  C9  UNL     1      20.664   7.822  22.897  1.00  0.00     0.193 C 
BRANCH  23  24
HETATM   24  O2  UNL     1      19.897   7.148  23.834  1.00  0.00    -0.387 OA
BRANCH  24  25
HETATM   25  C10 UNL     1      20.316   7.271  25.129  1.00  0.00     0.187 C 
BRANCH  25  26
HETATM   26  C11 UNL     1      20.940   8.587  25.487  1.00  0.00     0.148 C 
BRANCH  26  27
HETATM   27  N3  UNL     1      22.055   8.395  26.421  1.00  0.00    -0.363 N 
HETATM   28  C12 UNL     1      22.979   7.325  26.299  1.00  0.00     0.181 C 
HETATM   29  N4  UNL     1      24.042   7.412  25.540  1.00  0.00    -0.374 N 
HETATM   30  N5  UNL     1      22.730   6.136  27.028  1.00  0.00    -0.064 NA
ATOM     31  H42 UNL     1      24.221   8.268  25.014  1.00  0.00     0.158 HD
ATOM     32  H41 UNL     1      24.705   6.643  25.452  1.00  0.00     0.158 HD
ATOM     33  H3  UNL     1      22.170   9.057  27.188  1.00  0.00     0.162 HD
ENDBRANCH  26  27
ENDBRANCH  25  26
ENDBRANCH  24  25
ENDBRANCH  23  24
ENDBRANCH  22  23
ENDBRANCH  21  22
ENDBRANCH  20  21
ENDBRANCH  19  20
ENDBRANCH  18  19
ENDBRANCH   1  18
TORSDOF 12
ENDMDL
MODEL 2
REMARK VINA RESULT: -7.110384722      1.019      1.345
REMARK  12 active torsions:
REMARK  status: ('A' for Active; 'I' for Inactive)
REMARK    1  A    between atoms: C3_5  and  N2_6 
REMARK    2  A    between atoms: N2_6  and  C4_8 
REMARK    3  A    between atoms: C4_8  and  C5_9 
REMARK    4  A    between atoms: C5_9  and  C6_10 
REMARK    5  A    between atoms: C6_10  and  C7_11 
REMARK    6  A    between atoms: C7_11  and  O1_12 
REMARK    7  A    between atoms: O1_12  and  C8_13 
REMARK    8  A    between atoms: C8_13  and  C9_14 
REMARK    9  A    between atoms: C9_14  and  O2_15 
REMARK   10  A    between atoms: O2_15  and  C10_16 
REMARK   11  A    between atoms: C10_16  and  C11_17 
REMARK   12  A    between atoms: C11_17  and  N3_18 
REMARK       I    between atoms: N3_18  and  C12_20 
ROOT
HETATM    1  C4  UNL     1      17.176   4.632  22.618  1.00  0.00     0.121 C 
ENDROOT
BRANCH   1   2
HETATM    2  N2  UNL     1      16.123   4.889  23.592  1.00  0.00    -0.376 N 
ATOM      3  H2  UNL     1      15.591   4.108  23.974  1.00  0.00     0.161 HD
BRANCH   2   4
HETATM    4  C3  UNL     1      15.855   6.091  23.977  1.00  0.00     0.115 A 
HETATM    5  N1  UNL     1      16.794   7.056  24.044  1.00  0.00    -0.332 N 
HETATM    6  C2  UNL     1      16.510   8.298  24.445  1.00  0.00     0.079 A 
ATOM      7  H1  UNL     1      17.753   6.830  23.780  1.00  0.00     0.168 HD
HETATM    8  C1  UNL     1      17.596   9.305  24.494  1.00  0.00     0.089 C 
HETATM    9  N6  UNL     1      15.258   8.622  24.796  1.00  0.00    -0.345 N 
HETATM   10  C19 UNL     1      14.273   7.736  24.760  1.00  0.00     0.053 A 
ATOM     11  H6  UNL     1      15.059   9.576  25.098  1.00  0.00     0.167 HD
HETATM   12  C13 UNL     1      14.573   6.442  24.342  1.00  0.00     0.035 A 
HETATM   13  C17 UNL     1      13.000   8.125  25.133  1.00  0.00    -0.034 A 
HETATM   14  C14 UNL     1      13.549   5.514  24.302  1.00  0.00     0.017 A 
HETATM   15  C15 UNL     1      12.278   5.861  24.663  1.00  0.00     0.002 A 
HETATM   16  C16 UNL     1      12.021   7.156  25.072  1.00  0.00     0.009 A 
HETATM   17  C18 UNL     1      12.641   9.472  25.577  1.00  0.00     0.050 C 
ENDBRANCH   2   4
ENDBRANCH   1   2
BRANCH   1  18
HETATM   18  C5  UNL     1      16.545   4.325  21.291  1.00  0.00     0.022 C 
BRANCH  18  19
HETATM   19  C6  UNL     1      15.810   5.483  20.701  1.00  0.00     0.028 C 
BRANCH  19  20
HETATM   20  C7  UNL     1      16.846   6.455  20.125  1.00  0.00     0.167 C 
BRANCH  20  21
HETATM   21  O1  UNL     1      16.908   7.568  20.917  1.00  0.00    -0.389 OA
BRANCH  21  22
HETATM   22  C8  UNL     1      18.064   8.297  20.875  1.00  0.00     0.193 C 
BRANCH  22  23
HETATM   23  C9  UNL     1      19.244   7.485  21.347  1.00  0.00     0.193 C 
BRANCH  23  24
HETATM   24  O2  UNL     1      20.028   8.234  22.211  1.00  0.00    -0.387 OA
BRANCH  24  25
HETATM   25  C10 UNL     1      20.569   7.541  23.257  1.00  0.00     0.187 C 
BRANCH  25  26
HETATM   26  C11 UNL     1      21.335   8.361  24.252  1.00  0.00     0.148 C 
BRANCH  26  27
HETATM   27  N3  UNL     1      21.731   7.542  25.403  1.00  0.00    -0.363 N 
HETATM   28  C12 UNL     1      22.903   7.804  26.161  1.00  0.00     0.181 C 
HETATM   29  N4  UNL     1      22.905   8.650  27.160  1.00  0.00    -0.374 N 
HETATM   30  N5  UNL     1      24.094   7.122  25.813  1.00  0.00    -0.064 NA
ATOM     31  H42 UNL     1      22.047   9.142  27.410  1.00  0.00     0.158 HD
ATOM     32  H41 UNL     1      23.747   8.839  27.704  1.00  0.00     0.158 HD
ATOM     33  H3  UNL     1      21.142   6.753  25.669  1.00  0.00     0.162 HD
ENDBRANCH  26  27
ENDBRANCH  25  26
ENDBRANCH  24  25
ENDBRANCH  23  24
ENDBRANCH  22  23
ENDBRANCH  21  22
ENDBRANCH  20  21
ENDBRANCH  19  20
ENDBRANCH  18  19
ENDBRANCH   1  18
TORSDOF 12
ENDMDL
MODEL 3
REMARK VINA RESULT: -7.088708636      3.027      5.486
REMARK  12 active torsions:
REMARK  status: ('A' for Active; 'I' for Inactive)
REMARK    1  A    between atoms: C3_5  and  N2_6 
REMARK    2  A    between atoms: N2_6  and  C4_8 
REMARK    3  A    between atoms: C4_8  and  C5_9 
REMARK    4  A    between atoms: C5_9  and  C6_10 
REMARK    5  A    between atoms: C6_10  and  C7_11 
REMARK    6  A    between atoms: C7_11  and  O1_12 
REMARK    7  A    between atoms: O1_12  and  C8_13 
REMARK    8  A    between atoms: C8_13  and  C9_14 
REMARK    9  A    between atoms: C9_14  and  O2_15 
REMARK   10  A    between atoms: O2_15  and  C10_16 
REMARK   11  A    between atoms: C10_16  and  C11_17 
REMARK   12  A    between atoms: C11_17  and  N3_18 
REMARK       I    between atoms: N3_18  and  C12_20 
ROOT
HETATM    1  C4  UNL     1      17.937   9.735  25.446  1.00  0.00     0.121 C 
ENDROOT
BRANCH   1   2
HETATM    2  N2  UNL     1      17.007   9.499  24.350  1.00  0.00    -0.376 N 
ATOM      3  H2  UNL     1      16.832  10.240  23.671  1.00  0.00     0.161 HD
BRANCH   2   4
HETATM    4  C3  UNL     1      16.403   8.366  24.225  1.00  0.00     0.115 A 
HETATM    5  N1  UNL     1      17.012   7.272  23.726  1.00  0.00    -0.332 N 
HETATM    6  C2  UNL     1      16.380   6.102  23.598  1.00  0.00     0.079 A 
ATOM      7  H1  UNL     1      17.988   7.340  23.436  1.00  0.00     0.168 HD
HETATM    8  C1  UNL     1      17.117   4.943  23.040  1.00  0.00     0.089 C 
HETATM    9  N6  UNL     1      15.100   5.985  23.973  1.00  0.00    -0.345 N 
HETATM   10  C19 UNL     1      14.424   7.008  24.474  1.00  0.00     0.053 A 
ATOM     11  H6  UNL     1      14.633   5.084  23.870  1.00  0.00     0.167 HD
HETATM   12  C13 UNL     1      15.086   8.227  24.605  1.00  0.00     0.035 A 
HETATM   13  C17 UNL     1      13.104   6.831  24.845  1.00  0.00    -0.034 A 
HETATM   14  C14 UNL     1      14.385   9.298  25.128  1.00  0.00     0.017 A 
HETATM   15  C15 UNL     1      13.079   9.162  25.506  1.00  0.00     0.002 A 
HETATM   16  C16 UNL     1      12.458   7.936  25.360  1.00  0.00     0.009 A 
HETATM   17  C18 UNL     1      12.371   5.571  24.725  1.00  0.00     0.050 C 
ENDBRANCH   2   4
ENDBRANCH   1   2
BRANCH   1  18
HETATM   18  C5  UNL     1      19.339   9.678  24.915  1.00  0.00     0.022 C 
BRANCH  18  19
HETATM   19  C6  UNL     1      20.153   8.572  25.505  1.00  0.00     0.028 C 
BRANCH  19  20
HETATM   20  C7  UNL     1      20.411   7.538  24.404  1.00  0.00     0.167 C 
BRANCH  20  21
HETATM   21  O1  UNL     1      19.816   7.955  23.246  1.00  0.00    -0.389 OA
BRANCH  21  22
HETATM   22  C8  UNL     1      20.446   7.639  22.074  1.00  0.00     0.193 C 
BRANCH  22  23
HETATM   23  C9  UNL     1      19.474   7.098  21.057  1.00  0.00     0.193 C 
BRANCH  23  24
HETATM   24  O2  UNL     1      18.356   7.914  20.977  1.00  0.00    -0.387 OA
BRANCH  24  25
HETATM   25  C10 UNL     1      17.720   7.915  19.768  1.00  0.00     0.187 C 
BRANCH  25  26
HETATM   26  C11 UNL     1      18.539   8.384  18.603  1.00  0.00     0.148 C 
BRANCH  26  27
HETATM   27  N3  UNL     1      18.391   9.831  18.414  1.00  0.00    -0.363 N 
HETATM   28  C12 UNL     1      18.621  10.467  17.166  1.00  0.00     0.181 C 
HETATM   29  N4  UNL     1      17.683  10.570  16.259  1.00  0.00    -0.374 N 
HETATM   30  N5  UNL     1      19.908  11.002  16.912  1.00  0.00    -0.064 NA
ATOM     31  H42 UNL     1      16.756  10.185  16.441  1.00  0.00     0.158 HD
ATOM     32  H41 UNL     1      17.848  11.026  15.362  1.00  0.00     0.158 HD
ATOM     33  H3  UNL     1      18.111  10.403  19.211  1.00  0.00     0.162 HD
ENDBRANCH  26  27
ENDBRANCH  25  26
ENDBRANCH  24  25
ENDBRANCH  23  24
ENDBRANCH  22  23
ENDBRANCH  21  22
ENDBRANCH  20  21
ENDBRANCH  19  20
ENDBRANCH  18  19
ENDBRANCH   1  18
TORSDOF 12
ENDMDL
MODEL 4
REMARK VINA RESULT: -7.055330307      1.407      1.947
REMARK  12 active torsions:
REMARK  status: ('A' for Active; 'I' for Inactive)
REMARK    1  A    between atoms: C3_5  and  N2_6 
REMARK    2  A    between atoms: N2_6  and  C4_8 
REMARK    3  A    between atoms: C4_8  and  C5_9 
REMARK    4  A    between atoms: C5_9  and  C6_10 
REMARK    5  A    between atoms: C6_10  and  C7_11 
REMARK    6  A    between atoms: C7_11  and  O1_12 
REMARK    7  A    between atoms: O1_12  and  C8_13 
REMARK    8  A    between atoms: C8_13  and  C9_14 
REMARK    9  A    between atoms: C9_14  and  O2_15 
REMARK   10  A    between atoms: O2_15  and  C10_16 
REMARK   11  A    between atoms: C10_16  and  C11_17 
REMARK   12  A    between atoms: C11_17  and  N3_18 
REMARK       I    between atoms: N3_18  and  C12_20 
ROOT
HETATM    1  C4  UNL     1      18.463   5.819  23.007  1.00  0.00     0.121 C 
ENDROOT
BRANCH   1   2
HETATM    2  N2  UNL     1      17.073   5.847  23.444  1.00  0.00    -0.376 N 
ATOM      3  H2  UNL     1      16.485   5.025  23.302  1.00  0.00     0.161 HD
BRANCH   2   4
HETATM    4  C3  UNL     1      16.575   6.895  24.008  1.00  0.00     0.115 A 
HETATM    5  N1  UNL     1      17.340   7.921  24.433  1.00  0.00    -0.332 N 
HETATM    6  C2  UNL     1      16.819   9.003  25.017  1.00  0.00     0.079 A 
ATOM      7  H1  UNL     1      18.351   7.868  24.305  1.00  0.00     0.168 HD
HETATM    8  C1  UNL     1      17.725  10.089  25.459  1.00  0.00     0.089 C 
HETATM    9  N6  UNL     1      15.495   9.098  25.196  1.00  0.00    -0.345 N 
HETATM   10  C19 UNL     1      14.668   8.138  24.808  1.00  0.00     0.053 A 
ATOM     11  H6  UNL     1      15.113   9.933  25.642  1.00  0.00     0.167 HD
HETATM   12  C13 UNL     1      15.216   7.011  24.200  1.00  0.00     0.035 A 
HETATM   13  C17 UNL     1      13.310   8.289  25.018  1.00  0.00    -0.034 A 
HETATM   14  C14 UNL     1      14.358   6.006  23.794  1.00  0.00     0.017 A 
HETATM   15  C15 UNL     1      13.009   6.119  23.983  1.00  0.00     0.002 A 
HETATM   16  C16 UNL     1      12.505   7.253  24.591  1.00  0.00     0.009 A 
HETATM   17  C18 UNL     1      12.693   9.455  25.651  1.00  0.00     0.050 C 
ENDBRANCH   2   4
ENDBRANCH   1   2
BRANCH   1  18
HETATM   18  C5  UNL     1      18.515   6.111  21.536  1.00  0.00     0.022 C 
BRANCH  18  19
HETATM   19  C6  UNL     1      19.114   7.442  21.216  1.00  0.00     0.028 C 
BRANCH  19  20
HETATM   20  C7  UNL     1      20.208   7.727  22.250  1.00  0.00     0.167 C 
BRANCH  20  21
HETATM   21  O1  UNL     1      19.881   8.853  22.953  1.00  0.00    -0.389 OA
BRANCH  21  22
HETATM   22  C8  UNL     1      20.905   9.689  23.303  1.00  0.00     0.193 C 
BRANCH  22  23
HETATM   23  C9  UNL     1      22.244   9.022  23.123  1.00  0.00     0.193 C 
BRANCH  23  24
HETATM   24  O2  UNL     1      23.123   9.433  24.114  1.00  0.00    -0.387 OA
BRANCH  24  25
HETATM   25  C10 UNL     1      23.865   8.438  24.686  1.00  0.00     0.187 C 
BRANCH  25  26
HETATM   26  C11 UNL     1      24.025   8.521  26.175  1.00  0.00     0.148 C 
BRANCH  26  27
HETATM   27  N3  UNL     1      22.742   8.290  26.848  1.00  0.00    -0.363 N 
HETATM   28  C12 UNL     1      22.001   7.089  26.690  1.00  0.00     0.181 C 
HETATM   29  N4  UNL     1      22.224   6.036  27.434  1.00  0.00    -0.374 N 
HETATM   30  N5  UNL     1      20.994   7.047  25.694  1.00  0.00    -0.064 NA
ATOM     31  H42 UNL     1      22.949   6.066  28.151  1.00  0.00     0.158 HD
ATOM     32  H41 UNL     1      21.693   5.174  27.320  1.00  0.00     0.158 HD
ATOM     33  H3  UNL     1      22.367   9.021  27.453  1.00  0.00     0.162 HD
ENDBRANCH  26  27
ENDBRANCH  25  26
ENDBRANCH  24  25
ENDBRANCH  23  24
ENDBRANCH  22  23
ENDBRANCH  21  22
ENDBRANCH  20  21
ENDBRANCH  19  20
ENDBRANCH  18  19
ENDBRANCH   1  18
TORSDOF 12
ENDMDL
MODEL 5
REMARK VINA RESULT: -6.919643778      2.217      4.230
REMARK  12 active torsions:
REMARK  status: ('A' for Active; 'I' for Inactive)
REMARK    1  A    between atoms: C3_5  and  N2_6 
REMARK    2  A    between atoms: N2_6  and  C4_8 
REMARK    3  A    between atoms: C4_8  and  C5_9 
REMARK    4  A    between atoms: C5_9  and  C6_10 
REMARK    5  A    between atoms: C6_10  and  C7_11 
REMARK    6  A    between atoms: C7_11  and  O1_12 
REMARK    7  A    between atoms: O1_12  and  C8_13 
REMARK    8  A    between atoms: C8_13  and  C9_14 
REMARK    9  A    between atoms: C9_14  and  O2_15 
REMARK   10  A    between atoms: O2_15  and  C10_16 
REMARK   11  A    between atoms: C10_16  and  C11_17 
REMARK   12  A    between atoms: C11_17  and  N3_18 
REMARK       I    between atoms: N3_18  and  C12_20 
ROOT
HETATM    1  C4  UNL     1      18.319   9.515  25.189  1.00  0.00     0.121 C 
ENDROOT
BRANCH   1   2
HETATM    2  N2  UNL     1      17.064   9.442  24.452  1.00  0.00    -0.376 N 
ATOM      3  H2  UNL     1      16.663  10.293  24.058  1.00  0.00     0.161 HD
BRANCH   2   4
HETATM    4  C3  UNL     1      16.454   8.317  24.291  1.00  0.00     0.115 A 
HETATM    5  N1  UNL     1      17.063   7.229  23.778  1.00  0.00    -0.332 N 
HETATM    6  C2  UNL     1      16.424   6.068  23.614  1.00  0.00     0.079 A 
ATOM      7  H1  UNL     1      18.044   7.296  23.507  1.00  0.00     0.168 HD
HETATM    8  C1  UNL     1      17.161   4.916  23.042  1.00  0.00     0.089 C 
HETATM    9  N6  UNL     1      15.136   5.953  23.964  1.00  0.00    -0.345 N 
HETATM   10  C19 UNL     1      14.460   6.970  24.476  1.00  0.00     0.053 A 
ATOM     11  H6  UNL     1      14.665   5.058  23.833  1.00  0.00     0.167 HD
HETATM   12  C13 UNL     1      15.129   8.180  24.646  1.00  0.00     0.035 A 
HETATM   13  C17 UNL     1      13.133   6.795  24.820  1.00  0.00    -0.034 A 
HETATM   14  C14 UNL     1      14.428   9.245  25.180  1.00  0.00     0.017 A 
HETATM   15  C15 UNL     1      13.114   9.111  25.532  1.00  0.00     0.002 A 
HETATM   16  C16 UNL     1      12.486   7.894  25.348  1.00  0.00     0.009 A 
HETATM   17  C18 UNL     1      12.392   5.544  24.659  1.00  0.00     0.050 C 
ENDBRANCH   2   4
ENDBRANCH   1   2
BRANCH   1  18
HETATM   18  C5  UNL     1      19.444   9.705  24.214  1.00  0.00     0.022 C 
BRANCH  18  19
HETATM   19  C6  UNL     1      20.435   8.587  24.227  1.00  0.00     0.028 C 
BRANCH  19  20
HETATM   20  C7  UNL     1      20.939   8.420  25.664  1.00  0.00     0.167 C 
BRANCH  20  21
HETATM   21  O1  UNL     1      20.928   7.093  25.994  1.00  0.00    -0.389 OA
BRANCH  21  22
HETATM   22  C8  UNL     1      21.997   6.619  26.703  1.00  0.00     0.193 C 
BRANCH  22  23
HETATM   23  C9  UNL     1      23.174   7.557  26.616  1.00  0.00     0.193 C 
BRANCH  23  24
HETATM   24  O2  UNL     1      24.211   6.965  25.911  1.00  0.00    -0.387 OA
BRANCH  24  25
HETATM   25  C10 UNL     1      25.040   7.830  25.255  1.00  0.00     0.187 C 
BRANCH  25  26
HETATM   26  C11 UNL     1      24.367   8.789  24.318  1.00  0.00     0.148 C 
BRANCH  26  27
HETATM   27  N3  UNL     1      24.456   8.309  22.934  1.00  0.00    -0.363 N 
HETATM   28  C12 UNL     1      23.977   9.064  21.831  1.00  0.00     0.181 C 
HETATM   29  N4  UNL     1      24.718   9.964  21.236  1.00  0.00    -0.374 N 
HETATM   30  N5  UNL     1      22.658   8.823  21.374  1.00  0.00    -0.064 NA
ATOM     31  H42 UNL     1      25.668  10.138  21.565  1.00  0.00     0.158 HD
ATOM     32  H41 UNL     1      24.374  10.506  20.444  1.00  0.00     0.158 HD
ATOM     33  H3  UNL     1      24.877   7.398  22.758  1.00  0.00     0.162 HD
ENDBRANCH  26  27
ENDBRANCH  25  26
ENDBRANCH  24  25
ENDBRANCH  23  24
ENDBRANCH  22  23
ENDBRANCH  21  22
ENDBRANCH  20  21
ENDBRANCH  19  20
ENDBRANCH  18  19
ENDBRANCH   1  18
TORSDOF 12
ENDMDL
