MODEL 1
REMARK VINA RESULT: -7.222493756      0.000      0.000
REMARK  12 active torsions:
REMARK  status: ('A' for Active; 'I' for Inactive)
REMARK    1  A    between atoms: C5_5  and  C6_6 
REMARK    2  A    between atoms: C6_6  and  C7_7 
REMARK    3  A    between atoms: C8_9  and  N1_10 
REMARK    4  A    between atoms: N1_10  and  C9_12 
REMARK    5  A    between atoms: C9_12  and  C10_13 
REMARK    6  A    between atoms: C10_13  and  O1_14 
REMARK    7  A    between atoms: O1_14  and  C11_15 
REMARK    8  A    between atoms: C11_15  and  C12_16 
REMARK    9  A    between atoms: C12_16  and  O2_17 
REMARK   10  A    between atoms: O2_17  and  C13_18 
REMARK   11  A    between atoms: C13_18  and  C14_19 
REMARK   12  A    between atoms: C14_19  and  N2_20 
REMARK       I    between atoms: N2_20  and  C15_22 
ROOT
HETATM    1  C7  UNL     1     -20.435   5.870 -31.517  1.00  0.00     0.031 A 
HETATM    2  S1  UNL     1     -21.011   4.631 -30.499  1.00  0.00    -0.055 SA
HETATM    3  C8  UNL     1     -20.042   4.957 -29.135  1.00  0.00     0.146 A 
HETATM    4  N4  UNL     1     -19.317   6.003 -29.520  1.00  0.00    -0.324 N 
ATOM      5  H4  UNL     1     -18.633   6.425 -28.892  1.00  0.00     0.169 HD
HETATM    6  C16 UNL     1     -19.502   6.481 -30.727  1.00  0.00     0.131 A 
HETATM    7  N5  UNL     1     -18.753   7.627 -31.221  1.00  0.00    -0.082 NA
ENDROOT
BRANCH   3   8
HETATM    8  N1  UNL     1     -19.997   4.342 -27.971  1.00  0.00    -0.368 N 
ATOM      9  H1  UNL     1     -19.723   3.361 -27.923  1.00  0.00     0.161 HD
BRANCH   8  10
HETATM   10  C9  UNL     1     -20.338   5.062 -26.757  1.00  0.00     0.148 C 
BRANCH  10  11
HETATM   11  C10 UNL     1     -19.372   4.590 -25.694  1.00  0.00     0.187 C 
BRANCH  11  12
HETATM   12  O1  UNL     1     -18.291   5.436 -25.516  1.00  0.00    -0.387 OA
BRANCH  12  13
HETATM   13  C11 UNL     1     -17.054   4.824 -25.595  1.00  0.00     0.193 C 
BRANCH  13  14
HETATM   14  C12 UNL     1     -16.724   4.341 -26.989  1.00  0.00     0.193 C 
BRANCH  14  15
HETATM   15  O2  UNL     1     -16.873   5.331 -27.941  1.00  0.00    -0.387 OA
BRANCH  15  16
HETATM   16  C13 UNL     1     -15.977   6.363 -27.831  1.00  0.00     0.187 C 
BRANCH  16  17
HETATM   17  C14 UNL     1     -15.667   7.025 -29.153  1.00  0.00     0.150 C 
BRANCH  17  18
HETATM   18  N2  UNL     1     -14.251   6.947 -29.461  1.00  0.00    -0.343 N 
HETATM   19  C15 UNL     1     -13.679   5.856 -30.158  1.00  0.00     0.328 C 
HETATM   20  N3  UNL     1     -12.289   5.853 -30.420  1.00  0.00    -0.040 NA
HETATM   21  O3  UNL     1     -14.396   4.880 -30.554  1.00  0.00    -0.251 OA
ATOM     22  H2  UNL     1     -13.643   7.709 -29.162  1.00  0.00     0.163 HD
ENDBRANCH  17  18
ENDBRANCH  16  17
ENDBRANCH  15  16
ENDBRANCH  14  15
ENDBRANCH  13  14
ENDBRANCH  12  13
ENDBRANCH  11  12
ENDBRANCH  10  11
ENDBRANCH   8  10
ENDBRANCH   3   8
BRANCH   1  23
HETATM   23  C6  UNL     1     -20.881   6.156 -32.921  1.00  0.00     0.088 C 
BRANCH  23  24
HETATM   24  C5  UNL     1     -20.092   5.439 -33.916  1.00  0.00    -0.053 A 
HETATM   25  C4  UNL     1     -20.026   5.786 -35.244  1.00  0.00     0.008 A 
HETATM   26  C3  UNL     1     -19.265   5.090 -36.157  1.00  0.00     0.007 A 
HETATM   27  C2  UNL     1     -18.531   4.000 -35.757  1.00  0.00    -0.062 A 
HETATM   28  C1  UNL     1     -17.692   3.222 -36.734  1.00  0.00     0.048 C 
HETATM   29  C18 UNL     1     -18.594   3.646 -34.421  1.00  0.00     0.007 A 
HETATM   30  C17 UNL     1     -19.357   4.344 -33.508  1.00  0.00     0.008 A 
ENDBRANCH  23  24
ENDBRANCH   1  23
TORSDOF 12
ENDMDL
MODEL 2
REMARK VINA RESULT: -7.019478174      1.532      2.076
REMARK  12 active torsions:
REMARK  status: ('A' for Active; 'I' for Inactive)
REMARK    1  A    between atoms: C5_5  and  C6_6 
REMARK    2  A    between atoms: C6_6  and  C7_7 
REMARK    3  A    between atoms: C8_9  and  N1_10 
REMARK    4  A    between atoms: N1_10  and  C9_12 
REMARK    5  A    between atoms: C9_12  and  C10_13 
REMARK    6  A    between atoms: C10_13  and  O1_14 
REMARK    7  A    between atoms: O1_14  and  C11_15 
REMARK    8  A    between atoms: C11_15  and  C12_16 
REMARK    9  A    between atoms: C12_16  and  O2_17 
REMARK   10  A    between atoms: O2_17  and  C13_18 
REMARK   11  A    between atoms: C13_18  and  C14_19 
REMARK   12  A    between atoms: C14_19  and  N2_20 
REMARK       I    between atoms: N2_20  and  C15_22 
ROOT
HETATM    1  C7  UNL     1     -21.239   5.433 -30.249  1.00  0.00     0.031 A 
HETATM    2  S1  UNL     1     -20.133   5.715 -28.983  1.00  0.00    -0.055 SA
HETATM    3  C8  UNL     1     -20.557   4.399 -27.984  1.00  0.00     0.146 A 
HETATM    4  N4  UNL     1     -21.529   3.802 -28.666  1.00  0.00    -0.324 N 
ATOM      5  H4  UNL     1     -21.985   2.964 -28.301  1.00  0.00     0.169 HD
HETATM    6  C16 UNL     1     -21.890   4.312 -29.819  1.00  0.00     0.131 A 
HETATM    7  N5  UNL     1     -22.942   3.713 -30.626  1.00  0.00    -0.082 NA
ENDROOT
BRANCH   3   8
HETATM    8  N1  UNL     1     -20.062   4.038 -26.818  1.00  0.00    -0.368 N 
ATOM      9  H1  UNL     1     -19.973   3.049 -26.587  1.00  0.00     0.161 HD
BRANCH   8  10
HETATM   10  C9  UNL     1     -19.644   5.049 -25.863  1.00  0.00     0.148 C 
BRANCH  10  11
HETATM   11  C10 UNL     1     -18.155   4.869 -25.675  1.00  0.00     0.187 C 
BRANCH  11  12
HETATM   12  O1  UNL     1     -17.425   6.019 -25.919  1.00  0.00    -0.387 OA
BRANCH  12  13
HETATM   13  C11 UNL     1     -16.318   5.846 -26.729  1.00  0.00     0.193 C 
BRANCH  13  14
HETATM   14  C12 UNL     1     -16.519   4.778 -27.780  1.00  0.00     0.193 C 
BRANCH  14  15
HETATM   15  O2  UNL     1     -16.588   5.300 -29.057  1.00  0.00    -0.387 OA
BRANCH  15  16
HETATM   16  C13 UNL     1     -16.337   6.645 -29.135  1.00  0.00     0.187 C 
BRANCH  16  17
HETATM   17  C14 UNL     1     -15.516   7.029 -30.343  1.00  0.00     0.150 C 
BRANCH  17  18
HETATM   18  N2  UNL     1     -14.096   6.964 -30.056  1.00  0.00    -0.343 N 
HETATM   19  C15 UNL     1     -13.310   5.819 -30.334  1.00  0.00     0.328 C 
HETATM   20  N3  UNL     1     -11.930   5.833 -30.024  1.00  0.00    -0.040 NA
HETATM   21  O3  UNL     1     -13.828   4.780 -30.858  1.00  0.00    -0.251 OA
ATOM     22  H2  UNL     1     -13.644   7.776 -29.637  1.00  0.00     0.163 HD
ENDBRANCH  17  18
ENDBRANCH  16  17
ENDBRANCH  15  16
ENDBRANCH  14  15
ENDBRANCH  13  14
ENDBRANCH  12  13
ENDBRANCH  11  12
ENDBRANCH  10  11
ENDBRANCH   8  10
ENDBRANCH   3   8
BRANCH   1  23
HETATM   23  C6  UNL     1     -21.405   6.257 -31.493  1.00  0.00     0.088 C 
BRANCH  23  24
HETATM   24  C5  UNL     1     -20.683   5.703 -32.631  1.00  0.00    -0.053 A 
HETATM   25  C4  UNL     1     -19.672   4.776 -32.527  1.00  0.00     0.008 A 
HETATM   26  C3  UNL     1     -19.015   4.269 -33.625  1.00  0.00     0.007 A 
HETATM   27  C2  UNL     1     -19.358   4.683 -34.890  1.00  0.00    -0.062 A 
HETATM   28  C1  UNL     1     -18.654   4.144 -36.105  1.00  0.00     0.048 C 
HETATM   29  C18 UNL     1     -20.373   5.615 -35.000  1.00  0.00     0.007 A 
HETATM   30  C17 UNL     1     -21.031   6.124 -33.899  1.00  0.00     0.008 A 
ENDBRANCH  23  24
ENDBRANCH   1  23
TORSDOF 12
ENDMDL
MODEL 3
REMARK VINA RESULT: -6.919941611      2.805      5.976
REMARK  12 active torsions:
REMARK  status: ('A' for Active; 'I' for Inactive)
REMARK    1  A    between atoms: C5_5  and  C6_6 
REMARK    2  A    between atoms: C6_6  and  C7_7 
REMARK    3  A    between atoms: C8_9  and  N1_10 
REMARK    4  A    between atoms: N1_10  and  C9_12 
REMARK    5  A    between atoms: C9_12  and  C10_13 
REMARK    6  A    between atoms: C10_13  and  O1_14 
REMARK    7  A    between atoms: O1_14  and  C11_15 
REMARK    8  A    between atoms: C11_15  and  C12_16 
REMARK    9  A    between atoms: C12_16  and  O2_17 
REMARK   10  A    between atoms: O2_17  and  C13_18 
REMARK   11  A    between atoms: C13_18  and  C14_19 
REMARK   12  A    between atoms: C14_19  and  N2_20 
REMARK       I    between atoms: N2_20  and  C15_22 
ROOT
HETATM    1  C7  UNL     1     -21.654   4.930 -28.477  1.00  0.00     0.031 A 
HETATM    2  S1  UNL     1     -22.002   6.573 -28.767  1.00  0.00    -0.055 SA
HETATM    3  C8  UNL     1     -22.613   6.423 -30.352  1.00  0.00     0.146 A 
HETATM    4  N4  UNL     1     -22.522   5.118 -30.590  1.00  0.00    -0.324 N 
ATOM      5  H4  UNL     1     -22.823   4.728 -31.484  1.00  0.00     0.169 HD
HETATM    6  C16 UNL     1     -22.037   4.343 -29.650  1.00  0.00     0.131 A 
HETATM    7  N5  UNL     1     -21.911   2.905 -29.831  1.00  0.00    -0.082 NA
ENDROOT
BRANCH   3   8
HETATM    8  N1  UNL     1     -23.069   7.352 -31.167  1.00  0.00    -0.368 N 
ATOM      9  H1  UNL     1     -23.650   8.107 -30.805  1.00  0.00     0.161 HD
BRANCH   8  10
HETATM   10  C9  UNL     1     -22.742   7.299 -32.582  1.00  0.00     0.148 C 
BRANCH  10  11
HETATM   11  C10 UNL     1     -21.245   7.484 -32.682  1.00  0.00     0.187 C 
BRANCH  11  12
HETATM   12  O1  UNL     1     -20.547   6.292 -32.763  1.00  0.00    -0.387 OA
BRANCH  12  13
HETATM   13  C11 UNL     1     -19.400   6.235 -31.992  1.00  0.00     0.193 C 
BRANCH  13  14
HETATM   14  C12 UNL     1     -19.082   7.548 -31.314  1.00  0.00     0.193 C 
BRANCH  14  15
HETATM   15  O2  UNL     1     -18.081   7.426 -30.368  1.00  0.00    -0.387 OA
BRANCH  15  16
HETATM   16  C13 UNL     1     -16.886   6.970 -30.862  1.00  0.00     0.187 C 
BRANCH  16  17
HETATM   17  C14 UNL     1     -15.706   7.329 -29.991  1.00  0.00     0.150 C 
BRANCH  17  18
HETATM   18  N2  UNL     1     -14.455   6.949 -30.619  1.00  0.00    -0.343 N 
HETATM   19  C15 UNL     1     -13.993   5.612 -30.659  1.00  0.00     0.328 C 
HETATM   20  N3  UNL     1     -12.761   5.321 -31.290  1.00  0.00    -0.040 NA
HETATM   21  O3  UNL     1     -14.670   4.667 -30.135  1.00  0.00    -0.251 OA
ATOM     22  H2  UNL     1     -13.884   7.676 -31.051  1.00  0.00     0.163 HD
ENDBRANCH  17  18
ENDBRANCH  16  17
ENDBRANCH  15  16
ENDBRANCH  14  15
ENDBRANCH  13  14
ENDBRANCH  12  13
ENDBRANCH  11  12
ENDBRANCH  10  11
ENDBRANCH   8  10
ENDBRANCH   3   8
BRANCH   1  23
HETATM   23  C6  UNL     1     -21.067   4.347 -27.225  1.00  0.00     0.088 C 
BRANCH  23  24
HETATM   24  C5  UNL     1     -19.704   4.803 -26.981  1.00  0.00    -0.053 A 
HETATM   25  C4  UNL     1     -19.265   5.310 -25.780  1.00  0.00     0.008 A 
HETATM   26  C3  UNL     1     -17.968   5.726 -25.581  1.00  0.00     0.007 A 
HETATM   27  C2  UNL     1     -17.051   5.647 -26.602  1.00  0.00    -0.062 A 
HETATM   28  C1  UNL     1     -15.628   6.096 -26.411  1.00  0.00     0.048 C 
HETATM   29  C18 UNL     1     -17.488   5.138 -27.812  1.00  0.00     0.007 A 
HETATM   30  C17 UNL     1     -18.789   4.721 -28.010  1.00  0.00     0.008 A 
ENDBRANCH  23  24
ENDBRANCH   1  23
TORSDOF 12
ENDMDL
MODEL 4
REMARK VINA RESULT: -6.912398415      2.362      5.767
REMARK  12 active torsions:
REMARK  status: ('A' for Active; 'I' for Inactive)
REMARK    1  A    between atoms: C5_5  and  C6_6 
REMARK    2  A    between atoms: C6_6  and  C7_7 
REMARK    3  A    between atoms: C8_9  and  N1_10 
REMARK    4  A    between atoms: N1_10  and  C9_12 
REMARK    5  A    between atoms: C9_12  and  C10_13 
REMARK    6  A    between atoms: C10_13  and  O1_14 
REMARK    7  A    between atoms: O1_14  and  C11_15 
REMARK    8  A    between atoms: C11_15  and  C12_16 
REMARK    9  A    between atoms: C12_16  and  O2_17 
REMARK   10  A    between atoms: O2_17  and  C13_18 
REMARK   11  A    between atoms: C13_18  and  C14_19 
REMARK   12  A    between atoms: C14_19  and  N2_20 
REMARK       I    between atoms: N2_20  and  C15_22 
ROOT
HETATM    1  C7  UNL     1     -22.076   5.337 -29.325  1.00  0.00     0.031 A 
HETATM    2  S1  UNL     1     -22.168   4.235 -30.622  1.00  0.00    -0.055 SA
HETATM    3  C8  UNL     1     -22.172   5.359 -31.904  1.00  0.00     0.146 A 
HETATM    4  N4  UNL     1     -22.103   6.531 -31.281  1.00  0.00    -0.324 N 
ATOM      5  H4  UNL     1     -22.089   7.404 -31.810  1.00  0.00     0.169 HD
HETATM    6  C16 UNL     1     -22.054   6.541 -29.971  1.00  0.00     0.131 A 
HETATM    7  N5  UNL     1     -21.973   7.782 -29.216  1.00  0.00    -0.082 NA
ENDROOT
BRANCH   3   8
HETATM    8  N1  UNL     1     -22.229   5.149 -33.203  1.00  0.00    -0.368 N 
ATOM      9  H1  UNL     1     -23.064   4.733 -33.616  1.00  0.00     0.161 HD
BRANCH   8  10
HETATM   10  C9  UNL     1     -21.103   5.511 -34.046  1.00  0.00     0.148 C 
BRANCH  10  11
HETATM   11  C10 UNL     1     -19.863   5.014 -33.340  1.00  0.00     0.187 C 
BRANCH  11  12
HETATM   12  O1  UNL     1     -19.188   6.004 -32.647  1.00  0.00    -0.387 OA
BRANCH  12  13
HETATM   13  C11 UNL     1     -18.572   5.584 -31.483  1.00  0.00     0.193 C 
BRANCH  13  14
HETATM   14  C12 UNL     1     -18.352   6.707 -30.495  1.00  0.00     0.193 C 
BRANCH  14  15
HETATM   15  O2  UNL     1     -17.051   7.172 -30.504  1.00  0.00    -0.387 OA
BRANCH  15  16
HETATM   16  C13 UNL     1     -16.321   6.834 -29.394  1.00  0.00     0.187 C 
BRANCH  16  17
HETATM   17  C14 UNL     1     -15.095   6.012 -29.715  1.00  0.00     0.150 C 
BRANCH  17  18
HETATM   18  N2  UNL     1     -14.153   6.767 -30.520  1.00  0.00    -0.343 N 
HETATM   19  C15 UNL     1     -13.124   6.152 -31.273  1.00  0.00     0.328 C 
HETATM   20  N3  UNL     1     -12.244   6.957 -32.034  1.00  0.00    -0.040 NA
HETATM   21  O3  UNL     1     -12.981   4.885 -31.276  1.00  0.00    -0.251 OA
ATOM     22  H2  UNL     1     -14.235   7.783 -30.545  1.00  0.00     0.163 HD
ENDBRANCH  17  18
ENDBRANCH  16  17
ENDBRANCH  15  16
ENDBRANCH  14  15
ENDBRANCH  13  14
ENDBRANCH  12  13
ENDBRANCH  11  12
ENDBRANCH  10  11
ENDBRANCH   8  10
ENDBRANCH   3   8
BRANCH   1  23
HETATM   23  C6  UNL     1     -22.040   4.999 -27.863  1.00  0.00     0.088 C 
BRANCH  23  24
HETATM   24  C5  UNL     1     -20.684   4.971 -27.329  1.00  0.00    -0.053 A 
HETATM   25  C4  UNL     1     -19.626   4.341 -27.942  1.00  0.00     0.008 A 
HETATM   26  C3  UNL     1     -18.355   4.340 -27.412  1.00  0.00     0.007 A 
HETATM   27  C2  UNL     1     -18.099   4.983 -26.225  1.00  0.00    -0.062 A 
HETATM   28  C1  UNL     1     -16.720   4.996 -25.625  1.00  0.00     0.048 C 
HETATM   29  C18 UNL     1     -19.160   5.618 -25.604  1.00  0.00     0.007 A 
HETATM   30  C17 UNL     1     -20.433   5.618 -26.136  1.00  0.00     0.008 A 
ENDBRANCH  23  24
ENDBRANCH   1  23
TORSDOF 12
ENDMDL
MODEL 5
REMARK VINA RESULT: -6.831039298      2.665      6.559
REMARK  12 active torsions:
REMARK  status: ('A' for Active; 'I' for Inactive)
REMARK    1  A    between atoms: C5_5  and  C6_6 
REMARK    2  A    between atoms: C6_6  and  C7_7 
REMARK    3  A    between atoms: C8_9  and  N1_10 
REMARK    4  A    between atoms: N1_10  and  C9_12 
REMARK    5  A    between atoms: C9_12  and  C10_13 
REMARK    6  A    between atoms: C10_13  and  O1_14 
REMARK    7  A    between atoms: O1_14  and  C11_15 
REMARK    8  A    between atoms: C11_15  and  C12_16 
REMARK    9  A    between atoms: C12_16  and  O2_17 
REMARK   10  A    between atoms: O2_17  and  C13_18 
REMARK   11  A    between atoms: C13_18  and  C14_19 
REMARK   12  A    between atoms: C14_19  and  N2_20 
REMARK       I    between atoms: N2_20  and  C15_22 
ROOT
HETATM    1  C7  UNL     1     -21.963   5.230 -29.270  1.00  0.00     0.031 A 
HETATM    2  S1  UNL     1     -21.980   6.799 -29.935  1.00  0.00    -0.055 SA
HETATM    3  C8  UNL     1     -21.963   6.371 -31.585  1.00  0.00     0.146 A 
HETATM    4  N4  UNL     1     -21.944   5.042 -31.554  1.00  0.00    -0.324 N 
ATOM      5  H4  UNL     1     -21.930   4.499 -32.418  1.00  0.00     0.169 HD
HETATM    6  C16 UNL     1     -21.943   4.444 -30.387  1.00  0.00     0.131 A 
HETATM    7  N5  UNL     1     -21.928   2.993 -30.269  1.00  0.00    -0.082 NA
ENDROOT
BRANCH   3   8
HETATM    8  N1  UNL     1     -21.966   7.142 -32.652  1.00  0.00    -0.368 N 
ATOM      9  H1  UNL     1     -21.419   8.004 -32.660  1.00  0.00     0.161 HD
BRANCH   8  10
HETATM   10  C9  UNL     1     -22.747   6.766 -33.817  1.00  0.00     0.148 C 
BRANCH  10  11
HETATM   11  C10 UNL     1     -21.755   6.431 -34.907  1.00  0.00     0.187 C 
BRANCH  11  12
HETATM   12  O1  UNL     1     -21.197   5.171 -34.776  1.00  0.00    -0.387 OA
BRANCH  12  13
HETATM   13  C11 UNL     1     -19.815   5.138 -34.832  1.00  0.00     0.193 C 
BRANCH  13  14
HETATM   14  C12 UNL     1     -19.190   4.556 -33.585  1.00  0.00     0.193 C 
BRANCH  14  15
HETATM   15  O2  UNL     1     -19.110   5.474 -32.556  1.00  0.00    -0.387 OA
BRANCH  15  16
HETATM   16  C13 UNL     1     -18.443   5.025 -31.445  1.00  0.00     0.187 C 
BRANCH  16  17
HETATM   17  C14 UNL     1     -17.730   6.124 -30.693  1.00  0.00     0.150 C 
BRANCH  17  18
HETATM   18  N2  UNL     1     -16.348   5.770 -30.432  1.00  0.00    -0.343 N 
HETATM   19  C15 UNL     1     -15.366   6.728 -30.081  1.00  0.00     0.328 C 
HETATM   20  N3  UNL     1     -14.038   6.304 -29.842  1.00  0.00    -0.040 NA
HETATM   21  O3  UNL     1     -15.661   7.963 -29.978  1.00  0.00    -0.251 OA
ATOM     22  H2  UNL     1     -16.072   4.791 -30.503  1.00  0.00     0.163 HD
ENDBRANCH  17  18
ENDBRANCH  16  17
ENDBRANCH  15  16
ENDBRANCH  14  15
ENDBRANCH  13  14
ENDBRANCH  12  13
ENDBRANCH  11  12
ENDBRANCH  10  11
ENDBRANCH   8  10
ENDBRANCH   3   8
BRANCH   1  23
HETATM   23  C6  UNL     1     -21.963   4.875 -27.811  1.00  0.00     0.088 C 
BRANCH  23  24
HETATM   24  C5  UNL     1     -20.633   4.946 -27.218  1.00  0.00    -0.053 A 
HETATM   25  C4  UNL     1     -20.355   5.559 -26.019  1.00  0.00     0.008 A 
HETATM   26  C3  UNL     1     -19.088   5.601 -25.484  1.00  0.00     0.007 A 
HETATM   27  C2  UNL     1     -18.035   5.019 -26.149  1.00  0.00    -0.062 A 
HETATM   28  C1  UNL     1     -16.641   5.053 -25.586  1.00  0.00     0.048 C 
HETATM   29  C18 UNL     1     -18.309   4.403 -27.356  1.00  0.00     0.007 A 
HETATM   30  C17 UNL     1     -19.580   4.361 -27.892  1.00  0.00     0.008 A 
ENDBRANCH  23  24
ENDBRANCH   1  23
TORSDOF 12
ENDMDL
