MODEL 1
REMARK VINA RESULT: -8.034169342      0.000      0.000
REMARK  12 active torsions:
REMARK  status: ('A' for Active; 'I' for Inactive)
REMARK    1  A    between atoms: C1_4  and  C2_6 
REMARK    2  A    between atoms: C2_6  and  C3_7 
REMARK    3  A    between atoms: C3_7  and  C4_8 
REMARK    4  A    between atoms: C8_12  and  O1_13 
REMARK    5  A    between atoms: O1_13  and  C9_14 
REMARK    6  A    between atoms: C9_14  and  C10_15 
REMARK    7  A    between atoms: C10_15  and  O2_16 
REMARK    8  A    between atoms: C10_15  and  C11_18 
REMARK    9  A    between atoms: C11_18  and  N3_19 
REMARK   10  A    between atoms: N3_19  and  S1_21 
REMARK   11  A    between atoms: S1_21  and  C12_24 
REMARK   12  A    between atoms: C12_24  and  C13_25 
ROOT
HETATM    1  C10 UNL     1     -21.200   3.899 -29.419  1.00  0.00     0.161 C 
ENDROOT
BRANCH   1   2
HETATM    2  C9  UNL     1     -20.382   4.361 -28.244  1.00  0.00     0.209 C 
BRANCH   2   3
HETATM    3  O1  UNL     1     -19.028   4.049 -28.501  1.00  0.00    -0.349 OA
BRANCH   3   4
HETATM    4  C8  UNL     1     -18.020   4.781 -27.901  1.00  0.00     0.069 A 
HETATM    5  C7  UNL     1     -17.840   4.855 -26.545  1.00  0.00     0.037 A 
HETATM    6  C6  UNL     1     -16.821   5.595 -25.965  1.00  0.00     0.003 A 
HETATM    7  C5  UNL     1     -15.975   6.271 -26.822  1.00  0.00     0.007 A 
HETATM    8  C4  UNL     1     -16.108   6.234 -28.190  1.00  0.00    -0.055 A 
HETATM    9  C19 UNL     1     -17.144   5.477 -28.700  1.00  0.00     0.044 A 
BRANCH   8  10
HETATM   10  C3  UNL     1     -15.225   6.940 -29.123  1.00  0.00     0.045 C 
BRANCH  10  11
HETATM   11  C2  UNL     1     -14.909   6.075 -30.338  1.00  0.00     0.077 C 
BRANCH  11  12
HETATM   12  C1  UNL     1     -13.456   5.940 -30.524  1.00  0.00     0.086 C 
HETATM   13  N1  UNL     1     -12.601   6.623 -29.838  1.00  0.00    -0.391 N 
ATOM     14  H12 UNL     1     -11.594   6.530 -29.968  1.00  0.00     0.157 HD
ATOM     15  H11 UNL     1     -12.972   7.274 -29.147  1.00  0.00     0.157 HD
HETATM   16  N2  UNL     1     -12.932   5.022 -31.499  1.00  0.00    -0.088 NA
ENDBRANCH  11  12
ENDBRANCH  10  11
ENDBRANCH   8  10
ENDBRANCH   3   4
ENDBRANCH   2   3
ENDBRANCH   1   2
BRANCH   1  17
HETATM   17  O2  UNL     1     -22.315   3.228 -28.968  1.00  0.00    -0.392 OA
ATOM     18  H2  UNL     1     -22.174   2.292 -29.045  1.00  0.00     0.210 HD
ENDBRANCH   1  17
BRANCH   1  19
HETATM   19  C11 UNL     1     -21.589   5.152 -30.216  1.00  0.00     0.165 C 
BRANCH  19  20
HETATM   20  N3  UNL     1     -20.421   5.957 -30.351  1.00  0.00    -0.317 N 
ATOM     21  H3  UNL     1     -20.047   6.499 -29.572  1.00  0.00     0.172 HD
BRANCH  20  22
HETATM   22  S1  UNL     1     -19.690   5.963 -31.877  1.00  0.00     0.230 S 
HETATM   23  O3  UNL     1     -18.298   5.361 -31.746  1.00  0.00    -0.206 OA
HETATM   24  O4  UNL     1     -19.517   7.344 -32.444  1.00  0.00    -0.206 OA
BRANCH  22  25
HETATM   25  C12 UNL     1     -20.637   5.017 -33.027  1.00  0.00     0.201 C 
BRANCH  25  26
HETATM   26  C13 UNL     1     -19.840   4.807 -34.252  1.00  0.00    -0.043 A 
HETATM   27  C14 UNL     1     -19.914   5.651 -35.322  1.00  0.00     0.008 A 
HETATM   28  C15 UNL     1     -19.145   5.392 -36.440  1.00  0.00     0.001 A 
HETATM   29  C16 UNL     1     -18.298   4.311 -36.532  1.00  0.00     0.000 A 
HETATM   30  C17 UNL     1     -18.254   3.485 -35.429  1.00  0.00     0.001 A 
HETATM   31  C18 UNL     1     -19.005   3.717 -34.304  1.00  0.00     0.008 A 
ENDBRANCH  25  26
ENDBRANCH  22  25
ENDBRANCH  20  22
ENDBRANCH  19  20
ENDBRANCH   1  19
TORSDOF 12
ENDMDL
MODEL 2
REMARK VINA RESULT: -7.845091469      2.148      2.776
REMARK  12 active torsions:
REMARK  status: ('A' for Active; 'I' for Inactive)
REMARK    1  A    between atoms: C1_4  and  C2_6 
REMARK    2  A    between atoms: C2_6  and  C3_7 
REMARK    3  A    between atoms: C3_7  and  C4_8 
REMARK    4  A    between atoms: C8_12  and  O1_13 
REMARK    5  A    between atoms: O1_13  and  C9_14 
REMARK    6  A    between atoms: C9_14  and  C10_15 
REMARK    7  A    between atoms: C10_15  and  O2_16 
REMARK    8  A    between atoms: C10_15  and  C11_18 
REMARK    9  A    between atoms: C11_18  and  N3_19 
REMARK   10  A    between atoms: N3_19  and  S1_21 
REMARK   11  A    between atoms: S1_21  and  C12_24 
REMARK   12  A    between atoms: C12_24  and  C13_25 
ROOT
HETATM    1  C10 UNL     1     -21.085   4.378 -29.045  1.00  0.00     0.161 C 
ENDROOT
BRANCH   1   2
HETATM    2  C9  UNL     1     -20.213   4.296 -27.821  1.00  0.00     0.209 C 
BRANCH   2   3
HETATM    3  O1  UNL     1     -18.889   4.044 -28.242  1.00  0.00    -0.349 OA
BRANCH   3   4
HETATM    4  C8  UNL     1     -17.844   4.794 -27.733  1.00  0.00     0.069 A 
HETATM    5  C7  UNL     1     -17.537   4.862 -26.399  1.00  0.00     0.037 A 
HETATM    6  C6  UNL     1     -16.483   5.620 -25.912  1.00  0.00     0.003 A 
HETATM    7  C5  UNL     1     -15.738   6.321 -26.839  1.00  0.00     0.007 A 
HETATM    8  C4  UNL     1     -15.999   6.291 -28.189  1.00  0.00    -0.055 A 
HETATM    9  C19 UNL     1     -17.062   5.515 -28.605  1.00  0.00     0.044 A 
BRANCH   8  10
HETATM   10  C3  UNL     1     -15.224   7.024 -29.194  1.00  0.00     0.045 C 
BRANCH  10  11
HETATM   11  C2  UNL     1     -14.906   6.136 -30.392  1.00  0.00     0.077 C 
BRANCH  11  12
HETATM   12  C1  UNL     1     -13.453   5.967 -30.550  1.00  0.00     0.086 C 
HETATM   13  N1  UNL     1     -12.596   6.638 -29.857  1.00  0.00    -0.391 N 
ATOM     14  H12 UNL     1     -11.589   6.521 -29.967  1.00  0.00     0.157 HD
ATOM     15  H11 UNL     1     -12.964   7.306 -29.180  1.00  0.00     0.157 HD
HETATM   16  N2  UNL     1     -12.934   5.024 -31.505  1.00  0.00    -0.088 NA
ENDBRANCH  11  12
ENDBRANCH  10  11
ENDBRANCH   8  10
ENDBRANCH   3   4
ENDBRANCH   2   3
ENDBRANCH   1   2
BRANCH   1  17
HETATM   17  O2  UNL     1     -21.576   3.126 -29.344  1.00  0.00    -0.392 OA
ATOM     18  H2  UNL     1     -21.931   3.128 -30.226  1.00  0.00     0.210 HD
ENDBRANCH   1  17
BRANCH   1  19
HETATM   19  C11 UNL     1     -22.221   5.359 -28.723  1.00  0.00     0.165 C 
BRANCH  19  20
HETATM   20  N3  UNL     1     -21.663   6.670 -28.695  1.00  0.00    -0.317 N 
ATOM     21  H3  UNL     1     -20.842   6.895 -28.133  1.00  0.00     0.172 HD
BRANCH  20  22
HETATM   22  S1  UNL     1     -22.441   7.833 -29.649  1.00  0.00     0.230 S 
HETATM   23  O3  UNL     1     -22.765   9.035 -28.772  1.00  0.00    -0.206 OA
HETATM   24  O4  UNL     1     -23.741   7.350 -30.225  1.00  0.00    -0.206 OA
BRANCH  22  25
HETATM   25  C12 UNL     1     -21.406   8.337 -30.986  1.00  0.00     0.201 C 
BRANCH  25  26
HETATM   26  C13 UNL     1     -20.659   7.165 -31.486  1.00  0.00    -0.043 A 
HETATM   27  C14 UNL     1     -21.241   6.214 -32.273  1.00  0.00     0.008 A 
HETATM   28  C15 UNL     1     -20.486   5.139 -32.701  1.00  0.00     0.001 A 
HETATM   29  C16 UNL     1     -19.160   4.976 -32.370  1.00  0.00     0.000 A 
HETATM   30  C17 UNL     1     -18.613   5.960 -31.574  1.00  0.00     0.001 A 
HETATM   31  C18 UNL     1     -19.338   7.039 -31.134  1.00  0.00     0.008 A 
ENDBRANCH  25  26
ENDBRANCH  22  25
ENDBRANCH  20  22
ENDBRANCH  19  20
ENDBRANCH   1  19
TORSDOF 12
ENDMDL
MODEL 3
REMARK VINA RESULT: -7.610856458      0.768      1.267
REMARK  12 active torsions:
REMARK  status: ('A' for Active; 'I' for Inactive)
REMARK    1  A    between atoms: C1_4  and  C2_6 
REMARK    2  A    between atoms: C2_6  and  C3_7 
REMARK    3  A    between atoms: C3_7  and  C4_8 
REMARK    4  A    between atoms: C8_12  and  O1_13 
REMARK    5  A    between atoms: O1_13  and  C9_14 
REMARK    6  A    between atoms: C9_14  and  C10_15 
REMARK    7  A    between atoms: C10_15  and  O2_16 
REMARK    8  A    between atoms: C10_15  and  C11_18 
REMARK    9  A    between atoms: C11_18  and  N3_19 
REMARK   10  A    between atoms: N3_19  and  S1_21 
REMARK   11  A    between atoms: S1_21  and  C12_24 
REMARK   12  A    between atoms: C12_24  and  C13_25 
ROOT
HETATM    1  C10 UNL     1     -21.256   3.983 -28.845  1.00  0.00     0.161 C 
ENDROOT
BRANCH   1   2
HETATM    2  C9  UNL     1     -20.283   4.880 -28.129  1.00  0.00     0.209 C 
BRANCH   2   3
HETATM    3  O1  UNL     1     -19.006   4.281 -28.191  1.00  0.00    -0.349 OA
BRANCH   3   4
HETATM    4  C8  UNL     1     -17.891   4.975 -27.757  1.00  0.00     0.069 A 
HETATM    5  C7  UNL     1     -17.495   5.035 -26.447  1.00  0.00     0.037 A 
HETATM    6  C6  UNL     1     -16.373   5.738 -26.036  1.00  0.00     0.003 A 
HETATM    7  C5  UNL     1     -15.651   6.390 -27.017  1.00  0.00     0.007 A 
HETATM    8  C4  UNL     1     -16.001   6.365 -28.347  1.00  0.00    -0.055 A 
HETATM    9  C19 UNL     1     -17.130   5.646 -28.686  1.00  0.00     0.044 A 
BRANCH   8  10
HETATM   10  C3  UNL     1     -15.254   7.047 -29.407  1.00  0.00     0.045 C 
BRANCH  10  11
HETATM   11  C2  UNL     1     -14.861   6.073 -30.512  1.00  0.00     0.077 C 
BRANCH  11  12
HETATM   12  C1  UNL     1     -13.400   5.919 -30.583  1.00  0.00     0.086 C 
HETATM   13  N1  UNL     1     -12.595   6.559 -29.803  1.00  0.00    -0.391 N 
ATOM     14  H12 UNL     1     -11.582   6.453 -29.852  1.00  0.00     0.157 HD
ATOM     15  H11 UNL     1     -13.012   7.192 -29.120  1.00  0.00     0.157 HD
HETATM   16  N2  UNL     1     -12.812   5.027 -31.546  1.00  0.00    -0.088 NA
ENDBRANCH  11  12
ENDBRANCH  10  11
ENDBRANCH   8  10
ENDBRANCH   3   4
ENDBRANCH   2   3
ENDBRANCH   1   2
BRANCH   1  17
HETATM   17  O2  UNL     1     -22.530   4.217 -28.374  1.00  0.00    -0.392 OA
ATOM     18  H2  UNL     1     -22.669   3.717 -27.578  1.00  0.00     0.210 HD
ENDBRANCH   1  17
BRANCH   1  19
HETATM   19  C11 UNL     1     -21.148   4.306 -30.341  1.00  0.00     0.165 C 
BRANCH  19  20
HETATM   20  N3  UNL     1     -20.394   5.508 -30.469  1.00  0.00    -0.317 N 
ATOM     21  H3  UNL     1     -19.645   5.746 -29.819  1.00  0.00     0.172 HD
BRANCH  20  22
HETATM   22  S1  UNL     1     -20.813   6.519 -31.761  1.00  0.00     0.230 S 
HETATM   23  O3  UNL     1     -19.546   7.185 -32.281  1.00  0.00    -0.206 OA
HETATM   24  O4  UNL     1     -21.755   7.621 -31.367  1.00  0.00    -0.206 OA
BRANCH  22  25
HETATM   25  C12 UNL     1     -21.570   5.593 -33.058  1.00  0.00     0.201 C 
BRANCH  25  26
HETATM   26  C13 UNL     1     -20.528   5.156 -34.010  1.00  0.00    -0.043 A 
HETATM   27  C14 UNL     1     -19.650   4.152 -33.718  1.00  0.00     0.008 A 
HETATM   28  C15 UNL     1     -18.697   3.798 -34.651  1.00  0.00     0.001 A 
HETATM   29  C16 UNL     1     -18.584   4.413 -35.877  1.00  0.00     0.000 A 
HETATM   30  C17 UNL     1     -19.489   5.421 -36.131  1.00  0.00     0.001 A 
HETATM   31  C18 UNL     1     -20.449   5.795 -35.223  1.00  0.00     0.008 A 
ENDBRANCH  25  26
ENDBRANCH  22  25
ENDBRANCH  20  22
ENDBRANCH  19  20
ENDBRANCH   1  19
TORSDOF 12
ENDMDL
MODEL 4
REMARK VINA RESULT: -7.545491414      2.992      6.767
REMARK  12 active torsions:
REMARK  status: ('A' for Active; 'I' for Inactive)
REMARK    1  A    between atoms: C1_4  and  C2_6 
REMARK    2  A    between atoms: C2_6  and  C3_7 
REMARK    3  A    between atoms: C3_7  and  C4_8 
REMARK    4  A    between atoms: C8_12  and  O1_13 
REMARK    5  A    between atoms: O1_13  and  C9_14 
REMARK    6  A    between atoms: C9_14  and  C10_15 
REMARK    7  A    between atoms: C10_15  and  O2_16 
REMARK    8  A    between atoms: C10_15  and  C11_18 
REMARK    9  A    between atoms: C11_18  and  N3_19 
REMARK   10  A    between atoms: N3_19  and  S1_21 
REMARK   11  A    between atoms: S1_21  and  C12_24 
REMARK   12  A    between atoms: C12_24  and  C13_25 
ROOT
HETATM    1  C10 UNL     1     -15.701   6.665 -29.698  1.00  0.00     0.161 C 
ENDROOT
BRANCH   1   2
HETATM    2  C9  UNL     1     -16.986   6.237 -30.353  1.00  0.00     0.209 C 
BRANCH   2   3
HETATM    3  O1  UNL     1     -17.763   7.392 -30.591  1.00  0.00    -0.349 OA
BRANCH   3   4
HETATM    4  C8  UNL     1     -18.955   7.296 -31.286  1.00  0.00     0.069 A 
HETATM    5  C7  UNL     1     -19.997   8.172 -31.131  1.00  0.00     0.037 A 
HETATM    6  C6  UNL     1     -21.184   8.057 -31.840  1.00  0.00     0.003 A 
HETATM    7  C5  UNL     1     -21.280   7.003 -32.728  1.00  0.00     0.007 A 
HETATM    8  C4  UNL     1     -20.267   6.093 -32.924  1.00  0.00    -0.055 A 
HETATM    9  C19 UNL     1     -19.114   6.268 -32.186  1.00  0.00     0.044 A 
BRANCH   8  10
HETATM   10  C3  UNL     1     -20.343   4.967 -33.860  1.00  0.00     0.045 C 
BRANCH  10  11
HETATM   11  C2  UNL     1     -19.080   4.115 -33.791  1.00  0.00     0.077 C 
BRANCH  11  12
HETATM   12  C1  UNL     1     -18.582   3.804 -35.140  1.00  0.00     0.086 C 
HETATM   13  N1  UNL     1     -17.534   3.077 -35.343  1.00  0.00    -0.391 N 
ATOM     14  H12 UNL     1     -17.189   2.862 -36.278  1.00  0.00     0.157 HD
ATOM     15  H11 UNL     1     -17.050   2.717 -34.521  1.00  0.00     0.157 HD
HETATM   16  N2  UNL     1     -19.265   4.312 -36.299  1.00  0.00    -0.088 NA
ENDBRANCH  11  12
ENDBRANCH  10  11
ENDBRANCH   8  10
ENDBRANCH   3   4
ENDBRANCH   2   3
ENDBRANCH   1   2
BRANCH   1  17
HETATM   17  O2  UNL     1     -15.380   7.941 -30.105  1.00  0.00    -0.392 OA
ATOM     18  H2  UNL     1     -14.761   8.322 -29.494  1.00  0.00     0.210 HD
ENDBRANCH   1  17
BRANCH   1  19
HETATM   19  C11 UNL     1     -15.928   6.606 -28.181  1.00  0.00     0.165 C 
BRANCH  19  20
HETATM   20  N3  UNL     1     -17.178   5.959 -27.958  1.00  0.00    -0.317 N 
ATOM     21  H3  UNL     1     -18.011   6.193 -28.499  1.00  0.00     0.172 HD
BRANCH  20  22
HETATM   22  S1  UNL     1     -17.203   4.780 -26.743  1.00  0.00     0.230 S 
HETATM   23  O3  UNL     1     -16.293   5.236 -25.611  1.00  0.00    -0.206 OA
HETATM   24  O4  UNL     1     -16.689   3.446 -27.206  1.00  0.00    -0.206 OA
BRANCH  22  25
HETATM   25  C12 UNL     1     -18.841   4.550 -26.130  1.00  0.00     0.201 C 
BRANCH  25  26
HETATM   26  C13 UNL     1     -19.806   4.849 -27.207  1.00  0.00    -0.043 A 
HETATM   27  C14 UNL     1     -19.760   4.225 -28.420  1.00  0.00     0.008 A 
HETATM   28  C15 UNL     1     -20.689   4.559 -29.385  1.00  0.00     0.001 A 
HETATM   29  C16 UNL     1     -21.672   5.500 -29.185  1.00  0.00     0.000 A 
HETATM   30  C17 UNL     1     -21.683   6.106 -27.947  1.00  0.00     0.001 A 
HETATM   31  C18 UNL     1     -20.773   5.795 -26.967  1.00  0.00     0.008 A 
ENDBRANCH  25  26
ENDBRANCH  22  25
ENDBRANCH  20  22
ENDBRANCH  19  20
ENDBRANCH   1  19
TORSDOF 12
ENDMDL
MODEL 5
REMARK VINA RESULT: -7.528195170      2.615      4.311
REMARK  12 active torsions:
REMARK  status: ('A' for Active; 'I' for Inactive)
REMARK    1  A    between atoms: C1_4  and  C2_6 
REMARK    2  A    between atoms: C2_6  and  C3_7 
REMARK    3  A    between atoms: C3_7  and  C4_8 
REMARK    4  A    between atoms: C8_12  and  O1_13 
REMARK    5  A    between atoms: O1_13  and  C9_14 
REMARK    6  A    between atoms: C9_14  and  C10_15 
REMARK    7  A    between atoms: C10_15  and  O2_16 
REMARK    8  A    between atoms: C10_15  and  C11_18 
REMARK    9  A    between atoms: C11_18  and  N3_19 
REMARK   10  A    between atoms: N3_19  and  S1_21 
REMARK   11  A    between atoms: S1_21  and  C12_24 
REMARK   12  A    between atoms: C12_24  and  C13_25 
ROOT
HETATM    1  C10 UNL     1     -21.208   3.884 -29.365  1.00  0.00     0.161 C 
ENDROOT
BRANCH   1   2
HETATM    2  C9  UNL     1     -20.357   4.692 -28.423  1.00  0.00     0.209 C 
BRANCH   2   3
HETATM    3  O1  UNL     1     -19.070   4.112 -28.387  1.00  0.00    -0.349 OA
BRANCH   3   4
HETATM    4  C8  UNL     1     -18.014   4.801 -27.819  1.00  0.00     0.069 A 
HETATM    5  C7  UNL     1     -17.764   4.834 -26.473  1.00  0.00     0.037 A 
HETATM    6  C6  UNL     1     -16.698   5.531 -25.926  1.00  0.00     0.003 A 
HETATM    7  C5  UNL     1     -15.877   6.208 -26.806  1.00  0.00     0.007 A 
HETATM    8  C4  UNL     1     -16.079   6.211 -28.167  1.00  0.00    -0.055 A 
HETATM    9  C19 UNL     1     -17.159   5.496 -28.644  1.00  0.00     0.044 A 
BRANCH   8  10
HETATM   10  C3  UNL     1     -15.224   6.919 -29.124  1.00  0.00     0.045 C 
BRANCH  10  11
HETATM   11  C2  UNL     1     -14.913   6.042 -30.332  1.00  0.00     0.077 C 
BRANCH  11  12
HETATM   12  C1  UNL     1     -13.461   5.912 -30.528  1.00  0.00     0.086 C 
HETATM   13  N1  UNL     1     -12.603   6.584 -29.836  1.00  0.00    -0.391 N 
ATOM     14  H12 UNL     1     -11.596   6.494 -29.972  1.00  0.00     0.157 HD
ATOM     15  H11 UNL     1     -12.971   7.223 -29.131  1.00  0.00     0.157 HD
HETATM   16  N2  UNL     1     -12.942   5.010 -31.522  1.00  0.00    -0.088 NA
ENDBRANCH  11  12
ENDBRANCH  10  11
ENDBRANCH   8  10
ENDBRANCH   3   4
ENDBRANCH   2   3
ENDBRANCH   1   2
BRANCH   1  17
HETATM   17  O2  UNL     1     -22.490   3.799 -28.868  1.00  0.00    -0.392 OA
ATOM     18  H2  UNL     1     -22.644   2.921 -28.538  1.00  0.00     0.210 HD
ENDBRANCH   1  17
BRANCH   1  19
HETATM   19  C11 UNL     1     -21.184   4.602 -30.721  1.00  0.00     0.165 C 
BRANCH  19  20
HETATM   20  N3  UNL     1     -20.197   5.628 -30.648  1.00  0.00    -0.317 N 
ATOM     21  H3  UNL     1     -19.343   5.516 -30.102  1.00  0.00     0.172 HD
BRANCH  20  22
HETATM   22  S1  UNL     1     -20.523   7.042 -31.519  1.00  0.00     0.230 S 
HETATM   23  O3  UNL     1     -20.078   6.833 -32.959  1.00  0.00    -0.206 OA
HETATM   24  O4  UNL     1     -19.779   8.239 -31.001  1.00  0.00    -0.206 OA
BRANCH  22  25
HETATM   25  C12 UNL     1     -22.248   7.414 -31.481  1.00  0.00     0.201 C 
BRANCH  25  26
HETATM   26  C13 UNL     1     -22.544   8.205 -30.270  1.00  0.00    -0.043 A 
HETATM   27  C14 UNL     1     -22.463   7.673 -29.015  1.00  0.00     0.008 A 
HETATM   28  C15 UNL     1     -22.761   8.468 -27.926  1.00  0.00     0.001 A 
HETATM   29  C16 UNL     1     -23.141   9.785 -28.041  1.00  0.00     0.000 A 
HETATM   30  C17 UNL     1     -23.210  10.282 -29.325  1.00  0.00     0.001 A 
HETATM   31  C18 UNL     1     -22.919   9.517 -30.427  1.00  0.00     0.008 A 
ENDBRANCH  25  26
ENDBRANCH  22  25
ENDBRANCH  20  22
ENDBRANCH  19  20
ENDBRANCH   1  19
TORSDOF 12
ENDMDL
