MODEL 1
REMARK VINA RESULT: -7.756891111      0.000      0.000
REMARK  11 active torsions:
REMARK  status: ('A' for Active; 'I' for Inactive)
REMARK    1  A    between atoms: C1_4  and  C2_6 
REMARK    2  A    between atoms: C5_9  and  C6_10 
REMARK    3  A    between atoms: C6_10  and  C7_11 
REMARK    4  A    between atoms: C7_11  and  C8_12 
REMARK    5  A    between atoms: C8_12  and  C9_14 
REMARK    6  A    between atoms: C9_14  and  N3_15 
REMARK    7  A    between atoms: C9_14  and  C18_28 
REMARK    8  A    between atoms: N3_15  and  O2_17 
REMARK    9  A    between atoms: O2_17  and  C10_18 
REMARK   10  A    between atoms: C10_18  and  C11_19 
REMARK   11  A    between atoms: C12_20  and  C13_21 
ROOT
HETATM    1  C9  UNL     1     -19.619   5.627 -29.978  1.00  0.00     0.264 C 
ENDROOT
BRANCH   1   2
HETATM    2  C8  UNL     1     -20.813   5.770 -30.900  1.00  0.00     0.160 C 
HETATM    3  O1  UNL     1     -21.674   6.585 -30.658  1.00  0.00    -0.295 OA
BRANCH   2   4
HETATM    4  C7  UNL     1     -20.902   4.895 -32.078  1.00  0.00     0.086 C 
BRANCH   4   5
HETATM    5  C6  UNL     1     -20.842   5.839 -33.298  1.00  0.00     0.046 C 
BRANCH   5   6
HETATM    6  C5  UNL     1     -19.982   5.182 -34.282  1.00  0.00    -0.058 A 
HETATM    7  C4  UNL     1     -19.919   5.665 -35.559  1.00  0.00     0.008 A 
HETATM    8  C3  UNL     1     -19.122   5.032 -36.495  1.00  0.00     0.015 A 
HETATM    9  C2  UNL     1     -18.395   3.904 -36.121  1.00  0.00     0.004 A 
HETATM   10  C20 UNL     1     -18.464   3.435 -34.858  1.00  0.00     0.015 A 
HETATM   11  C19 UNL     1     -19.261   4.074 -33.931  1.00  0.00     0.008 A 
BRANCH   9  12
HETATM   12  C1  UNL     1     -17.528   3.305 -37.116  1.00  0.00     0.120 C 
HETATM   13  N1  UNL     1     -16.251   3.058 -36.902  1.00  0.00    -0.387 N 
ATOM     14  H12 UNL     1     -15.640   2.637 -37.603  1.00  0.00     0.157 HD
ATOM     15  H11 UNL     1     -15.881   3.286 -35.979  1.00  0.00     0.157 HD
HETATM   16  N2  UNL     1     -18.042   2.989 -38.397  1.00  0.00    -0.082 NA
ENDBRANCH   9  12
ENDBRANCH   5   6
ENDBRANCH   4   5
ENDBRANCH   2   4
ENDBRANCH   1   2
BRANCH   1  17
HETATM   17  N3  UNL     1     -18.612   4.996 -30.678  1.00  0.00    -0.282 N 
ATOM     18  H3  UNL     1     -18.827   4.038 -30.950  1.00  0.00     0.189 HD
BRANCH  17  19
HETATM   19  O2  UNL     1     -17.430   5.409 -31.054  1.00  0.00    -0.280 OA
BRANCH  19  20
HETATM   20  C10 UNL     1     -17.410   6.865 -30.819  1.00  0.00     0.228 C 
BRANCH  20  21
HETATM   21  C11 UNL     1     -16.205   7.110 -30.040  1.00  0.00     0.004 C 
HETATM   22  C12 UNL     1     -15.740   6.745 -28.952  1.00  0.00     0.027 C 
BRANCH  22  23
HETATM   23  C13 UNL     1     -16.202   5.871 -27.892  1.00  0.00     0.031 A 
HETATM   24  C14 UNL     1     -16.374   6.362 -26.694  1.00  0.00     0.029 A 
HETATM   25  C15 UNL     1     -16.846   5.559 -25.576  1.00  0.00     0.004 A 
HETATM   26  C16 UNL     1     -17.101   4.276 -25.821  1.00  0.00     0.017 A 
HETATM   27  C17 UNL     1     -16.905   3.711 -27.144  1.00  0.00     0.088 A 
HETATM   28  N4  UNL     1     -16.489   4.459 -28.105  1.00  0.00    -0.366 N 
ATOM     29  H4  UNL     1     -16.356   4.056 -29.032  1.00  0.00     0.165 HD
ENDBRANCH  22  23
ENDBRANCH  20  21
ENDBRANCH  19  20
ENDBRANCH  17  19
ENDBRANCH   1  17
BRANCH   1  30
HETATM   30  C18 UNL     1     -20.074   4.966 -28.760  1.00  0.00     0.263 C 
HETATM   31  N5  UNL     1     -20.053   5.611 -27.531  1.00  0.00    -0.060 NA
HETATM   32  O3  UNL     1     -20.471   3.768 -28.873  1.00  0.00    -0.274 OA
ENDBRANCH   1  30
TORSDOF 11
ENDMDL
MODEL 2
REMARK VINA RESULT: -7.444341561      3.099      6.760
REMARK  11 active torsions:
REMARK  status: ('A' for Active; 'I' for Inactive)
REMARK    1  A    between atoms: C1_4  and  C2_6 
REMARK    2  A    between atoms: C5_9  and  C6_10 
REMARK    3  A    between atoms: C6_10  and  C7_11 
REMARK    4  A    between atoms: C7_11  and  C8_12 
REMARK    5  A    between atoms: C8_12  and  C9_14 
REMARK    6  A    between atoms: C9_14  and  N3_15 
REMARK    7  A    between atoms: C9_14  and  C18_28 
REMARK    8  A    between atoms: N3_15  and  O2_17 
REMARK    9  A    between atoms: O2_17  and  C10_18 
REMARK   10  A    between atoms: C10_18  and  C11_19 
REMARK   11  A    between atoms: C12_20  and  C13_21 
ROOT
HETATM    1  C9  UNL     1     -18.861   5.423 -30.775  1.00  0.00     0.264 C 
ENDROOT
BRANCH   1   2
HETATM    2  C8  UNL     1     -19.868   4.843 -29.804  1.00  0.00     0.160 C 
HETATM    3  O1  UNL     1     -20.500   3.855 -30.102  1.00  0.00    -0.295 OA
BRANCH   2   4
HETATM    4  C7  UNL     1     -20.062   5.508 -28.508  1.00  0.00     0.086 C 
BRANCH   4   5
HETATM    5  C6  UNL     1     -21.557   5.326 -28.171  1.00  0.00     0.046 C 
BRANCH   5   6
HETATM    6  C5  UNL     1     -22.092   6.667 -27.938  1.00  0.00    -0.058 A 
HETATM    7  C4  UNL     1     -22.535   7.015 -26.692  1.00  0.00     0.008 A 
HETATM    8  C3  UNL     1     -23.060   8.276 -26.476  1.00  0.00     0.015 A 
HETATM    9  C2  UNL     1     -23.132   9.176 -27.538  1.00  0.00     0.004 A 
HETATM   10  C20 UNL     1     -22.692   8.822 -28.763  1.00  0.00     0.015 A 
HETATM   11  C19 UNL     1     -22.170   7.562 -28.969  1.00  0.00     0.008 A 
BRANCH   9  12
HETATM   12  C1  UNL     1     -23.634  10.505 -27.256  1.00  0.00     0.120 C 
HETATM   13  N1  UNL     1     -23.102  11.598 -27.766  1.00  0.00    -0.387 N 
ATOM     14  H12 UNL     1     -23.456  12.535 -27.567  1.00  0.00     0.157 HD
ATOM     15  H11 UNL     1     -22.314  11.479 -28.403  1.00  0.00     0.157 HD
HETATM   16  N2  UNL     1     -24.727  10.670 -26.371  1.00  0.00    -0.082 NA
ENDBRANCH   9  12
ENDBRANCH   5   6
ENDBRANCH   4   5
ENDBRANCH   2   4
ENDBRANCH   1   2
BRANCH   1  17
HETATM   17  N3  UNL     1     -18.456   6.649 -30.289  1.00  0.00    -0.282 N 
ATOM     18  H3  UNL     1     -18.943   6.947 -29.445  1.00  0.00     0.189 HD
BRANCH  17  19
HETATM   19  O2  UNL     1     -17.560   7.497 -30.720  1.00  0.00    -0.280 OA
BRANCH  19  20
HETATM   20  C10 UNL     1     -16.282   6.760 -30.757  1.00  0.00     0.228 C 
BRANCH  20  21
HETATM   21  C11 UNL     1     -15.553   7.200 -29.576  1.00  0.00     0.004 C 
HETATM   22  C12 UNL     1     -15.513   6.904 -28.375  1.00  0.00     0.027 C 
BRANCH  22  23
HETATM   23  C13 UNL     1     -16.210   5.946 -27.540  1.00  0.00     0.031 A 
HETATM   24  C14 UNL     1     -16.685   6.336 -26.388  1.00  0.00     0.029 A 
HETATM   25  C15 UNL     1     -17.409   5.443 -25.494  1.00  0.00     0.004 A 
HETATM   26  C16 UNL     1     -17.571   4.186 -25.900  1.00  0.00     0.017 A 
HETATM   27  C17 UNL     1     -17.040   3.733 -27.174  1.00  0.00     0.088 A 
HETATM   28  N4  UNL     1     -16.409   4.558 -27.934  1.00  0.00    -0.366 N 
ATOM     29  H4  UNL     1     -16.041   4.234 -28.828  1.00  0.00     0.165 HD
ENDBRANCH  22  23
ENDBRANCH  20  21
ENDBRANCH  19  20
ENDBRANCH  17  19
ENDBRANCH   1  17
BRANCH   1  30
HETATM   30  C18 UNL     1     -19.468   5.421 -32.101  1.00  0.00     0.263 C 
HETATM   31  N5  UNL     1     -19.025   4.569 -33.103  1.00  0.00    -0.060 NA
HETATM   32  O3  UNL     1     -20.408   6.247 -32.303  1.00  0.00    -0.274 OA
ENDBRANCH   1  30
TORSDOF 11
ENDMDL
MODEL 3
REMARK VINA RESULT: -7.348397712      3.548      5.598
REMARK  11 active torsions:
REMARK  status: ('A' for Active; 'I' for Inactive)
REMARK    1  A    between atoms: C1_4  and  C2_6 
REMARK    2  A    between atoms: C5_9  and  C6_10 
REMARK    3  A    between atoms: C6_10  and  C7_11 
REMARK    4  A    between atoms: C7_11  and  C8_12 
REMARK    5  A    between atoms: C8_12  and  C9_14 
REMARK    6  A    between atoms: C9_14  and  N3_15 
REMARK    7  A    between atoms: C9_14  and  C18_28 
REMARK    8  A    between atoms: N3_15  and  O2_17 
REMARK    9  A    between atoms: O2_17  and  C10_18 
REMARK   10  A    between atoms: C10_18  and  C11_19 
REMARK   11  A    between atoms: C12_20  and  C13_21 
ROOT
HETATM    1  C9  UNL     1     -15.319   5.878 -29.271  1.00  0.00     0.264 C 
ENDROOT
BRANCH   1   2
HETATM    2  C8  UNL     1     -16.211   6.786 -30.091  1.00  0.00     0.160 C 
HETATM    3  O1  UNL     1     -16.007   7.979 -30.116  1.00  0.00    -0.295 OA
BRANCH   2   4
HETATM    4  C7  UNL     1     -17.325   6.190 -30.841  1.00  0.00     0.086 C 
BRANCH   4   5
HETATM    5  C6  UNL     1     -18.580   6.427 -29.975  1.00  0.00     0.046 C 
BRANCH   5   6
HETATM    6  C5  UNL     1     -19.623   6.900 -30.885  1.00  0.00    -0.058 A 
HETATM    7  C4  UNL     1     -20.519   7.841 -30.460  1.00  0.00     0.008 A 
HETATM    8  C3  UNL     1     -21.519   8.274 -31.312  1.00  0.00     0.015 A 
HETATM    9  C2  UNL     1     -21.599   7.738 -32.596  1.00  0.00     0.004 A 
HETATM   10  C20 UNL     1     -20.710   6.810 -33.005  1.00  0.00     0.015 A 
HETATM   11  C19 UNL     1     -19.716   6.386 -32.148  1.00  0.00     0.008 A 
BRANCH   9  12
HETATM   12  C1  UNL     1     -22.624   8.260 -33.477  1.00  0.00     0.120 C 
HETATM   13  N1  UNL     1     -22.417   9.263 -34.307  1.00  0.00    -0.387 N 
ATOM     14  H12 UNL     1     -23.139   9.631 -34.927  1.00  0.00     0.157 HD
ATOM     15  H11 UNL     1     -21.478   9.662 -34.330  1.00  0.00     0.157 HD
HETATM   16  N2  UNL     1     -23.927   7.707 -33.444  1.00  0.00    -0.082 NA
ENDBRANCH   9  12
ENDBRANCH   5   6
ENDBRANCH   4   5
ENDBRANCH   2   4
ENDBRANCH   1   2
BRANCH   1  17
HETATM   17  N3  UNL     1     -15.228   6.403 -27.999  1.00  0.00    -0.282 N 
ATOM     18  H3  UNL     1     -14.322   6.814 -27.778  1.00  0.00     0.189 HD
BRANCH  17  19
HETATM   19  O2  UNL     1     -16.098   6.467 -27.025  1.00  0.00    -0.280 OA
BRANCH  19  20
HETATM   20  C10 UNL     1     -16.591   5.092 -26.824  1.00  0.00     0.228 C 
BRANCH  20  21
HETATM   21  C11 UNL     1     -17.587   5.194 -25.766  1.00  0.00     0.004 C 
HETATM   22  C12 UNL     1     -18.822   5.209 -25.684  1.00  0.00     0.027 C 
BRANCH  22  23
HETATM   23  C13 UNL     1     -19.905   5.139 -26.644  1.00  0.00     0.031 A 
HETATM   24  C14 UNL     1     -20.860   6.029 -26.589  1.00  0.00     0.029 A 
HETATM   25  C15 UNL     1     -21.978   6.040 -27.522  1.00  0.00     0.004 A 
HETATM   26  C16 UNL     1     -21.996   5.088 -28.452  1.00  0.00     0.017 A 
HETATM   27  C17 UNL     1     -20.948   4.084 -28.520  1.00  0.00     0.088 A 
HETATM   28  N4  UNL     1     -19.976   4.115 -27.677  1.00  0.00    -0.366 N 
ATOM     29  H4  UNL     1     -19.243   3.409 -27.732  1.00  0.00     0.165 HD
ENDBRANCH  22  23
ENDBRANCH  20  21
ENDBRANCH  19  20
ENDBRANCH  17  19
ENDBRANCH   1  17
BRANCH   1  30
HETATM   30  C18 UNL     1     -14.063   5.714 -29.995  1.00  0.00     0.263 C 
HETATM   31  N5  UNL     1     -13.862   4.658 -30.873  1.00  0.00    -0.060 NA
HETATM   32  O3  UNL     1     -13.157   6.570 -29.770  1.00  0.00    -0.274 OA
ENDBRANCH   1  30
TORSDOF 11
ENDMDL
MODEL 4
REMARK VINA RESULT: -7.328699110      3.267      5.279
REMARK  11 active torsions:
REMARK  status: ('A' for Active; 'I' for Inactive)
REMARK    1  A    between atoms: C1_4  and  C2_6 
REMARK    2  A    between atoms: C5_9  and  C6_10 
REMARK    3  A    between atoms: C6_10  and  C7_11 
REMARK    4  A    between atoms: C7_11  and  C8_12 
REMARK    5  A    between atoms: C8_12  and  C9_14 
REMARK    6  A    between atoms: C9_14  and  N3_15 
REMARK    7  A    between atoms: C9_14  and  C18_28 
REMARK    8  A    between atoms: N3_15  and  O2_17 
REMARK    9  A    between atoms: O2_17  and  C10_18 
REMARK   10  A    between atoms: C10_18  and  C11_19 
REMARK   11  A    between atoms: C12_20  and  C13_21 
ROOT
HETATM    1  C9  UNL     1     -15.333   5.906 -29.265  1.00  0.00     0.264 C 
ENDROOT
BRANCH   1   2
HETATM    2  C8  UNL     1     -16.260   6.751 -30.114  1.00  0.00     0.160 C 
HETATM    3  O1  UNL     1     -16.001   7.914 -30.327  1.00  0.00    -0.295 OA
BRANCH   2   4
HETATM    4  C7  UNL     1     -17.476   6.131 -30.660  1.00  0.00     0.086 C 
BRANCH   4   5
HETATM    5  C6  UNL     1     -18.579   7.203 -30.532  1.00  0.00     0.046 C 
BRANCH   5   6
HETATM    6  C5  UNL     1     -19.718   6.713 -31.309  1.00  0.00    -0.058 A 
HETATM    7  C4  UNL     1     -20.907   7.388 -31.270  1.00  0.00     0.008 A 
HETATM    8  C3  UNL     1     -21.990   6.914 -31.987  1.00  0.00     0.015 A 
HETATM    9  C2  UNL     1     -21.854   5.748 -32.738  1.00  0.00     0.004 A 
HETATM   10  C20 UNL     1     -20.678   5.090 -32.768  1.00  0.00     0.015 A 
HETATM   11  C19 UNL     1     -19.602   5.570 -32.050  1.00  0.00     0.008 A 
BRANCH   9  12
HETATM   12  C1  UNL     1     -22.996   5.318 -33.520  1.00  0.00     0.120 C 
HETATM   13  N1  UNL     1     -24.122   4.900 -32.978  1.00  0.00    -0.387 N 
ATOM     14  H12 UNL     1     -24.926   4.597 -33.529  1.00  0.00     0.157 HD
ATOM     15  H11 UNL     1     -24.180   4.908 -31.960  1.00  0.00     0.157 HD
HETATM   16  N2  UNL     1     -22.914   5.307 -34.933  1.00  0.00    -0.082 NA
ENDBRANCH   9  12
ENDBRANCH   5   6
ENDBRANCH   4   5
ENDBRANCH   2   4
ENDBRANCH   1   2
BRANCH   1  17
HETATM   17  N3  UNL     1     -15.204   6.517 -28.036  1.00  0.00    -0.282 N 
ATOM     18  H3  UNL     1     -14.297   6.955 -27.878  1.00  0.00     0.189 HD
BRANCH  17  19
HETATM   19  O2  UNL     1     -16.039   6.635 -27.037  1.00  0.00    -0.280 OA
BRANCH  19  20
HETATM   20  C10 UNL     1     -16.489   5.268 -26.715  1.00  0.00     0.228 C 
BRANCH  20  21
HETATM   21  C11 UNL     1     -17.537   5.436 -25.717  1.00  0.00     0.004 C 
HETATM   22  C12 UNL     1     -18.774   5.436 -25.695  1.00  0.00     0.027 C 
BRANCH  22  23
HETATM   23  C13 UNL     1     -19.808   5.272 -26.697  1.00  0.00     0.031 A 
HETATM   24  C14 UNL     1     -19.598   4.462 -27.699  1.00  0.00     0.029 A 
HETATM   25  C15 UNL     1     -20.587   4.229 -28.742  1.00  0.00     0.004 A 
HETATM   26  C16 UNL     1     -21.739   4.887 -28.638  1.00  0.00     0.017 A 
HETATM   27  C17 UNL     1     -21.986   5.800 -27.535  1.00  0.00     0.088 A 
HETATM   28  N4  UNL     1     -21.083   5.973 -26.634  1.00  0.00    -0.366 N 
ATOM     29  H4  UNL     1     -21.264   6.614 -25.861  1.00  0.00     0.165 HD
ENDBRANCH  22  23
ENDBRANCH  20  21
ENDBRANCH  19  20
ENDBRANCH  17  19
ENDBRANCH   1  17
BRANCH   1  30
HETATM   30  C18 UNL     1     -14.101   5.702 -30.020  1.00  0.00     0.263 C 
HETATM   31  N5  UNL     1     -13.953   4.637 -30.897  1.00  0.00    -0.060 NA
HETATM   32  O3  UNL     1     -13.164   6.533 -29.821  1.00  0.00    -0.274 OA
ENDBRANCH   1  30
TORSDOF 11
ENDMDL
MODEL 5
REMARK VINA RESULT: -7.279764660      2.239      7.832
REMARK  11 active torsions:
REMARK  status: ('A' for Active; 'I' for Inactive)
REMARK    1  A    between atoms: C1_4  and  C2_6 
REMARK    2  A    between atoms: C5_9  and  C6_10 
REMARK    3  A    between atoms: C6_10  and  C7_11 
REMARK    4  A    between atoms: C7_11  and  C8_12 
REMARK    5  A    between atoms: C8_12  and  C9_14 
REMARK    6  A    between atoms: C9_14  and  N3_15 
REMARK    7  A    between atoms: C9_14  and  C18_28 
REMARK    8  A    between atoms: N3_15  and  O2_17 
REMARK    9  A    between atoms: O2_17  and  C10_18 
REMARK   10  A    between atoms: C10_18  and  C11_19 
REMARK   11  A    between atoms: C12_20  and  C13_21 
ROOT
HETATM    1  C9  UNL     1     -16.661   6.169 -29.127  1.00  0.00     0.264 C 
ENDROOT
BRANCH   1   2
HETATM    2  C8  UNL     1     -16.318   5.627 -27.755  1.00  0.00     0.160 C 
HETATM    3  O1  UNL     1     -15.686   6.302 -26.974  1.00  0.00    -0.295 OA
BRANCH   2   4
HETATM    4  C7  UNL     1     -16.760   4.270 -27.403  1.00  0.00     0.086 C 
BRANCH   4   5
HETATM    5  C6  UNL     1     -17.590   4.428 -26.112  1.00  0.00     0.046 C 
BRANCH   5   6
HETATM    6  C5  UNL     1     -18.955   4.738 -26.538  1.00  0.00    -0.058 A 
HETATM    7  C4  UNL     1     -19.479   4.121 -27.639  1.00  0.00     0.008 A 
HETATM    8  C3  UNL     1     -20.761   4.429 -28.055  1.00  0.00     0.015 A 
HETATM    9  C2  UNL     1     -21.501   5.371 -27.343  1.00  0.00     0.004 A 
HETATM   10  C20 UNL     1     -20.975   5.974 -26.258  1.00  0.00     0.015 A 
HETATM   11  C19 UNL     1     -19.695   5.660 -25.851  1.00  0.00     0.008 A 
BRANCH   9  12
HETATM   12  C1  UNL     1     -22.861   5.621 -27.777  1.00  0.00     0.120 C 
HETATM   13  N1  UNL     1     -23.480   4.876 -28.671  1.00  0.00    -0.387 N 
ATOM     14  H12 UNL     1     -24.437   5.053 -28.977  1.00  0.00     0.157 HD
ATOM     15  H11 UNL     1     -22.968   4.078 -29.046  1.00  0.00     0.157 HD
HETATM   16  N2  UNL     1     -23.571   6.730 -27.256  1.00  0.00    -0.082 NA
ENDBRANCH   9  12
ENDBRANCH   5   6
ENDBRANCH   4   5
ENDBRANCH   2   4
ENDBRANCH   1   2
BRANCH   1  17
HETATM   17  N3  UNL     1     -17.216   5.145 -29.865  1.00  0.00    -0.282 N 
ATOM     18  H3  UNL     1     -17.247   4.249 -29.381  1.00  0.00     0.189 HD
BRANCH  17  19
HETATM   19  O2  UNL     1     -17.709   5.120 -31.075  1.00  0.00    -0.280 OA
BRANCH  19  20
HETATM   20  C10 UNL     1     -18.882   6.015 -31.059  1.00  0.00     0.228 C 
BRANCH  20  21
HETATM   21  C11 UNL     1     -19.984   5.210 -31.568  1.00  0.00     0.004 C 
HETATM   22  C12 UNL     1     -20.303   4.688 -32.643  1.00  0.00     0.027 C 
BRANCH  22  23
HETATM   23  C13 UNL     1     -19.709   4.639 -33.964  1.00  0.00     0.031 A 
HETATM   24  C14 UNL     1     -18.817   3.722 -34.226  1.00  0.00     0.029 A 
HETATM   25  C15 UNL     1     -18.180   3.593 -35.529  1.00  0.00     0.004 A 
HETATM   26  C16 UNL     1     -18.546   4.464 -36.466  1.00  0.00     0.017 A 
HETATM   27  C17 UNL     1     -19.529   5.497 -36.190  1.00  0.00     0.088 A 
HETATM   28  N4  UNL     1     -20.068   5.572 -35.024  1.00  0.00    -0.366 N 
ATOM     29  H4  UNL     1     -20.759   6.298 -34.837  1.00  0.00     0.165 HD
ENDBRANCH  22  23
ENDBRANCH  20  21
ENDBRANCH  19  20
ENDBRANCH  17  19
ENDBRANCH   1  17
BRANCH   1  30
HETATM   30  C18 UNL     1     -15.457   6.785 -29.676  1.00  0.00     0.263 C 
HETATM   31  N5  UNL     1     -14.301   6.050 -29.899  1.00  0.00    -0.060 NA
HETATM   32  O3  UNL     1     -15.510   8.027 -29.921  1.00  0.00    -0.274 OA
ENDBRANCH   1  30
TORSDOF 11
ENDMDL
