MODEL 1
REMARK VINA RESULT: -6.409695300      0.000      0.000
REMARK  14 active torsions:
REMARK  status: ('A' for Active; 'I' for Inactive)
REMARK    1  A    between atoms: N1_2  and  C2_4 
REMARK    2  A    between atoms: C2_4  and  N2_6 
REMARK    3  A    between atoms: N2_6  and  C3_8 
REMARK    4  A    between atoms: C3_8  and  C4_9 
REMARK    5  A    between atoms: C4_9  and  N3_10 
REMARK    6  A    between atoms: N3_10  and  C5_13 
REMARK    7  A    between atoms: C5_13  and  C6_14 
REMARK    8  A    between atoms: C6_14  and  O1_15 
REMARK    9  A    between atoms: C6_14  and  C7_17 
REMARK   10  A    between atoms: C7_17  and  O2_18 
REMARK   11  A    between atoms: O2_18  and  C8_19 
REMARK   12  A    between atoms: C11_22  and  C12_23 
REMARK   13  A    between atoms: C12_23  and  C13_24 
REMARK   14  A    between atoms: C13_24  and  C14_25 
ROOT
HETATM    1  C7  UNL     1     -19.954   4.310 -27.329  1.00  0.00     0.209 C 
ENDROOT
BRANCH   1   2
HETATM    2  C6  UNL     1     -18.471   4.266 -27.096  1.00  0.00     0.168 C 
BRANCH   2   3
HETATM    3  C5  UNL     1     -17.912   5.645 -26.914  1.00  0.00     0.266 C 
BRANCH   3   4
HETATM    4  N3  UNL     1     -16.821   5.712 -25.970  1.00  0.00    -0.071 N 
ATOM      5  H32 UNL     1     -16.680   4.826 -25.486  1.00  0.00     0.277 HD
ATOM      6  H31 UNL     1     -17.050   6.290 -25.162  1.00  0.00     0.277 HD
BRANCH   4   7
HETATM    7  C4  UNL     1     -15.623   6.162 -26.633  1.00  0.00     0.252 C 
BRANCH   7   8
HETATM    8  C3  UNL     1     -15.850   7.055 -27.815  1.00  0.00     0.149 C 
BRANCH   8   9
HETATM    9  N2  UNL     1     -14.803   6.906 -28.777  1.00  0.00    -0.366 N 
ATOM     10  H2  UNL     1     -13.990   7.518 -28.699  1.00  0.00     0.161 HD
BRANCH   9  11
HETATM   11  C2  UNL     1     -14.823   5.972 -29.821  1.00  0.00     0.167 C 
HETATM   12  S1  UNL     1     -13.513   5.762 -30.763  1.00  0.00    -0.041 SA
BRANCH  11  13
HETATM   13  N1  UNL     1     -15.955   5.162 -30.083  1.00  0.00    -0.372 N 
HETATM   14  C1  UNL     1     -17.087   5.607 -30.850  1.00  0.00     0.148 C 
ATOM     15  H1  UNL     1     -15.968   4.213 -29.707  1.00  0.00     0.161 HD
ENDBRANCH  11  13
ENDBRANCH   9  11
ENDBRANCH   8   9
ENDBRANCH   7   8
ENDBRANCH   4   7
ENDBRANCH   3   4
ENDBRANCH   2   3
BRANCH   2  16
HETATM   16  O1  UNL     1     -17.827   3.664 -28.175  1.00  0.00    -0.392 OA
ATOM     17  H1  UNL     1     -18.412   3.677 -28.923  1.00  0.00     0.210 HD
ENDBRANCH   2  16
ENDBRANCH   1   2
BRANCH   1  18
HETATM   18  O2  UNL     1     -20.233   5.571 -27.922  1.00  0.00    -0.349 OA
BRANCH  18  19
HETATM   19  C8  UNL     1     -20.480   5.631 -29.266  1.00  0.00     0.068 A 
HETATM   20  C9  UNL     1     -20.419   6.755 -30.055  1.00  0.00     0.037 A 
HETATM   21  C10 UNL     1     -20.690   6.702 -31.413  1.00  0.00     0.010 A 
HETATM   22  C11 UNL     1     -21.034   5.530 -32.050  1.00  0.00    -0.058 A 
HETATM   23  C19 UNL     1     -21.094   4.406 -31.255  1.00  0.00     0.010 A 
HETATM   24  C20 UNL     1     -20.827   4.438 -29.903  1.00  0.00     0.037 A 
BRANCH  22  25
HETATM   25  C12 UNL     1     -21.323   5.461 -33.485  1.00  0.00     0.043 C 
BRANCH  25  26
HETATM   26  C13 UNL     1     -20.287   6.130 -34.360  1.00  0.00     0.043 C 
BRANCH  26  27
HETATM   27  C14 UNL     1     -19.555   5.077 -35.076  1.00  0.00    -0.055 A 
HETATM   28  C15 UNL     1     -19.067   3.995 -34.389  1.00  0.00     0.024 A 
HETATM   29  C16 UNL     1     -18.362   2.987 -35.061  1.00  0.00     0.088 A 
HETATM   30  N4  UNL     1     -18.159   3.075 -36.387  1.00  0.00    -0.375 N 
HETATM   31  C17 UNL     1     -18.624   4.119 -37.082  1.00  0.00     0.088 A 
ATOM     32  H4  UNL     1     -17.645   2.337 -36.869  1.00  0.00     0.164 HD
HETATM   33  C18 UNL     1     -19.331   5.137 -36.429  1.00  0.00     0.024 A 
ENDBRANCH  26  27
ENDBRANCH  25  26
ENDBRANCH  22  25
ENDBRANCH  18  19
ENDBRANCH   1  18
TORSDOF 14
ENDMDL
MODEL 2
REMARK VINA RESULT: -6.293286611      3.186      7.834
REMARK  14 active torsions:
REMARK  status: ('A' for Active; 'I' for Inactive)
REMARK    1  A    between atoms: N1_2  and  C2_4 
REMARK    2  A    between atoms: C2_4  and  N2_6 
REMARK    3  A    between atoms: N2_6  and  C3_8 
REMARK    4  A    between atoms: C3_8  and  C4_9 
REMARK    5  A    between atoms: C4_9  and  N3_10 
REMARK    6  A    between atoms: N3_10  and  C5_13 
REMARK    7  A    between atoms: C5_13  and  C6_14 
REMARK    8  A    between atoms: C6_14  and  O1_15 
REMARK    9  A    between atoms: C6_14  and  C7_17 
REMARK   10  A    between atoms: C7_17  and  O2_18 
REMARK   11  A    between atoms: O2_18  and  C8_19 
REMARK   12  A    between atoms: C11_22  and  C12_23 
REMARK   13  A    between atoms: C12_23  and  C13_24 
REMARK   14  A    between atoms: C13_24  and  C14_25 
ROOT
HETATM    1  C7  UNL     1     -19.176   3.679 -34.237  1.00  0.00     0.209 C 
ENDROOT
BRANCH   1   2
HETATM    2  C6  UNL     1     -17.951   3.492 -35.084  1.00  0.00     0.168 C 
BRANCH   2   3
HETATM    3  C5  UNL     1     -18.219   3.863 -36.511  1.00  0.00     0.266 C 
BRANCH   3   4
HETATM    4  N3  UNL     1     -19.364   4.725 -36.685  1.00  0.00    -0.071 N 
ATOM      5  H32 UNL     1     -19.938   4.772 -35.843  1.00  0.00     0.277 HD
ATOM      6  H31 UNL     1     -20.055   4.320 -37.315  1.00  0.00     0.277 HD
BRANCH   4   7
HETATM    7  C4  UNL     1     -18.938   6.031 -37.120  1.00  0.00     0.252 C 
BRANCH   7   8
HETATM    8  C3  UNL     1     -19.935   7.129 -36.903  1.00  0.00     0.149 C 
BRANCH   8   9
HETATM    9  N2  UNL     1     -20.316   7.210 -35.527  1.00  0.00    -0.366 N 
ATOM     10  H2  UNL     1     -19.596   7.449 -34.845  1.00  0.00     0.161 HD
BRANCH   9  11
HETATM   11  C2  UNL     1     -21.616   6.981 -35.057  1.00  0.00     0.167 C 
HETATM   12  S1  UNL     1     -22.584   8.231 -34.675  1.00  0.00    -0.041 SA
BRANCH  11  13
HETATM   13  N1  UNL     1     -22.147   5.675 -34.922  1.00  0.00    -0.372 N 
HETATM   14  C1  UNL     1     -23.330   5.376 -34.161  1.00  0.00     0.148 C 
ATOM     15  H1  UNL     1     -21.665   4.906 -35.389  1.00  0.00     0.161 HD
ENDBRANCH  11  13
ENDBRANCH   9  11
ENDBRANCH   8   9
ENDBRANCH   7   8
ENDBRANCH   4   7
ENDBRANCH   3   4
ENDBRANCH   2   3
BRANCH   2  16
HETATM   16  O1  UNL     1     -17.528   2.165 -35.042  1.00  0.00    -0.392 OA
ATOM     17  H1  UNL     1     -16.807   2.097 -34.426  1.00  0.00     0.210 HD
ENDBRANCH   2  16
ENDBRANCH   1   2
BRANCH   1  18
HETATM   18  O2  UNL     1     -19.142   5.019 -33.767  1.00  0.00    -0.349 OA
BRANCH  18  19
HETATM   19  C8  UNL     1     -19.506   5.278 -32.474  1.00  0.00     0.068 A 
HETATM   20  C9  UNL     1     -19.025   6.293 -31.680  1.00  0.00     0.037 A 
HETATM   21  C10 UNL     1     -19.465   6.462 -30.377  1.00  0.00     0.010 A 
HETATM   22  C11 UNL     1     -20.401   5.632 -29.802  1.00  0.00    -0.058 A 
HETATM   23  C19 UNL     1     -20.879   4.616 -30.601  1.00  0.00     0.010 A 
HETATM   24  C20 UNL     1     -20.455   4.431 -31.899  1.00  0.00     0.037 A 
BRANCH  22  25
HETATM   25  C12 UNL     1     -20.873   5.802 -28.425  1.00  0.00     0.043 C 
BRANCH  25  26
HETATM   26  C13 UNL     1     -20.679   4.586 -27.547  1.00  0.00     0.043 C 
BRANCH  26  27
HETATM   27  C14 UNL     1     -19.332   4.661 -26.966  1.00  0.00    -0.055 A 
HETATM   28  C15 UNL     1     -18.266   4.120 -27.637  1.00  0.00     0.024 A 
HETATM   29  C16 UNL     1     -16.978   4.180 -27.090  1.00  0.00     0.088 A 
HETATM   30  N4  UNL     1     -16.778   4.772 -25.899  1.00  0.00    -0.375 N 
HETATM   31  C17 UNL     1     -17.799   5.309 -25.223  1.00  0.00     0.088 A 
ATOM     32  H4  UNL     1     -15.836   4.812 -25.507  1.00  0.00     0.164 HD
HETATM   33  C18 UNL     1     -19.094   5.259 -25.753  1.00  0.00     0.024 A 
ENDBRANCH  26  27
ENDBRANCH  25  26
ENDBRANCH  22  25
ENDBRANCH  18  19
ENDBRANCH   1  18
TORSDOF 14
ENDMDL
MODEL 3
REMARK VINA RESULT: -6.291605109      0.996      1.473
REMARK  14 active torsions:
REMARK  status: ('A' for Active; 'I' for Inactive)
REMARK    1  A    between atoms: N1_2  and  C2_4 
REMARK    2  A    between atoms: C2_4  and  N2_6 
REMARK    3  A    between atoms: N2_6  and  C3_8 
REMARK    4  A    between atoms: C3_8  and  C4_9 
REMARK    5  A    between atoms: C4_9  and  N3_10 
REMARK    6  A    between atoms: N3_10  and  C5_13 
REMARK    7  A    between atoms: C5_13  and  C6_14 
REMARK    8  A    between atoms: C6_14  and  O1_15 
REMARK    9  A    between atoms: C6_14  and  C7_17 
REMARK   10  A    between atoms: C7_17  and  O2_18 
REMARK   11  A    between atoms: O2_18  and  C8_19 
REMARK   12  A    between atoms: C11_22  and  C12_23 
REMARK   13  A    between atoms: C12_23  and  C13_24 
REMARK   14  A    between atoms: C13_24  and  C14_25 
ROOT
HETATM    1  C7  UNL     1     -19.959   4.271 -27.183  1.00  0.00     0.209 C 
ENDROOT
BRANCH   1   2
HETATM    2  C6  UNL     1     -18.463   4.214 -27.073  1.00  0.00     0.168 C 
BRANCH   2   3
HETATM    3  C5  UNL     1     -17.900   5.542 -26.665  1.00  0.00     0.266 C 
BRANCH   3   4
HETATM    4  N3  UNL     1     -16.738   5.447 -25.812  1.00  0.00    -0.071 N 
ATOM      5  H32 UNL     1     -16.544   4.484 -25.537  1.00  0.00     0.277 HD
ATOM      6  H31 UNL     1     -16.911   5.836 -24.886  1.00  0.00     0.277 HD
BRANCH   4   7
HETATM    7  C4  UNL     1     -15.604   6.064 -26.454  1.00  0.00     0.252 C 
BRANCH   7   8
HETATM    8  C3  UNL     1     -15.944   7.054 -27.526  1.00  0.00     0.149 C 
BRANCH   8   9
HETATM    9  N2  UNL     1     -14.920   7.100 -28.523  1.00  0.00    -0.366 N 
ATOM     10  H2  UNL     1     -13.960   7.254 -28.215  1.00  0.00     0.161 HD
BRANCH   9  11
HETATM   11  C2  UNL     1     -15.154   6.948 -29.896  1.00  0.00     0.167 C 
HETATM   12  S1  UNL     1     -16.673   6.801 -30.461  1.00  0.00    -0.041 SA
BRANCH  11  13
HETATM   13  N1  UNL     1     -14.100   6.944 -30.842  1.00  0.00    -0.372 N 
HETATM   14  C1  UNL     1     -13.053   5.958 -30.858  1.00  0.00     0.148 C 
ATOM     15  H1  UNL     1     -14.082   7.680 -31.549  1.00  0.00     0.161 HD
ENDBRANCH  11  13
ENDBRANCH   9  11
ENDBRANCH   8   9
ENDBRANCH   7   8
ENDBRANCH   4   7
ENDBRANCH   3   4
ENDBRANCH   2   3
BRANCH   2  16
HETATM   16  O1  UNL     1     -17.899   3.848 -28.293  1.00  0.00    -0.392 OA
ATOM     17  H1  UNL     1     -18.536   3.340 -28.781  1.00  0.00     0.210 HD
ENDBRANCH   2  16
ENDBRANCH   1   2
BRANCH   1  18
HETATM   18  O2  UNL     1     -20.268   5.460 -27.896  1.00  0.00    -0.349 OA
BRANCH  18  19
HETATM   19  C8  UNL     1     -20.563   5.375 -29.229  1.00  0.00     0.068 A 
HETATM   20  C9  UNL     1     -21.042   4.268 -29.888  1.00  0.00     0.037 A 
HETATM   21  C10 UNL     1     -21.307   4.292 -31.248  1.00  0.00     0.010 A 
HETATM   22  C11 UNL     1     -21.109   5.418 -32.016  1.00  0.00    -0.058 A 
HETATM   23  C19 UNL     1     -20.628   6.525 -31.351  1.00  0.00     0.010 A 
HETATM   24  C20 UNL     1     -20.359   6.521 -30.000  1.00  0.00     0.037 A 
BRANCH  22  25
HETATM   25  C12 UNL     1     -21.386   5.456 -33.455  1.00  0.00     0.043 C 
BRANCH  25  26
HETATM   26  C13 UNL     1     -20.316   6.139 -34.276  1.00  0.00     0.043 C 
BRANCH  26  27
HETATM   27  C14 UNL     1     -19.584   5.102 -35.014  1.00  0.00    -0.055 A 
HETATM   28  C15 UNL     1     -19.073   4.018 -34.347  1.00  0.00     0.024 A 
HETATM   29  C16 UNL     1     -18.368   3.025 -35.040  1.00  0.00     0.088 A 
HETATM   30  N4  UNL     1     -18.188   3.128 -36.368  1.00  0.00    -0.375 N 
HETATM   31  C17 UNL     1     -18.676   4.174 -37.044  1.00  0.00     0.088 A 
ATOM     32  H4  UNL     1     -17.674   2.401 -36.866  1.00  0.00     0.164 HD
HETATM   33  C18 UNL     1     -19.384   5.177 -36.370  1.00  0.00     0.024 A 
ENDBRANCH  26  27
ENDBRANCH  25  26
ENDBRANCH  22  25
ENDBRANCH  18  19
ENDBRANCH   1  18
TORSDOF 14
ENDMDL
MODEL 4
REMARK VINA RESULT: -6.214262763      3.358      6.455
REMARK  14 active torsions:
REMARK  status: ('A' for Active; 'I' for Inactive)
REMARK    1  A    between atoms: N1_2  and  C2_4 
REMARK    2  A    between atoms: C2_4  and  N2_6 
REMARK    3  A    between atoms: N2_6  and  C3_8 
REMARK    4  A    between atoms: C3_8  and  C4_9 
REMARK    5  A    between atoms: C4_9  and  N3_10 
REMARK    6  A    between atoms: N3_10  and  C5_13 
REMARK    7  A    between atoms: C5_13  and  C6_14 
REMARK    8  A    between atoms: C6_14  and  O1_15 
REMARK    9  A    between atoms: C6_14  and  C7_17 
REMARK   10  A    between atoms: C7_17  and  O2_18 
REMARK   11  A    between atoms: O2_18  and  C8_19 
REMARK   12  A    between atoms: C11_22  and  C12_23 
REMARK   13  A    between atoms: C12_23  and  C13_24 
REMARK   14  A    between atoms: C13_24  and  C14_25 
ROOT
HETATM    1  C7  UNL     1     -15.976   5.736 -26.687  1.00  0.00     0.209 C 
ENDROOT
BRANCH   1   2
HETATM    2  C6  UNL     1     -15.940   6.496 -27.982  1.00  0.00     0.168 C 
BRANCH   2   3
HETATM    3  C5  UNL     1     -15.362   5.659 -29.083  1.00  0.00     0.266 C 
BRANCH   3   4
HETATM    4  N3  UNL     1     -16.280   5.409 -30.170  1.00  0.00    -0.071 N 
ATOM      5  H32 UNL     1     -16.955   4.680 -29.939  1.00  0.00     0.277 HD
ATOM      6  H31 UNL     1     -15.824   4.948 -30.956  1.00  0.00     0.277 HD
BRANCH   4   7
HETATM    7  C4  UNL     1     -16.924   6.637 -30.564  1.00  0.00     0.252 C 
BRANCH   7   8
HETATM    8  C3  UNL     1     -18.316   6.479 -31.097  1.00  0.00     0.149 C 
BRANCH   8   9
HETATM    9  N2  UNL     1     -18.489   5.195 -31.703  1.00  0.00    -0.366 N 
ATOM     10  H2  UNL     1     -17.767   4.492 -31.546  1.00  0.00     0.161 HD
BRANCH   9  11
HETATM   11  C2  UNL     1     -19.589   4.843 -32.497  1.00  0.00     0.167 C 
HETATM   12  S1  UNL     1     -21.073   4.726 -31.841  1.00  0.00    -0.041 SA
BRANCH  11  13
HETATM   13  N1  UNL     1     -19.466   4.606 -33.888  1.00  0.00    -0.372 N 
HETATM   14  C1  UNL     1     -18.558   3.643 -34.450  1.00  0.00     0.148 C 
ATOM     15  H1  UNL     1     -20.052   5.147 -34.524  1.00  0.00     0.161 HD
ENDBRANCH  11  13
ENDBRANCH   9  11
ENDBRANCH   8   9
ENDBRANCH   7   8
ENDBRANCH   4   7
ENDBRANCH   3   4
ENDBRANCH   2   3
BRANCH   2  16
HETATM   16  O1  UNL     1     -15.170   7.649 -27.848  1.00  0.00    -0.392 OA
ATOM     17  H1  UNL     1     -15.742   8.405 -27.912  1.00  0.00     0.210 HD
ENDBRANCH   2  16
ENDBRANCH   1   2
BRANCH   1  18
HETATM   18  O2  UNL     1     -16.854   4.637 -26.888  1.00  0.00    -0.349 OA
BRANCH  18  19
HETATM   19  C8  UNL     1     -18.191   4.877 -27.045  1.00  0.00     0.068 A 
HETATM   20  C9  UNL     1     -18.957   4.538 -28.136  1.00  0.00     0.037 A 
HETATM   21  C10 UNL     1     -20.310   4.832 -28.190  1.00  0.00     0.010 A 
HETATM   22  C11 UNL     1     -20.966   5.475 -27.164  1.00  0.00    -0.058 A 
HETATM   23  C19 UNL     1     -20.194   5.812 -26.073  1.00  0.00     0.010 A 
HETATM   24  C20 UNL     1     -18.848   5.529 -25.999  1.00  0.00     0.037 A 
BRANCH  22  25
HETATM   25  C12 UNL     1     -22.396   5.790 -27.210  1.00  0.00     0.043 C 
BRANCH  25  26
HETATM   26  C13 UNL     1     -22.779   7.048 -26.464  1.00  0.00     0.043 C 
BRANCH  26  27
HETATM   27  C14 UNL     1     -22.944   8.123 -27.451  1.00  0.00    -0.055 A 
HETATM   28  C15 UNL     1     -22.904   7.835 -28.790  1.00  0.00     0.024 A 
HETATM   29  C16 UNL     1     -23.054   8.854 -29.741  1.00  0.00     0.088 A 
HETATM   30  N4  UNL     1     -23.240  10.125 -29.344  1.00  0.00    -0.375 N 
HETATM   31  C17 UNL     1     -23.284  10.435 -28.044  1.00  0.00     0.088 A 
ATOM     32  H4  UNL     1     -23.349  10.861 -30.042  1.00  0.00     0.164 HD
HETATM   33  C18 UNL     1     -23.136   9.431 -27.078  1.00  0.00     0.024 A 
ENDBRANCH  26  27
ENDBRANCH  25  26
ENDBRANCH  22  25
ENDBRANCH  18  19
ENDBRANCH   1  18
TORSDOF 14
ENDMDL
MODEL 5
REMARK VINA RESULT: -6.205330608      3.337      6.219
REMARK  14 active torsions:
REMARK  status: ('A' for Active; 'I' for Inactive)
REMARK    1  A    between atoms: N1_2  and  C2_4 
REMARK    2  A    between atoms: C2_4  and  N2_6 
REMARK    3  A    between atoms: N2_6  and  C3_8 
REMARK    4  A    between atoms: C3_8  and  C4_9 
REMARK    5  A    between atoms: C4_9  and  N3_10 
REMARK    6  A    between atoms: N3_10  and  C5_13 
REMARK    7  A    between atoms: C5_13  and  C6_14 
REMARK    8  A    between atoms: C6_14  and  O1_15 
REMARK    9  A    between atoms: C6_14  and  C7_17 
REMARK   10  A    between atoms: C7_17  and  O2_18 
REMARK   11  A    between atoms: O2_18  and  C8_19 
REMARK   12  A    between atoms: C11_22  and  C12_23 
REMARK   13  A    between atoms: C12_23  and  C13_24 
REMARK   14  A    between atoms: C13_24  and  C14_25 
ROOT
HETATM    1  C7  UNL     1     -16.208   4.880 -27.435  1.00  0.00     0.209 C 
ENDROOT
BRANCH   1   2
HETATM    2  C6  UNL     1     -15.922   6.276 -26.959  1.00  0.00     0.168 C 
BRANCH   2   3
HETATM    3  C5  UNL     1     -15.655   7.196 -28.111  1.00  0.00     0.266 C 
BRANCH   3   4
HETATM    4  N3  UNL     1     -14.664   6.700 -29.037  1.00  0.00    -0.071 N 
ATOM      5  H32 UNL     1     -14.335   5.769 -28.782  1.00  0.00     0.277 HD
ATOM      6  H31 UNL     1     -13.779   7.200 -28.952  1.00  0.00     0.277 HD
BRANCH   4   7
HETATM    7  C4  UNL     1     -15.180   6.741 -30.382  1.00  0.00     0.252 C 
BRANCH   7   8
HETATM    8  C3  UNL     1     -16.636   7.078 -30.491  1.00  0.00     0.149 C 
BRANCH   8   9
HETATM    9  N2  UNL     1     -17.397   5.936 -30.895  1.00  0.00    -0.366 N 
ATOM     10  H2  UNL     1     -16.946   5.022 -30.853  1.00  0.00     0.161 HD
BRANCH   9  11
HETATM   11  C2  UNL     1     -18.723   5.994 -31.344  1.00  0.00     0.167 C 
HETATM   12  S1  UNL     1     -19.573   7.377 -31.221  1.00  0.00    -0.041 SA
BRANCH  11  13
HETATM   13  N1  UNL     1     -19.363   4.882 -31.942  1.00  0.00    -0.372 N 
HETATM   14  C1  UNL     1     -19.264   4.568 -33.342  1.00  0.00     0.148 C 
ATOM     15  H1  UNL     1     -19.925   4.270 -31.348  1.00  0.00     0.161 HD
ENDBRANCH  11  13
ENDBRANCH   9  11
ENDBRANCH   8   9
ENDBRANCH   7   8
ENDBRANCH   4   7
ENDBRANCH   3   4
ENDBRANCH   2   3
BRANCH   2  16
HETATM   16  O1  UNL     1     -14.813   6.285 -26.116  1.00  0.00    -0.392 OA
ATOM     17  H1  UNL     1     -14.743   5.434 -25.698  1.00  0.00     0.210 HD
ENDBRANCH   2  16
ENDBRANCH   1   2
BRANCH   1  18
HETATM   18  O2  UNL     1     -17.197   4.351 -26.563  1.00  0.00    -0.349 OA
BRANCH  18  19
HETATM   19  C8  UNL     1     -18.486   4.797 -26.675  1.00  0.00     0.068 A 
HETATM   20  C9  UNL     1     -19.225   5.403 -25.687  1.00  0.00     0.037 A 
HETATM   21  C10 UNL     1     -20.529   5.817 -25.909  1.00  0.00     0.010 A 
HETATM   22  C11 UNL     1     -21.159   5.647 -27.122  1.00  0.00    -0.058 A 
HETATM   23  C19 UNL     1     -20.413   5.038 -28.109  1.00  0.00     0.010 A 
HETATM   24  C20 UNL     1     -19.116   4.620 -27.908  1.00  0.00     0.037 A 
BRANCH  22  25
HETATM   25  C12 UNL     1     -22.536   6.080 -27.369  1.00  0.00     0.043 C 
BRANCH  25  26
HETATM   26  C13 UNL     1     -22.947   7.315 -26.600  1.00  0.00     0.043 C 
BRANCH  26  27
HETATM   27  C14 UNL     1     -23.043   8.428 -27.553  1.00  0.00    -0.055 A 
HETATM   28  C15 UNL     1     -23.227   9.707 -27.095  1.00  0.00     0.024 A 
HETATM   29  C16 UNL     1     -23.326  10.776 -27.996  1.00  0.00     0.088 A 
HETATM   30  N4  UNL     1     -23.239  10.554 -29.319  1.00  0.00    -0.375 N 
HETATM   31  C17 UNL     1     -23.059   9.317 -29.793  1.00  0.00     0.088 A 
ATOM     32  H4  UNL     1     -23.312  11.338 -29.968  1.00  0.00     0.164 HD
HETATM   33  C18 UNL     1     -22.958   8.235 -28.910  1.00  0.00     0.024 A 
ENDBRANCH  26  27
ENDBRANCH  25  26
ENDBRANCH  22  25
ENDBRANCH  18  19
ENDBRANCH   1  18
TORSDOF 14
ENDMDL
