MODEL 1
REMARK VINA RESULT: -6.572871122      0.000      0.000
REMARK  12 active torsions:
REMARK  status: ('A' for Active; 'I' for Inactive)
REMARK    1  A    between atoms: C2_2  and  C3_3 
REMARK    2  A    between atoms: C3_3  and  C4_4 
REMARK    3  A    between atoms: C4_4  and  C5_5 
REMARK       I    between atoms: C5_5  and  N1_7 
REMARK    4  A    between atoms: N1_7  and  C6_9 
REMARK    5  A    between atoms: C6_9  and  C7_10 
REMARK    6  A    between atoms: C7_10  and  N2_11 
REMARK    7  A    between atoms: N2_11  and  C8_13 
REMARK    8  A    between atoms: C8_13  and  C9_14 
REMARK    9  A    between atoms: C9_14  and  C10_15 
REMARK   10  A    between atoms: C13_18  and  C14_19 
REMARK   11  A    between atoms: C14_19  and  N3_20 
REMARK   12  A    between atoms: N3_20  and  C15_21 
ROOT
HETATM    1  C10 UNL     1     -20.092   5.166 -26.596  1.00  0.00    -0.053 A 
HETATM    2  C11 UNL     1     -19.664   4.277 -27.543  1.00  0.00     0.008 A 
HETATM    3  C12 UNL     1     -20.330   4.130 -28.770  1.00  0.00     0.014 A 
HETATM    4  C13 UNL     1     -21.438   4.892 -29.038  1.00  0.00    -0.007 A 
HETATM    5  C20 UNL     1     -21.886   5.785 -28.107  1.00  0.00     0.014 A 
HETATM    6  C21 UNL     1     -21.208   5.916 -26.893  1.00  0.00     0.008 A 
ENDROOT
BRANCH   4   7
HETATM    7  C14 UNL     1     -22.112   4.736 -30.379  1.00  0.00     0.196 C 
BRANCH   7   8
HETATM    8  N3  UNL     1     -21.281   4.614 -31.386  1.00  0.00    -0.397 NA
BRANCH   8   9
HETATM    9  C15 UNL     1     -20.577   4.521 -32.256  1.00  0.00     0.210 A 
HETATM   10  N4  UNL     1     -19.748   4.406 -33.259  1.00  0.00    -0.325 N 
HETATM   11  C16 UNL     1     -19.532   4.664 -34.494  1.00  0.00     0.184 A 
ATOM     12  H4  UNL     1     -18.932   3.900 -32.914  1.00  0.00     0.169 HD
HETATM   13  N5  UNL     1     -20.493   5.349 -35.207  1.00  0.00    -0.337 N 
HETATM   14  C17 UNL     1     -21.565   5.646 -34.423  1.00  0.00     0.139 A 
ATOM     15  H5  UNL     1     -20.412   5.601 -36.192  1.00  0.00     0.168 HD
HETATM   16  N6  UNL     1     -22.687   6.324 -34.871  1.00  0.00    -0.337 N 
HETATM   17  C19 UNL     1     -21.697   5.350 -33.199  1.00  0.00     0.136 A 
HETATM   18  C18 UNL     1     -23.497   6.405 -33.819  1.00  0.00     0.182 A 
ATOM     19  H6  UNL     1     -22.857   6.684 -35.810  1.00  0.00     0.168 HD
HETATM   20  N7  UNL     1     -22.857   5.780 -32.744  1.00  0.00    -0.345 N 
ATOM     21  H7  UNL     1     -23.217   5.677 -31.795  1.00  0.00     0.167 HD
ENDBRANCH   8   9
ENDBRANCH   7   8
ENDBRANCH   4   7
BRANCH   1  22
HETATM   22  C9  UNL     1     -19.347   5.378 -25.276  1.00  0.00     0.083 C 
BRANCH  22  23
HETATM   23  C8  UNL     1     -17.887   5.261 -25.541  1.00  0.00     0.064 C 
BRANCH  23  24
HETATM   24  N2  UNL     1     -17.205   6.260 -26.217  1.00  0.00    -0.381 N 
ATOM     25  H2  UNL     1     -17.708   7.109 -26.474  1.00  0.00     0.164 HD
BRANCH  24  26
HETATM   26  C7  UNL     1     -15.864   6.148 -26.557  1.00  0.00     0.079 C 
BRANCH  26  27
HETATM   27  C6  UNL     1     -15.447   6.180 -27.985  1.00  0.00     0.167 C 
BRANCH  27  28
HETATM   28  N1  UNL     1     -16.587   6.102 -28.888  1.00  0.00    -0.356 N 
HETATM   29  C5  UNL     1     -16.680   6.907 -30.037  1.00  0.00     0.218 C 
HETATM   30  O1  UNL     1     -15.736   7.703 -30.289  1.00  0.00    -0.274 OA
ATOM     31  H1  UNL     1     -17.339   5.445 -28.681  1.00  0.00     0.162 HD
BRANCH  29  32
HETATM   32  C4  UNL     1     -17.804   6.886 -30.967  1.00  0.00     0.106 C 
BRANCH  32  33
HETATM   33  C3  UNL     1     -19.118   7.271 -30.313  1.00  0.00     0.035 C 
BRANCH  33  34
HETATM   34  C2  UNL     1     -19.977   8.046 -31.263  1.00  0.00    -0.036 C 
HETATM   35  C1  UNL     1     -21.210   8.369 -30.975  1.00  0.00     0.007 C 
ENDBRANCH  33  34
ENDBRANCH  32  33
ENDBRANCH  29  32
ENDBRANCH  27  28
ENDBRANCH  26  27
ENDBRANCH  24  26
ENDBRANCH  23  24
ENDBRANCH  22  23
ENDBRANCH   1  22
TORSDOF 12
ENDMDL
MODEL 2
REMARK VINA RESULT: -6.551480992      2.055      3.750
REMARK  12 active torsions:
REMARK  status: ('A' for Active; 'I' for Inactive)
REMARK    1  A    between atoms: C2_2  and  C3_3 
REMARK    2  A    between atoms: C3_3  and  C4_4 
REMARK    3  A    between atoms: C4_4  and  C5_5 
REMARK       I    between atoms: C5_5  and  N1_7 
REMARK    4  A    between atoms: N1_7  and  C6_9 
REMARK    5  A    between atoms: C6_9  and  C7_10 
REMARK    6  A    between atoms: C7_10  and  N2_11 
REMARK    7  A    between atoms: N2_11  and  C8_13 
REMARK    8  A    between atoms: C8_13  and  C9_14 
REMARK    9  A    between atoms: C9_14  and  C10_15 
REMARK   10  A    between atoms: C13_18  and  C14_19 
REMARK   11  A    between atoms: C14_19  and  N3_20 
REMARK   12  A    between atoms: N3_20  and  C15_21 
ROOT
HETATM    1  C10 UNL     1     -20.486   5.133 -29.004  1.00  0.00    -0.053 A 
HETATM    2  C11 UNL     1     -19.635   6.058 -29.543  1.00  0.00     0.008 A 
HETATM    3  C12 UNL     1     -19.477   6.193 -30.931  1.00  0.00     0.014 A 
HETATM    4  C13 UNL     1     -20.188   5.383 -31.779  1.00  0.00    -0.007 A 
HETATM    5  C20 UNL     1     -21.042   4.450 -31.264  1.00  0.00     0.014 A 
HETATM    6  C21 UNL     1     -21.185   4.333 -29.880  1.00  0.00     0.008 A 
ENDROOT
BRANCH   4   7
HETATM    7  C14 UNL     1     -20.023   5.575 -33.267  1.00  0.00     0.196 C 
BRANCH   7   8
HETATM    8  N3  UNL     1     -19.394   4.595 -33.868  1.00  0.00    -0.397 NA
BRANCH   8   9
HETATM    9  C15 UNL     1     -18.849   3.766 -34.394  1.00  0.00     0.210 A 
HETATM   10  N4  UNL     1     -18.213   2.794 -34.992  1.00  0.00    -0.325 N 
HETATM   11  C16 UNL     1     -17.738   2.356 -36.097  1.00  0.00     0.184 A 
ATOM     12  H4  UNL     1     -18.009   2.091 -34.282  1.00  0.00     0.169 HD
HETATM   13  N5  UNL     1     -17.882   3.126 -37.233  1.00  0.00    -0.337 N 
HETATM   14  C17 UNL     1     -18.544   4.284 -36.958  1.00  0.00     0.139 A 
ATOM     15  H5  UNL     1     -17.538   2.864 -38.156  1.00  0.00     0.168 HD
HETATM   16  N6  UNL     1     -18.840   5.249 -37.907  1.00  0.00    -0.337 N 
HETATM   17  C19 UNL     1     -18.982   4.640 -35.825  1.00  0.00     0.136 A 
HETATM   18  C18 UNL     1     -19.490   6.205 -37.249  1.00  0.00     0.182 A 
ATOM     19  H6  UNL     1     -18.608   5.230 -38.900  1.00  0.00     0.168 HD
HETATM   20  N7  UNL     1     -19.579   5.813 -35.910  1.00  0.00    -0.345 N 
ATOM     21  H7  UNL     1     -20.019   6.331 -35.149  1.00  0.00     0.167 HD
ENDBRANCH   8   9
ENDBRANCH   7   8
ENDBRANCH   4   7
BRANCH   1  22
HETATM   22  C9  UNL     1     -20.710   5.008 -27.495  1.00  0.00     0.083 C 
BRANCH  22  23
HETATM   23  C8  UNL     1     -19.518   4.344 -26.901  1.00  0.00     0.064 C 
BRANCH  23  24
HETATM   24  N2  UNL     1     -19.158   4.574 -25.584  1.00  0.00    -0.381 N 
ATOM     25  H2  UNL     1     -19.684   4.111 -24.843  1.00  0.00     0.164 HD
BRANCH  24  26
HETATM   26  C7  UNL     1     -18.107   5.412 -25.233  1.00  0.00     0.079 C 
BRANCH  26  27
HETATM   27  C6  UNL     1     -16.738   5.157 -25.755  1.00  0.00     0.167 C 
BRANCH  27  28
HETATM   28  N1  UNL     1     -16.251   6.263 -26.569  1.00  0.00    -0.356 N 
HETATM   29  C5  UNL     1     -16.087   6.144 -27.960  1.00  0.00     0.218 C 
HETATM   30  O1  UNL     1     -16.388   5.050 -28.508  1.00  0.00    -0.274 OA
ATOM     31  H1  UNL     1     -16.022   7.148 -26.117  1.00  0.00     0.162 HD
BRANCH  29  32
HETATM   32  C4  UNL     1     -15.587   7.208 -28.824  1.00  0.00     0.106 C 
BRANCH  32  33
HETATM   33  C3  UNL     1     -15.587   6.825 -30.293  1.00  0.00     0.035 C 
BRANCH  33  34
HETATM   34  C2  UNL     1     -14.190   6.613 -30.786  1.00  0.00    -0.036 C 
HETATM   35  C1  UNL     1     -13.644   5.426 -30.827  1.00  0.00     0.007 C 
ENDBRANCH  33  34
ENDBRANCH  32  33
ENDBRANCH  29  32
ENDBRANCH  27  28
ENDBRANCH  26  27
ENDBRANCH  24  26
ENDBRANCH  23  24
ENDBRANCH  22  23
ENDBRANCH   1  22
TORSDOF 12
ENDMDL
MODEL 3
REMARK VINA RESULT: -6.533425103      3.273      5.439
REMARK  12 active torsions:
REMARK  status: ('A' for Active; 'I' for Inactive)
REMARK    1  A    between atoms: C2_2  and  C3_3 
REMARK    2  A    between atoms: C3_3  and  C4_4 
REMARK    3  A    between atoms: C4_4  and  C5_5 
REMARK       I    between atoms: C5_5  and  N1_7 
REMARK    4  A    between atoms: N1_7  and  C6_9 
REMARK    5  A    between atoms: C6_9  and  C7_10 
REMARK    6  A    between atoms: C7_10  and  N2_11 
REMARK    7  A    between atoms: N2_11  and  C8_13 
REMARK    8  A    between atoms: C8_13  and  C9_14 
REMARK    9  A    between atoms: C9_14  and  C10_15 
REMARK   10  A    between atoms: C13_18  and  C14_19 
REMARK   11  A    between atoms: C14_19  and  N3_20 
REMARK   12  A    between atoms: N3_20  and  C15_21 
ROOT
HETATM    1  C10 UNL     1     -18.795   5.968 -30.408  1.00  0.00    -0.053 A 
HETATM    2  C11 UNL     1     -18.655   7.288 -30.735  1.00  0.00     0.008 A 
HETATM    3  C12 UNL     1     -19.713   8.026 -31.289  1.00  0.00     0.014 A 
HETATM    4  C13 UNL     1     -20.922   7.419 -31.513  1.00  0.00    -0.007 A 
HETATM    5  C20 UNL     1     -21.085   6.101 -31.196  1.00  0.00     0.014 A 
HETATM    6  C21 UNL     1     -20.020   5.385 -30.645  1.00  0.00     0.008 A 
ENDROOT
BRANCH   4   7
HETATM    7  C14 UNL     1     -22.051   8.247 -32.077  1.00  0.00     0.196 C 
BRANCH   7   8
HETATM    8  N3  UNL     1     -22.601   9.064 -31.212  1.00  0.00    -0.397 NA
BRANCH   8   9
HETATM    9  C15 UNL     1     -23.085   9.757 -30.473  1.00  0.00     0.210 A 
HETATM   10  N4  UNL     1     -23.655  10.551 -29.607  1.00  0.00    -0.325 N 
HETATM   11  C16 UNL     1     -23.895  11.764 -29.274  1.00  0.00     0.184 A 
ATOM     12  H4  UNL     1     -24.089   9.958 -28.900  1.00  0.00     0.169 HD
HETATM   13  N5  UNL     1     -23.411  12.780 -30.072  1.00  0.00    -0.337 N 
HETATM   14  C17 UNL     1     -22.722  12.281 -31.135  1.00  0.00     0.139 A 
ATOM     15  H5  UNL     1     -23.552  13.774 -29.891  1.00  0.00     0.168 HD
HETATM   16  N6  UNL     1     -22.116  13.067 -32.101  1.00  0.00    -0.337 N 
HETATM   17  C19 UNL     1     -22.531  11.055 -31.389  1.00  0.00     0.136 A 
HETATM   18  C18 UNL     1     -21.548  12.213 -32.948  1.00  0.00     0.182 A 
ATOM     19  H6  UNL     1     -22.107  14.085 -32.152  1.00  0.00     0.168 HD
HETATM   20  N7  UNL     1     -21.818  10.920 -32.489  1.00  0.00    -0.345 N 
ATOM     21  H7  UNL     1     -21.522  10.044 -32.921  1.00  0.00     0.167 HD
ENDBRANCH   8   9
ENDBRANCH   7   8
ENDBRANCH   4   7
BRANCH   1  22
HETATM   22  C9  UNL     1     -17.669   5.163 -29.754  1.00  0.00     0.083 C 
BRANCH  22  23
HETATM   23  C8  UNL     1     -16.369   5.747 -30.184  1.00  0.00     0.064 C 
BRANCH  23  24
HETATM   24  N2  UNL     1     -15.399   6.084 -29.254  1.00  0.00    -0.381 N 
ATOM     25  H2  UNL     1     -14.458   5.708 -29.369  1.00  0.00     0.164 HD
BRANCH  24  26
HETATM   26  C7  UNL     1     -15.658   6.914 -28.172  1.00  0.00     0.079 C 
BRANCH  26  27
HETATM   27  C6  UNL     1     -15.667   6.365 -26.790  1.00  0.00     0.167 C 
BRANCH  27  28
HETATM   28  N1  UNL     1     -17.021   6.161 -26.292  1.00  0.00    -0.356 N 
HETATM   29  C5  UNL     1     -17.575   4.877 -26.156  1.00  0.00     0.218 C 
HETATM   30  O1  UNL     1     -16.866   3.881 -26.462  1.00  0.00    -0.274 OA
ATOM     31  H1  UNL     1     -17.582   6.973 -26.035  1.00  0.00     0.162 HD
BRANCH  29  32
HETATM   32  C4  UNL     1     -18.930   4.611 -25.682  1.00  0.00     0.106 C 
BRANCH  32  33
HETATM   33  C3  UNL     1     -19.925   4.427 -26.813  1.00  0.00     0.035 C 
BRANCH  33  34
HETATM   34  C2  UNL     1     -20.739   5.668 -27.009  1.00  0.00    -0.036 C 
HETATM   35  C1  UNL     1     -21.932   5.636 -27.543  1.00  0.00     0.007 C 
ENDBRANCH  33  34
ENDBRANCH  32  33
ENDBRANCH  29  32
ENDBRANCH  27  28
ENDBRANCH  26  27
ENDBRANCH  24  26
ENDBRANCH  23  24
ENDBRANCH  22  23
ENDBRANCH   1  22
TORSDOF 12
ENDMDL
MODEL 4
REMARK VINA RESULT: -6.518185164      2.131      4.314
REMARK  12 active torsions:
REMARK  status: ('A' for Active; 'I' for Inactive)
REMARK    1  A    between atoms: C2_2  and  C3_3 
REMARK    2  A    between atoms: C3_3  and  C4_4 
REMARK    3  A    between atoms: C4_4  and  C5_5 
REMARK       I    between atoms: C5_5  and  N1_7 
REMARK    4  A    between atoms: N1_7  and  C6_9 
REMARK    5  A    between atoms: C6_9  and  C7_10 
REMARK    6  A    between atoms: C7_10  and  N2_11 
REMARK    7  A    between atoms: N2_11  and  C8_13 
REMARK    8  A    between atoms: C8_13  and  C9_14 
REMARK    9  A    between atoms: C9_14  and  C10_15 
REMARK   10  A    between atoms: C13_18  and  C14_19 
REMARK   11  A    between atoms: C14_19  and  N3_20 
REMARK   12  A    between atoms: N3_20  and  C15_21 
ROOT
HETATM    1  C10 UNL     1     -17.870   6.681 -30.547  1.00  0.00    -0.053 A 
HETATM    2  C11 UNL     1     -17.799   5.403 -31.026  1.00  0.00     0.008 A 
HETATM    3  C12 UNL     1     -18.669   4.940 -32.026  1.00  0.00     0.014 A 
HETATM    4  C13 UNL     1     -19.618   5.784 -32.544  1.00  0.00    -0.007 A 
HETATM    5  C20 UNL     1     -19.711   7.064 -32.080  1.00  0.00     0.014 A 
HETATM    6  C21 UNL     1     -18.834   7.504 -31.085  1.00  0.00     0.008 A 
ENDROOT
BRANCH   4   7
HETATM    7  C14 UNL     1     -20.516   5.269 -33.643  1.00  0.00     0.196 C 
BRANCH   7   8
HETATM    8  N3  UNL     1     -20.152   5.633 -34.848  1.00  0.00    -0.397 NA
BRANCH   8   9
HETATM    9  C15 UNL     1     -19.839   5.960 -35.876  1.00  0.00     0.210 A 
HETATM   10  N4  UNL     1     -19.484   6.352 -37.070  1.00  0.00    -0.325 N 
HETATM   11  C16 UNL     1     -18.831   6.065 -38.133  1.00  0.00     0.184 A 
ATOM     12  H4  UNL     1     -19.902   7.271 -37.218  1.00  0.00     0.169 HD
HETATM   13  N5  UNL     1     -18.161   4.860 -38.195  1.00  0.00    -0.337 N 
HETATM   14  C17 UNL     1     -18.324   4.150 -37.045  1.00  0.00     0.139 A 
ATOM     15  H5  UNL     1     -17.617   4.543 -38.997  1.00  0.00     0.168 HD
HETATM   16  N6  UNL     1     -17.759   2.905 -36.818  1.00  0.00    -0.337 N 
HETATM   17  C19 UNL     1     -18.994   4.514 -36.034  1.00  0.00     0.136 A 
HETATM   18  C18 UNL     1     -18.144   2.559 -35.593  1.00  0.00     0.182 A 
ATOM     19  H6  UNL     1     -17.172   2.368 -37.456  1.00  0.00     0.168 HD
HETATM   20  N7  UNL     1     -18.939   3.594 -35.091  1.00  0.00    -0.345 N 
ATOM     21  H7  UNL     1     -19.388   3.631 -34.176  1.00  0.00     0.167 HD
ENDBRANCH   8   9
ENDBRANCH   7   8
ENDBRANCH   4   7
BRANCH   1  22
HETATM   22  C9  UNL     1     -16.895   7.217 -29.496  1.00  0.00     0.083 C 
BRANCH  22  23
HETATM   23  C8  UNL     1     -15.919   6.140 -29.175  1.00  0.00     0.064 C 
BRANCH  23  24
HETATM   24  N2  UNL     1     -15.300   6.086 -27.937  1.00  0.00    -0.381 N 
ATOM     25  H2  UNL     1     -14.294   5.923 -27.898  1.00  0.00     0.164 HD
BRANCH  24  26
HETATM   26  C7  UNL     1     -15.997   6.245 -26.747  1.00  0.00     0.079 C 
BRANCH  26  27
HETATM   27  C6  UNL     1     -16.731   5.099 -26.147  1.00  0.00     0.167 C 
BRANCH  27  28
HETATM   28  N1  UNL     1     -18.175   5.255 -26.262  1.00  0.00    -0.356 N 
HETATM   29  C5  UNL     1     -18.917   4.582 -27.247  1.00  0.00     0.218 C 
HETATM   30  O1  UNL     1     -18.308   3.813 -28.037  1.00  0.00    -0.274 OA
ATOM     31  H1  UNL     1     -18.660   5.870 -25.609  1.00  0.00     0.162 HD
BRANCH  29  32
HETATM   32  C4  UNL     1     -20.360   4.712 -27.423  1.00  0.00     0.106 C 
BRANCH  32  33
HETATM   33  C3  UNL     1     -20.735   5.702 -28.512  1.00  0.00     0.035 C 
BRANCH  33  34
HETATM   34  C2  UNL     1     -21.677   5.079 -29.493  1.00  0.00    -0.036 C 
HETATM   35  C1  UNL     1     -21.545   3.840 -29.888  1.00  0.00     0.007 C 
ENDBRANCH  33  34
ENDBRANCH  32  33
ENDBRANCH  29  32
ENDBRANCH  27  28
ENDBRANCH  26  27
ENDBRANCH  24  26
ENDBRANCH  23  24
ENDBRANCH  22  23
ENDBRANCH   1  22
TORSDOF 12
ENDMDL
MODEL 5
REMARK VINA RESULT: -6.430856388      2.649      4.073
REMARK  12 active torsions:
REMARK  status: ('A' for Active; 'I' for Inactive)
REMARK    1  A    between atoms: C2_2  and  C3_3 
REMARK    2  A    between atoms: C3_3  and  C4_4 
REMARK    3  A    between atoms: C4_4  and  C5_5 
REMARK       I    between atoms: C5_5  and  N1_7 
REMARK    4  A    between atoms: N1_7  and  C6_9 
REMARK    5  A    between atoms: C6_9  and  C7_10 
REMARK    6  A    between atoms: C7_10  and  N2_11 
REMARK    7  A    between atoms: N2_11  and  C8_13 
REMARK    8  A    between atoms: C8_13  and  C9_14 
REMARK    9  A    between atoms: C9_14  and  C10_15 
REMARK   10  A    between atoms: C13_18  and  C14_19 
REMARK   11  A    between atoms: C14_19  and  N3_20 
REMARK   12  A    between atoms: N3_20  and  C15_21 
ROOT
HETATM    1  C10 UNL     1     -18.362   4.748 -26.616  1.00  0.00    -0.053 A 
HETATM    2  C11 UNL     1     -19.187   5.502 -25.829  1.00  0.00     0.008 A 
HETATM    3  C12 UNL     1     -20.536   5.708 -26.160  1.00  0.00     0.014 A 
HETATM    4  C13 UNL     1     -21.050   5.143 -27.300  1.00  0.00    -0.007 A 
HETATM    5  C20 UNL     1     -20.244   4.389 -28.103  1.00  0.00     0.014 A 
HETATM    6  C21 UNL     1     -18.905   4.196 -27.754  1.00  0.00     0.008 A 
ENDROOT
BRANCH   4   7
HETATM    7  C14 UNL     1     -22.512   5.353 -27.611  1.00  0.00     0.196 C 
BRANCH   7   8
HETATM    8  N3  UNL     1     -22.925   4.730 -28.688  1.00  0.00    -0.397 NA
BRANCH   8   9
HETATM    9  C15 UNL     1     -23.279   4.210 -29.618  1.00  0.00     0.210 A 
HETATM   10  N4  UNL     1     -23.680   3.614 -30.709  1.00  0.00    -0.325 N 
HETATM   11  C16 UNL     1     -24.510   2.787 -31.224  1.00  0.00     0.184 A 
ATOM     12  H4  UNL     1     -23.082   3.944 -31.466  1.00  0.00     0.169 HD
HETATM   13  N5  UNL     1     -25.442   2.185 -30.404  1.00  0.00    -0.337 N 
HETATM   14  C17 UNL     1     -25.303   2.602 -29.116  1.00  0.00     0.139 A 
ATOM     15  H5  UNL     1     -26.144   1.515 -30.721  1.00  0.00     0.168 HD
HETATM   16  N6  UNL     1     -26.096   2.160 -28.070  1.00  0.00    -0.337 N 
HETATM   17  C19 UNL     1     -24.446   3.431 -28.691  1.00  0.00     0.136 A 
HETATM   18  C18 UNL     1     -25.642   2.789 -26.990  1.00  0.00     0.182 A 
ATOM     19  H6  UNL     1     -26.866   1.492 -28.118  1.00  0.00     0.168 HD
HETATM   20  N7  UNL     1     -24.582   3.607 -27.391  1.00  0.00    -0.345 N 
ATOM     21  H7  UNL     1     -24.023   4.220 -26.796  1.00  0.00     0.167 HD
ENDBRANCH   8   9
ENDBRANCH   7   8
ENDBRANCH   4   7
BRANCH   1  22
HETATM   22  C9  UNL     1     -16.904   4.470 -26.242  1.00  0.00     0.083 C 
BRANCH  22  23
HETATM   23  C8  UNL     1     -16.233   5.774 -25.985  1.00  0.00     0.064 C 
BRANCH  23  24
HETATM   24  N2  UNL     1     -15.268   6.260 -26.852  1.00  0.00    -0.381 N 
ATOM     25  H2  UNL     1     -14.287   6.192 -26.583  1.00  0.00     0.164 HD
BRANCH  24  26
HETATM   26  C7  UNL     1     -15.586   6.837 -28.074  1.00  0.00     0.079 C 
BRANCH  26  27
HETATM   27  C6  UNL     1     -15.213   6.159 -29.345  1.00  0.00     0.167 C 
BRANCH  27  28
HETATM   28  N1  UNL     1     -16.332   5.425 -29.920  1.00  0.00    -0.356 N 
HETATM   29  C5  UNL     1     -17.351   6.071 -30.640  1.00  0.00     0.218 C 
HETATM   30  O1  UNL     1     -17.276   7.318 -30.799  1.00  0.00    -0.274 OA
ATOM     31  H1  UNL     1     -16.376   4.413 -29.797  1.00  0.00     0.162 HD
BRANCH  29  32
HETATM   32  C4  UNL     1     -18.504   5.392 -31.223  1.00  0.00     0.106 C 
BRANCH  32  33
HETATM   33  C3  UNL     1     -19.448   6.342 -31.939  1.00  0.00     0.035 C 
BRANCH  33  34
HETATM   34  C2  UNL     1     -20.701   6.542 -31.144  1.00  0.00    -0.036 C 
HETATM   35  C1  UNL     1     -20.787   7.445 -30.203  1.00  0.00     0.007 C 
ENDBRANCH  33  34
ENDBRANCH  32  33
ENDBRANCH  29  32
ENDBRANCH  27  28
ENDBRANCH  26  27
ENDBRANCH  24  26
ENDBRANCH  23  24
ENDBRANCH  22  23
ENDBRANCH   1  22
TORSDOF 12
ENDMDL
