MODEL 1
REMARK VINA RESULT: -7.384040631      0.000      0.000
REMARK  14 active torsions:
REMARK  status: ('A' for Active; 'I' for Inactive)
REMARK    1  A    between atoms: N1_1  and  C1_5 
REMARK    2  A    between atoms: C3_7  and  N2_8 
REMARK    3  A    between atoms: C4_12  and  O1_13 
REMARK    4  A    between atoms: O1_13  and  C5_14 
REMARK    5  A    between atoms: C6_16  and  O3_17 
REMARK    6  A    between atoms: O3_17  and  C7_18 
REMARK    7  A    between atoms: C9_20  and  O4_21 
REMARK    8  A    between atoms: C9_20  and  C15_28 
REMARK    9  A    between atoms: O4_21  and  C10_22 
REMARK   10  A    between atoms: C16_34  and  C17_35 
REMARK   11  A    between atoms: C17_35  and  O8_36 
REMARK   12  A    between atoms: C18_39  and  N4_40 
REMARK   13  A    between atoms: C20_45  and  N5_46 
REMARK   14  A    between atoms: C22_51  and  O10_52 
ROOT
HETATM    1  C5  UNL     1     -14.391 -29.941 -14.130  1.00  0.00     0.293 C 
HETATM    2  O2  UNL     1     -14.551 -28.600 -14.025  1.00  0.00    -0.327 OA
HETATM    3  C6  UNL     1     -14.755 -27.857 -15.107  1.00  0.00     0.296 C 
HETATM    4  C18 UNL     1     -15.642 -28.538 -16.192  1.00  0.00     0.240 C 
HETATM    5  C19 UNL     1     -15.558 -30.011 -16.211  1.00  0.00     0.075 C 
HETATM    6  C20 UNL     1     -15.692 -30.498 -14.779  1.00  0.00     0.240 C 
ENDROOT
BRANCH   3   7
HETATM    7  O3  UNL     1     -15.488 -26.713 -14.789  1.00  0.00    -0.329 OA
BRANCH   7   8
HETATM    8  C7  UNL     1     -16.006 -26.677 -13.536  1.00  0.00     0.271 C 
HETATM    9  C8  UNL     1     -17.421 -27.107 -13.335  1.00  0.00     0.142 C 
HETATM   10  C9  UNL     1     -18.246 -26.033 -12.597  1.00  0.00     0.324 C 
HETATM   11  N3  UNL     1     -18.283 -24.899 -13.467  1.00  0.00    -0.004 N 
HETATM   12  C16 UNL     1     -17.033 -24.796 -14.168  1.00  0.00     0.351 C 
ATOM     13  H32 UNL     1     -19.081 -24.925 -14.101  1.00  0.00     0.284 HD
ATOM     14  H31 UNL     1     -18.520 -24.040 -12.970  1.00  0.00     0.284 HD
HETATM   15  O9  UNL     1     -16.014 -25.233 -13.293  1.00  0.00    -0.326 OA
BRANCH  10  16
HETATM   16  O4  UNL     1     -19.507 -26.476 -12.365  1.00  0.00    -0.315 OA
BRANCH  16  17
HETATM   17  C10 UNL     1     -19.684 -27.660 -11.732  1.00  0.00     0.263 C 
HETATM   18  C11 UNL     1     -20.792 -28.474 -12.328  1.00  0.00     0.061 C 
HETATM   19  C12 UNL     1     -21.936 -27.562 -12.627  1.00  0.00     0.007 C 
HETATM   20  C13 UNL     1     -22.006 -26.519 -11.542  1.00  0.00     0.026 C 
HETATM   21  C14 UNL     1     -21.330 -26.913 -10.269  1.00  0.00     0.171 C 
HETATM   22  O5  UNL     1     -20.020 -27.333 -10.395  1.00  0.00    -0.361 OA
ENDBRANCH  16  17
ENDBRANCH  10  16
BRANCH  10  23
HETATM   23  C15 UNL     1     -17.532 -25.691 -11.336  1.00  0.00     0.239 C 
HETATM   24  O6  UNL     1     -17.299 -24.647 -10.790  1.00  0.00    -0.644 OA
HETATM   25  O7  UNL     1     -17.020 -26.858 -10.669  1.00  0.00    -0.644 OA
ENDBRANCH  10  23
BRANCH  12  26
HETATM   26  C17 UNL     1     -16.846 -23.344 -14.571  1.00  0.00     0.225 C 
BRANCH  26  27
HETATM   27  O8  UNL     1     -15.515 -23.012 -14.337  1.00  0.00    -0.397 OA
ATOM     28  H8  UNL     1     -15.481 -22.082 -14.147  1.00  0.00     0.209 HD
ENDBRANCH  26  27
ENDBRANCH  12  26
ENDBRANCH   7   8
ENDBRANCH   3   7
BRANCH   4  29
HETATM   29  N4  UNL     1     -15.199 -28.068 -17.511  1.00  0.00    -0.070 N 
ATOM     30  H43 UNL     1     -15.366 -27.071 -17.649  1.00  0.00     0.274 HD
ATOM     31  H42 UNL     1     -14.183 -28.052 -17.602  1.00  0.00     0.274 HD
ATOM     32  H41 UNL     1     -15.648 -28.644 -18.223  1.00  0.00     0.274 HD
ENDBRANCH   4  29
BRANCH   1  33
HETATM   33  O1  UNL     1     -14.252 -30.513 -12.868  1.00  0.00    -0.352 OA
BRANCH  33  34
HETATM   34  C4  UNL     1     -12.991 -31.036 -12.644  1.00  0.00     0.157 C 
HETATM   35  C3  UNL     1     -12.393 -30.404 -11.394  1.00  0.00     0.214 C 
HETATM   36  C2  UNL     1     -11.114 -31.111 -11.004  1.00  0.00     0.070 C 
HETATM   37  C1  UNL     1     -11.220 -32.606 -11.016  1.00  0.00     0.214 C 
HETATM   38  C22 UNL     1     -12.639 -33.064 -11.225  1.00  0.00     0.151 C 
HETATM   39  C21 UNL     1     -13.084 -32.521 -12.570  1.00  0.00     0.068 C 
BRANCH  35  40
HETATM   40  N2  UNL     1     -12.016 -29.051 -11.750  1.00  0.00    -0.072 N 
ATOM     41  H23 UNL     1     -12.778 -28.379 -11.655  1.00  0.00     0.274 HD
ATOM     42  H22 UNL     1     -11.383 -28.616 -11.077  1.00  0.00     0.274 HD
ATOM     43  H21 UNL     1     -11.633 -29.100 -12.694  1.00  0.00     0.274 HD
ENDBRANCH  35  40
BRANCH  37  44
HETATM   44  N1  UNL     1     -10.451 -33.097 -12.158  1.00  0.00    -0.072 N 
ATOM     45  H13 UNL     1     -11.021 -33.616 -12.826  1.00  0.00     0.274 HD
ATOM     46  H12 UNL     1     -10.154 -32.351 -12.786  1.00  0.00     0.274 HD
ATOM     47  H11 UNL     1      -9.669 -33.643 -11.794  1.00  0.00     0.274 HD
ENDBRANCH  37  44
BRANCH  38  48
HETATM   48  O10 UNL     1     -13.482 -32.746 -10.189  1.00  0.00    -0.393 OA
ATOM     49  H10 UNL     1     -13.970 -31.942 -10.325  1.00  0.00     0.210 HD
ENDBRANCH  38  48
ENDBRANCH  33  34
ENDBRANCH   1  33
BRANCH   6  50
HETATM   50  N5  UNL     1     -15.698 -31.933 -14.801  1.00  0.00    -0.070 N 
ATOM     51  H53 UNL     1     -16.294 -32.292 -15.548  1.00  0.00     0.274 HD
ATOM     52  H52 UNL     1     -14.803 -32.305 -15.120  1.00  0.00     0.274 HD
ATOM     53  H51 UNL     1     -15.963 -32.322 -13.896  1.00  0.00     0.274 HD
ENDBRANCH   6  50
TORSDOF 14
ENDMDL
MODEL 2
REMARK VINA RESULT: -7.279769221      4.509      7.243
REMARK  14 active torsions:
REMARK  status: ('A' for Active; 'I' for Inactive)
REMARK    1  A    between atoms: N1_1  and  C1_5 
REMARK    2  A    between atoms: C3_7  and  N2_8 
REMARK    3  A    between atoms: C4_12  and  O1_13 
REMARK    4  A    between atoms: O1_13  and  C5_14 
REMARK    5  A    between atoms: C6_16  and  O3_17 
REMARK    6  A    between atoms: O3_17  and  C7_18 
REMARK    7  A    between atoms: C9_20  and  O4_21 
REMARK    8  A    between atoms: C9_20  and  C15_28 
REMARK    9  A    between atoms: O4_21  and  C10_22 
REMARK   10  A    between atoms: C16_34  and  C17_35 
REMARK   11  A    between atoms: C17_35  and  O8_36 
REMARK   12  A    between atoms: C18_39  and  N4_40 
REMARK   13  A    between atoms: C20_45  and  N5_46 
REMARK   14  A    between atoms: C22_51  and  O10_52 
ROOT
HETATM    1  C5  UNL     1     -18.126 -23.262 -18.442  1.00  0.00     0.293 C 
HETATM    2  O2  UNL     1     -17.592 -23.613 -17.247  1.00  0.00    -0.327 OA
HETATM    3  C6  UNL     1     -17.779 -22.853 -16.174  1.00  0.00     0.296 C 
HETATM    4  C18 UNL     1     -19.190 -22.198 -16.092  1.00  0.00     0.240 C 
HETATM    5  C19 UNL     1     -19.818 -21.938 -17.402  1.00  0.00     0.075 C 
HETATM    6  C20 UNL     1     -19.668 -23.194 -18.241  1.00  0.00     0.240 C 
ENDROOT
BRANCH   3   7
HETATM    7  O3  UNL     1     -17.733 -23.621 -15.011  1.00  0.00    -0.329 OA
BRANCH   7   8
HETATM    8  C7  UNL     1     -18.045 -24.933 -15.161  1.00  0.00     0.271 C 
HETATM    9  C8  UNL     1     -19.315 -25.439 -14.563  1.00  0.00     0.142 C 
HETATM   10  C9  UNL     1     -19.072 -26.661 -13.654  1.00  0.00     0.324 C 
HETATM   11  N3  UNL     1     -18.270 -26.191 -12.569  1.00  0.00    -0.004 N 
HETATM   12  C16 UNL     1     -17.356 -25.192 -13.051  1.00  0.00     0.351 C 
ATOM     13  H32 UNL     1     -18.833 -25.855 -11.788  1.00  0.00     0.284 HD
ATOM     14  H31 UNL     1     -17.791 -26.951 -12.086  1.00  0.00     0.284 HD
HETATM   15  O9  UNL     1     -16.982 -25.551 -14.364  1.00  0.00    -0.326 OA
BRANCH  10  16
HETATM   16  O4  UNL     1     -20.248 -27.144 -13.180  1.00  0.00    -0.315 OA
BRANCH  16  17
HETATM   17  C10 UNL     1     -20.230 -28.121 -12.242  1.00  0.00     0.263 C 
HETATM   18  C11 UNL     1     -21.437 -29.006 -12.305  1.00  0.00     0.061 C 
HETATM   19  C12 UNL     1     -22.638 -28.146 -12.523  1.00  0.00     0.007 C 
HETATM   20  C13 UNL     1     -22.446 -26.862 -11.761  1.00  0.00     0.026 C 
HETATM   21  C14 UNL     1     -21.454 -26.953 -10.647  1.00  0.00     0.171 C 
HETATM   22  O5  UNL     1     -20.213 -27.452 -10.994  1.00  0.00    -0.361 OA
ENDBRANCH  16  17
ENDBRANCH  10  16
BRANCH  10  23
HETATM   23  C15 UNL     1     -18.327 -27.680 -14.443  1.00  0.00     0.239 C 
HETATM   24  O6  UNL     1     -18.422 -28.060 -15.578  1.00  0.00    -0.644 OA
HETATM   25  O7  UNL     1     -17.308 -28.330 -13.663  1.00  0.00    -0.644 OA
ENDBRANCH  10  23
BRANCH  12  26
HETATM   26  C17 UNL     1     -16.162 -25.164 -12.112  1.00  0.00     0.225 C 
BRANCH  26  27
HETATM   27  O8  UNL     1     -15.376 -26.275 -12.401  1.00  0.00    -0.397 OA
ATOM     28  H8  UNL     1     -15.461 -26.882 -11.674  1.00  0.00     0.209 HD
ENDBRANCH  26  27
ENDBRANCH  12  26
ENDBRANCH   7   8
ENDBRANCH   3   7
BRANCH   4  29
HETATM   29  N4  UNL     1     -19.058 -20.901 -15.418  1.00  0.00    -0.070 N 
ATOM     30  H43 UNL     1     -18.179 -20.812 -14.907  1.00  0.00     0.274 HD
ATOM     31  H42 UNL     1     -18.917 -20.130 -16.071  1.00  0.00     0.274 HD
ATOM     32  H41 UNL     1     -19.874 -20.765 -14.822  1.00  0.00     0.274 HD
ENDBRANCH   4  29
BRANCH   1  33
HETATM   33  O1  UNL     1     -17.850 -24.234 -19.400  1.00  0.00    -0.352 OA
BRANCH  33  34
HETATM   34  C4  UNL     1     -16.569 -24.747 -19.302  1.00  0.00     0.157 C 
HETATM   35  C3  UNL     1     -16.627 -26.268 -19.335  1.00  0.00     0.214 C 
HETATM   36  C2  UNL     1     -15.234 -26.848 -19.448  1.00  0.00     0.070 C 
HETATM   37  C1  UNL     1     -14.385 -26.186 -20.490  1.00  0.00     0.214 C 
HETATM   38  C22 UNL     1     -15.180 -25.218 -21.326  1.00  0.00     0.151 C 
HETATM   39  C21 UNL     1     -15.725 -24.163 -20.381  1.00  0.00     0.068 C 
BRANCH  35  40
HETATM   40  N2  UNL     1     -17.140 -26.695 -18.048  1.00  0.00    -0.072 N 
ATOM     41  H23 UNL     1     -17.083 -27.703 -17.903  1.00  0.00     0.274 HD
ATOM     42  H22 UNL     1     -16.546 -26.422 -17.264  1.00  0.00     0.274 HD
ATOM     43  H21 UNL     1     -18.090 -26.328 -17.984  1.00  0.00     0.274 HD
ENDBRANCH  35  40
BRANCH  37  44
HETATM   44  N1  UNL     1     -13.365 -25.399 -19.798  1.00  0.00    -0.072 N 
ATOM     45  H13 UNL     1     -12.908 -25.916 -19.046  1.00  0.00     0.274 HD
ATOM     46  H12 UNL     1     -12.537 -25.234 -20.369  1.00  0.00     0.274 HD
ATOM     47  H11 UNL     1     -13.804 -24.536 -19.477  1.00  0.00     0.274 HD
ENDBRANCH  37  44
BRANCH  38  48
HETATM   48  O10 UNL     1     -16.138 -25.817 -22.106  1.00  0.00    -0.393 OA
ATOM     49  H10 UNL     1     -16.820 -25.223 -22.398  1.00  0.00     0.210 HD
ENDBRANCH  38  48
ENDBRANCH  33  34
ENDBRANCH   1  33
BRANCH   6  50
HETATM   50  N5  UNL     1     -20.353 -22.978 -19.484  1.00  0.00    -0.070 N 
ATOM     51  H53 UNL     1     -20.017 -22.136 -19.953  1.00  0.00     0.274 HD
ATOM     52  H52 UNL     1     -20.082 -23.669 -20.185  1.00  0.00     0.274 HD
ATOM     53  H51 UNL     1     -21.365 -22.954 -19.356  1.00  0.00     0.274 HD
ENDBRANCH   6  50
TORSDOF 14
ENDMDL
MODEL 3
REMARK VINA RESULT: -7.164869639      5.102      8.292
REMARK  14 active torsions:
REMARK  status: ('A' for Active; 'I' for Inactive)
REMARK    1  A    between atoms: N1_1  and  C1_5 
REMARK    2  A    between atoms: C3_7  and  N2_8 
REMARK    3  A    between atoms: C4_12  and  O1_13 
REMARK    4  A    between atoms: O1_13  and  C5_14 
REMARK    5  A    between atoms: C6_16  and  O3_17 
REMARK    6  A    between atoms: O3_17  and  C7_18 
REMARK    7  A    between atoms: C9_20  and  O4_21 
REMARK    8  A    between atoms: C9_20  and  C15_28 
REMARK    9  A    between atoms: O4_21  and  C10_22 
REMARK   10  A    between atoms: C16_34  and  C17_35 
REMARK   11  A    between atoms: C17_35  and  O8_36 
REMARK   12  A    between atoms: C18_39  and  N4_40 
REMARK   13  A    between atoms: C20_45  and  N5_46 
REMARK   14  A    between atoms: C22_51  and  O10_52 
ROOT
HETATM    1  C5  UNL     1     -17.827 -23.710 -21.084  1.00  0.00     0.293 C 
HETATM    2  O2  UNL     1     -17.960 -23.510 -19.751  1.00  0.00    -0.327 OA
HETATM    3  C6  UNL     1     -19.016 -22.865 -19.267  1.00  0.00     0.296 C 
HETATM    4  C18 UNL     1     -20.347 -23.163 -20.019  1.00  0.00     0.240 C 
HETATM    5  C19 UNL     1     -20.178 -23.508 -21.444  1.00  0.00     0.075 C 
HETATM    6  C20 UNL     1     -19.064 -24.536 -21.539  1.00  0.00     0.240 C 
ENDROOT
BRANCH   3   7
HETATM    7  O3  UNL     1     -19.300 -23.288 -17.968  1.00  0.00    -0.329 OA
BRANCH   7   8
HETATM    8  C7  UNL     1     -18.230 -23.676 -17.230  1.00  0.00     0.271 C 
HETATM    9  C8  UNL     1     -18.432 -24.691 -16.154  1.00  0.00     0.142 C 
HETATM   10  C9  UNL     1     -17.892 -24.200 -14.796  1.00  0.00     0.324 C 
HETATM   11  N3  UNL     1     -18.686 -23.065 -14.443  1.00  0.00    -0.004 N 
HETATM   12  C16 UNL     1     -19.024 -22.332 -15.631  1.00  0.00     0.351 C 
ATOM     13  H32 UNL     1     -19.511 -23.324 -13.902  1.00  0.00     0.284 HD
ATOM     14  H31 UNL     1     -18.232 -22.479 -13.743  1.00  0.00     0.284 HD
HETATM   15  O9  UNL     1     -17.931 -22.430 -16.520  1.00  0.00    -0.326 OA
BRANCH  10  16
HETATM   16  O4  UNL     1     -18.024 -25.165 -13.852  1.00  0.00    -0.315 OA
BRANCH  16  17
HETATM   17  C10 UNL     1     -16.926 -25.849 -13.449  1.00  0.00     0.263 C 
HETATM   18  C11 UNL     1     -17.037 -27.321 -13.701  1.00  0.00     0.061 C 
HETATM   19  C12 UNL     1     -18.416 -27.758 -13.332  1.00  0.00     0.007 C 
HETATM   20  C13 UNL     1     -18.855 -26.969 -12.127  1.00  0.00     0.026 C 
HETATM   21  C14 UNL     1     -17.732 -26.383 -11.334  1.00  0.00     0.171 C 
HETATM   22  O5  UNL     1     -16.828 -25.625 -12.054  1.00  0.00    -0.361 OA
ENDBRANCH  16  17
ENDBRANCH  10  16
BRANCH  10  23
HETATM   23  C15 UNL     1     -16.472 -23.794 -14.985  1.00  0.00     0.239 C 
HETATM   24  O6  UNL     1     -15.816 -22.892 -14.539  1.00  0.00    -0.644 OA
HETATM   25  O7  UNL     1     -15.777 -24.663 -15.896  1.00  0.00    -0.644 OA
ENDBRANCH  10  23
BRANCH  12  26
HETATM   26  C17 UNL     1     -19.295 -20.893 -15.228  1.00  0.00     0.225 C 
BRANCH  26  27
HETATM   27  O8  UNL     1     -20.182 -20.920 -14.155  1.00  0.00    -0.397 OA
ATOM     28  H8  UNL     1     -21.061 -20.977 -14.512  1.00  0.00     0.209 HD
ENDBRANCH  26  27
ENDBRANCH  12  26
ENDBRANCH   7   8
ENDBRANCH   3   7
BRANCH   4  29
HETATM   29  N4  UNL     1     -21.185 -21.959 -19.969  1.00  0.00    -0.070 N 
ATOM     30  H43 UNL     1     -21.427 -21.609 -20.896  1.00  0.00     0.274 HD
ATOM     31  H42 UNL     1     -22.132 -22.152 -19.642  1.00  0.00     0.274 HD
ATOM     32  H41 UNL     1     -20.708 -21.261 -19.398  1.00  0.00     0.274 HD
ENDBRANCH   4  29
BRANCH   1  33
HETATM   33  O1  UNL     1     -16.680 -24.455 -21.349  1.00  0.00    -0.352 OA
BRANCH  33  34
HETATM   34  C4  UNL     1     -15.522 -23.854 -20.890  1.00  0.00     0.157 C 
HETATM   35  C3  UNL     1     -14.695 -24.871 -20.116  1.00  0.00     0.214 C 
HETATM   36  C2  UNL     1     -13.330 -24.305 -19.790  1.00  0.00     0.070 C 
HETATM   37  C1  UNL     1     -12.658 -23.636 -20.950  1.00  0.00     0.214 C 
HETATM   38  C22 UNL     1     -13.415 -23.853 -22.234  1.00  0.00     0.151 C 
HETATM   39  C21 UNL     1     -14.795 -23.251 -22.040  1.00  0.00     0.068 C 
BRANCH  35  40
HETATM   40  N2  UNL     1     -15.363 -25.076 -18.846  1.00  0.00    -0.072 N 
ATOM     41  H23 UNL     1     -14.727 -25.080 -18.049  1.00  0.00     0.274 HD
ATOM     42  H22 UNL     1     -15.926 -24.277 -18.551  1.00  0.00     0.274 HD
ATOM     43  H21 UNL     1     -15.900 -25.938 -18.942  1.00  0.00     0.274 HD
ENDBRANCH  35  40
BRANCH  37  44
HETATM   44  N1  UNL     1     -12.667 -22.196 -20.699  1.00  0.00    -0.072 N 
ATOM     45  H13 UNL     1     -12.622 -21.967 -19.706  1.00  0.00     0.274 HD
ATOM     46  H12 UNL     1     -11.801 -21.739 -20.982  1.00  0.00     0.274 HD
ATOM     47  H11 UNL     1     -13.490 -21.806 -21.159  1.00  0.00     0.274 HD
ENDBRANCH  37  44
BRANCH  38  48
HETATM   48  O10 UNL     1     -13.431 -25.160 -22.654  1.00  0.00    -0.393 OA
ATOM     49  H10 UNL     1     -13.218 -25.269 -23.574  1.00  0.00     0.210 HD
ENDBRANCH  38  48
ENDBRANCH  33  34
ENDBRANCH   1  33
BRANCH   6  50
HETATM   50  N5  UNL     1     -18.954 -24.940 -22.912  1.00  0.00    -0.070 N 
ATOM     51  H53 UNL     1     -18.038 -25.343 -23.110  1.00  0.00     0.274 HD
ATOM     52  H52 UNL     1     -19.534 -25.757 -23.108  1.00  0.00     0.274 HD
ATOM     53  H51 UNL     1     -19.167 -24.171 -23.548  1.00  0.00     0.274 HD
ENDBRANCH   6  50
TORSDOF 14
ENDMDL
MODEL 4
REMARK VINA RESULT: -7.091453194      2.554      8.060
REMARK  14 active torsions:
REMARK  status: ('A' for Active; 'I' for Inactive)
REMARK    1  A    between atoms: N1_1  and  C1_5 
REMARK    2  A    between atoms: C3_7  and  N2_8 
REMARK    3  A    between atoms: C4_12  and  O1_13 
REMARK    4  A    between atoms: O1_13  and  C5_14 
REMARK    5  A    between atoms: C6_16  and  O3_17 
REMARK    6  A    between atoms: O3_17  and  C7_18 
REMARK    7  A    between atoms: C9_20  and  O4_21 
REMARK    8  A    between atoms: C9_20  and  C15_28 
REMARK    9  A    between atoms: O4_21  and  C10_22 
REMARK   10  A    between atoms: C16_34  and  C17_35 
REMARK   11  A    between atoms: C17_35  and  O8_36 
REMARK   12  A    between atoms: C18_39  and  N4_40 
REMARK   13  A    between atoms: C20_45  and  N5_46 
REMARK   14  A    between atoms: C22_51  and  O10_52 
ROOT
HETATM    1  C5  UNL     1     -16.547 -25.506 -12.709  1.00  0.00     0.293 C 
HETATM    2  O2  UNL     1     -16.382 -26.613 -13.471  1.00  0.00    -0.327 OA
HETATM    3  C6  UNL     1     -16.166 -26.508 -14.778  1.00  0.00     0.296 C 
HETATM    4  C18 UNL     1     -15.274 -25.297 -15.183  1.00  0.00     0.240 C 
HETATM    5  C19 UNL     1     -15.364 -24.141 -14.269  1.00  0.00     0.075 C 
HETATM    6  C20 UNL     1     -15.244 -24.666 -12.850  1.00  0.00     0.240 C 
ENDROOT
BRANCH   3   7
HETATM    7  O3  UNL     1     -15.431 -27.597 -15.246  1.00  0.00    -0.329 OA
BRANCH   7   8
HETATM    8  C7  UNL     1     -14.693 -28.251 -14.314  1.00  0.00     0.271 C 
HETATM    9  C8  UNL     1     -13.419 -28.902 -14.739  1.00  0.00     0.142 C 
HETATM   10  C9  UNL     1     -13.371 -30.388 -14.327  1.00  0.00     0.324 C 
HETATM   11  N3  UNL     1     -14.421 -31.032 -15.053  1.00  0.00    -0.004 N 
HETATM   12  C16 UNL     1     -15.536 -30.134 -15.174  1.00  0.00     0.351 C 
ATOM     13  H32 UNL     1     -14.107 -31.381 -15.958  1.00  0.00     0.284 HD
ATOM     14  H31 UNL     1     -14.687 -31.924 -14.637  1.00  0.00     0.284 HD
HETATM   15  O9  UNL     1     -15.593 -29.360 -13.993  1.00  0.00    -0.326 OA
BRANCH  10  16
HETATM   16  O4  UNL     1     -12.177 -30.937 -14.661  1.00  0.00    -0.315 OA
BRANCH  16  17
HETATM   17  C10 UNL     1     -12.156 -32.065 -15.411  1.00  0.00     0.263 C 
HETATM   18  C11 UNL     1     -10.906 -32.867 -15.215  1.00  0.00     0.061 C 
HETATM   19  C12 UNL     1      -9.746 -31.927 -15.174  1.00  0.00     0.007 C 
HETATM   20  C13 UNL     1     -10.009 -30.809 -16.148  1.00  0.00     0.026 C 
HETATM   21  C14 UNL     1     -11.006 -31.142 -17.210  1.00  0.00     0.171 C 
HETATM   22  O5  UNL     1     -12.217 -31.629 -16.758  1.00  0.00    -0.361 OA
ENDBRANCH  16  17
ENDBRANCH  10  16
BRANCH  10  23
HETATM   23  C15 UNL     1     -13.633 -30.468 -12.864  1.00  0.00     0.239 C 
HETATM   24  O6  UNL     1     -13.369 -29.736 -11.948  1.00  0.00    -0.644 OA
HETATM   25  O7  UNL     1     -14.327 -31.674 -12.502  1.00  0.00    -0.644 OA
ENDBRANCH  10  23
BRANCH  12  26
HETATM   26  C17 UNL     1     -16.788 -30.972 -15.361  1.00  0.00     0.225 C 
BRANCH  26  27
HETATM   27  O8  UNL     1     -16.707 -32.048 -14.483  1.00  0.00    -0.397 OA
ATOM     28  H8  UNL     1     -17.390 -32.665 -14.722  1.00  0.00     0.209 HD
ENDBRANCH  26  27
ENDBRANCH  12  26
ENDBRANCH   7   8
ENDBRANCH   3   7
BRANCH   4  29
HETATM   29  N4  UNL     1     -15.704 -24.829 -16.507  1.00  0.00    -0.070 N 
ATOM     30  H43 UNL     1     -16.564 -25.279 -16.821  1.00  0.00     0.274 HD
ATOM     31  H42 UNL     1     -16.047 -23.869 -16.492  1.00  0.00     0.274 HD
ATOM     32  H41 UNL     1     -14.931 -24.959 -17.159  1.00  0.00     0.274 HD
ENDBRANCH   4  29
BRANCH   1  33
HETATM   33  O1  UNL     1     -16.699 -25.858 -11.370  1.00  0.00    -0.352 OA
BRANCH  33  34
HETATM   34  C4  UNL     1     -18.007 -25.766 -10.929  1.00  0.00     0.157 C 
HETATM   35  C3  UNL     1     -18.691 -27.117 -11.081  1.00  0.00     0.214 C 
HETATM   36  C2  UNL     1     -20.046 -27.103 -10.409  1.00  0.00     0.070 C 
HETATM   37  C1  UNL     1     -20.035 -26.508  -9.034  1.00  0.00     0.214 C 
HETATM   38  C22 UNL     1     -18.633 -26.236  -8.555  1.00  0.00     0.151 C 
HETATM   39  C21 UNL     1     -18.016 -25.252  -9.531  1.00  0.00     0.068 C 
BRANCH  35  40
HETATM   40  N2  UNL     1     -18.943 -27.301 -12.497  1.00  0.00    -0.072 N 
ATOM     41  H23 UNL     1     -19.856 -27.709 -12.697  1.00  0.00     0.274 HD
ATOM     42  H22 UNL     1     -19.085 -26.426 -13.001  1.00  0.00     0.274 HD
ATOM     43  H21 UNL     1     -18.164 -27.854 -12.855  1.00  0.00     0.274 HD
ENDBRANCH  35  40
BRANCH  37  44
HETATM   44  N1  UNL     1     -20.710 -25.213  -9.104  1.00  0.00    -0.072 N 
ATOM     45  H13 UNL     1     -20.078 -24.450  -9.347  1.00  0.00     0.274 HD
ATOM     46  H12 UNL     1     -21.332 -25.134  -9.908  1.00  0.00     0.274 HD
ATOM     47  H11 UNL     1     -21.189 -25.065  -8.215  1.00  0.00     0.274 HD
ENDBRANCH  37  44
BRANCH  38  48
HETATM   48  O10 UNL     1     -17.884 -27.371  -8.359  1.00  0.00    -0.393 OA
ATOM     49  H10 UNL     1     -16.985 -27.292  -8.655  1.00  0.00     0.210 HD
ENDBRANCH  38  48
ENDBRANCH  33  34
ENDBRANCH   1  33
BRANCH   6  50
HETATM   50  N5  UNL     1     -15.244 -23.538 -11.962  1.00  0.00    -0.070 N 
ATOM     51  H53 UNL     1     -15.853 -23.696 -11.159  1.00  0.00     0.274 HD
ATOM     52  H52 UNL     1     -14.353 -23.449 -11.472  1.00  0.00     0.274 HD
ATOM     53  H51 UNL     1     -15.488 -22.676 -12.450  1.00  0.00     0.274 HD
ENDBRANCH   6  50
TORSDOF 14
ENDMDL
MODEL 5
REMARK VINA RESULT: -7.083205797      5.079      7.935
REMARK  14 active torsions:
REMARK  status: ('A' for Active; 'I' for Inactive)
REMARK    1  A    between atoms: N1_1  and  C1_5 
REMARK    2  A    between atoms: C3_7  and  N2_8 
REMARK    3  A    between atoms: C4_12  and  O1_13 
REMARK    4  A    between atoms: O1_13  and  C5_14 
REMARK    5  A    between atoms: C6_16  and  O3_17 
REMARK    6  A    between atoms: O3_17  and  C7_18 
REMARK    7  A    between atoms: C9_20  and  O4_21 
REMARK    8  A    between atoms: C9_20  and  C15_28 
REMARK    9  A    between atoms: O4_21  and  C10_22 
REMARK   10  A    between atoms: C16_34  and  C17_35 
REMARK   11  A    between atoms: C17_35  and  O8_36 
REMARK   12  A    between atoms: C18_39  and  N4_40 
REMARK   13  A    between atoms: C20_45  and  N5_46 
REMARK   14  A    between atoms: C22_51  and  O10_52 
ROOT
HETATM    1  C5  UNL     1     -17.405 -24.657 -13.226  1.00  0.00     0.293 C 
HETATM    2  O2  UNL     1     -18.137 -24.940 -14.329  1.00  0.00    -0.327 OA
HETATM    3  C6  UNL     1     -18.238 -24.059 -15.318  1.00  0.00     0.296 C 
HETATM    4  C18 UNL     1     -16.935 -23.250 -15.589  1.00  0.00     0.240 C 
HETATM    5  C19 UNL     1     -16.079 -23.058 -14.402  1.00  0.00     0.075 C 
HETATM    6  C20 UNL     1     -15.947 -24.402 -13.709  1.00  0.00     0.240 C 
ENDROOT
BRANCH   3   7
HETATM    7  O3  UNL     1     -18.453 -24.706 -16.536  1.00  0.00    -0.329 OA
BRANCH   7   8
HETATM    8  C7  UNL     1     -19.510 -24.258 -17.259  1.00  0.00     0.271 C 
HETATM    9  C8  UNL     1     -20.297 -25.242 -18.060  1.00  0.00     0.142 C 
HETATM   10  C9  UNL     1     -20.419 -24.810 -19.536  1.00  0.00     0.324 C 
HETATM   11  N3  UNL     1     -19.091 -24.824 -20.062  1.00  0.00    -0.004 N 
HETATM   12  C16 UNL     1     -18.170 -24.403 -19.042  1.00  0.00     0.351 C 
ATOM     13  H32 UNL     1     -18.841 -25.729 -20.458  1.00  0.00     0.284 HD
ATOM     14  H31 UNL     1     -19.006 -24.266 -20.912  1.00  0.00     0.284 HD
HETATM   15  O9  UNL     1     -18.821 -23.431 -18.252  1.00  0.00    -0.326 OA
BRANCH  10  16
HETATM   16  O4  UNL     1     -21.196 -25.682 -20.225  1.00  0.00    -0.315 OA
BRANCH  16  17
HETATM   17  C10 UNL     1     -21.535 -26.860 -19.651  1.00  0.00     0.263 C 
HETATM   18  C11 UNL     1     -21.049 -28.045 -20.429  1.00  0.00     0.061 C 
HETATM   19  C12 UNL     1     -21.282 -27.781 -21.880  1.00  0.00     0.007 C 
HETATM   20  C13 UNL     1     -22.576 -27.022 -22.021  1.00  0.00     0.026 C 
HETATM   21  C14 UNL     1     -23.501 -27.165 -20.856  1.00  0.00     0.171 C 
HETATM   22  O5  UNL     1     -22.952 -26.877 -19.621  1.00  0.00    -0.361 OA
ENDBRANCH  16  17
ENDBRANCH  10  16
BRANCH  10  23
HETATM   23  C15 UNL     1     -20.971 -23.427 -19.565  1.00  0.00     0.239 C 
HETATM   24  O6  UNL     1     -21.794 -22.864 -18.896  1.00  0.00    -0.644 OA
HETATM   25  O7  UNL     1     -20.396 -22.636 -20.620  1.00  0.00    -0.644 OA
ENDBRANCH  10  23
BRANCH  12  26
HETATM   26  C17 UNL     1     -16.939 -23.840 -19.730  1.00  0.00     0.225 C 
BRANCH  26  27
HETATM   27  O8  UNL     1     -17.341 -22.724 -20.458  1.00  0.00    -0.397 OA
ATOM     28  H8  UNL     1     -16.675 -22.556 -21.115  1.00  0.00     0.209 HD
ENDBRANCH  26  27
ENDBRANCH  12  26
ENDBRANCH   7   8
ENDBRANCH   3   7
BRANCH   4  29
HETATM   29  N4  UNL     1     -17.313 -21.913 -16.063  1.00  0.00    -0.070 N 
ATOM     30  H43 UNL     1     -16.513 -21.373 -16.396  1.00  0.00     0.274 HD
ATOM     31  H42 UNL     1     -17.836 -21.939 -16.939  1.00  0.00     0.274 HD
ATOM     32  H41 UNL     1     -17.822 -21.440 -15.317  1.00  0.00     0.274 HD
ENDBRANCH   4  29
BRANCH   1  33
HETATM   33  O1  UNL     1     -17.395 -25.745 -12.358  1.00  0.00    -0.352 OA
BRANCH  33  34
HETATM   34  C4  UNL     1     -18.458 -25.745 -11.473  1.00  0.00     0.157 C 
HETATM   35  C3  UNL     1     -19.126 -27.113 -11.481  1.00  0.00     0.214 C 
HETATM   36  C2  UNL     1     -20.149 -27.208 -10.370  1.00  0.00     0.070 C 
HETATM   37  C1  UNL     1     -19.655 -26.711  -9.046  1.00  0.00     0.214 C 
HETATM   38  C22 UNL     1     -18.179 -26.409  -9.079  1.00  0.00     0.151 C 
HETATM   39  C21 UNL     1     -17.973 -25.331 -10.127  1.00  0.00     0.068 C 
BRANCH  35  40
HETATM   40  N2  UNL     1     -19.867 -27.209 -12.723  1.00  0.00    -0.072 N 
ATOM     41  H23 UNL     1     -20.811 -27.578 -12.605  1.00  0.00     0.274 HD
ATOM     42  H22 UNL     1     -20.135 -26.302 -13.107  1.00  0.00     0.274 HD
ATOM     43  H21 UNL     1     -19.291 -27.763 -13.357  1.00  0.00     0.274 HD
ENDBRANCH  35  40
BRANCH  37  44
HETATM   44  N1  UNL     1     -20.333 -25.447  -8.765  1.00  0.00    -0.072 N 
ATOM     45  H13 UNL     1     -19.898 -24.651  -9.232  1.00  0.00     0.274 HD
ATOM     46  H12 UNL     1     -21.248 -25.380  -9.210  1.00  0.00     0.274 HD
ATOM     47  H11 UNL     1     -20.376 -25.337  -7.751  1.00  0.00     0.274 HD
ENDBRANCH  37  44
BRANCH  38  48
HETATM   48  O10 UNL     1     -17.391 -27.518  -9.257  1.00  0.00    -0.393 OA
ATOM     49  H10 UNL     1     -16.887 -27.505 -10.063  1.00  0.00     0.210 HD
ENDBRANCH  38  48
ENDBRANCH  33  34
ENDBRANCH   1  33
BRANCH   6  50
HETATM   50  N5  UNL     1     -15.045 -24.239 -12.603  1.00  0.00    -0.070 N 
ATOM     51  H53 UNL     1     -14.079 -24.406 -12.884  1.00  0.00     0.274 HD
ATOM     52  H52 UNL     1     -14.965 -23.260 -12.328  1.00  0.00     0.274 HD
ATOM     53  H51 UNL     1     -15.310 -24.828 -11.813  1.00  0.00     0.274 HD
ENDBRANCH   6  50
TORSDOF 14
ENDMDL
