MODEL 1
REMARK VINA RESULT: -8.091912532      0.000      0.000
REMARK  18 active torsions:
REMARK  status: ('A' for Active; 'I' for Inactive)
REMARK    1  A    between atoms: N2_5  and  N3_6 
REMARK    2  A    between atoms: N4_10  and  O2_11 
REMARK    3  A    between atoms: O2_11  and  C4_12 
REMARK    4  A    between atoms: C6_14  and  O3_15 
REMARK    5  A    between atoms: C7_17  and  O4_18 
REMARK    6  A    between atoms: C8_20  and  N5_21 
REMARK    7  A    between atoms: C9_23  and  C10_24 
REMARK    8  A    between atoms: C13_27  and  O5_28 
REMARK    9  A    between atoms: C16_32  and  C17_33 
REMARK   10  A    between atoms: C17_33  and  O6_34 
REMARK   11  A    between atoms: C17_33  and  N6_36 
REMARK   12  A    between atoms: N6_36  and  N7_38 
REMARK   13  A    between atoms: N8_42  and  O7_44 
REMARK   14  A    between atoms: O7_44  and  C19_45 
REMARK   15  A    between atoms: C19_45  and  C20_47 
REMARK   16  A    between atoms: C20_47  and  O9_48 
REMARK   17  A    between atoms: C20_47  and  C21_50 
REMARK   18  A    between atoms: C21_50  and  O10_51 
ROOT
HETATM    1  C4  UNL     1     -16.883 -25.766 -15.090  1.00  0.00     0.119 A 
HETATM    2  C5  UNL     1     -15.681 -25.115 -15.221  1.00  0.00     0.080 A 
HETATM    3  C6  UNL     1     -15.043 -24.499 -14.176  1.00  0.00     0.103 A 
HETATM    4  C7  UNL     1     -15.609 -24.519 -12.933  1.00  0.00     0.127 A 
HETATM    5  C8  UNL     1     -16.835 -25.170 -12.745  1.00  0.00     0.086 A 
HETATM    6  C16 UNL     1     -17.454 -25.778 -13.798  1.00  0.00     0.082 A 
ENDROOT
BRANCH   1   7
HETATM    7  O2  UNL     1     -17.528 -26.384 -16.133  1.00  0.00    -0.219 OA
BRANCH   7   8
HETATM    8  N4  UNL     1     -17.180 -26.275 -17.448  1.00  0.00    -0.060 N 
HETATM    9  C3  UNL     1     -16.513 -27.375 -18.089  1.00  0.00     0.329 C 
HETATM   10  N2  UNL     1     -15.598 -26.926 -19.102  1.00  0.00    -0.227 N 
HETATM   11  C2  UNL     1     -15.893 -25.768 -19.854  1.00  0.00     0.358 C 
HETATM   12  N1  UNL     1     -16.854 -24.822 -19.396  1.00  0.00    -0.132 N 
HETATM   13  O1  UNL     1     -15.272 -25.605 -20.942  1.00  0.00    -0.244 OA
HETATM   14  C1  UNL     1     -17.101 -23.679 -20.248  1.00  0.00     0.180 C 
HETATM   15  C18 UNL     1     -17.513 -25.068 -18.170  1.00  0.00     0.732 C 
HETATM   16  N8  UNL     1     -18.365 -24.255 -17.686  1.00  0.00    -0.086 N 
ATOM     17  H8  UNL     1     -18.775 -24.546 -16.799  1.00  0.00     0.214 HD
BRANCH  10  18
HETATM   18  N3  UNL     1     -14.389 -27.655 -19.353  1.00  0.00    -0.337 N 
ATOM     19  H32 UNL     1     -14.366 -28.375 -20.076  1.00  0.00     0.177 HD
ATOM     20  H31 UNL     1     -13.549 -27.454 -18.809  1.00  0.00     0.177 HD
ENDBRANCH  10  18
BRANCH  16  21
HETATM   21  O7  UNL     1     -18.811 -23.082 -18.149  1.00  0.00    -0.182 OA
BRANCH  21  22
HETATM   22  C19 UNL     1     -18.509 -21.834 -17.635  1.00  0.00     0.312 C 
HETATM   23  O8  UNL     1     -18.437 -20.870 -18.459  1.00  0.00    -0.260 OA
BRANCH  22  24
HETATM   24  C20 UNL     1     -18.270 -21.542 -16.217  1.00  0.00     0.243 C 
BRANCH  24  25
HETATM   25  O9  UNL     1     -17.162 -22.185 -15.712  1.00  0.00    -0.383 OA
ATOM     26  H9  UNL     1     -17.331 -22.626 -14.887  1.00  0.00     0.210 HD
ENDBRANCH  24  25
BRANCH  24  27
HETATM   27  C21 UNL     1     -19.436 -21.828 -15.314  1.00  0.00     0.206 C 
BRANCH  27  28
HETATM   28  O10 UNL     1     -19.845 -23.152 -15.348  1.00  0.00    -0.398 OA
ATOM     29  H10 UNL     1     -20.271 -23.435 -14.548  1.00  0.00     0.209 HD
ENDBRANCH  27  28
ENDBRANCH  24  27
ENDBRANCH  22  24
ENDBRANCH  21  22
ENDBRANCH  16  21
ENDBRANCH   7   8
ENDBRANCH   1   7
BRANCH   6  30
HETATM   30  C17 UNL     1     -18.728 -26.446 -13.675  1.00  0.00     0.170 C 
BRANCH  30  31
HETATM   31  O6  UNL     1     -19.777 -25.681 -13.808  1.00  0.00    -0.344 OA
ATOM     32  H6  UNL     1     -20.449 -26.008 -14.394  1.00  0.00     0.219 HD
ENDBRANCH  30  31
BRANCH  30  33
HETATM   33  N6  UNL     1     -18.957 -27.815 -13.433  1.00  0.00    -0.286 N 
ATOM     34  H6  UNL     1     -19.062 -28.170 -12.483  1.00  0.00     0.188 HD
BRANCH  33  35
HETATM   35  N7  UNL     1     -19.038 -28.686 -14.548  1.00  0.00    -0.343 N 
ATOM     36  H72 UNL     1     -19.210 -28.307 -15.480  1.00  0.00     0.176 HD
ATOM     37  H71 UNL     1     -18.919 -29.685 -14.386  1.00  0.00     0.176 HD
ENDBRANCH  33  35
ENDBRANCH  30  33
ENDBRANCH   6  30
BRANCH   3  38
HETATM   38  O3  UNL     1     -13.834 -23.855 -14.355  1.00  0.00    -0.358 OA
ATOM     39  H3  UNL     1     -13.018 -24.254 -14.079  1.00  0.00     0.217 HD
ENDBRANCH   3  38
BRANCH   5  40
HETATM   40  N5  UNL     1     -17.355 -25.118 -11.434  1.00  0.00    -0.362 N 
HETATM   41  C9  UNL     1     -17.477 -26.169 -10.698  1.00  0.00     0.100 C 
ATOM     42  H5  UNL     1     -17.643 -24.216 -11.055  1.00  0.00     0.165 HD
BRANCH  41  43
HETATM   43  C10 UNL     1     -18.022 -26.077  -9.335  1.00  0.00    -0.021 A 
HETATM   44  C11 UNL     1     -18.085 -27.245  -8.570  1.00  0.00     0.015 A 
HETATM   45  C12 UNL     1     -18.586 -27.214  -7.301  1.00  0.00     0.037 A 
HETATM   46  C13 UNL     1     -19.042 -26.042  -6.736  1.00  0.00     0.065 A 
HETATM   47  C14 UNL     1     -18.977 -24.894  -7.494  1.00  0.00     0.037 A 
HETATM   48  C15 UNL     1     -18.471 -24.921  -8.779  1.00  0.00     0.015 A 
BRANCH  46  49
HETATM   49  O5  UNL     1     -19.550 -25.999  -5.460  1.00  0.00    -0.361 OA
ATOM     50  H5  UNL     1     -19.620 -25.186  -4.974  1.00  0.00     0.217 HD
ENDBRANCH  46  49
ENDBRANCH  41  43
ENDBRANCH   5  40
BRANCH   4  51
HETATM   51  O4  UNL     1     -14.984 -23.896 -11.831  1.00  0.00    -0.356 OA
ATOM     52  H4  UNL     1     -15.095 -24.228 -10.947  1.00  0.00     0.218 HD
ENDBRANCH   4  51
TORSDOF 18
ENDMDL
MODEL 2
REMARK VINA RESULT: -7.940253651      2.193      3.756
REMARK  18 active torsions:
REMARK  status: ('A' for Active; 'I' for Inactive)
REMARK    1  A    between atoms: N2_5  and  N3_6 
REMARK    2  A    between atoms: N4_10  and  O2_11 
REMARK    3  A    between atoms: O2_11  and  C4_12 
REMARK    4  A    between atoms: C6_14  and  O3_15 
REMARK    5  A    between atoms: C7_17  and  O4_18 
REMARK    6  A    between atoms: C8_20  and  N5_21 
REMARK    7  A    between atoms: C9_23  and  C10_24 
REMARK    8  A    between atoms: C13_27  and  O5_28 
REMARK    9  A    between atoms: C16_32  and  C17_33 
REMARK   10  A    between atoms: C17_33  and  O6_34 
REMARK   11  A    between atoms: C17_33  and  N6_36 
REMARK   12  A    between atoms: N6_36  and  N7_38 
REMARK   13  A    between atoms: N8_42  and  O7_44 
REMARK   14  A    between atoms: O7_44  and  C19_45 
REMARK   15  A    between atoms: C19_45  and  C20_47 
REMARK   16  A    between atoms: C20_47  and  O9_48 
REMARK   17  A    between atoms: C20_47  and  C21_50 
REMARK   18  A    between atoms: C21_50  and  O10_51 
ROOT
HETATM    1  C4  UNL     1     -19.106 -26.350 -13.149  1.00  0.00     0.119 A 
HETATM    2  C5  UNL     1     -20.388 -26.829 -13.274  1.00  0.00     0.080 A 
HETATM    3  C6  UNL     1     -21.159 -27.197 -12.202  1.00  0.00     0.103 A 
HETATM    4  C7  UNL     1     -20.651 -27.093 -10.938  1.00  0.00     0.127 A 
HETATM    5  C8  UNL     1     -19.350 -26.610 -10.756  1.00  0.00     0.086 A 
HETATM    6  C16 UNL     1     -18.598 -26.248 -11.835  1.00  0.00     0.082 A 
ENDROOT
BRANCH   1   7
HETATM    7  O2  UNL     1     -18.328 -25.981 -14.219  1.00  0.00    -0.219 OA
BRANCH   7   8
HETATM    8  N4  UNL     1     -18.429 -26.493 -15.479  1.00  0.00    -0.060 N 
HETATM    9  C3  UNL     1     -18.257 -27.907 -15.675  1.00  0.00     0.329 C 
HETATM   10  N2  UNL     1     -17.667 -28.200 -16.953  1.00  0.00    -0.227 N 
HETATM   11  C2  UNL     1     -17.955 -27.380 -18.066  1.00  0.00     0.358 C 
HETATM   12  N1  UNL     1     -18.490 -26.072 -17.894  1.00  0.00    -0.132 N 
HETATM   13  O1  UNL     1     -17.718 -27.851 -19.214  1.00  0.00    -0.244 OA
HETATM   14  C1  UNL     1     -18.772 -25.319 -19.097  1.00  0.00     0.180 C 
HETATM   15  C18 UNL     1     -18.732 -25.608 -16.580  1.00  0.00     0.732 C 
HETATM   16  N8  UNL     1     -19.185 -24.441 -16.349  1.00  0.00    -0.086 N 
ATOM     17  H8  UNL     1     -19.322 -24.225 -15.362  1.00  0.00     0.214 HD
BRANCH  10  18
HETATM   18  N3  UNL     1     -16.789 -29.324 -17.098  1.00  0.00    -0.337 N 
ATOM     19  H32 UNL     1     -16.611 -29.717 -18.022  1.00  0.00     0.177 HD
ATOM     20  H31 UNL     1     -16.341 -29.731 -16.277  1.00  0.00     0.177 HD
ENDBRANCH  10  18
BRANCH  16  21
HETATM   21  O7  UNL     1     -19.512 -23.451 -17.187  1.00  0.00    -0.182 OA
BRANCH  21  22
HETATM   22  C19 UNL     1     -19.189 -22.115 -17.036  1.00  0.00     0.312 C 
HETATM   23  O8  UNL     1     -19.419 -21.347 -18.023  1.00  0.00    -0.260 OA
BRANCH  22  24
HETATM   24  C20 UNL     1     -18.605 -21.519 -15.828  1.00  0.00     0.243 C 
BRANCH  24  25
HETATM   25  O9  UNL     1     -17.490 -22.191 -15.380  1.00  0.00    -0.383 OA
ATOM     26  H9  UNL     1     -17.604 -22.567 -14.515  1.00  0.00     0.210 HD
ENDBRANCH  24  25
BRANCH  24  27
HETATM   27  C21 UNL     1     -19.562 -21.370 -14.680  1.00  0.00     0.206 C 
BRANCH  27  28
HETATM   28  O10 UNL     1     -19.732 -20.056 -14.273  1.00  0.00    -0.398 OA
ATOM     29  H10 UNL     1     -20.589 -19.884 -13.903  1.00  0.00     0.209 HD
ENDBRANCH  27  28
ENDBRANCH  24  27
ENDBRANCH  22  24
ENDBRANCH  21  22
ENDBRANCH  16  21
ENDBRANCH   7   8
ENDBRANCH   1   7
BRANCH   6  30
HETATM   30  C17 UNL     1     -17.243 -25.764 -11.716  1.00  0.00     0.170 C 
BRANCH  30  31
HETATM   31  O6  UNL     1     -16.325 -26.687 -11.627  1.00  0.00    -0.344 OA
ATOM     32  H6  UNL     1     -15.547 -26.444 -11.138  1.00  0.00     0.219 HD
ENDBRANCH  30  31
BRANCH  30  33
HETATM   33  N6  UNL     1     -16.811 -24.423 -11.689  1.00  0.00    -0.286 N 
ATOM     34  H6  UNL     1     -16.681 -23.931 -10.805  1.00  0.00     0.188 HD
BRANCH  33  35
HETATM   35  N7  UNL     1     -16.564 -23.776 -12.925  1.00  0.00    -0.343 N 
ATOM     36  H72 UNL     1     -15.614 -23.502 -13.176  1.00  0.00     0.176 HD
ATOM     37  H71 UNL     1     -17.357 -23.600 -13.541  1.00  0.00     0.176 HD
ENDBRANCH  33  35
ENDBRANCH  30  33
ENDBRANCH   6  30
BRANCH   3  38
HETATM   38  O3  UNL     1     -22.443 -27.675 -12.374  1.00  0.00    -0.358 OA
ATOM     39  H3  UNL     1     -23.146 -27.422 -11.787  1.00  0.00     0.217 HD
ENDBRANCH   3  38
BRANCH   5  40
HETATM   40  N5  UNL     1     -18.903 -26.560  -9.417  1.00  0.00    -0.362 N 
HETATM   41  C9  UNL     1     -19.157 -25.562  -8.642  1.00  0.00     0.100 C 
ATOM     42  H5  UNL     1     -18.359 -27.341  -9.051  1.00  0.00     0.165 HD
BRANCH  41  43
HETATM   43  C10 UNL     1     -18.677 -25.545  -7.252  1.00  0.00    -0.021 A 
HETATM   44  C11 UNL     1     -18.880 -24.387  -6.499  1.00  0.00     0.015 A 
HETATM   45  C12 UNL     1     -18.448 -24.318  -5.205  1.00  0.00     0.037 A 
HETATM   46  C13 UNL     1     -17.804 -25.378  -4.605  1.00  0.00     0.065 A 
HETATM   47  C14 UNL     1     -17.607 -26.518  -5.351  1.00  0.00     0.037 A 
HETATM   48  C15 UNL     1     -18.042 -26.592  -6.661  1.00  0.00     0.015 A 
BRANCH  46  49
HETATM   49  O5  UNL     1     -17.364 -25.320  -3.305  1.00  0.00    -0.361 OA
ATOM     50  H5  UNL     1     -17.104 -26.098  -2.826  1.00  0.00     0.217 HD
ENDBRANCH  46  49
ENDBRANCH  41  43
ENDBRANCH   5  40
BRANCH   4  51
HETATM   51  O4  UNL     1     -21.414 -27.462  -9.808  1.00  0.00    -0.356 OA
ATOM     52  H4  UNL     1     -22.011 -26.850  -9.393  1.00  0.00     0.218 HD
ENDBRANCH   4  51
TORSDOF 18
ENDMDL
MODEL 3
REMARK VINA RESULT: -7.885974580      1.540      2.801
REMARK  18 active torsions:
REMARK  status: ('A' for Active; 'I' for Inactive)
REMARK    1  A    between atoms: N2_5  and  N3_6 
REMARK    2  A    between atoms: N4_10  and  O2_11 
REMARK    3  A    between atoms: O2_11  and  C4_12 
REMARK    4  A    between atoms: C6_14  and  O3_15 
REMARK    5  A    between atoms: C7_17  and  O4_18 
REMARK    6  A    between atoms: C8_20  and  N5_21 
REMARK    7  A    between atoms: C9_23  and  C10_24 
REMARK    8  A    between atoms: C13_27  and  O5_28 
REMARK    9  A    between atoms: C16_32  and  C17_33 
REMARK   10  A    between atoms: C17_33  and  O6_34 
REMARK   11  A    between atoms: C17_33  and  N6_36 
REMARK   12  A    between atoms: N6_36  and  N7_38 
REMARK   13  A    between atoms: N8_42  and  O7_44 
REMARK   14  A    between atoms: O7_44  and  C19_45 
REMARK   15  A    between atoms: C19_45  and  C20_47 
REMARK   16  A    between atoms: C20_47  and  O9_48 
REMARK   17  A    between atoms: C20_47  and  C21_50 
REMARK   18  A    between atoms: C21_50  and  O10_51 
ROOT
HETATM    1  C4  UNL     1     -17.683 -26.457 -14.365  1.00  0.00     0.119 A 
HETATM    2  C5  UNL     1     -18.521 -27.503 -14.670  1.00  0.00     0.080 A 
HETATM    3  C6  UNL     1     -19.397 -28.050 -13.770  1.00  0.00     0.103 A 
HETATM    4  C7  UNL     1     -19.460 -27.550 -12.500  1.00  0.00     0.127 A 
HETATM    5  C8  UNL     1     -18.627 -26.484 -12.137  1.00  0.00     0.086 A 
HETATM    6  C16 UNL     1     -17.762 -25.952 -13.048  1.00  0.00     0.082 A 
ENDROOT
BRANCH   1   7
HETATM    7  O2  UNL     1     -16.802 -25.905 -15.262  1.00  0.00    -0.219 OA
BRANCH   7   8
HETATM    8  N4  UNL     1     -16.745 -26.202 -16.593  1.00  0.00    -0.060 N 
HETATM    9  C3  UNL     1     -16.214 -27.474 -17.003  1.00  0.00     0.329 C 
HETATM   10  N2  UNL     1     -15.544 -27.387 -18.272  1.00  0.00    -0.227 N 
HETATM   11  C2  UNL     1     -16.010 -26.485 -19.254  1.00  0.00     0.358 C 
HETATM   12  N1  UNL     1     -16.865 -25.401 -18.907  1.00  0.00    -0.132 N 
HETATM   13  O1  UNL     1     -15.639 -26.679 -20.446  1.00  0.00    -0.244 OA
HETATM   14  C1  UNL     1     -17.306 -24.546 -19.988  1.00  0.00     0.180 C 
HETATM   15  C18 UNL     1     -17.243 -25.244 -17.553  1.00  0.00     0.732 C 
HETATM   16  N8  UNL     1     -17.983 -24.284 -17.165  1.00  0.00    -0.086 N 
ATOM     17  H8  UNL     1     -18.189 -24.282 -16.167  1.00  0.00     0.214 HD
BRANCH  10  18
HETATM   18  N3  UNL     1     -14.406 -28.216 -18.542  1.00  0.00    -0.337 N 
ATOM     19  H32 UNL     1     -14.021 -28.264 -19.485  1.00  0.00     0.177 HD
ATOM     20  H31 UNL     1     -13.979 -28.758 -17.790  1.00  0.00     0.177 HD
ENDBRANCH  10  18
BRANCH  16  21
HETATM   21  O7  UNL     1     -18.535 -23.277 -17.851  1.00  0.00    -0.182 OA
BRANCH  21  22
HETATM   22  C19 UNL     1     -18.427 -21.931 -17.553  1.00  0.00     0.312 C 
HETATM   23  O8  UNL     1     -18.481 -21.116 -18.526  1.00  0.00    -0.260 OA
BRANCH  22  24
HETATM   24  C20 UNL     1     -18.257 -21.377 -16.205  1.00  0.00     0.243 C 
BRANCH  24  25
HETATM   25  O9  UNL     1     -17.132 -21.847 -15.565  1.00  0.00    -0.383 OA
ATOM     26  H9  UNL     1     -17.325 -22.492 -14.895  1.00  0.00     0.210 HD
ENDBRANCH  24  25
BRANCH  24  27
HETATM   27  C21 UNL     1     -19.436 -21.574 -15.295  1.00  0.00     0.206 C 
BRANCH  27  28
HETATM   28  O10 UNL     1     -19.885 -22.886 -15.254  1.00  0.00    -0.398 OA
ATOM     29  H10 UNL     1     -20.510 -23.047 -14.557  1.00  0.00     0.209 HD
ENDBRANCH  27  28
ENDBRANCH  24  27
ENDBRANCH  22  24
ENDBRANCH  21  22
ENDBRANCH  16  21
ENDBRANCH   7   8
ENDBRANCH   1   7
BRANCH   6  30
HETATM   30  C17 UNL     1     -16.863 -24.868 -12.731  1.00  0.00     0.170 C 
BRANCH  30  31
HETATM   31  O6  UNL     1     -16.150 -25.031 -11.650  1.00  0.00    -0.344 OA
ATOM     32  H6  UNL     1     -15.249 -24.734 -11.707  1.00  0.00     0.219 HD
ENDBRANCH  30  31
BRANCH  30  33
HETATM   33  N6  UNL     1     -16.673 -23.673 -13.453  1.00  0.00    -0.286 N 
ATOM     34  H6  UNL     1     -17.426 -22.992 -13.548  1.00  0.00     0.188 HD
BRANCH  33  35
HETATM   35  N7  UNL     1     -15.406 -23.445 -14.045  1.00  0.00    -0.343 N 
ATOM     36  H72 UNL     1     -14.720 -22.858 -13.570  1.00  0.00     0.176 HD
ATOM     37  H71 UNL     1     -15.211 -23.881 -14.945  1.00  0.00     0.176 HD
ENDBRANCH  33  35
ENDBRANCH  30  33
ENDBRANCH   6  30
BRANCH   3  38
HETATM   38  O3  UNL     1     -20.220 -29.102 -14.120  1.00  0.00    -0.358 OA
ATOM     39  H3  UNL     1     -20.467 -29.766 -13.488  1.00  0.00     0.217 HD
ENDBRANCH   3  38
BRANCH   5  40
HETATM   40  N5  UNL     1     -18.746 -26.050 -10.799  1.00  0.00    -0.362 N 
HETATM   41  C9  UNL     1     -18.314 -26.749  -9.806  1.00  0.00     0.100 C 
ATOM     42  H5  UNL     1     -19.189 -25.151 -10.612  1.00  0.00     0.165 HD
BRANCH  41  43
HETATM   43  C10 UNL     1     -18.453 -26.264  -8.424  1.00  0.00    -0.021 A 
HETATM   44  C11 UNL     1     -18.367 -27.195  -7.387  1.00  0.00     0.015 A 
HETATM   45  C12 UNL     1     -18.495 -26.797  -6.088  1.00  0.00     0.037 A 
HETATM   46  C13 UNL     1     -18.710 -25.476  -5.758  1.00  0.00     0.065 A 
HETATM   47  C14 UNL     1     -18.793 -24.562  -6.784  1.00  0.00     0.037 A 
HETATM   48  C15 UNL     1     -18.665 -24.961  -8.101  1.00  0.00     0.015 A 
BRANCH  46  49
HETATM   49  O5  UNL     1     -18.841 -25.064  -4.454  1.00  0.00    -0.361 OA
ATOM     50  H5  UNL     1     -18.244 -24.439  -4.061  1.00  0.00     0.217 HD
ENDBRANCH  46  49
ENDBRANCH  41  43
ENDBRANCH   5  40
BRANCH   4  51
HETATM   51  O4  UNL     1     -20.349 -28.086 -11.542  1.00  0.00    -0.356 OA
ATOM     52  H4  UNL     1     -21.227 -28.359 -11.782  1.00  0.00     0.218 HD
ENDBRANCH   4  51
TORSDOF 18
ENDMDL
MODEL 4
REMARK VINA RESULT: -7.860196157      3.232      5.728
REMARK  18 active torsions:
REMARK  status: ('A' for Active; 'I' for Inactive)
REMARK    1  A    between atoms: N2_5  and  N3_6 
REMARK    2  A    between atoms: N4_10  and  O2_11 
REMARK    3  A    between atoms: O2_11  and  C4_12 
REMARK    4  A    between atoms: C6_14  and  O3_15 
REMARK    5  A    between atoms: C7_17  and  O4_18 
REMARK    6  A    between atoms: C8_20  and  N5_21 
REMARK    7  A    between atoms: C9_23  and  C10_24 
REMARK    8  A    between atoms: C13_27  and  O5_28 
REMARK    9  A    between atoms: C16_32  and  C17_33 
REMARK   10  A    between atoms: C17_33  and  O6_34 
REMARK   11  A    between atoms: C17_33  and  N6_36 
REMARK   12  A    between atoms: N6_36  and  N7_38 
REMARK   13  A    between atoms: N8_42  and  O7_44 
REMARK   14  A    between atoms: O7_44  and  C19_45 
REMARK   15  A    between atoms: C19_45  and  C20_47 
REMARK   16  A    between atoms: C20_47  and  O9_48 
REMARK   17  A    between atoms: C20_47  and  C21_50 
REMARK   18  A    between atoms: C21_50  and  O10_51 
ROOT
HETATM    1  C4  UNL     1     -19.125 -26.274 -13.115  1.00  0.00     0.119 A 
HETATM    2  C5  UNL     1     -20.386 -26.789 -13.291  1.00  0.00     0.080 A 
HETATM    3  C6  UNL     1     -21.178 -27.207 -12.252  1.00  0.00     0.103 A 
HETATM    4  C7  UNL     1     -20.713 -27.117 -10.970  1.00  0.00     0.127 A 
HETATM    5  C8  UNL     1     -19.433 -26.599 -10.737  1.00  0.00     0.086 A 
HETATM    6  C16 UNL     1     -18.660 -26.188 -11.784  1.00  0.00     0.082 A 
ENDROOT
BRANCH   1   7
HETATM    7  O2  UNL     1     -18.326 -25.856 -14.151  1.00  0.00    -0.219 OA
BRANCH   7   8
HETATM    8  N4  UNL     1     -17.867 -26.651 -15.161  1.00  0.00    -0.060 N 
HETATM    9  C3  UNL     1     -18.519 -26.602 -16.441  1.00  0.00     0.329 C 
HETATM   10  N2  UNL     1     -18.483 -27.876 -17.106  1.00  0.00    -0.227 N 
HETATM   11  C2  UNL     1     -17.373 -28.731 -16.930  1.00  0.00     0.358 C 
HETATM   12  N1  UNL     1     -16.479 -28.556 -15.836  1.00  0.00    -0.132 N 
HETATM   13  O1  UNL     1     -17.208 -29.654 -17.777  1.00  0.00    -0.244 OA
HETATM   14  C1  UNL     1     -15.360 -29.469 -15.756  1.00  0.00     0.180 C 
HETATM   15  C18 UNL     1     -16.723 -27.502 -14.926  1.00  0.00     0.732 C 
HETATM   16  N8  UNL     1     -15.981 -27.300 -13.911  1.00  0.00    -0.086 N 
ATOM     17  H8  UNL     1     -16.256 -26.507 -13.333  1.00  0.00     0.214 HD
BRANCH  10  18
HETATM   18  N3  UNL     1     -19.572 -28.277 -17.948  1.00  0.00    -0.337 N 
ATOM     19  H32 UNL     1     -19.386 -28.657 -18.877  1.00  0.00     0.177 HD
ATOM     20  H31 UNL     1     -20.533 -28.186 -17.619  1.00  0.00     0.177 HD
ENDBRANCH  10  18
BRANCH  16  21
HETATM   21  O7  UNL     1     -14.899 -27.957 -13.478  1.00  0.00    -0.182 OA
BRANCH  21  22
HETATM   22  C19 UNL     1     -13.762 -27.387 -12.936  1.00  0.00     0.312 C 
HETATM   23  O8  UNL     1     -13.826 -26.158 -12.617  1.00  0.00    -0.260 OA
BRANCH  22  24
HETATM   24  C20 UNL     1     -12.495 -28.090 -12.702  1.00  0.00     0.243 C 
BRANCH  24  25
HETATM   25  O9  UNL     1     -12.074 -28.822 -13.789  1.00  0.00    -0.383 OA
ATOM     26  H9  UNL     1     -11.399 -29.455 -13.573  1.00  0.00     0.210 HD
ENDBRANCH  24  25
BRANCH  24  27
HETATM   27  C21 UNL     1     -12.492 -28.986 -11.496  1.00  0.00     0.206 C 
BRANCH  27  28
HETATM   28  O10 UNL     1     -13.631 -28.862 -10.716  1.00  0.00    -0.398 OA
ATOM     29  H10 UNL     1     -13.900 -29.678 -10.310  1.00  0.00     0.209 HD
ENDBRANCH  27  28
ENDBRANCH  24  27
ENDBRANCH  22  24
ENDBRANCH  21  22
ENDBRANCH  16  21
ENDBRANCH   7   8
ENDBRANCH   1   7
BRANCH   6  30
HETATM   30  C17 UNL     1     -17.326 -25.666 -11.611  1.00  0.00     0.170 C 
BRANCH  30  31
HETATM   31  O6  UNL     1     -16.426 -26.539 -11.246  1.00  0.00    -0.344 OA
ATOM     32  H6  UNL     1     -15.866 -26.270 -10.527  1.00  0.00     0.219 HD
ENDBRANCH  30  31
BRANCH  30  33
HETATM   33  N6  UNL     1     -16.895 -24.337 -11.795  1.00  0.00    -0.286 N 
ATOM     34  H6  UNL     1     -17.195 -23.596 -11.163  1.00  0.00     0.188 HD
BRANCH  33  35
HETATM   35  N7  UNL     1     -16.032 -24.060 -12.885  1.00  0.00    -0.343 N 
ATOM     36  H72 UNL     1     -15.206 -24.637 -13.041  1.00  0.00     0.176 HD
ATOM     37  H71 UNL     1     -16.265 -23.276 -13.494  1.00  0.00     0.176 HD
ENDBRANCH  33  35
ENDBRANCH  30  33
ENDBRANCH   6  30
BRANCH   3  38
HETATM   38  O3  UNL     1     -22.441 -27.719 -12.476  1.00  0.00    -0.358 OA
ATOM     39  H3  UNL     1     -22.568 -28.628 -12.720  1.00  0.00     0.217 HD
ENDBRANCH   3  38
BRANCH   5  40
HETATM   40  N5  UNL     1     -19.029 -26.567  -9.385  1.00  0.00    -0.362 N 
HETATM   41  C9  UNL     1     -19.133 -25.508  -8.658  1.00  0.00     0.100 C 
ATOM     42  H5  UNL     1     -18.641 -27.413  -8.968  1.00  0.00     0.165 HD
BRANCH  41  43
HETATM   43  C10 UNL     1     -18.703 -25.512  -7.251  1.00  0.00    -0.021 A 
HETATM   44  C11 UNL     1     -18.931 -24.364  -6.489  1.00  0.00     0.015 A 
HETATM   45  C12 UNL     1     -18.547 -24.315  -5.180  1.00  0.00     0.037 A 
HETATM   46  C13 UNL     1     -17.928 -25.385  -4.572  1.00  0.00     0.065 A 
HETATM   47  C14 UNL     1     -17.705 -26.515  -5.328  1.00  0.00     0.037 A 
HETATM   48  C15 UNL     1     -18.093 -26.568  -6.653  1.00  0.00     0.015 A 
BRANCH  46  49
HETATM   49  O5  UNL     1     -17.535 -25.347  -3.256  1.00  0.00    -0.361 OA
ATOM     50  H5  UNL     1     -16.650 -25.113  -3.002  1.00  0.00     0.217 HD
ENDBRANCH  46  49
ENDBRANCH  41  43
ENDBRANCH   5  40
BRANCH   4  51
HETATM   51  O4  UNL     1     -21.497 -27.536  -9.874  1.00  0.00    -0.356 OA
ATOM     52  H4  UNL     1     -21.225 -27.368  -8.979  1.00  0.00     0.218 HD
ENDBRANCH   4  51
TORSDOF 18
ENDMDL
MODEL 5
REMARK VINA RESULT: -7.852438117      2.452      4.261
REMARK  18 active torsions:
REMARK  status: ('A' for Active; 'I' for Inactive)
REMARK    1  A    between atoms: N2_5  and  N3_6 
REMARK    2  A    between atoms: N4_10  and  O2_11 
REMARK    3  A    between atoms: O2_11  and  C4_12 
REMARK    4  A    between atoms: C6_14  and  O3_15 
REMARK    5  A    between atoms: C7_17  and  O4_18 
REMARK    6  A    between atoms: C8_20  and  N5_21 
REMARK    7  A    between atoms: C9_23  and  C10_24 
REMARK    8  A    between atoms: C13_27  and  O5_28 
REMARK    9  A    between atoms: C16_32  and  C17_33 
REMARK   10  A    between atoms: C17_33  and  O6_34 
REMARK   11  A    between atoms: C17_33  and  N6_36 
REMARK   12  A    between atoms: N6_36  and  N7_38 
REMARK   13  A    between atoms: N8_42  and  O7_44 
REMARK   14  A    between atoms: O7_44  and  C19_45 
REMARK   15  A    between atoms: C19_45  and  C20_47 
REMARK   16  A    between atoms: C20_47  and  O9_48 
REMARK   17  A    between atoms: C20_47  and  C21_50 
REMARK   18  A    between atoms: C21_50  and  O10_51 
ROOT
HETATM    1  C4  UNL     1     -19.417 -26.506 -12.775  1.00  0.00     0.119 A 
HETATM    2  C5  UNL     1     -20.702 -26.990 -12.813  1.00  0.00     0.080 A 
HETATM    3  C6  UNL     1     -21.409 -27.328 -11.688  1.00  0.00     0.103 A 
HETATM    4  C7  UNL     1     -20.831 -27.187 -10.459  1.00  0.00     0.127 A 
HETATM    5  C8  UNL     1     -19.522 -26.698 -10.365  1.00  0.00     0.086 A 
HETATM    6  C16 UNL     1     -18.834 -26.366 -11.496  1.00  0.00     0.082 A 
ENDROOT
BRANCH   1   7
HETATM    7  O2  UNL     1     -18.702 -26.167 -13.898  1.00  0.00    -0.219 OA
BRANCH   7   8
HETATM    8  N4  UNL     1     -18.280 -27.042 -14.856  1.00  0.00    -0.060 N 
HETATM    9  C3  UNL     1     -17.718 -28.303 -14.452  1.00  0.00     0.329 C 
HETATM   10  N2  UNL     1     -16.708 -28.754 -15.370  1.00  0.00    -0.227 N 
HETATM   11  C2  UNL     1     -16.825 -28.461 -16.746  1.00  0.00     0.358 C 
HETATM   12  N1  UNL     1     -17.688 -27.424 -17.204  1.00  0.00    -0.132 N 
HETATM   13  O1  UNL     1     -16.137 -29.151 -17.550  1.00  0.00    -0.244 OA
HETATM   14  C1  UNL     1     -17.755 -27.216 -18.634  1.00  0.00     0.180 C 
HETATM   15  C18 UNL     1     -18.431 -26.692 -16.249  1.00  0.00     0.732 C 
HETATM   16  N8  UNL     1     -19.201 -25.735 -16.583  1.00  0.00    -0.086 N 
ATOM     17  H8  UNL     1     -19.686 -25.288 -15.805  1.00  0.00     0.214 HD
BRANCH  10  18
HETATM   18  N3  UNL     1     -15.584 -29.503 -14.890  1.00  0.00    -0.337 N 
ATOM     19  H32 UNL     1     -15.519 -30.504 -15.077  1.00  0.00     0.177 HD
ATOM     20  H31 UNL     1     -14.847 -29.036 -14.361  1.00  0.00     0.177 HD
ENDBRANCH  10  18
BRANCH  16  21
HETATM   21  O7  UNL     1     -19.481 -25.220 -17.785  1.00  0.00    -0.182 OA
BRANCH  21  22
HETATM   22  C19 UNL     1     -19.632 -23.877 -18.081  1.00  0.00     0.312 C 
HETATM   23  O8  UNL     1     -20.110 -23.586 -19.222  1.00  0.00    -0.260 OA
BRANCH  22  24
HETATM   24  C20 UNL     1     -19.286 -22.771 -17.181  1.00  0.00     0.243 C 
BRANCH  24  25
HETATM   25  O9  UNL     1     -19.955 -22.823 -15.979  1.00  0.00    -0.383 OA
ATOM     26  H9  UNL     1     -19.818 -22.051 -15.443  1.00  0.00     0.210 HD
ENDBRANCH  24  25
BRANCH  24  27
HETATM   27  C21 UNL     1     -19.478 -21.403 -17.771  1.00  0.00     0.206 C 
BRANCH  27  28
HETATM   28  O10 UNL     1     -18.485 -21.048 -18.671  1.00  0.00    -0.398 OA
ATOM     29  H10 UNL     1     -18.790 -21.001 -19.570  1.00  0.00     0.209 HD
ENDBRANCH  27  28
ENDBRANCH  24  27
ENDBRANCH  22  24
ENDBRANCH  21  22
ENDBRANCH  16  21
ENDBRANCH   7   8
ENDBRANCH   1   7
BRANCH   6  30
HETATM   30  C17 UNL     1     -17.476 -25.877 -11.468  1.00  0.00     0.170 C 
BRANCH  30  31
HETATM   31  O6  UNL     1     -16.551 -26.797 -11.436  1.00  0.00    -0.344 OA
ATOM     32  H6  UNL     1     -16.301 -27.094 -10.568  1.00  0.00     0.219 HD
ENDBRANCH  30  31
BRANCH  30  33
HETATM   33  N6  UNL     1     -17.049 -24.534 -11.476  1.00  0.00    -0.286 N 
ATOM     34  H6  UNL     1     -16.920 -24.019 -10.605  1.00  0.00     0.188 HD
BRANCH  33  35
HETATM   35  N7  UNL     1     -16.802 -23.919 -12.728  1.00  0.00    -0.343 N 
ATOM     36  H72 UNL     1     -16.459 -22.959 -12.767  1.00  0.00     0.176 HD
ATOM     37  H71 UNL     1     -16.976 -24.463 -13.573  1.00  0.00     0.176 HD
ENDBRANCH  33  35
ENDBRANCH  30  33
ENDBRANCH   6  30
BRANCH   3  38
HETATM   38  O3  UNL     1     -22.700 -27.812 -11.773  1.00  0.00    -0.358 OA
ATOM     39  H3  UNL     1     -23.261 -27.856 -11.008  1.00  0.00     0.217 HD
ENDBRANCH   3  38
BRANCH   5  40
HETATM   40  N5  UNL     1     -19.000 -26.608  -9.057  1.00  0.00    -0.362 N 
HETATM   41  C9  UNL     1     -19.208 -25.587  -8.299  1.00  0.00     0.100 C 
ATOM     42  H5  UNL     1     -18.437 -27.380  -8.698  1.00  0.00     0.165 HD
BRANCH  41  43
HETATM   43  C10 UNL     1     -18.649 -25.529  -6.940  1.00  0.00    -0.021 A 
HETATM   44  C11 UNL     1     -18.968 -24.427  -6.142  1.00  0.00     0.015 A 
HETATM   45  C12 UNL     1     -18.470 -24.323  -4.875  1.00  0.00     0.037 A 
HETATM   46  C13 UNL     1     -17.646 -25.292  -4.345  1.00  0.00     0.065 A 
HETATM   47  C14 UNL     1     -17.335 -26.377  -5.134  1.00  0.00     0.037 A 
HETATM   48  C15 UNL     1     -17.837 -26.485  -6.417  1.00  0.00     0.015 A 
BRANCH  46  49
HETATM   49  O5  UNL     1     -17.139 -25.198  -3.072  1.00  0.00    -0.361 OA
ATOM     50  H5  UNL     1     -16.580 -25.871  -2.702  1.00  0.00     0.217 HD
ENDBRANCH  46  49
ENDBRANCH  41  43
ENDBRANCH   5  40
BRANCH   4  51
HETATM   51  O4  UNL     1     -21.526 -27.525  -9.277  1.00  0.00    -0.356 OA
ATOM     52  H4  UNL     1     -22.472 -27.618  -9.270  1.00  0.00     0.218 HD
ENDBRANCH   4  51
TORSDOF 18
ENDMDL
