MODEL 1
REMARK VINA RESULT: -8.987140087      0.000      0.000
REMARK  15 active torsions:
REMARK  status: ('A' for Active; 'I' for Inactive)
REMARK    1  A    between atoms: C2_2  and  O1_3 
REMARK    2  A    between atoms: O1_3  and  C3_4 
REMARK    3  A    between atoms: C3_4  and  C4_6 
REMARK    4  A    between atoms: C9_11  and  O3_12 
REMARK    5  A    between atoms: C11_17  and  O6_18 
REMARK    6  A    between atoms: C11_17  and  C12_20 
REMARK    7  A    between atoms: C12_20  and  N2_24 
REMARK    8  A    between atoms: N2_24  and  N3_26 
REMARK       I    between atoms: N3_26  and  C13_28 
REMARK    9  A    between atoms: C13_28  and  C14_30 
REMARK   10  A    between atoms: C16_34  and  C17_35 
REMARK   11  A    between atoms: C17_35  and  N5_36 
REMARK   12  A    between atoms: N5_36  and  N6_37 
REMARK       I    between atoms: N6_37  and  C18_39 
REMARK   13  A    between atoms: C18_39  and  C19_41 
REMARK   14  A    between atoms: C19_41  and  N7_42 
REMARK   15  A    between atoms: C19_41  and  C20_46 
ROOT
HETATM    1  N2  UNL     1     -17.149 -26.782 -14.754  1.00  0.00    -0.283 N 
ATOM      2  H2  UNL     1     -17.820 -27.154 -15.426  1.00  0.00     0.188 HD
ENDROOT
BRANCH   1   3
HETATM    3  C12 UNL     1     -15.976 -26.188 -15.222  1.00  0.00     0.140 C 
HETATM    4  N1  UNL     1     -15.179 -26.827 -16.015  1.00  0.00    -0.385 N 
ATOM      5  H12 UNL     1     -14.321 -26.393 -16.357  1.00  0.00     0.157 HD
ATOM      6  H11 UNL     1     -15.450 -27.777 -16.269  1.00  0.00     0.157 HD
BRANCH   3   7
HETATM    7  C11 UNL     1     -15.577 -24.787 -14.849  1.00  0.00     0.236 A 
HETATM    8  C6  UNL     1     -16.641 -23.888 -15.331  1.00  0.00     0.029 A 
HETATM    9  C5  UNL     1     -17.075 -23.550 -16.615  1.00  0.00     0.034 A 
HETATM   10  C7  UNL     1     -17.286 -23.357 -14.246  1.00  0.00     0.092 A 
HETATM   11  C4  UNL     1     -18.126 -22.706 -16.868  1.00  0.00     0.073 A 
HETATM   12  C9  UNL     1     -18.775 -22.175 -15.763  1.00  0.00     0.084 A 
HETATM   13  C8  UNL     1     -18.364 -22.494 -14.489  1.00  0.00     0.075 A 
HETATM   14  O4  UNL     1     -16.691 -23.816 -13.087  1.00  0.00    -0.275 OA
HETATM   15  C10 UNL     1     -15.637 -24.656 -13.383  1.00  0.00     0.312 A 
HETATM   16  O5  UNL     1     -14.860 -25.216 -12.550  1.00  0.00    -0.260 OA
BRANCH  11  17
HETATM   17  C3  UNL     1     -18.534 -22.387 -18.243  1.00  0.00     0.296 C 
HETATM   18  O2  UNL     1     -18.312 -21.225 -18.674  1.00  0.00    -0.259 OA
BRANCH  17  19
HETATM   19  O1  UNL     1     -19.140 -23.287 -19.069  1.00  0.00    -0.318 OA
BRANCH  19  20
HETATM   20  C2  UNL     1     -20.474 -23.715 -19.039  1.00  0.00     0.174 C 
HETATM   21  C1  UNL     1     -21.428 -22.623 -19.409  1.00  0.00     0.034 C 
ENDBRANCH  19  20
ENDBRANCH  17  19
ENDBRANCH  11  17
BRANCH  12  22
HETATM   22  O3  UNL     1     -19.852 -21.312 -15.990  1.00  0.00    -0.360 OA
ATOM     23  H3  UNL     1     -19.749 -20.398 -15.749  1.00  0.00     0.217 HD
ENDBRANCH  12  22
BRANCH   7  24
HETATM   24  O6  UNL     1     -14.378 -24.441 -15.421  1.00  0.00    -0.369 OA
ATOM     25  H6  UNL     1     -13.931 -25.220 -15.732  1.00  0.00     0.212 HD
ENDBRANCH   7  24
ENDBRANCH   3   7
ENDBRANCH   1   3
BRANCH   1  26
HETATM   26  N3  UNL     1     -17.427 -26.880 -13.389  1.00  0.00    -0.264 N 
HETATM   27  C13 UNL     1     -18.725 -26.544 -12.956  1.00  0.00     0.278 C 
HETATM   28  O7  UNL     1     -19.584 -26.170 -13.787  1.00  0.00    -0.265 OA
ATOM     29  H3  UNL     1     -16.714 -27.185 -12.727  1.00  0.00     0.190 HD
BRANCH  27  30
HETATM   30  C14 UNL     1     -19.081 -26.623 -11.546  1.00  0.00     0.091 A 
HETATM   31  C15 UNL     1     -20.324 -26.936 -11.024  1.00  0.00     0.113 A 
HETATM   32  N4  UNL     1     -20.439 -26.959  -9.744  1.00  0.00    -0.357 N 
HETATM   33  C16 UNL     1     -19.392 -26.690  -8.959  1.00  0.00     0.106 A 
ATOM     34  H4  UNL     1     -21.339 -27.186  -9.323  1.00  0.00     0.166 HD
HETATM   35  S1  UNL     1     -18.179 -26.385 -10.114  1.00  0.00    -0.063 SA
BRANCH  33  36
HETATM   36  C17 UNL     1     -19.379 -26.696  -7.479  1.00  0.00     0.246 C 
BRANCH  36  37
HETATM   37  N5  UNL     1     -18.501 -26.550  -6.742  1.00  0.00    -0.333 NA
BRANCH  37  38
HETATM   38  N6  UNL     1     -17.484 -26.468  -5.916  1.00  0.00    -0.202 N 
HETATM   39  C18 UNL     1     -17.420 -25.660  -4.752  1.00  0.00     0.277 C 
HETATM   40  O8  UNL     1     -18.386 -24.954  -4.394  1.00  0.00    -0.269 OA
ATOM     41  H6  UNL     1     -16.665 -27.036  -6.131  1.00  0.00     0.205 HD
BRANCH  39  42
HETATM   42  C19 UNL     1     -16.177 -25.615  -3.889  1.00  0.00     0.276 C 
BRANCH  42  43
HETATM   43  N7  UNL     1     -15.351 -26.776  -4.294  1.00  0.00    -0.066 N 
ATOM     44  H73 UNL     1     -15.783 -27.347  -5.020  1.00  0.00     0.275 HD
ATOM     45  H72 UNL     1     -14.516 -26.517  -4.819  1.00  0.00     0.275 HD
ATOM     46  H71 UNL     1     -15.149 -27.293  -3.438  1.00  0.00     0.275 HD
ENDBRANCH  42  43
BRANCH  42  47
HETATM   47  C20 UNL     1     -16.549 -25.879  -2.424  1.00  0.00     0.038 C 
HETATM   48  C21 UNL     1     -15.589 -26.718  -1.668  1.00  0.00     0.007 C 
ENDBRANCH  42  47
ENDBRANCH  39  42
ENDBRANCH  37  38
ENDBRANCH  36  37
ENDBRANCH  33  36
ENDBRANCH  27  30
ENDBRANCH   1  26
TORSDOF 15
ENDMDL
MODEL 2
REMARK VINA RESULT: -8.972317249      3.252      6.144
REMARK  15 active torsions:
REMARK  status: ('A' for Active; 'I' for Inactive)
REMARK    1  A    between atoms: C2_2  and  O1_3 
REMARK    2  A    between atoms: O1_3  and  C3_4 
REMARK    3  A    between atoms: C3_4  and  C4_6 
REMARK    4  A    between atoms: C9_11  and  O3_12 
REMARK    5  A    between atoms: C11_17  and  O6_18 
REMARK    6  A    between atoms: C11_17  and  C12_20 
REMARK    7  A    between atoms: C12_20  and  N2_24 
REMARK    8  A    between atoms: N2_24  and  N3_26 
REMARK       I    between atoms: N3_26  and  C13_28 
REMARK    9  A    between atoms: C13_28  and  C14_30 
REMARK   10  A    between atoms: C16_34  and  C17_35 
REMARK   11  A    between atoms: C17_35  and  N5_36 
REMARK   12  A    between atoms: N5_36  and  N6_37 
REMARK       I    between atoms: N6_37  and  C18_39 
REMARK   13  A    between atoms: C18_39  and  C19_41 
REMARK   14  A    between atoms: C19_41  and  N7_42 
REMARK   15  A    between atoms: C19_41  and  C20_46 
ROOT
HETATM    1  N2  UNL     1     -16.972 -24.645 -12.159  1.00  0.00    -0.283 N 
ATOM      2  H2  UNL     1     -17.652 -24.955 -12.854  1.00  0.00     0.188 HD
ENDROOT
BRANCH   1   3
HETATM    3  C12 UNL     1     -15.699 -24.257 -12.578  1.00  0.00     0.140 C 
HETATM    4  N1  UNL     1     -14.968 -23.477 -11.849  1.00  0.00    -0.385 N 
ATOM      5  H12 UNL     1     -14.037 -23.193 -12.155  1.00  0.00     0.157 HD
ATOM      6  H11 UNL     1     -15.374 -23.162 -10.967  1.00  0.00     0.157 HD
BRANCH   3   7
HETATM    7  C11 UNL     1     -15.102 -24.721 -13.877  1.00  0.00     0.236 A 
HETATM    8  C6  UNL     1     -14.737 -26.139 -13.707  1.00  0.00     0.029 A 
HETATM    9  C5  UNL     1     -13.786 -26.775 -12.905  1.00  0.00     0.034 A 
HETATM   10  C7  UNL     1     -15.558 -26.898 -14.498  1.00  0.00     0.092 A 
HETATM   11  C4  UNL     1     -13.616 -28.135 -12.855  1.00  0.00     0.073 A 
HETATM   12  C9  UNL     1     -14.453 -28.895 -13.658  1.00  0.00     0.084 A 
HETATM   13  C8  UNL     1     -15.396 -28.290 -14.456  1.00  0.00     0.075 A 
HETATM   14  O4  UNL     1     -16.407 -26.069 -15.207  1.00  0.00    -0.275 OA
HETATM   15  C10 UNL     1     -16.162 -24.747 -14.900  1.00  0.00     0.312 A 
HETATM   16  O5  UNL     1     -16.740 -23.735 -15.402  1.00  0.00    -0.260 OA
BRANCH  11  17
HETATM   17  C3  UNL     1     -12.596 -28.744 -11.991  1.00  0.00     0.296 C 
HETATM   18  O2  UNL     1     -12.139 -28.061 -11.037  1.00  0.00    -0.259 OA
BRANCH  17  19
HETATM   19  O1  UNL     1     -12.122 -30.011 -12.174  1.00  0.00    -0.318 OA
BRANCH  19  20
HETATM   20  C2  UNL     1     -11.777 -30.947 -11.190  1.00  0.00     0.174 C 
HETATM   21  C1  UNL     1     -12.958 -31.741 -10.726  1.00  0.00     0.034 C 
ENDBRANCH  19  20
ENDBRANCH  17  19
ENDBRANCH  11  17
BRANCH  12  22
HETATM   22  O3  UNL     1     -14.303 -30.285 -13.627  1.00  0.00    -0.360 OA
ATOM     23  H3  UNL     1     -14.762 -30.767 -12.948  1.00  0.00     0.217 HD
ENDBRANCH  12  22
BRANCH   7  24
HETATM   24  O6  UNL     1     -13.988 -23.989 -14.204  1.00  0.00    -0.369 OA
ATOM     25  H6  UNL     1     -14.246 -23.133 -14.526  1.00  0.00     0.212 HD
ENDBRANCH   7  24
ENDBRANCH   3   7
ENDBRANCH   1   3
BRANCH   1  26
HETATM   26  N3  UNL     1     -17.341 -24.619 -10.812  1.00  0.00    -0.264 N 
HETATM   27  C13 UNL     1     -17.937 -25.776 -10.271  1.00  0.00     0.278 C 
HETATM   28  O7  UNL     1     -18.121 -26.781 -10.995  1.00  0.00    -0.265 OA
ATOM     29  H3  UNL     1     -17.184 -23.791 -10.238  1.00  0.00     0.190 HD
BRANCH  27  30
HETATM   30  C14 UNL     1     -18.347 -25.816  -8.874  1.00  0.00     0.091 A 
HETATM   31  C15 UNL     1     -19.015 -26.848  -8.238  1.00  0.00     0.113 A 
HETATM   32  N4  UNL     1     -19.287 -26.696  -6.991  1.00  0.00    -0.357 N 
HETATM   33  C16 UNL     1     -18.933 -25.581  -6.345  1.00  0.00     0.106 A 
ATOM     34  H4  UNL     1     -19.778 -27.435  -6.489  1.00  0.00     0.166 HD
HETATM   35  S1  UNL     1     -18.174 -24.702  -7.589  1.00  0.00    -0.063 SA
BRANCH  33  36
HETATM   36  C17 UNL     1     -19.168 -25.283  -4.915  1.00  0.00     0.246 C 
BRANCH  36  37
HETATM   37  N5  UNL     1     -18.486 -25.451  -3.997  1.00  0.00    -0.333 NA
BRANCH  37  38
HETATM   38  N6  UNL     1     -17.740 -25.724  -2.952  1.00  0.00    -0.202 N 
HETATM   39  C18 UNL     1     -16.412 -26.221  -2.985  1.00  0.00     0.277 C 
HETATM   40  O8  UNL     1     -15.815 -26.419  -4.064  1.00  0.00    -0.269 OA
ATOM     41  H6  UNL     1     -18.153 -25.564  -2.034  1.00  0.00     0.205 HD
BRANCH  39  42
HETATM   42  C19 UNL     1     -15.656 -26.537  -1.712  1.00  0.00     0.276 C 
BRANCH  42  43
HETATM   43  N7  UNL     1     -14.431 -25.704  -1.742  1.00  0.00    -0.066 N 
ATOM     44  H73 UNL     1     -14.619 -24.704  -1.673  1.00  0.00     0.275 HD
ATOM     45  H72 UNL     1     -13.866 -25.783  -0.897  1.00  0.00     0.275 HD
ATOM     46  H71 UNL     1     -13.930 -25.966  -2.591  1.00  0.00     0.275 HD
ENDBRANCH  42  43
BRANCH  42  47
HETATM   47  C20 UNL     1     -15.155 -27.987  -1.749  1.00  0.00     0.038 C 
HETATM   48  C21 UNL     1     -16.188 -29.006  -2.049  1.00  0.00     0.007 C 
ENDBRANCH  42  47
ENDBRANCH  39  42
ENDBRANCH  37  38
ENDBRANCH  36  37
ENDBRANCH  33  36
ENDBRANCH  27  30
ENDBRANCH   1  26
TORSDOF 15
ENDMDL
MODEL 3
REMARK VINA RESULT: -8.901096973      0.912      1.098
REMARK  15 active torsions:
REMARK  status: ('A' for Active; 'I' for Inactive)
REMARK    1  A    between atoms: C2_2  and  O1_3 
REMARK    2  A    between atoms: O1_3  and  C3_4 
REMARK    3  A    between atoms: C3_4  and  C4_6 
REMARK    4  A    between atoms: C9_11  and  O3_12 
REMARK    5  A    between atoms: C11_17  and  O6_18 
REMARK    6  A    between atoms: C11_17  and  C12_20 
REMARK    7  A    between atoms: C12_20  and  N2_24 
REMARK    8  A    between atoms: N2_24  and  N3_26 
REMARK       I    between atoms: N3_26  and  C13_28 
REMARK    9  A    between atoms: C13_28  and  C14_30 
REMARK   10  A    between atoms: C16_34  and  C17_35 
REMARK   11  A    between atoms: C17_35  and  N5_36 
REMARK   12  A    between atoms: N5_36  and  N6_37 
REMARK       I    between atoms: N6_37  and  C18_39 
REMARK   13  A    between atoms: C18_39  and  C19_41 
REMARK   14  A    between atoms: C19_41  and  N7_42 
REMARK   15  A    between atoms: C19_41  and  C20_46 
ROOT
HETATM    1  N2  UNL     1     -17.074 -26.948 -14.937  1.00  0.00    -0.283 N 
ATOM      2  H2  UNL     1     -17.789 -27.172 -15.631  1.00  0.00     0.188 HD
ENDROOT
BRANCH   1   3
HETATM    3  C12 UNL     1     -15.812 -26.538 -15.369  1.00  0.00     0.140 C 
HETATM    4  N1  UNL     1     -14.898 -27.404 -15.668  1.00  0.00    -0.385 N 
ATOM      5  H12 UNL     1     -13.975 -27.105 -15.983  1.00  0.00     0.157 HD
ATOM      6  H11 UNL     1     -15.149 -28.388 -15.564  1.00  0.00     0.157 HD
BRANCH   3   7
HETATM    7  C11 UNL     1     -15.443 -25.089 -15.522  1.00  0.00     0.236 A 
HETATM    8  C6  UNL     1     -16.700 -24.333 -15.667  1.00  0.00     0.029 A 
HETATM    9  C5  UNL     1     -17.675 -24.314 -16.667  1.00  0.00     0.034 A 
HETATM   10  C7  UNL     1     -16.872 -23.557 -14.551  1.00  0.00     0.092 A 
HETATM   11  C4  UNL     1     -18.817 -23.557 -16.606  1.00  0.00     0.073 A 
HETATM   12  C9  UNL     1     -18.984 -22.776 -15.472  1.00  0.00     0.084 A 
HETATM   13  C8  UNL     1     -18.036 -22.779 -14.474  1.00  0.00     0.075 A 
HETATM   14  O4  UNL     1     -15.793 -23.723 -13.705  1.00  0.00    -0.275 OA
HETATM   15  C10 UNL     1     -14.884 -24.609 -14.246  1.00  0.00     0.312 A 
HETATM   16  O5  UNL     1     -13.770 -24.951 -13.743  1.00  0.00    -0.260 OA
BRANCH  11  17
HETATM   17  C3  UNL     1     -19.806 -23.578 -17.692  1.00  0.00     0.296 C 
HETATM   18  O2  UNL     1     -20.021 -24.672 -18.277  1.00  0.00    -0.259 OA
BRANCH  17  19
HETATM   19  O1  UNL     1     -20.497 -22.473 -18.095  1.00  0.00    -0.318 OA
BRANCH  19  20
HETATM   20  C2  UNL     1     -20.630 -21.974 -19.398  1.00  0.00     0.174 C 
HETATM   21  C1  UNL     1     -19.314 -21.883 -20.106  1.00  0.00     0.034 C 
ENDBRANCH  19  20
ENDBRANCH  17  19
ENDBRANCH  11  17
BRANCH  12  22
HETATM   22  O3  UNL     1     -20.140 -21.993 -15.381  1.00  0.00    -0.360 OA
ATOM     23  H3  UNL     1     -20.137 -21.266 -14.770  1.00  0.00     0.217 HD
ENDBRANCH  12  22
BRANCH   7  24
HETATM   24  O6  UNL     1     -14.649 -24.890 -16.624  1.00  0.00    -0.369 OA
ATOM     25  H6  UNL     1     -15.073 -25.246 -17.396  1.00  0.00     0.212 HD
ENDBRANCH   7  24
ENDBRANCH   3   7
ENDBRANCH   1   3
BRANCH   1  26
HETATM   26  N3  UNL     1     -17.385 -27.060 -13.580  1.00  0.00    -0.264 N 
HETATM   27  C13 UNL     1     -18.638 -26.583 -13.151  1.00  0.00     0.278 C 
HETATM   28  O7  UNL     1     -19.431 -26.076 -13.977  1.00  0.00    -0.265 OA
ATOM     29  H3  UNL     1     -16.725 -27.474 -12.922  1.00  0.00     0.190 HD
BRANCH  27  30
HETATM   30  C14 UNL     1     -19.025 -26.667 -11.748  1.00  0.00     0.091 A 
HETATM   31  C15 UNL     1     -20.289 -26.938 -11.255  1.00  0.00     0.113 A 
HETATM   32  N4  UNL     1     -20.429 -26.975  -9.978  1.00  0.00    -0.357 N 
HETATM   33  C16 UNL     1     -19.388 -26.759  -9.169  1.00  0.00     0.106 A 
ATOM     34  H4  UNL     1     -21.346 -27.172  -9.577  1.00  0.00     0.166 HD
HETATM   35  S1  UNL     1     -18.142 -26.486 -10.297  1.00  0.00    -0.063 SA
BRANCH  33  36
HETATM   36  C17 UNL     1     -19.403 -26.786  -7.690  1.00  0.00     0.246 C 
BRANCH  36  37
HETATM   37  N5  UNL     1     -18.556 -26.577  -6.932  1.00  0.00    -0.333 NA
BRANCH  37  38
HETATM   38  N6  UNL     1     -17.589 -26.424  -6.058  1.00  0.00    -0.202 N 
HETATM   39  C18 UNL     1     -17.596 -25.530  -4.957  1.00  0.00     0.277 C 
HETATM   40  O8  UNL     1     -18.583 -24.807  -4.709  1.00  0.00    -0.269 OA
ATOM     41  H6  UNL     1     -16.757 -27.000  -6.182  1.00  0.00     0.205 HD
BRANCH  39  42
HETATM   42  C19 UNL     1     -16.405 -25.410  -4.030  1.00  0.00     0.276 C 
BRANCH  42  43
HETATM   43  N7  UNL     1     -15.502 -26.533  -4.371  1.00  0.00    -0.066 N 
ATOM     44  H73 UNL     1     -15.890 -27.448  -4.146  1.00  0.00     0.275 HD
ATOM     45  H72 UNL     1     -15.401 -26.683  -5.374  1.00  0.00     0.275 HD
ATOM     46  H71 UNL     1     -14.618 -26.341  -3.899  1.00  0.00     0.275 HD
ENDBRANCH  42  43
BRANCH  42  47
HETATM   47  C20 UNL     1     -16.842 -25.673  -2.583  1.00  0.00     0.038 C 
HETATM   48  C21 UNL     1     -16.088 -26.735  -1.877  1.00  0.00     0.007 C 
ENDBRANCH  42  47
ENDBRANCH  39  42
ENDBRANCH  37  38
ENDBRANCH  36  37
ENDBRANCH  33  36
ENDBRANCH  27  30
ENDBRANCH   1  26
TORSDOF 15
ENDMDL
MODEL 4
REMARK VINA RESULT: -8.820149536      1.366      1.541
REMARK  15 active torsions:
REMARK  status: ('A' for Active; 'I' for Inactive)
REMARK    1  A    between atoms: C2_2  and  O1_3 
REMARK    2  A    between atoms: O1_3  and  C3_4 
REMARK    3  A    between atoms: C3_4  and  C4_6 
REMARK    4  A    between atoms: C9_11  and  O3_12 
REMARK    5  A    between atoms: C11_17  and  O6_18 
REMARK    6  A    between atoms: C11_17  and  C12_20 
REMARK    7  A    between atoms: C12_20  and  N2_24 
REMARK    8  A    between atoms: N2_24  and  N3_26 
REMARK       I    between atoms: N3_26  and  C13_28 
REMARK    9  A    between atoms: C13_28  and  C14_30 
REMARK   10  A    between atoms: C16_34  and  C17_35 
REMARK   11  A    between atoms: C17_35  and  N5_36 
REMARK   12  A    between atoms: N5_36  and  N6_37 
REMARK       I    between atoms: N6_37  and  C18_39 
REMARK   13  A    between atoms: C18_39  and  C19_41 
REMARK   14  A    between atoms: C19_41  and  N7_42 
REMARK   15  A    between atoms: C19_41  and  C20_46 
ROOT
HETATM    1  N2  UNL     1     -18.423 -27.185 -15.711  1.00  0.00    -0.283 N 
ATOM      2  H2  UNL     1     -19.368 -27.209 -16.095  1.00  0.00     0.188 HD
ENDROOT
BRANCH   1   3
HETATM    3  C12 UNL     1     -17.339 -27.054 -16.581  1.00  0.00     0.140 C 
HETATM    4  N1  UNL     1     -17.218 -27.825 -17.612  1.00  0.00    -0.385 N 
ATOM      5  H12 UNL     1     -16.426 -27.730 -18.248  1.00  0.00     0.157 HD
ATOM      6  H11 UNL     1     -17.945 -28.528 -17.746  1.00  0.00     0.157 HD
BRANCH   3   7
HETATM    7  C11 UNL     1     -16.268 -26.018 -16.384  1.00  0.00     0.236 A 
HETATM    8  C6  UNL     1     -16.943 -24.715 -16.242  1.00  0.00     0.029 A 
HETATM    9  C5  UNL     1     -17.692 -23.943 -17.133  1.00  0.00     0.034 A 
HETATM   10  C7  UNL     1     -16.773 -24.275 -14.956  1.00  0.00     0.092 A 
HETATM   11  C4  UNL     1     -18.283 -22.751 -16.801  1.00  0.00     0.073 A 
HETATM   12  C9  UNL     1     -18.107 -22.314 -15.496  1.00  0.00     0.084 A 
HETATM   13  C8  UNL     1     -17.373 -23.059 -14.601  1.00  0.00     0.075 A 
HETATM   14  O4  UNL     1     -15.999 -25.182 -14.258  1.00  0.00    -0.275 OA
HETATM   15  C10 UNL     1     -15.638 -26.237 -15.071  1.00  0.00     0.312 A 
HETATM   16  O5  UNL     1     -14.899 -27.219 -14.750  1.00  0.00    -0.260 OA
BRANCH  11  17
HETATM   17  C3  UNL     1     -19.058 -21.983 -17.784  1.00  0.00     0.296 C 
HETATM   18  O2  UNL     1     -18.505 -20.997 -18.338  1.00  0.00    -0.259 OA
BRANCH  17  19
HETATM   19  O1  UNL     1     -20.344 -22.288 -18.123  1.00  0.00    -0.318 OA
BRANCH  19  20
HETATM   20  C2  UNL     1     -21.011 -21.980 -19.317  1.00  0.00     0.174 C 
HETATM   21  C1  UNL     1     -22.082 -22.974 -19.639  1.00  0.00     0.034 C 
ENDBRANCH  19  20
ENDBRANCH  17  19
ENDBRANCH  11  17
BRANCH  12  22
HETATM   22  O3  UNL     1     -18.700 -21.102 -15.127  1.00  0.00    -0.360 OA
ATOM     23  H3  UNL     1     -18.362 -20.305 -15.518  1.00  0.00     0.217 HD
ENDBRANCH  12  22
BRANCH   7  24
HETATM   24  O6  UNL     1     -15.406 -25.983 -17.451  1.00  0.00    -0.369 OA
ATOM     25  H6  UNL     1     -15.715 -26.565 -18.136  1.00  0.00     0.212 HD
ENDBRANCH   7  24
ENDBRANCH   3   7
ENDBRANCH   1   3
BRANCH   1  26
HETATM   26  N3  UNL     1     -18.247 -27.284 -14.329  1.00  0.00    -0.264 N 
HETATM   27  C13 UNL     1     -19.077 -26.502 -13.503  1.00  0.00     0.278 C 
HETATM   28  O7  UNL     1     -19.937 -25.748 -14.013  1.00  0.00    -0.265 OA
ATOM     29  H3  UNL     1     -17.540 -27.902 -13.932  1.00  0.00     0.190 HD
BRANCH  27  30
HETATM   30  C14 UNL     1     -18.944 -26.556 -12.052  1.00  0.00     0.091 A 
HETATM   31  C15 UNL     1     -17.800 -26.300 -11.318  1.00  0.00     0.113 A 
HETATM   32  N4  UNL     1     -17.885 -26.396 -10.039  1.00  0.00    -0.357 N 
HETATM   33  C16 UNL     1     -19.039 -26.731  -9.454  1.00  0.00     0.106 A 
ATOM     34  H4  UNL     1     -17.063 -26.214  -9.464  1.00  0.00     0.166 HD
HETATM   35  S1  UNL     1     -20.055 -26.920 -10.806  1.00  0.00    -0.063 SA
BRANCH  33  36
HETATM   36  C17 UNL     1     -19.281 -26.861  -8.000  1.00  0.00     0.246 C 
BRANCH  36  37
HETATM   37  N5  UNL     1     -18.592 -26.616  -7.105  1.00  0.00    -0.333 NA
BRANCH  37  38
HETATM   38  N6  UNL     1     -17.765 -26.286  -6.141  1.00  0.00    -0.202 N 
HETATM   39  C18 UNL     1     -18.080 -25.490  -5.010  1.00  0.00     0.277 C 
HETATM   40  O8  UNL     1     -19.233 -25.048  -4.825  1.00  0.00    -0.269 OA
ATOM     41  H6  UNL     1     -16.808 -26.632  -6.212  1.00  0.00     0.205 HD
BRANCH  39  42
HETATM   42  C19 UNL     1     -17.033 -25.139  -3.975  1.00  0.00     0.276 C 
BRANCH  42  43
HETATM   43  N7  UNL     1     -15.724 -25.479  -4.580  1.00  0.00    -0.066 N 
ATOM     44  H73 UNL     1     -15.031 -25.789  -3.899  1.00  0.00     0.275 HD
ATOM     45  H72 UNL     1     -15.744 -26.334  -5.136  1.00  0.00     0.275 HD
ATOM     46  H71 UNL     1     -15.434 -24.657  -5.108  1.00  0.00     0.275 HD
ENDBRANCH  42  43
BRANCH  42  47
HETATM   47  C20 UNL     1     -17.167 -26.070  -2.762  1.00  0.00     0.038 C 
HETATM   48  C21 UNL     1     -15.896 -26.406  -2.079  1.00  0.00     0.007 C 
ENDBRANCH  42  47
ENDBRANCH  39  42
ENDBRANCH  37  38
ENDBRANCH  36  37
ENDBRANCH  33  36
ENDBRANCH  27  30
ENDBRANCH   1  26
TORSDOF 15
ENDMDL
MODEL 5
REMARK VINA RESULT: -8.673543175      4.227     11.802
REMARK  15 active torsions:
REMARK  status: ('A' for Active; 'I' for Inactive)
REMARK    1  A    between atoms: C2_2  and  O1_3 
REMARK    2  A    between atoms: O1_3  and  C3_4 
REMARK    3  A    between atoms: C3_4  and  C4_6 
REMARK    4  A    between atoms: C9_11  and  O3_12 
REMARK    5  A    between atoms: C11_17  and  O6_18 
REMARK    6  A    between atoms: C11_17  and  C12_20 
REMARK    7  A    between atoms: C12_20  and  N2_24 
REMARK    8  A    between atoms: N2_24  and  N3_26 
REMARK       I    between atoms: N3_26  and  C13_28 
REMARK    9  A    between atoms: C13_28  and  C14_30 
REMARK   10  A    between atoms: C16_34  and  C17_35 
REMARK   11  A    between atoms: C17_35  and  N5_36 
REMARK   12  A    between atoms: N5_36  and  N6_37 
REMARK       I    between atoms: N6_37  and  C18_39 
REMARK   13  A    between atoms: C18_39  and  C19_41 
REMARK   14  A    between atoms: C19_41  and  N7_42 
REMARK   15  A    between atoms: C19_41  and  C20_46 
ROOT
HETATM    1  N2  UNL     1     -17.380 -23.511 -13.227  1.00  0.00    -0.283 N 
ATOM      2  H2  UNL     1     -18.106 -23.104 -12.636  1.00  0.00     0.188 HD
ENDROOT
BRANCH   1   3
HETATM    3  C12 UNL     1     -16.467 -24.404 -12.665  1.00  0.00     0.140 C 
HETATM    4  N1  UNL     1     -15.375 -23.980 -12.116  1.00  0.00    -0.385 N 
ATOM      5  H12 UNL     1     -14.707 -24.633 -11.706  1.00  0.00     0.157 HD
ATOM      6  H11 UNL     1     -15.221 -22.972 -12.124  1.00  0.00     0.157 HD
BRANCH   3   7
HETATM    7  C11 UNL     1     -16.695 -25.890 -12.654  1.00  0.00     0.236 A 
HETATM    8  C6  UNL     1     -17.733 -26.164 -11.643  1.00  0.00     0.029 A 
HETATM    9  C5  UNL     1     -17.748 -26.030 -10.252  1.00  0.00     0.034 A 
HETATM   10  C7  UNL     1     -18.863 -26.595 -12.285  1.00  0.00     0.092 A 
HETATM   11  C4  UNL     1     -18.841 -26.306  -9.471  1.00  0.00     0.073 A 
HETATM   12  C9  UNL     1     -19.982 -26.740 -10.130  1.00  0.00     0.084 A 
HETATM   13  C8  UNL     1     -19.989 -26.878 -11.499  1.00  0.00     0.075 A 
HETATM   14  O4  UNL     1     -18.623 -26.661 -13.644  1.00  0.00    -0.275 OA
HETATM   15  C10 UNL     1     -17.327 -26.279 -13.926  1.00  0.00     0.312 A 
HETATM   16  O5  UNL     1     -16.776 -26.263 -15.070  1.00  0.00    -0.260 OA
BRANCH  11  17
HETATM   17  C3  UNL     1     -18.795 -26.147  -8.011  1.00  0.00     0.296 C 
HETATM   18  O2  UNL     1     -18.815 -27.186  -7.300  1.00  0.00    -0.259 OA
BRANCH  17  19
HETATM   19  O1  UNL     1     -18.731 -24.932  -7.394  1.00  0.00    -0.318 OA
BRANCH  19  20
HETATM   20  C2  UNL     1     -18.208 -24.641  -6.127  1.00  0.00     0.174 C 
HETATM   21  C1  UNL     1     -19.272 -24.585  -5.074  1.00  0.00     0.034 C 
ENDBRANCH  19  20
ENDBRANCH  17  19
ENDBRANCH  11  17
BRANCH  12  22
HETATM   22  O3  UNL     1     -21.113 -27.027  -9.359  1.00  0.00    -0.360 OA
ATOM     23  H3  UNL     1     -21.525 -26.311  -8.891  1.00  0.00     0.217 HD
ENDBRANCH  12  22
BRANCH   7  24
HETATM   24  O6  UNL     1     -15.545 -26.569 -12.337  1.00  0.00    -0.369 OA
ATOM     25  H6  UNL     1     -15.559 -27.432 -12.734  1.00  0.00     0.212 HD
ENDBRANCH   7  24
ENDBRANCH   3   7
ENDBRANCH   1   3
BRANCH   1  26
HETATM   26  N3  UNL     1     -17.328 -23.161 -14.578  1.00  0.00    -0.264 N 
HETATM   27  C13 UNL     1     -18.509 -23.284 -15.336  1.00  0.00     0.278 C 
HETATM   28  O7  UNL     1     -19.559 -23.699 -14.794  1.00  0.00    -0.265 OA
ATOM     29  H3  UNL     1     -16.463 -22.826 -15.002  1.00  0.00     0.190 HD
BRANCH  27  30
HETATM   30  C14 UNL     1     -18.523 -22.937 -16.751  1.00  0.00     0.091 A 
HETATM   31  C15 UNL     1     -18.748 -21.684 -17.292  1.00  0.00     0.113 A 
HETATM   32  N4  UNL     1     -18.715 -21.578 -18.572  1.00  0.00    -0.357 N 
HETATM   33  C16 UNL     1     -18.471 -22.644 -19.340  1.00  0.00     0.106 A 
ATOM     34  H4  UNL     1     -18.877 -20.670 -19.008  1.00  0.00     0.166 HD
HETATM   35  S1  UNL     1     -18.282 -23.863 -18.167  1.00  0.00    -0.063 SA
BRANCH  33  36
HETATM   36  C17 UNL     1     -18.389 -22.662 -20.817  1.00  0.00     0.246 C 
BRANCH  36  37
HETATM   37  N5  UNL     1     -19.147 -22.299 -21.610  1.00  0.00    -0.333 NA
BRANCH  37  38
HETATM   38  N6  UNL     1     -20.046 -21.964 -22.506  1.00  0.00    -0.202 N 
HETATM   39  C18 UNL     1     -21.451 -21.939 -22.307  1.00  0.00     0.277 C 
HETATM   40  O8  UNL     1     -21.958 -22.222 -21.202  1.00  0.00    -0.269 OA
ATOM     41  H6  UNL     1     -19.704 -21.697 -23.429  1.00  0.00     0.205 HD
BRANCH  39  42
HETATM   42  C19 UNL     1     -22.400 -21.571 -23.426  1.00  0.00     0.276 C 
BRANCH  42  43
HETATM   43  N7  UNL     1     -22.889 -22.850 -23.991  1.00  0.00    -0.066 N 
ATOM     44  H73 UNL     1     -23.172 -22.780 -24.968  1.00  0.00     0.275 HD
ATOM     45  H72 UNL     1     -22.154 -23.543 -24.123  1.00  0.00     0.275 HD
ATOM     46  H71 UNL     1     -23.638 -23.165 -23.374  1.00  0.00     0.275 HD
ENDBRANCH  42  43
BRANCH  42  47
HETATM   47  C20 UNL     1     -21.624 -20.901 -24.569  1.00  0.00     0.038 C 
HETATM   48  C21 UNL     1     -22.037 -21.300 -25.934  1.00  0.00     0.007 C 
ENDBRANCH  42  47
ENDBRANCH  39  42
ENDBRANCH  37  38
ENDBRANCH  36  37
ENDBRANCH  33  36
ENDBRANCH  27  30
ENDBRANCH   1  26
TORSDOF 15
ENDMDL
