MODEL 1
REMARK VINA RESULT: -7.846712067      0.000      0.000
REMARK  8 active torsions:
REMARK  status: ('A' for Active; 'I' for Inactive)
REMARK    1  A    between atoms: C2_2  and  C3_3 
REMARK    2  A    between atoms: C3_3  and  N1_6 
REMARK    3  A    between atoms: N1_6  and  C5_8 
REMARK    4  A    between atoms: C6_9  and  O1_10 
REMARK    5  A    between atoms: O1_10  and  C7_11 
REMARK    6  A    between atoms: C7_11  and  C8_13 
REMARK    7  A    between atoms: C8_13  and  O3_14 
REMARK    8  A    between atoms: C23_32  and  O5_33 
ROOT
HETATM    1  C5  UNL     1      -4.538   1.672  12.620  1.00  0.00     0.115 C 
HETATM    2  C6  UNL     1      -3.983   0.523  11.804  1.00  0.00     0.155 C 
HETATM    3  C9  UNL     1      -2.651   1.045  11.243  1.00  0.00     0.040 C 
HETATM    4  C10 UNL     1      -2.654   2.496  11.545  1.00  0.00    -0.001 C 
HETATM    5  C11 UNL     1      -4.146   2.804  11.693  1.00  0.00     0.015 C 
HETATM    6  C12 UNL     1      -4.261   4.165  12.251  1.00  0.00     0.007 C 
HETATM    7  C13 UNL     1      -3.773   5.129  11.166  1.00  0.00     0.009 C 
HETATM    8  C14 UNL     1      -3.008   4.441  10.082  1.00  0.00     0.033 C 
HETATM    9  C15 UNL     1      -2.047   3.400  10.548  1.00  0.00    -0.003 C 
HETATM   10  C16 UNL     1      -0.756   3.937  11.091  1.00  0.00     0.006 C 
HETATM   11  C17 UNL     1      -0.491   5.366  10.778  1.00  0.00     0.014 C 
HETATM   12  C18 UNL     1      -0.982   5.787   9.424  1.00  0.00     0.012 C 
HETATM   13  C19 UNL     1      -0.755   7.289   9.309  1.00  0.00     0.020 C 
HETATM   14  C20 UNL     1      -0.196   5.022   8.387  1.00  0.00     0.101 C 
HETATM   15 CL1  UNL     1       1.275   5.840   7.884  1.00  0.00    -0.124 Cl
HETATM   16  C21 UNL     1      -1.123   4.764   7.230  1.00  0.00     0.102 C 
HETATM   17  C22 UNL     1      -2.485   5.029   7.747  1.00  0.00     0.163 C 
HETATM   18  O4  UNL     1      -3.496   4.888   7.074  1.00  0.00    -0.295 OA
HETATM   19  C23 UNL     1      -2.414   5.483   9.184  1.00  0.00     0.130 C 
ENDROOT
BRANCH   1  20
HETATM   20  N1  UNL     1      -3.971   1.808  13.921  1.00  0.00    -0.384 N 
ATOM     21  H1  UNL     1      -2.976   2.007  14.023  1.00  0.00     0.160 HD
BRANCH  20  22
HETATM   22  C3  UNL     1      -4.785   1.668  15.074  1.00  0.00     0.032 C 
HETATM   23  C4  UNL     1      -4.610   0.686  15.936  1.00  0.00     0.213 C 
HETATM   24  F1  UNL     1      -5.403   0.572  17.027  1.00  0.00    -0.217 F 
BRANCH  22  25
HETATM   25  C2  UNL     1      -5.858   2.655  15.305  1.00  0.00     0.054 C 
HETATM   26  C1  UNL     1      -5.305   4.000  15.741  1.00  0.00     0.011 C 
ENDBRANCH  22  25
ENDBRANCH  20  22
ENDBRANCH   1  20
BRANCH   2  27
HETATM   27  O1  UNL     1      -3.870  -0.681  12.470  1.00  0.00    -0.312 OA
BRANCH  27  28
HETATM   28  C7  UNL     1      -3.945  -1.871  11.788  1.00  0.00     0.282 C 
HETATM   29  O2  UNL     1      -5.053  -2.387  11.553  1.00  0.00    -0.263 OA
BRANCH  28  30
HETATM   30  C8  UNL     1      -2.722  -2.597  11.297  1.00  0.00     0.275 C 
BRANCH  30  31
HETATM   31  O3  UNL     1      -2.893  -3.958  11.324  1.00  0.00    -0.391 OA
ATOM     32  H3  UNL     1      -2.535  -4.342  12.115  1.00  0.00     0.210 HD
ENDBRANCH  30  31
ENDBRANCH  28  30
ENDBRANCH  27  28
ENDBRANCH   2  27
BRANCH  19  33
HETATM   33  O5  UNL     1      -3.232   6.622   9.251  1.00  0.00    -0.381 OA
ATOM     34  H5  UNL     1      -2.671   7.385   9.177  1.00  0.00     0.211 HD
ENDBRANCH  19  33
TORSDOF 8
ENDMDL
MODEL 2
REMARK VINA RESULT: -7.682328523      1.580      1.984
REMARK  8 active torsions:
REMARK  status: ('A' for Active; 'I' for Inactive)
REMARK    1  A    between atoms: C2_2  and  C3_3 
REMARK    2  A    between atoms: C3_3  and  N1_6 
REMARK    3  A    between atoms: N1_6  and  C5_8 
REMARK    4  A    between atoms: C6_9  and  O1_10 
REMARK    5  A    between atoms: O1_10  and  C7_11 
REMARK    6  A    between atoms: C7_11  and  C8_13 
REMARK    7  A    between atoms: C8_13  and  O3_14 
REMARK    8  A    between atoms: C23_32  and  O5_33 
ROOT
HETATM    1  C5  UNL     1      -4.753   2.453  13.498  1.00  0.00     0.115 C 
HETATM    2  C6  UNL     1      -4.415   1.556  12.325  1.00  0.00     0.155 C 
HETATM    3  C9  UNL     1      -3.087   2.105  11.780  1.00  0.00     0.040 C 
HETATM    4  C10 UNL     1      -2.889   3.394  12.484  1.00  0.00    -0.001 C 
HETATM    5  C11 UNL     1      -4.315   3.772  12.895  1.00  0.00     0.015 C 
HETATM    6  C12 UNL     1      -4.216   4.909  13.830  1.00  0.00     0.007 C 
HETATM    7  C13 UNL     1      -3.717   6.107  13.017  1.00  0.00     0.009 C 
HETATM    8  C14 UNL     1      -3.141   5.710  11.696  1.00  0.00     0.033 C 
HETATM    9  C15 UNL     1      -2.272   4.497  11.723  1.00  0.00    -0.003 C 
HETATM   10  C16 UNL     1      -0.883   4.734  12.236  1.00  0.00     0.006 C 
HETATM   11  C17 UNL     1      -0.480   6.162  12.317  1.00  0.00     0.014 C 
HETATM   12  C18 UNL     1      -1.038   7.009  11.211  1.00  0.00     0.012 C 
HETATM   13  C19 UNL     1      -0.645   8.452  11.506  1.00  0.00     0.020 C 
HETATM   14  C20 UNL     1      -0.445   6.523   9.911  1.00  0.00     0.101 C 
HETATM   15 CL1  UNL     1       1.060   7.324   9.488  1.00  0.00    -0.124 Cl
HETATM   16  C21 UNL     1      -1.498   6.705   8.850  1.00  0.00     0.102 C 
HETATM   17  C22 UNL     1      -2.767   6.921   9.583  1.00  0.00     0.163 C 
HETATM   18  O4  UNL     1      -3.844   7.076   9.027  1.00  0.00    -0.295 OA
HETATM   19  C23 UNL     1      -2.512   6.917  11.070  1.00  0.00     0.130 C 
ENDROOT
BRANCH   1  20
HETATM   20  N1  UNL     1      -4.058   2.145  14.705  1.00  0.00    -0.384 N 
ATOM     21  H1  UNL     1      -3.039   2.193  14.730  1.00  0.00     0.160 HD
BRANCH  20  22
HETATM   22  C3  UNL     1      -4.777   1.771  15.869  1.00  0.00     0.032 C 
HETATM   23  C4  UNL     1      -5.120   0.521  16.106  1.00  0.00     0.213 C 
HETATM   24  F1  UNL     1      -5.809   0.190  17.222  1.00  0.00    -0.217 F 
BRANCH  22  25
HETATM   25  C2  UNL     1      -5.149   2.823  16.837  1.00  0.00     0.054 C 
HETATM   26  C1  UNL     1      -6.533   3.381  16.560  1.00  0.00     0.011 C 
ENDBRANCH  22  25
ENDBRANCH  20  22
ENDBRANCH   1  20
BRANCH   2  27
HETATM   27  O1  UNL     1      -4.386   0.204  12.598  1.00  0.00    -0.312 OA
BRANCH  27  28
HETATM   28  C7  UNL     1      -4.194  -0.711  11.592  1.00  0.00     0.282 C 
HETATM   29  O2  UNL     1      -3.645  -1.802  11.836  1.00  0.00    -0.263 OA
BRANCH  28  30
HETATM   30  C8  UNL     1      -4.628  -0.453  10.174  1.00  0.00     0.275 C 
BRANCH  30  31
HETATM   31  O3  UNL     1      -3.570  -0.504   9.302  1.00  0.00    -0.391 OA
ATOM     32  H3  UNL     1      -3.743  -1.087   8.573  1.00  0.00     0.210 HD
ENDBRANCH  30  31
ENDBRANCH  28  30
ENDBRANCH  27  28
ENDBRANCH   2  27
BRANCH  19  33
HETATM   33  O5  UNL     1      -3.179   8.050  11.561  1.00  0.00    -0.381 OA
ATOM     34  H5  UNL     1      -2.831   8.238  12.426  1.00  0.00     0.211 HD
ENDBRANCH  19  33
TORSDOF 8
ENDMDL
MODEL 3
REMARK VINA RESULT: -7.530201478      1.008      1.323
REMARK  8 active torsions:
REMARK  status: ('A' for Active; 'I' for Inactive)
REMARK    1  A    between atoms: C2_2  and  C3_3 
REMARK    2  A    between atoms: C3_3  and  N1_6 
REMARK    3  A    between atoms: N1_6  and  C5_8 
REMARK    4  A    between atoms: C6_9  and  O1_10 
REMARK    5  A    between atoms: O1_10  and  C7_11 
REMARK    6  A    between atoms: C7_11  and  C8_13 
REMARK    7  A    between atoms: C8_13  and  O3_14 
REMARK    8  A    between atoms: C23_32  and  O5_33 
ROOT
HETATM    1  C5  UNL     1      -4.401   1.909  12.547  1.00  0.00     0.115 C 
HETATM    2  C6  UNL     1      -4.023   0.662  11.775  1.00  0.00     0.155 C 
HETATM    3  C9  UNL     1      -2.586   0.919  11.292  1.00  0.00     0.040 C 
HETATM    4  C10 UNL     1      -2.337   2.351  11.582  1.00  0.00    -0.001 C 
HETATM    5  C11 UNL     1      -3.753   2.932  11.636  1.00  0.00     0.015 C 
HETATM    6  C12 UNL     1      -3.646   4.300  12.176  1.00  0.00     0.007 C 
HETATM    7  C13 UNL     1      -2.925   5.138  11.115  1.00  0.00     0.009 C 
HETATM    8  C14 UNL     1      -2.239   4.300  10.085  1.00  0.00     0.033 C 
HETATM    9  C15 UNL     1      -1.517   3.108  10.617  1.00  0.00    -0.003 C 
HETATM   10  C16 UNL     1      -0.183   3.408  11.234  1.00  0.00     0.006 C 
HETATM   11  C17 UNL     1       0.360   4.757  10.927  1.00  0.00     0.014 C 
HETATM   12  C18 UNL     1       0.036   5.236   9.542  1.00  0.00     0.012 C 
HETATM   13  C19 UNL     1       0.544   6.668   9.429  1.00  0.00     0.020 C 
HETATM   14  C20 UNL     1       0.726   4.320   8.561  1.00  0.00     0.101 C 
HETATM   15 CL1  UNL     1       2.350   4.843   8.141  1.00  0.00    -0.124 Cl
HETATM   16  C21 UNL     1      -0.164   4.216   7.351  1.00  0.00     0.102 C 
HETATM   17  C22 UNL     1      -1.481   4.738   7.782  1.00  0.00     0.163 C 
HETATM   18  O4  UNL     1      -2.460   4.773   7.050  1.00  0.00    -0.295 OA
HETATM   19  C23 UNL     1      -1.411   5.197   9.217  1.00  0.00     0.130 C 
ENDROOT
BRANCH   1  20
HETATM   20  N1  UNL     1      -3.896   1.963  13.879  1.00  0.00    -0.384 N 
ATOM     21  H1  UNL     1      -2.921   1.725  14.062  1.00  0.00     0.160 HD
BRANCH  20  22
HETATM   22  C3  UNL     1      -4.743   2.346  14.950  1.00  0.00     0.032 C 
HETATM   23  C4  UNL     1      -5.756   3.171  14.778  1.00  0.00     0.213 C 
HETATM   24  F1  UNL     1      -6.547   3.524  15.817  1.00  0.00    -0.217 F 
BRANCH  22  25
HETATM   25  C2  UNL     1      -4.471   1.799  16.295  1.00  0.00     0.054 C 
HETATM   26  C1  UNL     1      -5.383   0.632  16.626  1.00  0.00     0.011 C 
ENDBRANCH  22  25
ENDBRANCH  20  22
ENDBRANCH   1  20
BRANCH   2  27
HETATM   27  O1  UNL     1      -4.173  -0.529  12.455  1.00  0.00    -0.312 OA
BRANCH  27  28
HETATM   28  C7  UNL     1      -4.101  -1.730  11.793  1.00  0.00     0.282 C 
HETATM   29  O2  UNL     1      -5.139  -2.375  11.555  1.00  0.00    -0.263 OA
BRANCH  28  30
HETATM   30  C8  UNL     1      -2.796  -2.317  11.329  1.00  0.00     0.275 C 
BRANCH  30  31
HETATM   31  O3  UNL     1      -2.838  -3.688  11.295  1.00  0.00    -0.391 OA
ATOM     32  H3  UNL     1      -2.358  -4.036  10.553  1.00  0.00     0.210 HD
ENDBRANCH  30  31
ENDBRANCH  28  30
ENDBRANCH  27  28
ENDBRANCH   2  27
BRANCH  19  33
HETATM   33  O5  UNL     1      -2.006   6.469   9.226  1.00  0.00    -0.381 OA
ATOM     34  H5  UNL     1      -1.603   6.981   8.534  1.00  0.00     0.211 HD
ENDBRANCH  19  33
TORSDOF 8
ENDMDL
MODEL 4
REMARK VINA RESULT: -7.515392795      2.569      3.588
REMARK  8 active torsions:
REMARK  status: ('A' for Active; 'I' for Inactive)
REMARK    1  A    between atoms: C2_2  and  C3_3 
REMARK    2  A    between atoms: C3_3  and  N1_6 
REMARK    3  A    between atoms: N1_6  and  C5_8 
REMARK    4  A    between atoms: C6_9  and  O1_10 
REMARK    5  A    between atoms: O1_10  and  C7_11 
REMARK    6  A    between atoms: C7_11  and  C8_13 
REMARK    7  A    between atoms: C8_13  and  O3_14 
REMARK    8  A    between atoms: C23_32  and  O5_33 
ROOT
HETATM    1  C5  UNL     1      -2.640   3.699  11.688  1.00  0.00     0.115 C 
HETATM    2  C6  UNL     1      -2.491   2.225  11.377  1.00  0.00     0.155 C 
HETATM    3  C9  UNL     1      -1.020   2.055  10.965  1.00  0.00     0.040 C 
HETATM    4  C10 UNL     1      -0.505   3.437  10.817  1.00  0.00    -0.001 C 
HETATM    5  C11 UNL     1      -1.781   4.244  10.565  1.00  0.00     0.015 C 
HETATM    6  C12 UNL     1      -1.423   5.672  10.660  1.00  0.00     0.007 C 
HETATM    7  C13 UNL     1      -0.525   5.983   9.459  1.00  0.00     0.009 C 
HETATM    8  C14 UNL     1       0.011   4.752   8.803  1.00  0.00     0.033 C 
HETATM    9  C15 UNL     1       0.473   3.686   9.740  1.00  0.00    -0.003 C 
HETATM   10  C16 UNL     1       1.823   3.928  10.347  1.00  0.00     0.006 C 
HETATM   11  C17 UNL     1       2.626   4.989   9.684  1.00  0.00     0.014 C 
HETATM   12  C18 UNL     1       2.438   5.047   8.196  1.00  0.00     0.012 C 
HETATM   13  C19 UNL     1       3.218   6.253   7.689  1.00  0.00     0.020 C 
HETATM   14  C20 UNL     1       2.962   3.757   7.612  1.00  0.00     0.101 C 
HETATM   15 CL1  UNL     1       4.667   3.822   7.194  1.00  0.00    -0.124 Cl
HETATM   16  C21 UNL     1       2.101   3.429   6.422  1.00  0.00     0.102 C 
HETATM   17  C22 UNL     1       0.900   4.285   6.553  1.00  0.00     0.163 C 
HETATM   18  O4  UNL     1      -0.034   4.255   5.764  1.00  0.00    -0.295 OA
HETATM   19  C23 UNL     1       1.020   5.161   7.775  1.00  0.00     0.130 C 
ENDROOT
BRANCH   1  20
HETATM   20  N1  UNL     1      -2.169   4.089  12.976  1.00  0.00    -0.384 N 
ATOM     21  H1  UNL     1      -1.184   3.969  13.214  1.00  0.00     0.160 HD
BRANCH  20  22
HETATM   22  C3  UNL     1      -3.063   4.642  13.928  1.00  0.00     0.032 C 
HETATM   23  C4  UNL     1      -3.723   3.888  14.786  1.00  0.00     0.213 C 
HETATM   24  F1  UNL     1      -4.573   4.439  15.682  1.00  0.00    -0.217 F 
BRANCH  22  25
HETATM   25  C2  UNL     1      -3.255   6.105  13.949  1.00  0.00     0.054 C 
HETATM   26  C1  UNL     1      -1.948   6.844  14.171  1.00  0.00     0.011 C 
ENDBRANCH  22  25
ENDBRANCH  20  22
ENDBRANCH   1  20
BRANCH   2  27
HETATM   27  O1  UNL     1      -2.889   1.362  12.378  1.00  0.00    -0.312 OA
BRANCH  27  28
HETATM   28  C7  UNL     1      -4.026   0.603  12.242  1.00  0.00     0.282 C 
HETATM   29  O2  UNL     1      -4.427  -0.097  13.190  1.00  0.00    -0.263 OA
BRANCH  28  30
HETATM   30  C8  UNL     1      -4.829   0.578  10.969  1.00  0.00     0.275 C 
BRANCH  30  31
HETATM   31  O3  UNL     1      -5.703   1.634  10.900  1.00  0.00    -0.391 OA
ATOM     32  H3  UNL     1      -6.276   1.567  10.145  1.00  0.00     0.210 HD
ENDBRANCH  30  31
ENDBRANCH  28  30
ENDBRANCH  27  28
ENDBRANCH   2  27
BRANCH  19  33
HETATM   33  O5  UNL     1       0.684   6.452   7.337  1.00  0.00    -0.381 OA
ATOM     34  H5  UNL     1       0.186   6.871   8.029  1.00  0.00     0.211 HD
ENDBRANCH  19  33
TORSDOF 8
ENDMDL
MODEL 5
REMARK VINA RESULT: -7.476616335      1.957      2.402
REMARK  8 active torsions:
REMARK  status: ('A' for Active; 'I' for Inactive)
REMARK    1  A    between atoms: C2_2  and  C3_3 
REMARK    2  A    between atoms: C3_3  and  N1_6 
REMARK    3  A    between atoms: N1_6  and  C5_8 
REMARK    4  A    between atoms: C6_9  and  O1_10 
REMARK    5  A    between atoms: O1_10  and  C7_11 
REMARK    6  A    between atoms: C7_11  and  C8_13 
REMARK    7  A    between atoms: C8_13  and  O3_14 
REMARK    8  A    between atoms: C23_32  and  O5_33 
ROOT
HETATM    1  C5  UNL     1      -5.039   2.285  13.337  1.00  0.00     0.115 C 
HETATM    2  C6  UNL     1      -4.505   1.469  12.179  1.00  0.00     0.155 C 
HETATM    3  C9  UNL     1      -3.460   2.375  11.508  1.00  0.00     0.040 C 
HETATM    4  C10 UNL     1      -3.644   3.702  12.142  1.00  0.00    -0.001 C 
HETATM    5  C11 UNL     1      -5.087   3.633  12.649  1.00  0.00     0.015 C 
HETATM    6  C12 UNL     1      -5.300   4.799  13.526  1.00  0.00     0.007 C 
HETATM    7  C13 UNL     1      -5.265   6.040  12.628  1.00  0.00     0.009 C 
HETATM    8  C14 UNL     1      -4.675   5.763  11.283  1.00  0.00     0.033 C 
HETATM    9  C15 UNL     1      -3.463   4.893  11.290  1.00  0.00    -0.003 C 
HETATM   10  C16 UNL     1      -2.194   5.591  11.681  1.00  0.00     0.006 C 
HETATM   11  C17 UNL     1      -2.267   7.075  11.672  1.00  0.00     0.014 C 
HETATM   12  C18 UNL     1      -3.135   7.629  10.581  1.00  0.00     0.012 C 
HETATM   13  C19 UNL     1      -3.209   9.138  10.785  1.00  0.00     0.020 C 
HETATM   14  C20 UNL     1      -2.500   7.275   9.258  1.00  0.00     0.101 C 
HETATM   15 CL1  UNL     1      -1.361   8.483   8.685  1.00  0.00    -0.124 Cl
HETATM   16  C21 UNL     1      -3.620   7.045   8.278  1.00  0.00     0.102 C 
HETATM   17  C22 UNL     1      -4.842   6.893   9.100  1.00  0.00     0.163 C 
HETATM   18  O4  UNL     1      -5.944   6.662   8.625  1.00  0.00    -0.295 OA
HETATM   19  C23 UNL     1      -4.507   7.065  10.561  1.00  0.00     0.130 C 
ENDROOT
BRANCH   1  20
HETATM   20  N1  UNL     1      -4.209   2.290  14.496  1.00  0.00    -0.384 N 
ATOM     21  H1  UNL     1      -3.240   2.601  14.425  1.00  0.00     0.160 HD
BRANCH  20  22
HETATM   22  C3  UNL     1      -4.724   1.866  15.748  1.00  0.00     0.032 C 
HETATM   23  C4  UNL     1      -4.857   0.590  16.051  1.00  0.00     0.213 C 
HETATM   24  F1  UNL     1      -5.354   0.210  17.251  1.00  0.00    -0.217 F 
BRANCH  22  25
HETATM   25  C2  UNL     1      -5.122   2.892  16.732  1.00  0.00     0.054 C 
HETATM   26  C1  UNL     1      -6.612   3.176  16.681  1.00  0.00     0.011 C 
ENDBRANCH  22  25
ENDBRANCH  20  22
ENDBRANCH   1  20
BRANCH   2  27
HETATM   27  O1  UNL     1      -4.026   0.216  12.503  1.00  0.00    -0.312 OA
BRANCH  27  28
HETATM   28  C7  UNL     1      -4.020  -0.796  11.574  1.00  0.00     0.282 C 
HETATM   29  O2  UNL     1      -3.540  -1.907  11.864  1.00  0.00    -0.263 OA
BRANCH  28  30
HETATM   30  C8  UNL     1      -4.583  -0.621  10.189  1.00  0.00     0.275 C 
BRANCH  30  31
HETATM   31  O3  UNL     1      -3.592  -0.535   9.245  1.00  0.00    -0.391 OA
ATOM     32  H3  UNL     1      -3.497  -1.345   8.759  1.00  0.00     0.210 HD
ENDBRANCH  30  31
ENDBRANCH  28  30
ENDBRANCH  27  28
ENDBRANCH   2  27
BRANCH  19  33
HETATM   33  O5  UNL     1      -5.471   7.957  11.057  1.00  0.00    -0.381 OA
ATOM     34  H5  UNL     1      -5.075   8.442  11.772  1.00  0.00     0.211 HD
ENDBRANCH  19  33
TORSDOF 8
ENDMDL
