MODEL 1
REMARK VINA RESULT: -8.758971593      0.000      0.000
REMARK  7 active torsions:
REMARK  status: ('A' for Active; 'I' for Inactive)
REMARK    1  A    between atoms: N2_9  and  C7_10 
REMARK    2  A    between atoms: C7_10  and  N3_12 
REMARK       I    between atoms: N3_12  and  C8_14 
REMARK    3  A    between atoms: C8_14  and  C9_16 
REMARK    4  A    between atoms: C12_19  and  C13_20 
REMARK    5  A    between atoms: C13_20  and  O2_21 
REMARK    6  A    between atoms: O2_21  and  C14_22 
REMARK    7  A    between atoms: C16_26  and  C17_27 
ROOT
HETATM    1  C9  UNL     1      -1.513   3.310  11.537  1.00  0.00     0.078 C 
HETATM    2  C10 UNL     1      -2.923   3.732  11.193  1.00  0.00     0.014 C 
HETATM    3  C11 UNL     1      -3.814   2.525  11.027  1.00  0.00     0.007 C 
HETATM    4  C12 UNL     1      -3.263   1.411  11.886  1.00  0.00     0.010 C 
HETATM    5  C19 UNL     1      -2.026   0.877  11.241  1.00  0.00     0.007 C 
HETATM    6  C20 UNL     1      -1.190   2.059  10.777  1.00  0.00     0.014 C 
ENDROOT
BRANCH   1   7
HETATM    7  C8  UNL     1      -0.510   4.351  11.102  1.00  0.00     0.228 C 
HETATM    8  N3  UNL     1       0.497   4.768  11.999  1.00  0.00    -0.303 N 
ATOM      9  H3  UNL     1       0.544   4.365  12.935  1.00  0.00     0.171 HD
HETATM   10  O1  UNL     1      -0.562   4.850   9.954  1.00  0.00    -0.273 OA
BRANCH   8  11
HETATM   11  C7  UNL     1       1.440   5.744  11.602  1.00  0.00     0.176 C 
HETATM   12  S1  UNL     1       2.733   5.392  10.676  1.00  0.00    -0.041 SA
BRANCH  11  13
HETATM   13  N2  UNL     1       1.283   7.111  12.022  1.00  0.00    -0.353 N 
HETATM   14  C6  UNL     1      -0.005   7.522  12.499  1.00  0.00     0.166 C 
HETATM   15  C5  UNL     1       0.072   8.654  13.450  1.00  0.00    -0.010 A 
HETATM   16  C2  UNL     1      -0.635   8.984  14.561  1.00  0.00    -0.037 A 
HETATM   17  C4  UNL     1       1.059   9.629  13.218  1.00  0.00     0.019 A 
HETATM   18  C1  UNL     1      -1.770   8.264  15.196  1.00  0.00     0.050 C 
HETATM   19  C3  UNL     1      -0.096  10.166  15.028  1.00  0.00     0.095 A 
HETATM   20  N1  UNL     1       0.924  10.531  14.200  1.00  0.00    -0.368 N 
ATOM     21  H1  UNL     1       1.499  11.366  14.312  1.00  0.00     0.165 HD
HETATM   22  C22 UNL     1       1.966   9.488  12.052  1.00  0.00     0.077 C 
HETATM   23  C21 UNL     1       2.394   8.041  11.962  1.00  0.00     0.131 C 
ENDBRANCH  11  13
ENDBRANCH   8  11
ENDBRANCH   1   7
BRANCH   4  24
HETATM   24  C13 UNL     1      -4.323   0.360  12.133  1.00  0.00     0.183 C 
BRANCH  24  25
HETATM   25  O2  UNL     1      -4.224  -0.036  13.469  1.00  0.00    -0.322 OA
BRANCH  25  26
HETATM   26  C14 UNL     1      -4.663   0.760  14.533  1.00  0.00     0.223 A 
HETATM   27  N4  UNL     1      -5.046   2.036  14.347  1.00  0.00    -0.332 N 
HETATM   28  C15 UNL     1      -5.471   2.819  15.354  1.00  0.00     0.105 A 
ATOM     29  H4  UNL     1      -5.012   2.425  13.404  1.00  0.00     0.168 HD
HETATM   30  C16 UNL     1      -5.534   2.334  16.643  1.00  0.00     0.036 A 
HETATM   31  C18 UNL     1      -5.139   1.024  16.826  1.00  0.00     0.105 A 
HETATM   32  N5  UNL     1      -4.720   0.278  15.786  1.00  0.00    -0.332 N 
ATOM     33  H5  UNL     1      -4.436  -0.686  15.955  1.00  0.00     0.168 HD
BRANCH  30  34
HETATM   34  C17 UNL     1      -5.998   3.154  17.801  1.00  0.00     0.389 C 
HETATM   35  F1  UNL     1      -7.108   3.917  17.447  1.00  0.00    -0.209 F 
HETATM   36  F2  UNL     1      -6.343   2.400  18.885  1.00  0.00    -0.209 F 
ENDBRANCH  30  34
ENDBRANCH  25  26
ENDBRANCH  24  25
ENDBRANCH   4  24
TORSDOF 7
ENDMDL
MODEL 2
REMARK VINA RESULT: -8.577022239      3.198      5.255
REMARK  7 active torsions:
REMARK  status: ('A' for Active; 'I' for Inactive)
REMARK    1  A    between atoms: N2_9  and  C7_10 
REMARK    2  A    between atoms: C7_10  and  N3_12 
REMARK       I    between atoms: N3_12  and  C8_14 
REMARK    3  A    between atoms: C8_14  and  C9_16 
REMARK    4  A    between atoms: C12_19  and  C13_20 
REMARK    5  A    between atoms: C13_20  and  O2_21 
REMARK    6  A    between atoms: O2_21  and  C14_22 
REMARK    7  A    between atoms: C16_26  and  C17_27 
ROOT
HETATM    1  C9  UNL     1      -1.270   3.252  11.563  1.00  0.00     0.078 C 
HETATM    2  C10 UNL     1      -2.638   3.854  11.338  1.00  0.00     0.014 C 
HETATM    3  C11 UNL     1      -3.673   2.770  11.159  1.00  0.00     0.007 C 
HETATM    4  C12 UNL     1      -3.208   1.546  11.913  1.00  0.00     0.010 C 
HETATM    5  C19 UNL     1      -2.083   0.918  11.158  1.00  0.00     0.007 C 
HETATM    6  C20 UNL     1      -1.142   2.025  10.711  1.00  0.00     0.014 C 
ENDROOT
BRANCH   1   7
HETATM    7  C8  UNL     1      -0.178   4.198  11.125  1.00  0.00     0.228 C 
HETATM    8  N3  UNL     1       1.159   3.747  11.079  1.00  0.00    -0.303 N 
ATOM      9  H3  UNL     1       1.382   2.787  11.341  1.00  0.00     0.171 HD
HETATM   10  O1  UNL     1      -0.445   5.379  10.803  1.00  0.00    -0.273 OA
BRANCH   8  11
HETATM   11  C7  UNL     1       2.189   4.626  10.673  1.00  0.00     0.176 C 
HETATM   12  S1  UNL     1       2.878   5.702  11.683  1.00  0.00    -0.041 SA
BRANCH  11  13
HETATM   13  N2  UNL     1       2.667   4.598   9.316  1.00  0.00    -0.353 N 
HETATM   14  C6  UNL     1       4.009   4.148   9.087  1.00  0.00     0.166 C 
HETATM   15  C5  UNL     1       4.195   3.567   7.738  1.00  0.00    -0.010 A 
HETATM   16  C2  UNL     1       4.945   2.538   7.265  1.00  0.00    -0.037 A 
HETATM   17  C4  UNL     1       3.478   4.148   6.677  1.00  0.00     0.019 A 
HETATM   18  C1  UNL     1       5.860   1.631   8.004  1.00  0.00     0.050 C 
HETATM   19  C3  UNL     1       4.701   2.472   5.907  1.00  0.00     0.095 A 
HETATM   20  N1  UNL     1       3.813   3.453   5.582  1.00  0.00    -0.368 N 
ATOM     21  H1  UNL     1       3.457   3.633   4.642  1.00  0.00     0.165 HD
HETATM   22  C22 UNL     1       2.582   5.300   6.946  1.00  0.00     0.077 C 
HETATM   23  C21 UNL     1       1.817   5.013   8.218  1.00  0.00     0.131 C 
ENDBRANCH  11  13
ENDBRANCH   8  11
ENDBRANCH   1   7
BRANCH   4  24
HETATM   24  C13 UNL     1      -4.370   0.609  12.166  1.00  0.00     0.183 C 
BRANCH  24  25
HETATM   25  O2  UNL     1      -4.260   0.144  13.480  1.00  0.00    -0.322 OA
BRANCH  25  26
HETATM   26  C14 UNL     1      -4.687   0.886  14.587  1.00  0.00     0.223 A 
HETATM   27  N4  UNL     1      -4.773   0.337  15.811  1.00  0.00    -0.332 N 
HETATM   28  C15 UNL     1      -5.181   1.031  16.890  1.00  0.00     0.105 A 
ATOM     29  H4  UNL     1      -4.520  -0.644  15.927  1.00  0.00     0.168 HD
HETATM   30  C16 UNL     1      -5.532   2.360  16.779  1.00  0.00     0.036 A 
HETATM   31  C18 UNL     1      -5.440   2.915  15.518  1.00  0.00     0.105 A 
HETATM   32  N5  UNL     1      -5.027   2.180  14.468  1.00  0.00    -0.332 N 
ATOM     33  H5  UNL     1      -4.970   2.622  13.551  1.00  0.00     0.168 HD
BRANCH  30  34
HETATM   34  C17 UNL     1      -5.990   3.182  17.938  1.00  0.00     0.389 C 
HETATM   35  F1  UNL     1      -7.093   3.955  17.583  1.00  0.00    -0.209 F 
HETATM   36  F2  UNL     1      -6.344   2.428  19.019  1.00  0.00    -0.209 F 
ENDBRANCH  30  34
ENDBRANCH  25  26
ENDBRANCH  24  25
ENDBRANCH   4  24
TORSDOF 7
ENDMDL
MODEL 3
REMARK VINA RESULT: -8.512651788      7.266      8.086
REMARK  7 active torsions:
REMARK  status: ('A' for Active; 'I' for Inactive)
REMARK    1  A    between atoms: N2_9  and  C7_10 
REMARK    2  A    between atoms: C7_10  and  N3_12 
REMARK       I    between atoms: N3_12  and  C8_14 
REMARK    3  A    between atoms: C8_14  and  C9_16 
REMARK    4  A    between atoms: C12_19  and  C13_20 
REMARK    5  A    between atoms: C13_20  and  O2_21 
REMARK    6  A    between atoms: O2_21  and  C14_22 
REMARK    7  A    between atoms: C16_26  and  C17_27 
ROOT
HETATM    1  C9  UNL     1      -5.732   6.352   9.536  1.00  0.00     0.078 C 
HETATM    2  C10 UNL     1      -4.235   6.478   9.369  1.00  0.00     0.014 C 
HETATM    3  C11 UNL     1      -3.542   6.394  10.708  1.00  0.00     0.007 C 
HETATM    4  C12 UNL     1      -4.400   5.560  11.631  1.00  0.00     0.010 C 
HETATM    5  C19 UNL     1      -5.590   6.367  12.035  1.00  0.00     0.007 C 
HETATM    6  C20 UNL     1      -6.133   7.059  10.795  1.00  0.00     0.014 C 
ENDROOT
BRANCH   1   7
HETATM    7  C8  UNL     1      -6.466   7.033   8.406  1.00  0.00     0.228 C 
HETATM    8  N3  UNL     1      -6.095   8.339   8.020  1.00  0.00    -0.303 N 
ATOM      9  H3  UNL     1      -5.334   8.817   8.504  1.00  0.00     0.171 HD
HETATM   10  O1  UNL     1      -7.402   6.453   7.808  1.00  0.00    -0.273 OA
BRANCH   8  11
HETATM   11  C7  UNL     1      -6.777   8.987   6.964  1.00  0.00     0.176 C 
HETATM   12  S1  UNL     1      -6.276   8.912   5.416  1.00  0.00    -0.041 SA
BRANCH  11  13
HETATM   13  N2  UNL     1      -7.960   9.758   7.237  1.00  0.00    -0.353 N 
HETATM   14  C6  UNL     1      -7.891  10.749   8.271  1.00  0.00     0.166 C 
HETATM   15  C5  UNL     1      -8.852  11.857   8.066  1.00  0.00    -0.010 A 
HETATM   16  C2  UNL     1      -8.795  13.192   8.309  1.00  0.00    -0.037 A 
HETATM   17  C4  UNL     1     -10.102  11.536   7.508  1.00  0.00     0.019 A 
HETATM   18  C1  UNL     1      -7.685  13.991   8.889  1.00  0.00     0.050 C 
HETATM   19  C3  UNL     1     -10.009  13.712   7.905  1.00  0.00     0.095 A 
HETATM   20  N1  UNL     1     -10.776  12.692   7.426  1.00  0.00    -0.368 N 
ATOM     21  H1  UNL     1     -11.723  12.793   7.059  1.00  0.00     0.165 HD
HETATM   22  C22 UNL     1     -10.404  10.128   7.154  1.00  0.00     0.077 C 
HETATM   23  C21 UNL     1      -9.182   9.537   6.489  1.00  0.00     0.131 C 
ENDBRANCH  11  13
ENDBRANCH   8  11
ENDBRANCH   1   7
BRANCH   4  24
HETATM   24  C13 UNL     1      -3.581   5.054  12.799  1.00  0.00     0.183 C 
BRANCH  24  25
HETATM   25  O2  UNL     1      -4.230   5.448  13.972  1.00  0.00    -0.322 OA
BRANCH  25  26
HETATM   26  C14 UNL     1      -4.682   4.537  14.934  1.00  0.00     0.223 A 
HETATM   27  N4  UNL     1      -3.986   3.426  15.233  1.00  0.00    -0.332 N 
HETATM   28  C15 UNL     1      -4.401   2.537  16.154  1.00  0.00     0.105 A 
ATOM     29  H4  UNL     1      -3.110   3.250  14.742  1.00  0.00     0.168 HD
HETATM   30  C16 UNL     1      -5.579   2.736  16.842  1.00  0.00     0.036 A 
HETATM   31  C18 UNL     1      -6.287   3.879  16.529  1.00  0.00     0.105 A 
HETATM   32  N5  UNL     1      -5.832   4.740  15.599  1.00  0.00    -0.332 N 
ATOM     33  H5  UNL     1      -6.379   5.575  15.392  1.00  0.00     0.168 HD
BRANCH  30  34
HETATM   34  C17 UNL     1      -6.091   1.787  17.875  1.00  0.00     0.389 C 
HETATM   35  F1  UNL     1      -6.276   2.440  19.091  1.00  0.00    -0.209 F 
HETATM   36  F2  UNL     1      -7.279   1.212  17.529  1.00  0.00    -0.209 F 
ENDBRANCH  30  34
ENDBRANCH  25  26
ENDBRANCH  24  25
ENDBRANCH   4  24
TORSDOF 7
ENDMDL
MODEL 4
REMARK VINA RESULT: -8.491612448      1.605      2.058
REMARK  7 active torsions:
REMARK  status: ('A' for Active; 'I' for Inactive)
REMARK    1  A    between atoms: N2_9  and  C7_10 
REMARK    2  A    between atoms: C7_10  and  N3_12 
REMARK       I    between atoms: N3_12  and  C8_14 
REMARK    3  A    between atoms: C8_14  and  C9_16 
REMARK    4  A    between atoms: C12_19  and  C13_20 
REMARK    5  A    between atoms: C13_20  and  O2_21 
REMARK    6  A    between atoms: O2_21  and  C14_22 
REMARK    7  A    between atoms: C16_26  and  C17_27 
ROOT
HETATM    1  C9  UNL     1      -0.985   3.474  11.371  1.00  0.00     0.078 C 
HETATM    2  C10 UNL     1      -2.303   4.175  11.133  1.00  0.00     0.014 C 
HETATM    3  C11 UNL     1      -3.436   3.178  11.085  1.00  0.00     0.007 C 
HETATM    4  C12 UNL     1      -3.051   1.987  11.933  1.00  0.00     0.010 C 
HETATM    5  C19 UNL     1      -2.014   1.197  11.205  1.00  0.00     0.007 C 
HETATM    6  C20 UNL     1      -0.997   2.171  10.630  1.00  0.00     0.014 C 
ENDROOT
BRANCH   1   7
HETATM    7  C8  UNL     1       0.167   4.275  10.817  1.00  0.00     0.228 C 
HETATM    8  N3  UNL     1       1.475   4.035  11.289  1.00  0.00    -0.303 N 
ATOM      9  H3  UNL     1       1.637   3.323  12.001  1.00  0.00     0.171 HD
HETATM   10  O1  UNL     1      -0.024   5.153   9.943  1.00  0.00    -0.273 OA
BRANCH   8  11
HETATM   11  C7  UNL     1       2.562   4.782  10.778  1.00  0.00     0.176 C 
HETATM   12  S1  UNL     1       3.238   4.472   9.328  1.00  0.00    -0.041 SA
BRANCH  11  13
HETATM   13  N2  UNL     1       3.121   5.860  11.547  1.00  0.00    -0.353 N 
HETATM   14  C6  UNL     1       2.760   7.200  11.184  1.00  0.00     0.166 C 
HETATM   15  C5  UNL     1       2.835   8.141  12.325  1.00  0.00    -0.010 A 
HETATM   16  C2  UNL     1       2.092   9.218  12.690  1.00  0.00    -0.037 A 
HETATM   17  C4  UNL     1       3.861   7.940  13.266  1.00  0.00     0.019 A 
HETATM   18  C1  UNL     1       0.910   9.812  12.015  1.00  0.00     0.050 C 
HETATM   19  C3  UNL     1       2.651   9.696  13.860  1.00  0.00     0.095 A 
HETATM   20  N1  UNL     1       3.714   8.906  14.183  1.00  0.00    -0.368 N 
ATOM     21  H1  UNL     1       4.310   9.031  15.002  1.00  0.00     0.165 HD
HETATM   22  C22 UNL     1       4.810   6.815  13.081  1.00  0.00     0.077 C 
HETATM   23  C21 UNL     1       4.021   5.599  12.653  1.00  0.00     0.131 C 
ENDBRANCH  11  13
ENDBRANCH   8  11
ENDBRANCH   1   7
BRANCH   4  24
HETATM   24  C13 UNL     1      -4.279   1.185  12.305  1.00  0.00     0.183 C 
BRANCH  24  25
HETATM   25  O2  UNL     1      -4.062   0.643  13.574  1.00  0.00    -0.322 OA
BRANCH  25  26
HETATM   26  C14 UNL     1      -4.670   1.144  14.730  1.00  0.00     0.223 A 
HETATM   27  N4  UNL     1      -5.202   2.379  14.767  1.00  0.00    -0.332 N 
HETATM   28  C15 UNL     1      -5.791   2.881  15.867  1.00  0.00     0.105 A 
ATOM     29  H4  UNL     1      -5.156   2.957  13.928  1.00  0.00     0.168 HD
HETATM   30  C16 UNL     1      -5.876   2.134  17.022  1.00  0.00     0.036 A 
HETATM   31  C18 UNL     1      -5.328   0.868  16.976  1.00  0.00     0.105 A 
HETATM   32  N5  UNL     1      -4.748   0.408  15.851  1.00  0.00    -0.332 N 
ATOM     33  H5  UNL     1      -4.353  -0.532  15.850  1.00  0.00     0.168 HD
BRANCH  30  34
HETATM   34  C17 UNL     1      -6.519   2.636  18.273  1.00  0.00     0.389 C 
HETATM   35  F1  UNL     1      -5.826   2.186  19.394  1.00  0.00    -0.209 F 
HETATM   36  F2  UNL     1      -6.569   3.999  18.337  1.00  0.00    -0.209 F 
ENDBRANCH  30  34
ENDBRANCH  25  26
ENDBRANCH  24  25
ENDBRANCH   4  24
TORSDOF 7
ENDMDL
MODEL 5
REMARK VINA RESULT: -8.474515788      8.010      8.837
REMARK  7 active torsions:
REMARK  status: ('A' for Active; 'I' for Inactive)
REMARK    1  A    between atoms: N2_9  and  C7_10 
REMARK    2  A    between atoms: C7_10  and  N3_12 
REMARK       I    between atoms: N3_12  and  C8_14 
REMARK    3  A    between atoms: C8_14  and  C9_16 
REMARK    4  A    between atoms: C12_19  and  C13_20 
REMARK    5  A    between atoms: C13_20  and  O2_21 
REMARK    6  A    between atoms: O2_21  and  C14_22 
REMARK    7  A    between atoms: C16_26  and  C17_27 
ROOT
HETATM    1  C9  UNL     1      -5.479   8.625  10.593  1.00  0.00     0.078 C 
HETATM    2  C10 UNL     1      -6.590   7.904  11.323  1.00  0.00     0.014 C 
HETATM    3  C11 UNL     1      -6.187   6.484  11.636  1.00  0.00     0.007 C 
HETATM    4  C12 UNL     1      -4.682   6.440  11.768  1.00  0.00     0.010 C 
HETATM    5  C19 UNL     1      -4.079   6.558  10.407  1.00  0.00     0.007 C 
HETATM    6  C20 UNL     1      -4.816   7.658   9.660  1.00  0.00     0.014 C 
ENDROOT
BRANCH   1   7
HETATM    7  C8  UNL     1      -6.024   9.744   9.740  1.00  0.00     0.228 C 
HETATM    8  N3  UNL     1      -6.255   9.524   8.365  1.00  0.00    -0.303 N 
ATOM      9  H3  UNL     1      -6.055   8.612   7.954  1.00  0.00     0.171 HD
HETATM   10  O1  UNL     1      -6.271  10.868  10.237  1.00  0.00    -0.273 OA
BRANCH   8  11
HETATM   11  C7  UNL     1      -6.763  10.567   7.555  1.00  0.00     0.176 C 
HETATM   12  S1  UNL     1      -5.799  11.612   6.760  1.00  0.00    -0.041 SA
BRANCH  11  13
HETATM   13  N2  UNL     1      -8.183  10.743   7.413  1.00  0.00    -0.353 N 
HETATM   14  C6  UNL     1      -8.763  11.950   7.927  1.00  0.00     0.166 C 
HETATM   15  C5  UNL     1     -10.008  12.331   7.221  1.00  0.00    -0.010 A 
HETATM   16  C2  UNL     1     -10.548  13.527   6.872  1.00  0.00    -0.037 A 
HETATM   17  C4  UNL     1     -10.855  11.292   6.793  1.00  0.00     0.019 A 
HETATM   18  C1  UNL     1     -10.022  14.896   7.108  1.00  0.00     0.050 C 
HETATM   19  C3  UNL     1     -11.736  13.242   6.226  1.00  0.00     0.095 A 
HETATM   20  N1  UNL     1     -11.893  11.889   6.192  1.00  0.00    -0.368 N 
ATOM     21  H1  UNL     1     -12.685  11.401   5.772  1.00  0.00     0.165 HD
HETATM   22  C22 UNL     1     -10.476   9.884   7.061  1.00  0.00     0.077 C 
HETATM   23  C21 UNL     1      -8.999   9.731   6.773  1.00  0.00     0.131 C 
ENDBRANCH  11  13
ENDBRANCH   8  11
ENDBRANCH   1   7
BRANCH   4  24
HETATM   24  C13 UNL     1      -4.254   5.197  12.519  1.00  0.00     0.183 C 
BRANCH  24  25
HETATM   25  O2  UNL     1      -4.302   5.491  13.885  1.00  0.00    -0.322 OA
BRANCH  25  26
HETATM   26  C14 UNL     1      -4.729   4.569  14.846  1.00  0.00     0.223 A 
HETATM   27  N4  UNL     1      -4.030   3.452  15.111  1.00  0.00    -0.332 N 
HETATM   28  C15 UNL     1      -4.421   2.552  16.031  1.00  0.00     0.105 A 
ATOM     29  H4  UNL     1      -3.168   3.279  14.593  1.00  0.00     0.168 HD
HETATM   30  C16 UNL     1      -5.579   2.745  16.755  1.00  0.00     0.036 A 
HETATM   31  C18 UNL     1      -6.291   3.895  16.477  1.00  0.00     0.105 A 
HETATM   32  N5  UNL     1      -5.859   4.767  15.546  1.00  0.00    -0.332 N 
ATOM     33  H5  UNL     1      -6.408   5.607  15.366  1.00  0.00     0.168 HD
BRANCH  30  34
HETATM   34  C17 UNL     1      -6.064   1.784  17.789  1.00  0.00     0.389 C 
HETATM   35  F1  UNL     1      -6.227   2.425  19.015  1.00  0.00    -0.209 F 
HETATM   36  F2  UNL     1      -7.257   1.207  17.462  1.00  0.00    -0.209 F 
ENDBRANCH  30  34
ENDBRANCH  25  26
ENDBRANCH  24  25
ENDBRANCH   4  24
TORSDOF 7
ENDMDL
