MODEL 1
REMARK VINA RESULT: -9.446013691      0.000      0.000
REMARK  6 active torsions:
REMARK  status: ('A' for Active; 'I' for Inactive)
REMARK    1  A    between atoms: C2_2  and  N1_3 
REMARK    2  A    between atoms: C2_2  and  C17_24 
REMARK    3  A    between atoms: N1_3  and  N2_5 
REMARK    4  A    between atoms: C10_14  and  C12_16 
REMARK    5  A    between atoms: C19_26  and  S1_27 
REMARK    6  A    between atoms: S1_27  and  C20_28 
ROOT
HETATM    1  C17 UNL     1      -3.861   2.857  12.195  1.00  0.00     0.035 A 
HETATM    2  C18 UNL     1      -4.555   3.641  13.083  1.00  0.00     0.049 A 
HETATM    3  C19 UNL     1      -4.914   2.862  14.160  1.00  0.00     0.045 A 
HETATM    4  C21 UNL     1      -4.429   1.588  13.920  1.00  0.00     0.131 A 
HETATM    5  C22 UNL     1      -4.568   0.426  14.783  1.00  0.00     0.119 C 
HETATM    6  N4  UNL     1      -4.659  -0.506  15.464  1.00  0.00    -0.190 NA
HETATM    7  N5  UNL     1      -3.804   1.629  12.729  1.00  0.00    -0.348 N 
ATOM      8  H5  UNL     1      -3.348   0.829  12.290  1.00  0.00     0.166 HD
ENDROOT
BRANCH   3   9
HETATM    9  S1  UNL     1      -5.837   3.356  15.628  1.00  0.00    -0.058 SA
BRANCH   9  10
HETATM   10  C20 UNL     1      -6.004   5.176  15.663  1.00  0.00     0.420 C 
HETATM   11  F1  UNL     1      -6.573   5.562  14.448  1.00  0.00    -0.202 F 
HETATM   12  F2  UNL     1      -4.720   5.681  15.673  1.00  0.00    -0.202 F 
ENDBRANCH   9  10
ENDBRANCH   3   9
BRANCH   1  13
HETATM   13  C2  UNL     1      -3.272   3.241  10.885  1.00  0.00     0.145 C 
HETATM   14  C1  UNL     1      -1.782   2.887  10.931  1.00  0.00     0.040 C 
BRANCH  13  15
HETATM   15  N1  UNL     1      -3.339   4.675  10.691  1.00  0.00    -0.325 N 
ATOM     16  H1  UNL     1      -2.707   5.250  11.247  1.00  0.00     0.181 HD
BRANCH  15  17
HETATM   17  N2  UNL     1      -4.185   5.333   9.817  1.00  0.00    -0.292 N 
HETATM   18  C3  UNL     1      -5.054   6.237  10.122  1.00  0.00     0.100 C 
HETATM   19  C4  UNL     1      -5.387   6.811  11.450  1.00  0.00     0.080 C 
HETATM   20  N3  UNL     1      -5.869   6.853   9.102  1.00  0.00    -0.301 N 
HETATM   21  C5  UNL     1      -6.324   7.962  11.033  1.00  0.00     0.034 C 
HETATM   22  C6  UNL     1      -7.009   7.416   9.791  1.00  0.00     0.099 C 
HETATM   23  C7  UNL     1      -7.702   8.450   8.977  1.00  0.00     0.013 C 
HETATM   24  C8  UNL     1      -8.826   7.851   8.161  1.00  0.00     0.008 C 
HETATM   25  C14 UNL     1      -6.806   9.135   7.968  1.00  0.00     0.001 C 
HETATM   26  C9  UNL     1      -9.660   8.948   7.605  1.00  0.00     0.017 C 
HETATM   27  C10 UNL     1      -8.946  10.117   7.060  1.00  0.00     0.010 C 
HETATM   28  C11 UNL     1      -9.118  10.121   5.533  1.00  0.00     0.023 C 
HETATM   29  C13 UNL     1      -7.526  10.294   7.372  1.00  0.00     0.021 C 
HETATM   30  C15 UNL     1      -6.246   8.170   6.949  1.00  0.00     0.108 C 
HETATM   31  C16 UNL     1      -5.734   6.974   7.702  1.00  0.00     0.226 C 
HETATM   32  O2  UNL     1      -5.169   6.054   7.064  1.00  0.00    -0.273 OA
ATOM     33  H2  UNL     1      -4.115   5.079   8.831  1.00  0.00     0.188 HD
BRANCH  27  34
HETATM   34  C12 UNL     1      -9.688  11.354   7.522  1.00  0.00     0.240 C 
HETATM   35  O1  UNL     1     -10.845  11.283   7.899  1.00  0.00    -0.306 OA
ENDBRANCH  27  34
ENDBRANCH  15  17
ENDBRANCH  13  15
ENDBRANCH   1  13
TORSDOF 6
ENDMDL
MODEL 2
REMARK VINA RESULT: -9.266881565      1.103      1.103
REMARK  6 active torsions:
REMARK  status: ('A' for Active; 'I' for Inactive)
REMARK    1  A    between atoms: C2_2  and  N1_3 
REMARK    2  A    between atoms: C2_2  and  C17_24 
REMARK    3  A    between atoms: N1_3  and  N2_5 
REMARK    4  A    between atoms: C10_14  and  C12_16 
REMARK    5  A    between atoms: C19_26  and  S1_27 
REMARK    6  A    between atoms: S1_27  and  C20_28 
ROOT
HETATM    1  C17 UNL     1      -3.892   2.898  12.359  1.00  0.00     0.035 A 
HETATM    2  C18 UNL     1      -4.169   3.761  13.391  1.00  0.00     0.049 A 
HETATM    3  C19 UNL     1      -4.473   3.016  14.508  1.00  0.00     0.045 A 
HETATM    4  C21 UNL     1      -4.379   1.683  14.147  1.00  0.00     0.131 A 
HETATM    5  C22 UNL     1      -4.615   0.529  15.001  1.00  0.00     0.119 C 
HETATM    6  N4  UNL     1      -4.788  -0.399  15.670  1.00  0.00    -0.190 NA
HETATM    7  N5  UNL     1      -4.029   1.657  12.848  1.00  0.00    -0.348 N 
ATOM      8  H5  UNL     1      -3.886   0.805  12.306  1.00  0.00     0.166 HD
ENDROOT
BRANCH   3   9
HETATM    9  S1  UNL     1      -4.916   3.611  16.152  1.00  0.00    -0.058 SA
BRANCH   9  10
HETATM   10  C20 UNL     1      -6.594   3.028  16.582  1.00  0.00     0.420 C 
HETATM   11  F1  UNL     1      -7.221   4.056  17.288  1.00  0.00    -0.202 F 
HETATM   12  F2  UNL     1      -6.425   1.987  17.472  1.00  0.00    -0.202 F 
ENDBRANCH   9  10
ENDBRANCH   3   9
BRANCH   1  13
HETATM   13  C2  UNL     1      -3.516   3.222  10.958  1.00  0.00     0.145 C 
HETATM   14  C1  UNL     1      -2.067   2.768  10.756  1.00  0.00     0.040 C 
BRANCH  13  15
HETATM   15  N1  UNL     1      -3.524   4.654  10.741  1.00  0.00    -0.325 N 
ATOM     16  H1  UNL     1      -2.869   5.211  11.289  1.00  0.00     0.181 HD
BRANCH  15  17
HETATM   17  N2  UNL     1      -4.341   5.333   9.854  1.00  0.00    -0.292 N 
HETATM   18  C3  UNL     1      -5.214   6.236  10.150  1.00  0.00     0.100 C 
HETATM   19  C4  UNL     1      -5.582   6.787  11.479  1.00  0.00     0.080 C 
HETATM   20  N3  UNL     1      -5.996   6.874   9.119  1.00  0.00    -0.301 N 
HETATM   21  C5  UNL     1      -6.501   7.951  11.056  1.00  0.00     0.034 C 
HETATM   22  C6  UNL     1      -7.153   7.431   9.785  1.00  0.00     0.099 C 
HETATM   23  C7  UNL     1      -7.817   8.483   8.970  1.00  0.00     0.013 C 
HETATM   24  C8  UNL     1      -8.919   7.905   8.111  1.00  0.00     0.008 C 
HETATM   25  C14 UNL     1      -6.888   9.181   8.000  1.00  0.00     0.001 C 
HETATM   26  C9  UNL     1      -9.732   9.016   7.551  1.00  0.00     0.017 C 
HETATM   27  C10 UNL     1      -8.997  10.191   7.049  1.00  0.00     0.010 C 
HETATM   28  C11 UNL     1      -9.125  10.223   5.517  1.00  0.00     0.023 C 
HETATM   29  C13 UNL     1      -7.586  10.354   7.404  1.00  0.00     0.021 C 
HETATM   30  C15 UNL     1      -6.304   8.231   6.980  1.00  0.00     0.108 C 
HETATM   31  C16 UNL     1      -5.821   7.020   7.726  1.00  0.00     0.226 C 
HETATM   32  O2  UNL     1      -5.242   6.107   7.088  1.00  0.00    -0.273 OA
ATOM     33  H2  UNL     1      -4.244   5.095   8.867  1.00  0.00     0.188 HD
BRANCH  27  34
HETATM   34  C12 UNL     1      -9.746  11.423   7.511  1.00  0.00     0.240 C 
HETATM   35  O1  UNL     1     -10.903  11.345   7.887  1.00  0.00    -0.306 OA
ENDBRANCH  27  34
ENDBRANCH  15  17
ENDBRANCH  13  15
ENDBRANCH   1  13
TORSDOF 6
ENDMDL
MODEL 3
REMARK VINA RESULT: -8.760458414      2.905      3.287
REMARK  6 active torsions:
REMARK  status: ('A' for Active; 'I' for Inactive)
REMARK    1  A    between atoms: C2_2  and  N1_3 
REMARK    2  A    between atoms: C2_2  and  C17_24 
REMARK    3  A    between atoms: N1_3  and  N2_5 
REMARK    4  A    between atoms: C10_14  and  C12_16 
REMARK    5  A    between atoms: C19_26  and  S1_27 
REMARK    6  A    between atoms: S1_27  and  C20_28 
ROOT
HETATM    1  C17 UNL     1      -3.376   2.519  11.533  1.00  0.00     0.035 A 
HETATM    2  C18 UNL     1      -3.510   1.285  10.946  1.00  0.00     0.049 A 
HETATM    3  C19 UNL     1      -3.929   0.392  11.906  1.00  0.00     0.045 A 
HETATM    4  C21 UNL     1      -4.050   1.096  13.092  1.00  0.00     0.131 A 
HETATM    5  C22 UNL     1      -4.465   0.566  14.381  1.00  0.00     0.119 C 
HETATM    6  N4  UNL     1      -4.803   0.162  15.412  1.00  0.00    -0.190 NA
HETATM    7  N5  UNL     1      -3.708   2.369  12.823  1.00  0.00    -0.348 N 
ATOM      8  H5  UNL     1      -3.701   3.121  13.512  1.00  0.00     0.166 HD
ENDROOT
BRANCH   3   9
HETATM    9  S1  UNL     1      -4.271  -1.368  11.710  1.00  0.00    -0.058 SA
BRANCH   9  10
HETATM   10  C20 UNL     1      -2.825  -2.191  10.952  1.00  0.00     0.420 C 
HETATM   11  F1  UNL     1      -2.886  -3.541  11.304  1.00  0.00    -0.202 F 
HETATM   12  F2  UNL     1      -1.712  -1.672  11.580  1.00  0.00    -0.202 F 
ENDBRANCH   9  10
ENDBRANCH   3   9
BRANCH   1  13
HETATM   13  C2  UNL     1      -2.947   3.799  10.911  1.00  0.00     0.145 C 
HETATM   14  C1  UNL     1      -1.666   4.247  11.622  1.00  0.00     0.040 C 
BRANCH  13  15
HETATM   15  N1  UNL     1      -3.925   4.840  11.148  1.00  0.00    -0.325 N 
ATOM     16  H1  UNL     1      -4.079   5.123  12.115  1.00  0.00     0.181 HD
BRANCH  15  17
HETATM   17  N2  UNL     1      -4.670   5.485  10.176  1.00  0.00    -0.292 N 
HETATM   18  C3  UNL     1      -5.541   6.418  10.368  1.00  0.00     0.100 C 
HETATM   19  C4  UNL     1      -5.981   7.046  11.639  1.00  0.00     0.080 C 
HETATM   20  N3  UNL     1      -6.242   7.015   9.257  1.00  0.00    -0.301 N 
HETATM   21  C5  UNL     1      -6.846   8.202  11.099  1.00  0.00     0.034 C 
HETATM   22  C6  UNL     1      -7.426   7.627   9.817  1.00  0.00     0.099 C 
HETATM   23  C7  UNL     1      -8.015   8.647   8.907  1.00  0.00     0.013 C 
HETATM   24  C8  UNL     1      -9.072   8.043   8.010  1.00  0.00     0.008 C 
HETATM   25  C14 UNL     1      -7.011   9.275   7.965  1.00  0.00     0.001 C 
HETATM   26  C9  UNL     1      -9.824   9.138   7.341  1.00  0.00     0.017 C 
HETATM   27  C10 UNL     1      -9.033  10.271   6.827  1.00  0.00     0.010 C 
HETATM   28  C11 UNL     1      -9.062  10.224   5.291  1.00  0.00     0.023 C 
HETATM   29  C13 UNL     1      -7.644  10.428   7.264  1.00  0.00     0.021 C 
HETATM   30  C15 UNL     1      -6.384   8.262   7.035  1.00  0.00     0.108 C 
HETATM   31  C16 UNL     1      -5.974   7.084   7.872  1.00  0.00     0.226 C 
HETATM   32  O2  UNL     1      -5.376   6.129   7.321  1.00  0.00    -0.273 OA
ATOM     33  H2  UNL     1      -4.515   5.195   9.211  1.00  0.00     0.188 HD
BRANCH  27  34
HETATM   34  C12 UNL     1      -9.783  11.539   7.176  1.00  0.00     0.240 C 
HETATM   35  O1  UNL     1     -10.746  11.509   7.924  1.00  0.00    -0.306 OA
ENDBRANCH  27  34
ENDBRANCH  15  17
ENDBRANCH  13  15
ENDBRANCH   1  13
TORSDOF 6
ENDMDL
MODEL 4
REMARK VINA RESULT: -8.644903749      2.392      2.885
REMARK  6 active torsions:
REMARK  status: ('A' for Active; 'I' for Inactive)
REMARK    1  A    between atoms: C2_2  and  N1_3 
REMARK    2  A    between atoms: C2_2  and  C17_24 
REMARK    3  A    between atoms: N1_3  and  N2_5 
REMARK    4  A    between atoms: C10_14  and  C12_16 
REMARK    5  A    between atoms: C19_26  and  S1_27 
REMARK    6  A    between atoms: S1_27  and  C20_28 
ROOT
HETATM    1  C17 UNL     1      -3.297   4.609  14.291  1.00  0.00     0.035 A 
HETATM    2  C18 UNL     1      -4.349   4.916  15.118  1.00  0.00     0.049 A 
HETATM    3  C19 UNL     1      -4.982   3.745  15.467  1.00  0.00     0.045 A 
HETATM    4  C21 UNL     1      -4.302   2.713  14.843  1.00  0.00     0.131 A 
HETATM    5  C22 UNL     1      -4.610   1.293  14.920  1.00  0.00     0.119 C 
HETATM    6  N4  UNL     1      -4.835   0.160  14.980  1.00  0.00    -0.190 NA
HETATM    7  N5  UNL     1      -3.298   3.276  14.146  1.00  0.00    -0.348 N 
ATOM      8  H5  UNL     1      -2.626   2.757  13.581  1.00  0.00     0.166 HD
ENDROOT
BRANCH   3   9
HETATM    9  S1  UNL     1      -6.423   3.536  16.532  1.00  0.00    -0.058 SA
BRANCH   9  10
HETATM   10  C20 UNL     1      -6.088   2.228  17.764  1.00  0.00     0.420 C 
HETATM   11  F1  UNL     1      -7.091   1.266  17.630  1.00  0.00    -0.202 F 
HETATM   12  F2  UNL     1      -6.266   2.810  19.002  1.00  0.00    -0.202 F 
ENDBRANCH   9  10
ENDBRANCH   3   9
BRANCH   1  13
HETATM   13  C2  UNL     1      -2.322   5.531  13.652  1.00  0.00     0.145 C 
HETATM   14  C1  UNL     1      -2.516   6.912  14.284  1.00  0.00     0.040 C 
BRANCH  13  15
HETATM   15  N1  UNL     1      -2.611   5.689  12.241  1.00  0.00    -0.325 N 
ATOM     16  H1  UNL     1      -1.913   5.345  11.582  1.00  0.00     0.181 HD
BRANCH  15  17
HETATM   17  N2  UNL     1      -3.751   6.265  11.709  1.00  0.00    -0.292 N 
HETATM   18  C3  UNL     1      -3.830   6.949  10.619  1.00  0.00     0.100 C 
HETATM   19  C4  UNL     1      -2.759   7.306   9.654  1.00  0.00     0.080 C 
HETATM   20  N3  UNL     1      -5.093   7.486  10.172  1.00  0.00    -0.301 N 
HETATM   21  C5  UNL     1      -3.599   7.918   8.515  1.00  0.00     0.034 C 
HETATM   22  C6  UNL     1      -4.768   8.552   9.251  1.00  0.00     0.099 C 
HETATM   23  C7  UNL     1      -5.916   8.906   8.374  1.00  0.00     0.013 C 
HETATM   24  C8  UNL     1      -6.740  10.027   8.966  1.00  0.00     0.008 C 
HETATM   25  C14 UNL     1      -6.893   7.770   8.160  1.00  0.00     0.001 C 
HETATM   26  C9  UNL     1      -7.682  10.535   7.934  1.00  0.00     0.017 C 
HETATM   27  C10 UNL     1      -8.366   9.527   7.104  1.00  0.00     0.010 C 
HETATM   28  C11 UNL     1      -9.854   9.512   7.489  1.00  0.00     0.023 C 
HETATM   29  C13 UNL     1      -7.870   8.149   7.101  1.00  0.00     0.021 C 
HETATM   30  C15 UNL     1      -7.534   7.314   9.451  1.00  0.00     0.108 C 
HETATM   31  C16 UNL     1      -6.436   7.164  10.465  1.00  0.00     0.226 C 
HETATM   32  O2  UNL     1      -6.722   6.738  11.609  1.00  0.00    -0.273 OA
ATOM     33  H2  UNL     1      -4.617   6.135  12.232  1.00  0.00     0.188 HD
BRANCH  27  34
HETATM   34  C12 UNL     1      -8.355  10.036   5.678  1.00  0.00     0.240 C 
HETATM   35  O1  UNL     1      -9.381  10.073   5.021  1.00  0.00    -0.306 OA
ENDBRANCH  27  34
ENDBRANCH  15  17
ENDBRANCH  13  15
ENDBRANCH   1  13
TORSDOF 6
ENDMDL
MODEL 5
REMARK VINA RESULT: -8.602761313      2.055      2.145
REMARK  6 active torsions:
REMARK  status: ('A' for Active; 'I' for Inactive)
REMARK    1  A    between atoms: C2_2  and  N1_3 
REMARK    2  A    between atoms: C2_2  and  C17_24 
REMARK    3  A    between atoms: N1_3  and  N2_5 
REMARK    4  A    between atoms: C10_14  and  C12_16 
REMARK    5  A    between atoms: C19_26  and  S1_27 
REMARK    6  A    between atoms: S1_27  and  C20_28 
ROOT
HETATM    1  C17 UNL     1      -3.734   3.911  13.581  1.00  0.00     0.035 A 
HETATM    2  C18 UNL     1      -4.682   4.342  14.477  1.00  0.00     0.049 A 
HETATM    3  C19 UNL     1      -5.158   3.248  15.163  1.00  0.00     0.045 A 
HETATM    4  C21 UNL     1      -4.489   2.138  14.675  1.00  0.00     0.131 A 
HETATM    5  C22 UNL     1      -4.663   0.758  15.100  1.00  0.00     0.119 C 
HETATM    6  N4  UNL     1      -4.782  -0.343  15.435  1.00  0.00    -0.190 NA
HETATM    7  N5  UNL     1      -3.644   2.582  13.726  1.00  0.00    -0.348 N 
ATOM      8  H5  UNL     1      -3.017   1.984  13.188  1.00  0.00     0.166 HD
ENDROOT
BRANCH   3   9
HETATM    9  S1  UNL     1      -6.412   3.209  16.459  1.00  0.00    -0.058 SA
BRANCH   9  10
HETATM   10  C20 UNL     1      -5.881   2.074  17.790  1.00  0.00     0.420 C 
HETATM   11  F1  UNL     1      -6.700   0.946  17.721  1.00  0.00    -0.202 F 
HETATM   12  F2  UNL     1      -6.183   2.706  18.978  1.00  0.00    -0.202 F 
ENDBRANCH   9  10
ENDBRANCH   3   9
BRANCH   1  13
HETATM   13  C2  UNL     1      -2.940   4.716  12.616  1.00  0.00     0.145 C 
HETATM   14  C1  UNL     1      -1.494   4.738  13.119  1.00  0.00     0.040 C 
BRANCH  13  15
HETATM   15  N1  UNL     1      -3.385   6.094  12.606  1.00  0.00    -0.325 N 
ATOM     16  H1  UNL     1      -3.338   6.604  13.487  1.00  0.00     0.181 HD
BRANCH  15  17
HETATM   17  N2  UNL     1      -3.867   6.780  11.505  1.00  0.00    -0.292 N 
HETATM   18  C3  UNL     1      -5.098   7.081  11.265  1.00  0.00     0.100 C 
HETATM   19  C4  UNL     1      -6.311   6.787  12.070  1.00  0.00     0.080 C 
HETATM   20  N3  UNL     1      -5.462   7.813  10.076  1.00  0.00    -0.301 N 
HETATM   21  C5  UNL     1      -7.363   7.619  11.308  1.00  0.00     0.034 C 
HETATM   22  C6  UNL     1      -6.871   7.562   9.871  1.00  0.00     0.099 C 
HETATM   23  C7  UNL     1      -7.497   8.573   8.976  1.00  0.00     0.013 C 
HETATM   24  C8  UNL     1      -7.477   8.122   7.532  1.00  0.00     0.008 C 
HETATM   25  C14 UNL     1      -6.791   9.912   8.980  1.00  0.00     0.001 C 
HETATM   26  C9  UNL     1      -8.360   9.012   6.734  1.00  0.00     0.017 C 
HETATM   27  C10 UNL     1      -8.282  10.456   7.017  1.00  0.00     0.010 C 
HETATM   28  C11 UNL     1      -7.624  11.150   5.814  1.00  0.00     0.023 C 
HETATM   29  C13 UNL     1      -7.615  10.908   8.240  1.00  0.00     0.021 C 
HETATM   30  C15 UNL     1      -5.365   9.810   8.490  1.00  0.00     0.108 C 
HETATM   31  C16 UNL     1      -4.736   8.640   9.192  1.00  0.00     0.226 C 
HETATM   32  O2  UNL     1      -3.524   8.390   8.984  1.00  0.00    -0.273 OA
ATOM     33  H2  UNL     1      -3.179   7.079  10.813  1.00  0.00     0.188 HD
BRANCH  27  34
HETATM   34  C12 UNL     1      -9.698  10.991   7.027  1.00  0.00     0.240 C 
HETATM   35  O1  UNL     1     -10.651  10.232   7.091  1.00  0.00    -0.306 OA
ENDBRANCH  27  34
ENDBRANCH  15  17
ENDBRANCH  13  15
ENDBRANCH   1  13
TORSDOF 6
ENDMDL
