MODEL 1
REMARK VINA RESULT: -4.083388142      0.000      0.000
REMARK  0 active torsions:
REMARK  status: ('A' for Active; 'I' for Inactive)
ROOT
HETATM    1  N1  UNL     1      59.366 -48.851  22.638  1.00  0.00    -0.063 NA
HETATM    2  C1  UNL     1      60.515 -48.808  21.815  1.00  0.00     0.198 C 
HETATM    3  N2  UNL     1      60.477 -48.012  20.774  1.00  0.00    -0.281 N 
ATOM      4  H2  UNL     1      59.605 -47.495  20.664  1.00  0.00     0.173 HD
HETATM    5  C2  UNL     1      61.459 -47.750  19.768  1.00  0.00     0.341 C 
HETATM    6  O1  UNL     1      61.249 -46.742  19.046  1.00  0.00    -0.245 OA
HETATM    7  N3  UNL     1      62.635 -48.512  19.511  1.00  0.00    -0.249 N 
ATOM      8  H3  UNL     1      63.159 -48.265  18.671  1.00  0.00     0.192 HD
HETATM    9  N4  UNL     1      63.148 -49.549  20.270  1.00  0.00    -0.269 N 
ATOM     10  H4  UNL     1      63.917 -50.079  19.860  1.00  0.00     0.190 HD
HETATM   11  C3  UNL     1      62.711 -49.950  21.566  1.00  0.00     0.209 C 
HETATM   12  N5  UNL     1      63.573 -50.813  22.293  1.00  0.00    -0.062 NA
HETATM   13  N6  UNL     1      61.623 -49.632  22.181  1.00  0.00    -0.303 N 
ATOM     14  H6  UNL     1      61.537 -50.049  23.108  1.00  0.00     0.171 HD
ENDROOT
TORSDOF 0
ENDMDL
MODEL 2
REMARK VINA RESULT: -3.815030789      1.990      3.193
REMARK  0 active torsions:
REMARK  status: ('A' for Active; 'I' for Inactive)
ROOT
HETATM    1  N1  UNL     1      59.260 -48.981  22.444  1.00  0.00    -0.063 NA
HETATM    2  C1  UNL     1      60.515 -48.927  21.796  1.00  0.00     0.198 C 
HETATM    3  N2  UNL     1      61.465 -49.698  22.265  1.00  0.00    -0.281 N 
ATOM      4  H2  UNL     1      61.196 -50.270  23.065  1.00  0.00     0.173 HD
HETATM    5  C2  UNL     1      62.819 -49.870  21.837  1.00  0.00     0.341 C 
HETATM    6  O1  UNL     1      63.419 -50.872  22.304  1.00  0.00    -0.245 OA
HETATM    7  N3  UNL     1      63.541 -49.026  20.945  1.00  0.00    -0.249 N 
ATOM      8  H3  UNL     1      64.538 -49.217  20.849  1.00  0.00     0.192 HD
HETATM    9  N4  UNL     1      63.044 -47.976  20.193  1.00  0.00    -0.269 N 
ATOM     10  H4  UNL     1      63.729 -47.385  19.722  1.00  0.00     0.190 HD
HETATM   11  C3  UNL     1      61.671 -47.637  20.011  1.00  0.00     0.209 C 
HETATM   12  N5  UNL     1      61.370 -46.736  18.955  1.00  0.00    -0.062 NA
HETATM   13  N6  UNL     1      60.648 -48.041  20.683  1.00  0.00    -0.303 N 
ATOM     14  H6  UNL     1      59.762 -47.654  20.358  1.00  0.00     0.171 HD
ENDROOT
TORSDOF 0
ENDMDL
MODEL 3
REMARK VINA RESULT: -3.037441048      1.781      2.921
REMARK  0 active torsions:
REMARK  status: ('A' for Active; 'I' for Inactive)
ROOT
HETATM    1  N1  UNL     1      60.982 -46.483  19.047  1.00  0.00    -0.063 NA
HETATM    2  C1  UNL     1      61.237 -47.559  19.929  1.00  0.00     0.198 C 
HETATM    3  N2  UNL     1      60.383 -47.749  20.905  1.00  0.00    -0.281 N 
ATOM      4  H2  UNL     1      59.607 -47.088  20.928  1.00  0.00     0.173 HD
HETATM    5  C2  UNL     1      60.362 -48.732  21.944  1.00  0.00     0.341 C 
HETATM    6  O1  UNL     1      59.281 -48.837  22.578  1.00  0.00    -0.245 OA
HETATM    7  N3  UNL     1      61.435 -49.589  22.322  1.00  0.00    -0.249 N 
ATOM      8  H3  UNL     1      61.296 -50.139  23.170  1.00  0.00     0.192 HD
HETATM    9  N4  UNL     1      62.643 -49.763  21.671  1.00  0.00    -0.269 N 
ATOM     10  H4  UNL     1      63.354 -50.306  22.161  1.00  0.00     0.190 HD
HETATM   11  C3  UNL     1      62.994 -49.259  20.384  1.00  0.00     0.209 C 
HETATM   12  N5  UNL     1      64.148 -49.817  19.772  1.00  0.00    -0.062 NA
HETATM   13  N6  UNL     1      62.400 -48.351  19.687  1.00  0.00    -0.303 N 
ATOM     14  H6  UNL     1      62.846 -48.164  18.789  1.00  0.00     0.171 HD
ENDROOT
TORSDOF 0
ENDMDL
MODEL 4
REMARK VINA RESULT: -3.021323913      1.623      1.623
REMARK  0 active torsions:
REMARK  status: ('A' for Active; 'I' for Inactive)
ROOT
HETATM    1  N1  UNL     1      59.092 -49.238  21.947  1.00  0.00    -0.063 NA
HETATM    2  C1  UNL     1      60.436 -48.798  21.934  1.00  0.00     0.198 C 
HETATM    3  N2  UNL     1      60.644 -47.509  21.820  1.00  0.00    -0.281 N 
ATOM      4  H2  UNL     1      59.797 -46.945  21.751  1.00  0.00     0.173 HD
HETATM    5  C2  UNL     1      61.864 -46.765  21.776  1.00  0.00     0.341 C 
HETATM    6  O1  UNL     1      61.754 -45.521  21.932  1.00  0.00    -0.245 OA
HETATM    7  N3  UNL     1      63.172 -47.291  21.576  1.00  0.00    -0.249 N 
ATOM      8  H3  UNL     1      63.918 -46.608  21.440  1.00  0.00     0.192 HD
HETATM    9  N4  UNL     1      63.549 -48.622  21.546  1.00  0.00    -0.269 N 
ATOM     10  H4  UNL     1      64.502 -48.822  21.244  1.00  0.00     0.190 HD
HETATM   11  C3  UNL     1      62.737 -49.742  21.893  1.00  0.00     0.209 C 
HETATM   12  N5  UNL     1      63.407 -50.977  22.102  1.00  0.00    -0.062 NA
HETATM   13  N6  UNL     1      61.458 -49.790  22.048  1.00  0.00    -0.303 N 
ATOM     14  H6  UNL     1      61.108 -50.715  22.300  1.00  0.00     0.171 HD
ENDROOT
TORSDOF 0
ENDMDL
MODEL 5
REMARK VINA RESULT: -2.900739318      2.158      2.925
REMARK  0 active torsions:
REMARK  status: ('A' for Active; 'I' for Inactive)
ROOT
HETATM    1  N1  UNL     1      59.068 -49.272  21.896  1.00  0.00    -0.063 NA
HETATM    2  C1  UNL     1      60.390 -48.868  21.599  1.00  0.00     0.198 C 
HETATM    3  N2  UNL     1      61.194 -49.771  21.095  1.00  0.00    -0.281 N 
ATOM      4  H2  UNL     1      60.774 -50.692  20.966  1.00  0.00     0.173 HD
HETATM    5  C2  UNL     1      62.564 -49.677  20.695  1.00  0.00     0.341 C 
HETATM    6  O1  UNL     1      62.999 -50.630  19.998  1.00  0.00    -0.245 OA
HETATM    7  N3  UNL     1      63.468 -48.622  21.008  1.00  0.00    -0.249 N 
ATOM      8  H3  UNL     1      64.445 -48.776  20.758  1.00  0.00     0.192 HD
HETATM    9  N4  UNL     1      63.174 -47.413  21.613  1.00  0.00    -0.269 N 
ATOM     10  H4  UNL     1      63.967 -46.837  21.895  1.00  0.00     0.190 HD
HETATM   11  C3  UNL     1      61.874 -46.892  21.882  1.00  0.00     0.209 C 
HETATM   12  N5  UNL     1      61.793 -45.512  22.207  1.00  0.00    -0.062 NA
HETATM   13  N6  UNL     1      60.743 -47.511  21.870  1.00  0.00    -0.303 N 
ATOM     14  H6  UNL     1      59.946 -46.915  22.097  1.00  0.00     0.171 HD
ENDROOT
TORSDOF 0
ENDMDL
