MODEL 1
REMARK VINA RESULT: -4.643762250      0.000      0.000
REMARK  1 active torsions:
REMARK  status: ('A' for Active; 'I' for Inactive)
REMARK    1  A    between atoms: N1_1  and  C1_4 
ROOT
HETATM    1  C1  UNL     1      61.793 -47.454  21.792  1.00  0.00     0.135 A 
HETATM    2  N2  UNL     1      60.538 -47.707  22.194  1.00  0.00    -0.293 N 
ATOM      3  H2  UNL     1      60.016 -47.036  22.758  1.00  0.00     0.172 HD
HETATM    4  C2  UNL     1      59.994 -48.887  21.819  1.00  0.00     0.327 A 
HETATM    5  O1  UNL     1      58.815 -49.208  22.153  1.00  0.00    -0.247 OA
HETATM    6  N3  UNL     1      60.699 -49.766  21.071  1.00  0.00    -0.292 N 
ATOM      7  H3  UNL     1      60.254 -50.645  20.809  1.00  0.00     0.172 HD
HETATM    8  C3  UNL     1      61.953 -49.540  20.657  1.00  0.00     0.154 A 
HETATM    9  N4  UNL     1      62.870 -50.191  19.936  1.00  0.00    -0.267 N 
ATOM     10  H4  UNL     1      62.743 -51.112  19.518  1.00  0.00     0.186 HD
HETATM   11  N5  UNL     1      63.967 -49.457  19.848  1.00  0.00    -0.020 NA
HETATM   12  N6  UNL     1      63.781 -48.323  20.507  1.00  0.00    -0.277 N 
ATOM     13  H6  UNL     1      64.460 -47.568  20.607  1.00  0.00     0.184 HD
HETATM   14  C4  UNL     1      62.533 -48.343  21.024  1.00  0.00     0.135 A 
ENDROOT
BRANCH   1  15
HETATM   15  N1  UNL     1      62.305 -46.327  22.154  1.00  0.00    -0.383 N 
ATOM     16  H12 UNL     1      61.851 -45.764  22.874  1.00  0.00     0.157 HD
ATOM     17  H11 UNL     1      63.166 -46.041  21.688  1.00  0.00     0.157 HD
ENDBRANCH   1  15
TORSDOF 1
ENDMDL
MODEL 2
REMARK VINA RESULT: -3.568297451      2.043      3.342
REMARK  1 active torsions:
REMARK  status: ('A' for Active; 'I' for Inactive)
REMARK    1  A    between atoms: N1_1  and  C1_4 
ROOT
HETATM    1  C1  UNL     1      62.241 -47.504  21.683  1.00  0.00     0.135 A 
HETATM    2  N2  UNL     1      63.285 -47.949  20.968  1.00  0.00    -0.293 N 
ATOM      3  H2  UNL     1      64.145 -47.406  20.890  1.00  0.00     0.172 HD
HETATM    4  C2  UNL     1      63.150 -49.148  20.355  1.00  0.00     0.327 A 
HETATM    5  O1  UNL     1      64.085 -49.644  19.660  1.00  0.00    -0.247 OA
HETATM    6  N3  UNL     1      62.004 -49.855  20.468  1.00  0.00    -0.292 N 
ATOM      7  H3  UNL     1      61.940 -50.754  19.991  1.00  0.00     0.172 HD
HETATM    8  C3  UNL     1      60.946 -49.436  21.175  1.00  0.00     0.154 A 
HETATM    9  N4  UNL     1      59.724 -49.895  21.462  1.00  0.00    -0.267 N 
ATOM     10  H4  UNL     1      59.338 -50.781  21.136  1.00  0.00     0.186 HD
HETATM   11  N5  UNL     1      59.093 -49.023  22.232  1.00  0.00    -0.020 NA
HETATM   12  N6  UNL     1      59.891 -47.990  22.457  1.00  0.00    -0.277 N 
ATOM     13  H6  UNL     1      59.665 -47.169  23.019  1.00  0.00     0.184 HD
HETATM   14  C4  UNL     1      61.055 -48.216  21.811  1.00  0.00     0.135 A 
ENDROOT
BRANCH   1  15
HETATM   15  N1  UNL     1      62.378 -46.360  22.264  1.00  0.00    -0.383 N 
ATOM     16  H12 UNL     1      61.722 -45.603  22.069  1.00  0.00     0.157 HD
ATOM     17  H11 UNL     1      63.160 -46.263  22.911  1.00  0.00     0.157 HD
ENDBRANCH   1  15
TORSDOF 1
ENDMDL
MODEL 3
REMARK VINA RESULT: -3.302657744      2.074      2.627
REMARK  1 active torsions:
REMARK  status: ('A' for Active; 'I' for Inactive)
REMARK    1  A    between atoms: N1_1  and  C1_4 
ROOT
HETATM    1  C1  UNL     1      60.576 -48.437  21.793  1.00  0.00     0.135 A 
HETATM    2  N2  UNL     1      60.337 -47.536  20.828  1.00  0.00    -0.293 N 
ATOM      3  H2  UNL     1      59.499 -46.954  20.840  1.00  0.00     0.172 HD
HETATM    4  C2  UNL     1      61.255 -47.431  19.839  1.00  0.00     0.327 A 
HETATM    5  O1  UNL     1      61.111 -46.607  18.888  1.00  0.00    -0.247 OA
HETATM    6  N3  UNL     1      62.360 -48.209  19.838  1.00  0.00    -0.292 N 
ATOM      7  H3  UNL     1      63.028 -48.101  19.075  1.00  0.00     0.172 HD
HETATM    8  C3  UNL     1      62.623 -49.117  20.788  1.00  0.00     0.154 A 
HETATM    9  N4  UNL     1      63.593 -49.998  21.048  1.00  0.00    -0.267 N 
ATOM     10  H4  UNL     1      64.422 -50.146  20.474  1.00  0.00     0.186 HD
HETATM   11  N5  UNL     1      63.312 -50.648  22.166  1.00  0.00    -0.020 NA
HETATM   12  N6  UNL     1      62.161 -50.202  22.647  1.00  0.00    -0.277 N 
ATOM     13  H6  UNL     1      61.701 -50.525  23.498  1.00  0.00     0.184 HD
HETATM   14  C4  UNL     1      61.705 -49.245  21.810  1.00  0.00     0.135 A 
ENDROOT
BRANCH   1  15
HETATM   15  N1  UNL     1      59.696 -48.531  22.733  1.00  0.00    -0.383 N 
ATOM     16  H12 UNL     1      58.712 -48.352  22.534  1.00  0.00     0.157 HD
ATOM     17  H11 UNL     1      60.037 -48.787  23.659  1.00  0.00     0.157 HD
ENDBRANCH   1  15
TORSDOF 1
ENDMDL
MODEL 4
REMARK VINA RESULT: -3.201339093      1.543      2.590
REMARK  1 active torsions:
REMARK  status: ('A' for Active; 'I' for Inactive)
REMARK    1  A    between atoms: N1_1  and  C1_4 
ROOT
HETATM    1  C1  UNL     1      60.658 -48.746  21.402  1.00  0.00     0.135 A 
HETATM    2  N2  UNL     1      60.480 -47.548  21.981  1.00  0.00    -0.293 N 
ATOM      3  H2  UNL     1      59.598 -47.300  22.429  1.00  0.00     0.172 HD
HETATM    4  C2  UNL     1      61.521 -46.683  21.945  1.00  0.00     0.327 A 
HETATM    5  O1  UNL     1      61.442 -45.532  22.466  1.00  0.00    -0.247 OA
HETATM    6  N3  UNL     1      62.684 -47.027  21.347  1.00  0.00    -0.292 N 
ATOM      7  H3  UNL     1      63.444 -46.348  21.341  1.00  0.00     0.172 HD
HETATM    8  C3  UNL     1      62.888 -48.215  20.762  1.00  0.00     0.154 A 
HETATM    9  N4  UNL     1      63.888 -48.821  20.116  1.00  0.00    -0.267 N 
ATOM     10  H4  UNL     1      64.805 -48.411  19.935  1.00  0.00     0.186 HD
HETATM   11  N5  UNL     1      63.508 -50.034  19.748  1.00  0.00    -0.020 NA
HETATM   12  N6  UNL     1      62.260 -50.234  20.147  1.00  0.00    -0.277 N 
ATOM     13  H6  UNL     1      61.712 -51.081  19.999  1.00  0.00     0.184 HD
HETATM   14  C4  UNL     1      61.844 -49.117  20.783  1.00  0.00     0.135 A 
ENDROOT
BRANCH   1  15
HETATM   15  N1  UNL     1      59.661 -49.564  21.440  1.00  0.00    -0.383 N 
ATOM     16  H12 UNL     1      58.707 -49.216  21.350  1.00  0.00     0.157 HD
ATOM     17  H11 UNL     1      59.881 -50.552  21.564  1.00  0.00     0.157 HD
ENDBRANCH   1  15
TORSDOF 1
ENDMDL
MODEL 5
REMARK VINA RESULT: -2.844827415      2.298      3.040
REMARK  1 active torsions:
REMARK  status: ('A' for Active; 'I' for Inactive)
REMARK    1  A    between atoms: N1_1  and  C1_4 
ROOT
HETATM    1  C1  UNL     1      60.882 -48.869  22.114  1.00  0.00     0.135 A 
HETATM    2  N2  UNL     1      61.731 -49.776  22.620  1.00  0.00    -0.293 N 
ATOM      3  H2  UNL     1      61.521 -50.277  23.484  1.00  0.00     0.172 HD
HETATM    4  C2  UNL     1      62.877 -50.000  21.935  1.00  0.00     0.327 A 
HETATM    5  O1  UNL     1      63.735 -50.839  22.340  1.00  0.00    -0.247 OA
HETATM    6  N3  UNL     1      63.140 -49.328  20.792  1.00  0.00    -0.292 N 
ATOM      7  H3  UNL     1      64.014 -49.525  20.306  1.00  0.00     0.172 HD
HETATM    8  C3  UNL     1      62.311 -48.417  20.265  1.00  0.00     0.154 A 
HETATM    9  N4  UNL     1      62.297 -47.622  19.192  1.00  0.00    -0.267 N 
ATOM     10  H4  UNL     1      63.033 -47.571  18.488  1.00  0.00     0.186 HD
HETATM   11  N5  UNL     1      61.181 -46.910  19.184  1.00  0.00    -0.020 NA
HETATM   12  N6  UNL     1      60.457 -47.230  20.245  1.00  0.00    -0.277 N 
ATOM     13  H6  UNL     1      59.549 -46.837  20.493  1.00  0.00     0.184 HD
HETATM   14  C4  UNL     1      61.134 -48.169  20.942  1.00  0.00     0.135 A 
ENDROOT
BRANCH   1  15
HETATM   15  N1  UNL     1      59.792 -48.661  22.773  1.00  0.00    -0.383 N 
ATOM     16  H12 UNL     1      59.337 -49.427  23.268  1.00  0.00     0.157 HD
ATOM     17  H11 UNL     1      59.424 -47.709  22.766  1.00  0.00     0.157 HD
ENDBRANCH   1  15
TORSDOF 1
ENDMDL
