MODEL 1
REMARK VINA RESULT: -3.067887661      0.000      0.000
REMARK  2 active torsions:
REMARK  status: ('A' for Active; 'I' for Inactive)
REMARK    1  A    between atoms: C2_3  and  N2_4 
REMARK    2  A    between atoms: C3_9  and  N4_10 
ROOT
HETATM    1  C1  UNL     1      63.802 -48.988  19.863  1.00  0.00     0.180 C 
HETATM    2  N1  UNL     1      62.585 -48.840  20.652  1.00  0.00    -0.136 N 
HETATM    3  C2  UNL     1      62.443 -49.462  21.837  1.00  0.00     0.696 A 
HETATM    4  N3  UNL     1      61.323 -49.329  22.570  1.00  0.00    -0.022 N 
ATOM      5  H3  UNL     1      61.252 -49.816  23.464  1.00  0.00     0.203 HD
HETATM    6  C3  UNL     1      60.294 -48.570  22.152  1.00  0.00     0.694 A 
HETATM    7  N5  UNL     1      60.443 -47.950  20.967  1.00  0.00    -0.140 N 
ATOM      8  H5  UNL     1      59.685 -47.364  20.618  1.00  0.00     0.189 HD
HETATM    9  C4  UNL     1      61.561 -48.079  20.228  1.00  0.00     0.354 A 
HETATM   10  O1  UNL     1      61.706 -47.499  19.114  1.00  0.00    -0.245 OA
ENDROOT
BRANCH   3  11
HETATM   11  N2  UNL     1      63.430 -50.189  22.234  1.00  0.00    -0.234 N 
ATOM     12  H22 UNL     1      63.510 -51.172  21.973  1.00  0.00     0.174 HD
ATOM     13  H21 UNL     1      64.129 -49.736  22.823  1.00  0.00     0.174 HD
ENDBRANCH   3  11
BRANCH   6  14
HETATM   14  N4  UNL     1      59.211 -48.441  22.862  1.00  0.00    -0.234 N 
ATOM     15  H42 UNL     1      58.304 -48.259  22.430  1.00  0.00     0.174 HD
ATOM     16  H41 UNL     1      59.227 -48.516  23.879  1.00  0.00     0.174 HD
ENDBRANCH   6  14
TORSDOF 2
ENDMDL
MODEL 2
REMARK VINA RESULT: -2.714172637      0.889      2.923
REMARK  2 active torsions:
REMARK  status: ('A' for Active; 'I' for Inactive)
REMARK    1  A    between atoms: C2_3  and  N2_4 
REMARK    2  A    between atoms: C3_9  and  N4_10 
ROOT
HETATM    1  C1  UNL     1      60.093 -47.381  20.253  1.00  0.00     0.180 C 
HETATM    2  N1  UNL     1      61.090 -48.282  20.818  1.00  0.00    -0.136 N 
HETATM    3  C2  UNL     1      60.933 -48.815  22.043  1.00  0.00     0.696 A 
HETATM    4  N3  UNL     1      61.849 -49.647  22.571  1.00  0.00    -0.022 N 
ATOM      5  H3  UNL     1      61.695 -50.032  23.503  1.00  0.00     0.203 HD
HETATM    6  C3  UNL     1      62.964 -49.984  21.897  1.00  0.00     0.694 A 
HETATM    7  N5  UNL     1      63.115 -49.448  20.672  1.00  0.00    -0.140 N 
ATOM      8  H5  UNL     1      63.947 -49.681  20.130  1.00  0.00     0.189 HD
HETATM    9  C4  UNL     1      62.202 -48.614  20.139  1.00  0.00     0.354 A 
HETATM   10  O1  UNL     1      62.339 -48.108  18.989  1.00  0.00    -0.245 OA
ENDROOT
BRANCH   3  11
HETATM   11  N2  UNL     1      59.864 -48.490  22.687  1.00  0.00    -0.234 N 
ATOM     12  H22 UNL     1      58.958 -48.426  22.222  1.00  0.00     0.174 HD
ATOM     13  H21 UNL     1      59.967 -48.301  23.683  1.00  0.00     0.174 HD
ENDBRANCH   3  11
BRANCH   6  14
HETATM   14  N4  UNL     1      63.851 -50.789  22.407  1.00  0.00    -0.234 N 
ATOM     15  H42 UNL     1      63.618 -51.438  23.159  1.00  0.00     0.174 HD
ATOM     16  H41 UNL     1      64.815 -50.802  22.073  1.00  0.00     0.174 HD
ENDBRANCH   6  14
TORSDOF 2
ENDMDL
MODEL 3
REMARK VINA RESULT: -2.588411538      1.588      2.467
REMARK  2 active torsions:
REMARK  status: ('A' for Active; 'I' for Inactive)
REMARK    1  A    between atoms: C2_3  and  N2_4 
REMARK    2  A    between atoms: C3_9  and  N4_10 
ROOT
HETATM    1  C1  UNL     1      63.851 -49.018  19.959  1.00  0.00     0.180 C 
HETATM    2  N1  UNL     1      62.624 -48.870  20.733  1.00  0.00    -0.136 N 
HETATM    3  C2  UNL     1      61.651 -48.027  20.342  1.00  0.00     0.696 A 
HETATM    4  N3  UNL     1      60.517 -47.885  21.051  1.00  0.00    -0.022 N 
ATOM      5  H3  UNL     1      59.802 -47.235  20.723  1.00  0.00     0.203 HD
HETATM    6  C3  UNL     1      60.304 -48.581  22.183  1.00  0.00     0.694 A 
HETATM    7  N5  UNL     1      61.280 -49.424  22.568  1.00  0.00    -0.140 N 
ATOM      8  H5  UNL     1      61.153 -49.969  23.420  1.00  0.00     0.189 HD
HETATM    9  C4  UNL     1      62.417 -49.569  21.863  1.00  0.00     0.354 A 
HETATM   10  O1  UNL     1      63.338 -50.359  22.220  1.00  0.00    -0.245 OA
ENDROOT
BRANCH   3  11
HETATM   11  N2  UNL     1      61.859 -47.361  19.258  1.00  0.00    -0.234 N 
ATOM     12  H22 UNL     1      62.432 -47.735  18.501  1.00  0.00     0.174 HD
ATOM     13  H21 UNL     1      61.423 -46.441  19.191  1.00  0.00     0.174 HD
ENDBRANCH   3  11
BRANCH   6  14
HETATM   14  N4  UNL     1      59.206 -48.445  22.869  1.00  0.00    -0.234 N 
ATOM     15  H42 UNL     1      58.350 -48.940  22.617  1.00  0.00     0.174 HD
ATOM     16  H41 UNL     1      59.159 -47.835  23.686  1.00  0.00     0.174 HD
ENDBRANCH   6  14
TORSDOF 2
ENDMDL
MODEL 4
REMARK VINA RESULT: -2.342517350      2.041      2.493
REMARK  2 active torsions:
REMARK  status: ('A' for Active; 'I' for Inactive)
REMARK    1  A    between atoms: C2_3  and  N2_4 
REMARK    2  A    between atoms: C3_9  and  N4_10 
ROOT
HETATM    1  C1  UNL     1      61.933 -50.623  20.288  1.00  0.00     0.180 C 
HETATM    2  N1  UNL     1      61.831 -49.274  20.832  1.00  0.00    -0.136 N 
HETATM    3  C2  UNL     1      62.862 -48.412  20.754  1.00  0.00     0.696 A 
HETATM    4  N3  UNL     1      62.776 -47.167  21.254  1.00  0.00    -0.022 N 
ATOM      5  H3  UNL     1      63.578 -46.541  21.176  1.00  0.00     0.203 HD
HETATM    6  C3  UNL     1      61.655 -46.726  21.856  1.00  0.00     0.694 A 
HETATM    7  N5  UNL     1      60.628 -47.592  21.930  1.00  0.00    -0.140 N 
ATOM      8  H5  UNL     1      59.762 -47.294  22.378  1.00  0.00     0.189 HD
HETATM    9  C4  UNL     1      60.709 -48.841  21.432  1.00  0.00     0.354 A 
HETATM   10  O1  UNL     1      59.747 -49.658  21.499  1.00  0.00    -0.245 OA
ENDROOT
BRANCH   3  11
HETATM   11  N2  UNL     1      63.934 -48.838  20.179  1.00  0.00    -0.234 N 
ATOM     12  H22 UNL     1      64.612 -48.196  19.768  1.00  0.00     0.174 HD
ATOM     13  H21 UNL     1      64.074 -49.848  20.154  1.00  0.00     0.174 HD
ENDBRANCH   3  11
BRANCH   6  14
HETATM   14  N4  UNL     1      61.571 -45.520  22.339  1.00  0.00    -0.234 N 
ATOM     15  H42 UNL     1      61.324 -45.348  23.315  1.00  0.00     0.174 HD
ATOM     16  H41 UNL     1      61.748 -44.699  21.760  1.00  0.00     0.174 HD
ENDBRANCH   6  14
TORSDOF 2
ENDMDL
MODEL 5
REMARK VINA RESULT: -2.272928541      1.617      1.762
REMARK  2 active torsions:
REMARK  status: ('A' for Active; 'I' for Inactive)
REMARK    1  A    between atoms: C2_3  and  N2_4 
REMARK    2  A    between atoms: C3_9  and  N4_10 
ROOT
HETATM    1  C1  UNL     1      64.040 -48.685  20.230  1.00  0.00     0.180 C 
HETATM    2  N1  UNL     1      62.748 -48.637  20.902  1.00  0.00    -0.136 N 
HETATM    3  C2  UNL     1      61.787 -49.538  20.630  1.00  0.00     0.696 A 
HETATM    4  N3  UNL     1      60.591 -49.500  21.246  1.00  0.00    -0.022 N 
ATOM      5  H3  UNL     1      59.888 -50.201  21.013  1.00  0.00     0.203 HD
HETATM    6  C3  UNL     1      60.302 -48.558  22.162  1.00  0.00     0.694 A 
HETATM    7  N5  UNL     1      61.268 -47.659  22.431  1.00  0.00    -0.140 N 
ATOM      8  H5  UNL     1      61.086 -46.931  23.121  1.00  0.00     0.189 HD
HETATM    9  C4  UNL     1      62.465 -47.692  21.817  1.00  0.00     0.354 A 
HETATM   10  O1  UNL     1      63.376 -46.851  22.066  1.00  0.00    -0.245 OA
ENDROOT
BRANCH   3  11
HETATM   11  N2  UNL     1      62.066 -50.439  19.751  1.00  0.00    -0.234 N 
ATOM     12  H22 UNL     1      63.030 -50.685  19.523  1.00  0.00     0.174 HD
ATOM     13  H21 UNL     1      61.278 -50.896  19.294  1.00  0.00     0.174 HD
ENDBRANCH   3  11
BRANCH   6  14
HETATM   14  N4  UNL     1      59.146 -48.521  22.759  1.00  0.00    -0.234 N 
ATOM     15  H42 UNL     1      59.040 -48.777  23.741  1.00  0.00     0.174 HD
ATOM     16  H41 UNL     1      58.300 -48.234  22.266  1.00  0.00     0.174 HD
ENDBRANCH   6  14
TORSDOF 2
ENDMDL
