MODEL 1
REMARK VINA RESULT: -0.518253204      0.000      0.000
REMARK  3 active torsions:
REMARK  status: ('A' for Active; 'I' for Inactive)
REMARK    1  A    between atoms: N1_2  and  C2_4 
REMARK    2  A    between atoms: C3_7  and  N3_8 
REMARK    3  A    between atoms: N4_13  and  N5_14 
ROOT
HETATM    1  C2  UNL     1      62.699 -49.512  21.462  1.00  0.00     0.695 A 
HETATM    2  N2  UNL     1      61.610 -49.486  22.255  1.00  0.00    -0.170 N 
ATOM      3  H2  UNL     1      61.560 -50.106  23.064  1.00  0.00     0.186 HD
HETATM    4  C3  UNL     1      60.582 -48.649  21.991  1.00  0.00     0.186 A 
HETATM    5  C4  UNL     1      60.662 -47.821  20.899  1.00  0.00     0.325 A 
HETATM    6  O1  UNL     1      59.719 -47.044  20.645  1.00  0.00    -0.261 OA
HETATM    7  N4  UNL     1      61.756 -47.853  20.110  1.00  0.00    -0.146 N 
HETATM    8  N6  UNL     1      62.740 -48.690  20.407  1.00  0.00    -0.108 N 
ATOM      9  H6  UNL     1      63.563 -48.708  19.806  1.00  0.00     0.208 HD
ENDROOT
BRANCH   1  10
HETATM   10  N1  UNL     1      63.688 -50.304  21.698  1.00  0.00    -0.229 N 
HETATM   11  C1  UNL     1      63.633 -51.295  22.749  1.00  0.00     0.165 C 
ATOM     12  H1  UNL     1      64.531 -50.230  21.128  1.00  0.00     0.177 HD
ENDBRANCH   1  10
BRANCH   4  13
HETATM   13  N3  UNL     1      59.528 -48.630  22.765  1.00  0.00    -0.380 N 
ATOM     14  H32 UNL     1      58.820 -49.361  22.696  1.00  0.00     0.157 HD
ATOM     15  H31 UNL     1      59.402 -47.883  23.448  1.00  0.00     0.157 HD
ENDBRANCH   4  13
BRANCH   7  16
HETATM   16  N5  UNL     1      61.855 -47.023  19.002  1.00  0.00    -0.320 N 
ATOM     17  H52 UNL     1      61.867 -47.420  18.062  1.00  0.00     0.179 HD
ATOM     18  H51 UNL     1      61.918 -46.011  19.113  1.00  0.00     0.179 HD
ENDBRANCH   7  16
TORSDOF 3
ENDMDL
MODEL 2
REMARK VINA RESULT: -0.477312986      0.585      2.453
REMARK  3 active torsions:
REMARK  status: ('A' for Active; 'I' for Inactive)
REMARK    1  A    between atoms: N1_2  and  C2_4 
REMARK    2  A    between atoms: C3_7  and  N3_8 
REMARK    3  A    between atoms: N4_13  and  N5_14 
ROOT
HETATM    1  C2  UNL     1      62.759 -49.405  21.531  1.00  0.00     0.695 A 
HETATM    2  N2  UNL     1      62.812 -48.624  20.434  1.00  0.00    -0.170 N 
ATOM      3  H2  UNL     1      63.649 -48.631  19.850  1.00  0.00     0.186 HD
HETATM    4  C3  UNL     1      61.769 -47.833  20.097  1.00  0.00     0.186 A 
HETATM    5  C4  UNL     1      60.649 -47.835  20.891  1.00  0.00     0.325 A 
HETATM    6  O1  UNL     1      59.680 -47.108  20.590  1.00  0.00    -0.261 OA
HETATM    7  N4  UNL     1      60.604 -48.620  21.987  1.00  0.00    -0.146 N 
HETATM    8  N6  UNL     1      61.650 -49.379  22.279  1.00  0.00    -0.108 N 
ATOM      9  H6  UNL     1      61.608 -49.969  23.110  1.00  0.00     0.208 HD
ENDROOT
BRANCH   1  10
HETATM   10  N1  UNL     1      63.744 -50.165  21.867  1.00  0.00    -0.229 N 
HETATM   11  C1  UNL     1      63.558 -51.314  22.725  1.00  0.00     0.165 C 
ATOM     12  H1  UNL     1      64.679 -49.951  21.519  1.00  0.00     0.177 HD
ENDBRANCH   1  10
BRANCH   4  13
HETATM   13  N3  UNL     1      61.828 -47.078  19.031  1.00  0.00    -0.380 N 
ATOM     14  H32 UNL     1      62.327 -47.392  18.199  1.00  0.00     0.157 HD
ATOM     15  H31 UNL     1      61.375 -46.164  19.020  1.00  0.00     0.157 HD
ENDBRANCH   4  13
BRANCH   7  16
HETATM   16  N5  UNL     1      59.480 -48.635  22.802  1.00  0.00    -0.320 N 
ATOM     17  H52 UNL     1      59.373 -49.357  23.515  1.00  0.00     0.179 HD
ATOM     18  H51 UNL     1      58.752 -47.929  22.699  1.00  0.00     0.179 HD
ENDBRANCH   7  16
TORSDOF 3
ENDMDL
MODEL 3
REMARK VINA RESULT: -0.266384697      1.435      2.222
REMARK  3 active torsions:
REMARK  status: ('A' for Active; 'I' for Inactive)
REMARK    1  A    between atoms: N1_2  and  C2_4 
REMARK    2  A    between atoms: C3_7  and  N3_8 
REMARK    3  A    between atoms: N4_13  and  N5_14 
ROOT
HETATM    1  C2  UNL     1      62.743 -49.423  21.677  1.00  0.00     0.695 A 
HETATM    2  N2  UNL     1      62.963 -48.099  21.801  1.00  0.00    -0.170 N 
ATOM      3  H2  UNL     1      63.920 -47.751  21.874  1.00  0.00     0.186 HD
HETATM    4  C3  UNL     1      61.931 -47.226  21.830  1.00  0.00     0.186 A 
HETATM    5  C4  UNL     1      60.650 -47.709  21.730  1.00  0.00     0.325 A 
HETATM    6  O1  UNL     1      59.688 -46.912  21.755  1.00  0.00    -0.261 OA
HETATM    7  N4  UNL     1      60.438 -49.035  21.606  1.00  0.00    -0.146 N 
HETATM    8  N6  UNL     1      61.480 -49.853  21.583  1.00  0.00    -0.108 N 
ATOM      9  H6  UNL     1      61.311 -50.855  21.489  1.00  0.00     0.208 HD
ENDROOT
BRANCH   1  10
HETATM   10  N1  UNL     1      63.715 -50.269  21.649  1.00  0.00    -0.229 N 
HETATM   11  C1  UNL     1      63.918 -51.228  22.711  1.00  0.00     0.165 C 
ATOM     12  H1  UNL     1      64.357 -50.262  20.856  1.00  0.00     0.177 HD
ENDBRANCH   1  10
BRANCH   4  13
HETATM   13  N3  UNL     1      62.152 -45.943  21.951  1.00  0.00    -0.380 N 
ATOM     14  H32 UNL     1      62.979 -45.603  22.442  1.00  0.00     0.157 HD
ATOM     15  H31 UNL     1      61.499 -45.267  21.554  1.00  0.00     0.157 HD
ENDBRANCH   4  13
BRANCH   7  16
HETATM   16  N5  UNL     1      59.150 -49.541  21.504  1.00  0.00    -0.320 N 
ATOM     17  H52 UNL     1      58.408 -48.978  21.087  1.00  0.00     0.179 HD
ATOM     18  H51 UNL     1      58.929 -50.478  21.842  1.00  0.00     0.179 HD
ENDBRANCH   7  16
TORSDOF 3
ENDMDL
MODEL 4
REMARK VINA RESULT: -0.197821716      1.325      1.398
REMARK  3 active torsions:
REMARK  status: ('A' for Active; 'I' for Inactive)
REMARK    1  A    between atoms: N1_2  and  C2_4 
REMARK    2  A    between atoms: C3_7  and  N3_8 
REMARK    3  A    between atoms: N4_13  and  N5_14 
ROOT
HETATM    1  C2  UNL     1      62.739 -49.390  21.688  1.00  0.00     0.695 A 
HETATM    2  N2  UNL     1      61.480 -49.859  21.578  1.00  0.00    -0.170 N 
ATOM      3  H2  UNL     1      61.323 -50.863  21.483  1.00  0.00     0.186 HD
HETATM    4  C3  UNL     1      60.424 -49.015  21.591  1.00  0.00     0.186 A 
HETATM    5  C4  UNL     1      60.651 -47.668  21.719  1.00  0.00     0.325 A 
HETATM    6  O1  UNL     1      59.683 -46.879  21.732  1.00  0.00    -0.261 OA
HETATM    7  N4  UNL     1      61.913 -47.206  21.829  1.00  0.00    -0.146 N 
HETATM    8  N6  UNL     1      62.918 -48.070  21.812  1.00  0.00    -0.108 N 
ATOM      9  H6  UNL     1      63.870 -47.712  21.895  1.00  0.00     0.208 HD
ENDROOT
BRANCH   1  10
HETATM   10  N1  UNL     1      63.757 -50.179  21.677  1.00  0.00    -0.229 N 
HETATM   11  C1  UNL     1      63.930 -51.210  22.676  1.00  0.00     0.165 C 
ATOM     12  H1  UNL     1      64.460 -50.074  20.945  1.00  0.00     0.177 HD
ENDBRANCH   1  10
BRANCH   4  13
HETATM   13  N3  UNL     1      59.206 -49.478  21.482  1.00  0.00    -0.380 N 
ATOM     14  H32 UNL     1      59.009 -50.289  20.895  1.00  0.00     0.157 HD
ATOM     15  H31 UNL     1      58.438 -49.033  21.985  1.00  0.00     0.157 HD
ENDBRANCH   4  13
BRANCH   7  16
HETATM   16  N5  UNL     1      62.162 -45.847  21.960  1.00  0.00    -0.320 N 
ATOM     17  H52 UNL     1      61.425 -45.217  22.277  1.00  0.00     0.179 HD
ATOM     18  H51 UNL     1      63.082 -45.462  21.741  1.00  0.00     0.179 HD
ENDBRANCH   7  16
TORSDOF 3
ENDMDL
MODEL 5
REMARK VINA RESULT: -0.149150553      2.111      3.644
REMARK  3 active torsions:
REMARK  status: ('A' for Active; 'I' for Inactive)
REMARK    1  A    between atoms: N1_2  and  C2_4 
REMARK    2  A    between atoms: C3_7  and  N3_8 
REMARK    3  A    between atoms: N4_13  and  N5_14 
ROOT
HETATM    1  C2  UNL     1      61.271 -47.659  20.211  1.00  0.00     0.695 A 
HETATM    2  N2  UNL     1      60.973 -47.919  21.499  1.00  0.00    -0.170 N 
ATOM      3  H2  UNL     1      60.223 -47.401  21.957  1.00  0.00     0.186 HD
HETATM    4  C3  UNL     1      61.655 -48.860  22.190  1.00  0.00     0.186 A 
HETATM    5  C4  UNL     1      62.660 -49.549  21.560  1.00  0.00     0.325 A 
HETATM    6  O1  UNL     1      63.297 -50.420  22.189  1.00  0.00    -0.261 OA
HETATM    7  N4  UNL     1      62.953 -49.283  20.270  1.00  0.00    -0.146 N 
HETATM    8  N6  UNL     1      62.258 -48.352  19.632  1.00  0.00    -0.108 N 
ATOM      9  H6  UNL     1      62.486 -48.157  18.657  1.00  0.00     0.208 HD
ENDROOT
BRANCH   1  10
HETATM   10  N1  UNL     1      60.632 -46.766  19.536  1.00  0.00    -0.229 N 
HETATM   11  C1  UNL     1      61.308 -45.883  18.612  1.00  0.00     0.165 C 
ATOM     12  H1  UNL     1      59.622 -46.679  19.658  1.00  0.00     0.177 HD
ENDBRANCH   1  10
BRANCH   4  13
HETATM   13  N3  UNL     1      61.360 -49.106  23.440  1.00  0.00    -0.380 N 
ATOM     14  H32 UNL     1      60.405 -49.341  23.712  1.00  0.00     0.157 HD
ATOM     15  H31 UNL     1      62.083 -49.067  24.159  1.00  0.00     0.157 HD
ENDBRANCH   4  13
BRANCH   7  16
HETATM   16  N5  UNL     1      63.966 -49.970  19.617  1.00  0.00    -0.320 N 
ATOM     17  H52 UNL     1      64.740 -50.371  20.147  1.00  0.00     0.179 HD
ATOM     18  H51 UNL     1      63.950 -50.082  18.602  1.00  0.00     0.179 HD
ENDBRANCH   7  16
TORSDOF 3
ENDMDL
