MODEL 1
REMARK VINA RESULT: -4.379408067      0.000      0.000
REMARK  2 active torsions:
REMARK  status: ('A' for Active; 'I' for Inactive)
REMARK    1  A    between atoms: O1_1  and  C1_3 
REMARK    2  A    between atoms: C7_10  and  O3_11 
ROOT
HETATM    1  C1  UNL     1      16.445  17.804  22.643  1.00  0.00     0.151 C 
HETATM    2  C2  UNL     1      16.157  16.344  22.837  1.00  0.00     0.066 C 
HETATM    3  C3  UNL     1      15.902  15.604  21.560  1.00  0.00     0.124 C 
HETATM    4  C4  UNL     1      17.157  14.952  21.024  1.00  0.00     0.034 C 
HETATM    5  C5  UNL     1      17.733  16.051  20.161  1.00  0.00     0.037 C 
HETATM    6  C6  UNL     1      16.688  17.116  20.238  1.00  0.00     0.153 C 
HETATM    7  O2  UNL     1      15.485  16.489  20.562  1.00  0.00    -0.378 OA
HETATM    8  C7  UNL     1      16.951  18.157  21.288  1.00  0.00     0.175 C 
ENDROOT
BRANCH   1   9
HETATM    9  O1  UNL     1      17.279  18.315  23.667  1.00  0.00    -0.393 OA
ATOM     10  H1  UNL     1      18.145  18.532  23.341  1.00  0.00     0.210 HD
ENDBRANCH   1   9
BRANCH   8  11
HETATM   11  O3  UNL     1      16.299  19.329  20.834  1.00  0.00    -0.390 OA
ATOM     12  H3  UNL     1      15.759  19.118  20.082  1.00  0.00     0.210 HD
ENDBRANCH   8  11
TORSDOF 2
ENDMDL
MODEL 2
REMARK VINA RESULT: -4.329609341      1.539      3.051
REMARK  2 active torsions:
REMARK  status: ('A' for Active; 'I' for Inactive)
REMARK    1  A    between atoms: O1_1  and  C1_3 
REMARK    2  A    between atoms: C7_10  and  O3_11 
ROOT
HETATM    1  C1  UNL     1      16.315  15.069  21.497  1.00  0.00     0.151 C 
HETATM    2  C2  UNL     1      17.363  15.677  20.612  1.00  0.00     0.066 C 
HETATM    3  C3  UNL     1      17.078  17.096  20.224  1.00  0.00     0.124 C 
HETATM    4  C4  UNL     1      17.752  18.081  21.151  1.00  0.00     0.034 C 
HETATM    5  C5  UNL     1      16.705  18.265  22.225  1.00  0.00     0.037 C 
HETATM    6  C6  UNL     1      15.558  17.456  21.711  1.00  0.00     0.153 C 
HETATM    7  O2  UNL     1      15.709  17.361  20.328  1.00  0.00    -0.378 OA
HETATM    8  C7  UNL     1      15.502  16.058  22.256  1.00  0.00     0.175 C 
ENDROOT
BRANCH   1   9
HETATM    9  O1  UNL     1      16.856  14.071  22.342  1.00  0.00    -0.393 OA
ATOM     10  H1  UNL     1      16.222  13.770  22.983  1.00  0.00     0.210 HD
ENDBRANCH   1   9
BRANCH   8  11
HETATM   11  O3  UNL     1      14.137  15.684  22.204  1.00  0.00    -0.390 OA
ATOM     12  H3  UNL     1      13.952  15.068  22.903  1.00  0.00     0.210 HD
ENDBRANCH   8  11
TORSDOF 2
ENDMDL
MODEL 3
REMARK VINA RESULT: -3.921151525      1.613      2.941
REMARK  2 active torsions:
REMARK  status: ('A' for Active; 'I' for Inactive)
REMARK    1  A    between atoms: O1_1  and  C1_3 
REMARK    2  A    between atoms: C7_10  and  O3_11 
ROOT
HETATM    1  C1  UNL     1      16.496  15.971  22.355  1.00  0.00     0.151 C 
HETATM    2  C2  UNL     1      16.375  17.440  22.640  1.00  0.00     0.066 C 
HETATM    3  C3  UNL     1      16.941  18.313  21.562  1.00  0.00     0.124 C 
HETATM    4  C4  UNL     1      15.883  18.748  20.574  1.00  0.00     0.034 C 
HETATM    5  C5  UNL     1      15.927  17.630  19.559  1.00  0.00     0.037 C 
HETATM    6  C6  UNL     1      17.060  16.785  20.045  1.00  0.00     0.153 C 
HETATM    7  O2  UNL     1      17.886  17.606  20.812  1.00  0.00    -0.378 OA
HETATM    8  C7  UNL     1      16.637  15.634  20.912  1.00  0.00     0.175 C 
ENDROOT
BRANCH   1   9
HETATM    9  O1  UNL     1      15.459  15.230  22.972  1.00  0.00    -0.393 OA
ATOM     10  H1  UNL     1      15.123  14.551  22.399  1.00  0.00     0.210 HD
ENDBRANCH   1   9
BRANCH   8  11
HETATM   11  O3  UNL     1      17.642  14.650  20.755  1.00  0.00    -0.390 OA
ATOM     12  H3  UNL     1      17.239  13.822  20.521  1.00  0.00     0.210 HD
ENDBRANCH   8  11
TORSDOF 2
ENDMDL
MODEL 4
REMARK VINA RESULT: -3.899952902      4.128      4.967
REMARK  2 active torsions:
REMARK  status: ('A' for Active; 'I' for Inactive)
REMARK    1  A    between atoms: O1_1  and  C1_3 
REMARK    2  A    between atoms: C7_10  and  O3_11 
ROOT
HETATM    1  C1  UNL     1      16.257  14.112  25.290  1.00  0.00     0.151 C 
HETATM    2  C2  UNL     1      15.455  13.036  25.961  1.00  0.00     0.066 C 
HETATM    3  C3  UNL     1      14.336  12.501  25.119  1.00  0.00     0.124 C 
HETATM    4  C4  UNL     1      14.748  11.265  24.352  1.00  0.00     0.034 C 
HETATM    5  C5  UNL     1      15.297  11.860  23.076  1.00  0.00     0.037 C 
HETATM    6  C6  UNL     1      15.027  13.319  23.247  1.00  0.00     0.153 C 
HETATM    7  O2  UNL     1      13.970  13.439  24.149  1.00  0.00    -0.378 OA
HETATM    8  C7  UNL     1      16.185  14.096  23.803  1.00  0.00     0.175 C 
ENDROOT
BRANCH   1   9
HETATM    9  O1  UNL     1      17.594  14.135  25.754  1.00  0.00    -0.393 OA
ATOM     10  H1  UNL     1      18.009  14.974  25.589  1.00  0.00     0.210 HD
ENDBRANCH   1   9
BRANCH   8  11
HETATM   11  O3  UNL     1      16.021  15.419  23.326  1.00  0.00    -0.390 OA
ATOM     12  H3  UNL     1      16.733  15.631  22.735  1.00  0.00     0.210 HD
ENDBRANCH   8  11
TORSDOF 2
ENDMDL
MODEL 5
REMARK VINA RESULT: -3.865570314      4.406      5.759
REMARK  2 active torsions:
REMARK  status: ('A' for Active; 'I' for Inactive)
REMARK    1  A    between atoms: O1_1  and  C1_3 
REMARK    2  A    between atoms: C7_10  and  O3_11 
ROOT
HETATM    1  C1  UNL     1      16.171  14.096  23.844  1.00  0.00     0.151 C 
HETATM    2  C2  UNL     1      15.092  13.182  23.343  1.00  0.00     0.066 C 
HETATM    3  C3  UNL     1      14.651  12.161  24.348  1.00  0.00     0.124 C 
HETATM    4  C4  UNL     1      13.445  12.624  25.132  1.00  0.00     0.034 C 
HETATM    5  C5  UNL     1      14.089  13.348  26.292  1.00  0.00     0.037 C 
HETATM    6  C6  UNL     1      15.546  13.106  26.067  1.00  0.00     0.153 C 
HETATM    7  O2  UNL     1      15.657  11.949  25.296  1.00  0.00    -0.378 OA
HETATM    8  C7  UNL     1      16.243  14.211  25.326  1.00  0.00     0.175 C 
ENDROOT
BRANCH   1   9
HETATM    9  O1  UNL     1      16.115  15.365  23.218  1.00  0.00    -0.393 OA
ATOM     10  H1  UNL     1      16.606  15.379  22.405  1.00  0.00     0.210 HD
ENDBRANCH   1   9
BRANCH   8  11
HETATM   11  O3  UNL     1      17.596  14.150  25.738  1.00  0.00    -0.390 OA
ATOM     12  H3  UNL     1      17.825  13.251  25.938  1.00  0.00     0.210 HD
ENDBRANCH   8  11
TORSDOF 2
ENDMDL
