MODEL 1
REMARK VINA RESULT: -3.995392383      0.000      0.000
REMARK  2 active torsions:
REMARK  status: ('A' for Active; 'I' for Inactive)
REMARK    1  A    between atoms: O1_1  and  C1_3 
REMARK    2  A    between atoms: C7_10  and  O2_11 
ROOT
HETATM    1  C1  UNL     1      20.582  10.235  19.960  1.00  0.00     0.154 C 
HETATM    2  C2  UNL     1      20.839   9.653  21.308  1.00  0.00     0.036 C 
HETATM    3  C3  UNL     1      20.222  10.371  22.447  1.00  0.00     0.033 C 
HETATM    4  C4  UNL     1      18.774  10.050  22.686  1.00  0.00     0.272 C 
HETATM    5  N1  UNL     1      17.922  10.356  21.585  1.00  0.00     0.091 N 
HETATM    6  C5  UNL     1      17.914  11.756  21.270  1.00  0.00     0.275 C 
HETATM    7  C6  UNL     1      18.785  11.880  20.058  1.00  0.00     0.072 C 
HETATM    8  C7  UNL     1      19.157  10.491  19.641  1.00  0.00     0.111 C 
HETATM    9  C8  UNL     1      18.185   9.621  20.395  1.00  0.00     0.312 C 
ENDROOT
BRANCH   1  10
HETATM   10  O1  UNL     1      21.320  11.408  19.719  1.00  0.00    -0.392 OA
ATOM     11  H1  UNL     1      21.360  11.638  18.799  1.00  0.00     0.210 HD
ENDBRANCH   1  10
BRANCH   8  12
HETATM   12  O2  UNL     1      18.985  10.362  18.252  1.00  0.00    -0.385 OA
ATOM     13  H2  UNL     1      18.308   9.715  18.094  1.00  0.00     0.210 HD
ENDBRANCH   8  12
TORSDOF 2
ENDMDL
MODEL 2
REMARK VINA RESULT: -3.930439938      6.340      7.573
REMARK  2 active torsions:
REMARK  status: ('A' for Active; 'I' for Inactive)
REMARK    1  A    between atoms: O1_1  and  C1_3 
REMARK    2  A    between atoms: C7_10  and  O2_11 
ROOT
HETATM    1  C1  UNL     1      16.276  18.108  20.903  1.00  0.00     0.154 C 
HETATM    2  C2  UNL     1      16.715  17.056  19.942  1.00  0.00     0.036 C 
HETATM    3  C3  UNL     1      17.516  15.951  20.518  1.00  0.00     0.033 C 
HETATM    4  C4  UNL     1      16.712  14.873  21.188  1.00  0.00     0.272 C 
HETATM    5  N1  UNL     1      15.922  15.332  22.282  1.00  0.00     0.091 N 
HETATM    6  C5  UNL     1      16.719  15.875  23.345  1.00  0.00     0.275 C 
HETATM    7  C6  UNL     1      16.587  17.359  23.203  1.00  0.00     0.072 C 
HETATM    8  C7  UNL     1      15.586  17.609  22.116  1.00  0.00     0.111 C 
HETATM    9  C8  UNL     1      14.910  16.273  21.943  1.00  0.00     0.312 C 
ENDROOT
BRANCH   1  10
HETATM   10  O1  UNL     1      17.320  18.966  21.293  1.00  0.00    -0.392 OA
ATOM     11  H1  UNL     1      17.032  19.657  21.876  1.00  0.00     0.210 HD
ENDBRANCH   1  10
BRANCH   8  12
HETATM   12  O2  UNL     1      14.675  18.590  22.542  1.00  0.00    -0.385 OA
ATOM     13  H2  UNL     1      14.966  18.923  23.383  1.00  0.00     0.210 HD
ENDBRANCH   8  12
TORSDOF 2
ENDMDL
MODEL 3
REMARK VINA RESULT: -3.874581253      1.132      2.641
REMARK  2 active torsions:
REMARK  status: ('A' for Active; 'I' for Inactive)
REMARK    1  A    between atoms: O1_1  and  C1_3 
REMARK    2  A    between atoms: C7_10  and  O2_11 
ROOT
HETATM    1  C1  UNL     1      19.580  11.179  19.622  1.00  0.00     0.154 C 
HETATM    2  C2  UNL     1      18.518  11.746  20.503  1.00  0.00     0.036 C 
HETATM    3  C3  UNL     1      17.728  10.759  21.274  1.00  0.00     0.033 C 
HETATM    4  C4  UNL     1      18.384  10.272  22.534  1.00  0.00     0.272 C 
HETATM    5  N1  UNL     1      19.635   9.620  22.323  1.00  0.00     0.091 N 
HETATM    6  C5  UNL     1      19.507   8.436  21.523  1.00  0.00     0.275 C 
HETATM    7  C6  UNL     1      19.992   8.838  20.164  1.00  0.00     0.072 C 
HETATM    8  C7  UNL     1      20.514  10.237  20.281  1.00  0.00     0.111 C 
HETATM    9  C8  UNL     1      20.656  10.439  21.768  1.00  0.00     0.312 C 
ENDROOT
BRANCH   1  10
HETATM   10  O1  UNL     1      19.063  10.572  18.463  1.00  0.00    -0.392 OA
ATOM     11  H1  UNL     1      18.317  10.013  18.640  1.00  0.00     0.210 HD
ENDBRANCH   1  10
BRANCH   8  12
HETATM   12  O2  UNL     1      21.758  10.323  19.633  1.00  0.00    -0.385 OA
ATOM     13  H2  UNL     1      22.279  10.985  20.074  1.00  0.00     0.210 HD
ENDBRANCH   8  12
TORSDOF 2
ENDMDL
MODEL 4
REMARK VINA RESULT: -3.802496541      7.988      9.248
REMARK  2 active torsions:
REMARK  status: ('A' for Active; 'I' for Inactive)
REMARK    1  A    between atoms: O1_1  and  C1_3 
REMARK    2  A    between atoms: C7_10  and  O2_11 
ROOT
HETATM    1  C1  UNL     1      13.146  13.252  28.163  1.00  0.00     0.154 C 
HETATM    2  C2  UNL     1      12.173  13.296  27.034  1.00  0.00     0.036 C 
HETATM    3  C3  UNL     1      12.726  13.702  25.722  1.00  0.00     0.033 C 
HETATM    4  C4  UNL     1      13.416  12.605  24.962  1.00  0.00     0.272 C 
HETATM    5  N1  UNL     1      14.532  12.038  25.646  1.00  0.00     0.091 N 
HETATM    6  C5  UNL     1      15.573  12.996  25.885  1.00  0.00     0.275 C 
HETATM    7  C6  UNL     1      15.436  13.357  27.331  1.00  0.00     0.072 C 
HETATM    8  C7  UNL     1      14.377  12.468  27.907  1.00  0.00     0.111 C 
HETATM    9  C8  UNL     1      14.221  11.385  26.871  1.00  0.00     0.312 C 
ENDROOT
BRANCH   1  10
HETATM   10  O1  UNL     1      13.508  14.530  28.624  1.00  0.00    -0.392 OA
ATOM     11  H1  UNL     1      14.437  14.609  28.807  1.00  0.00     0.210 HD
ENDBRANCH   1  10
BRANCH   8  12
HETATM   12  O2  UNL     1      14.828  11.942  29.130  1.00  0.00    -0.385 OA
ATOM     13  H2  UNL     1      15.778  11.973  29.136  1.00  0.00     0.210 HD
ENDBRANCH   8  12
TORSDOF 2
ENDMDL
MODEL 5
REMARK VINA RESULT: -3.792234827      5.257      6.347
REMARK  2 active torsions:
REMARK  status: ('A' for Active; 'I' for Inactive)
REMARK    1  A    between atoms: O1_1  and  C1_3 
REMARK    2  A    between atoms: C7_10  and  O2_11 
ROOT
HETATM    1  C1  UNL     1      16.223  12.855  24.980  1.00  0.00     0.154 C 
HETATM    2  C2  UNL     1      15.117  12.687  25.966  1.00  0.00     0.036 C 
HETATM    3  C3  UNL     1      13.928  13.543  25.752  1.00  0.00     0.033 C 
HETATM    4  C4  UNL     1      12.962  13.035  24.720  1.00  0.00     0.272 C 
HETATM    5  N1  UNL     1      13.524  12.895  23.417  1.00  0.00     0.091 N 
HETATM    6  C5  UNL     1      13.974  14.146  22.877  1.00  0.00     0.275 C 
HETATM    7  C6  UNL     1      15.463  14.118  23.038  1.00  0.00     0.072 C 
HETATM    8  C7  UNL     1      15.823  12.760  23.557  1.00  0.00     0.111 C 
HETATM    9  C8  UNL     1      14.578  11.945  23.313  1.00  0.00     0.312 C 
ENDROOT
BRANCH   1  10
HETATM   10  O1  UNL     1      16.950  14.044  25.170  1.00  0.00    -0.392 OA
ATOM     11  H1  UNL     1      17.751  14.073  24.661  1.00  0.00     0.210 HD
ENDBRANCH   1  10
BRANCH   8  12
HETATM   12  O2  UNL     1      16.912  12.258  22.824  1.00  0.00    -0.385 OA
ATOM     13  H2  UNL     1      17.085  11.371  23.117  1.00  0.00     0.210 HD
ENDBRANCH   8  12
TORSDOF 2
ENDMDL
