MODEL 1
REMARK VINA RESULT: -4.452928152      0.000      0.000
REMARK  3 active torsions:
REMARK  status: ('A' for Active; 'I' for Inactive)
REMARK    1  A    between atoms: C2_2  and  C3_3 
REMARK    2  A    between atoms: C3_3  and  C4_4 
REMARK    3  A    between atoms: C4_4  and  N1_5 
ROOT
HETATM    1  N1  UNL     1      24.938 -15.830 -12.867  1.00  0.00    -0.278 NA
HETATM    2  C5  UNL     1      23.535 -15.594 -12.953  1.00  0.00     0.146 C 
HETATM    3  N2  UNL     1      23.269 -14.363 -12.790  1.00  0.00    -0.389 N 
ATOM      4  H2  UNL     1      22.332 -13.962 -12.813  1.00  0.00     0.159 HD
HETATM    5  C6  UNL     1      24.470 -13.622 -12.572  1.00  0.00     0.135 C 
HETATM    6  C7  UNL     1      25.539 -14.529 -13.117  1.00  0.00     0.115 C 
ENDROOT
BRANCH   1   7
HETATM    7  C4  UNL     1      25.299 -16.332 -11.553  1.00  0.00     0.100 C 
BRANCH   7   8
HETATM    8  C3  UNL     1      24.250 -17.359 -11.169  1.00  0.00     0.041 C 
BRANCH   8   9
HETATM    9  C2  UNL     1      24.833 -18.695 -10.955  1.00  0.00    -0.036 C 
HETATM   10  C1  UNL     1      26.062 -18.948 -11.344  1.00  0.00     0.007 C 
ENDBRANCH   8   9
ENDBRANCH   7   8
ENDBRANCH   1   7
TORSDOF 3
ENDMDL
MODEL 2
REMARK VINA RESULT: -4.319241054      3.316      4.231
REMARK  3 active torsions:
REMARK  status: ('A' for Active; 'I' for Inactive)
REMARK    1  A    between atoms: C2_2  and  C3_3 
REMARK    2  A    between atoms: C3_3  and  C4_4 
REMARK    3  A    between atoms: C4_4  and  N1_5 
ROOT
HETATM    1  N1  UNL     1      23.172 -18.533 -11.329  1.00  0.00    -0.278 NA
HETATM    2  C5  UNL     1      22.608 -17.697 -12.336  1.00  0.00     0.146 C 
HETATM    3  N2  UNL     1      23.168 -16.558 -12.348  1.00  0.00    -0.389 N 
ATOM      4  H2  UNL     1      22.929 -15.798 -12.985  1.00  0.00     0.159 HD
HETATM    5  C6  UNL     1      24.180 -16.492 -11.342  1.00  0.00     0.135 C 
HETATM    6  C7  UNL     1      24.471 -17.939 -11.051  1.00  0.00     0.115 C 
ENDROOT
BRANCH   1   7
HETATM    7  C4  UNL     1      22.337 -18.549 -10.141  1.00  0.00     0.100 C 
BRANCH   7   8
HETATM    8  C3  UNL     1      20.899 -18.662 -10.613  1.00  0.00     0.041 C 
BRANCH   8   9
HETATM    9  C2  UNL     1      19.937 -18.368  -9.538  1.00  0.00    -0.036 C 
HETATM   10  C1  UNL     1      18.854 -19.099  -9.404  1.00  0.00     0.007 C 
ENDBRANCH   8   9
ENDBRANCH   7   8
ENDBRANCH   1   7
TORSDOF 3
ENDMDL
MODEL 3
REMARK VINA RESULT: -4.263730682      6.272      7.666
REMARK  3 active torsions:
REMARK  status: ('A' for Active; 'I' for Inactive)
REMARK    1  A    between atoms: C2_2  and  C3_3 
REMARK    2  A    between atoms: C3_3  and  C4_4 
REMARK    3  A    between atoms: C4_4  and  N1_5 
ROOT
HETATM    1  N1  UNL     1      18.932 -21.402 -10.927  1.00  0.00    -0.278 NA
HETATM    2  C5  UNL     1      18.806 -21.973 -12.226  1.00  0.00     0.146 C 
HETATM    3  N2  UNL     1      19.938 -22.322 -12.682  1.00  0.00    -0.389 N 
ATOM      4  H2  UNL     1      20.091 -22.754 -13.593  1.00  0.00     0.159 HD
HETATM    5  C6  UNL     1      20.966 -22.022 -11.737  1.00  0.00     0.135 C 
HETATM    6  C7  UNL     1      20.216 -21.888 -10.442  1.00  0.00     0.115 C 
ENDROOT
BRANCH   1   7
HETATM    7  C4  UNL     1      18.910 -19.951 -10.993  1.00  0.00     0.100 C 
BRANCH   7   8
HETATM    8  C3  UNL     1      18.939 -19.444  -9.563  1.00  0.00     0.041 C 
BRANCH   8   9
HETATM    9  C2  UNL     1      19.790 -18.251  -9.414  1.00  0.00    -0.036 C 
HETATM   10  C1  UNL     1      21.086 -18.382  -9.248  1.00  0.00     0.007 C 
ENDBRANCH   8   9
ENDBRANCH   7   8
ENDBRANCH   1   7
TORSDOF 3
ENDMDL
MODEL 4
REMARK VINA RESULT: -4.238132073      1.152      1.546
REMARK  3 active torsions:
REMARK  status: ('A' for Active; 'I' for Inactive)
REMARK    1  A    between atoms: C2_2  and  C3_3 
REMARK    2  A    between atoms: C3_3  and  C4_4 
REMARK    3  A    between atoms: C4_4  and  N1_5 
ROOT
HETATM    1  N1  UNL     1      24.164 -14.925 -12.549  1.00  0.00    -0.278 NA
HETATM    2  C5  UNL     1      24.502 -13.554 -12.358  1.00  0.00     0.146 C 
HETATM    3  N2  UNL     1      25.589 -13.267 -12.946  1.00  0.00    -0.389 N 
ATOM      4  H2  UNL     1      26.025 -12.345 -12.948  1.00  0.00     0.159 HD
HETATM    5  C6  UNL     1      26.115 -14.420 -13.606  1.00  0.00     0.135 C 
HETATM    6  C7  UNL     1      24.918 -15.323 -13.728  1.00  0.00     0.115 C 
ENDROOT
BRANCH   1   7
HETATM    7  C4  UNL     1      24.539 -15.718 -11.392  1.00  0.00     0.100 C 
BRANCH   7   8
HETATM    8  C3  UNL     1      23.838 -17.058 -11.529  1.00  0.00     0.041 C 
BRANCH   8   9
HETATM    9  C2  UNL     1      24.662 -18.169 -11.023  1.00  0.00    -0.036 C 
HETATM   10  C1  UNL     1      25.910 -18.296 -11.413  1.00  0.00     0.007 C 
ENDBRANCH   8   9
ENDBRANCH   7   8
ENDBRANCH   1   7
TORSDOF 3
ENDMDL
MODEL 5
REMARK VINA RESULT: -4.235033049      1.383      2.072
REMARK  3 active torsions:
REMARK  status: ('A' for Active; 'I' for Inactive)
REMARK    1  A    between atoms: C2_2  and  C3_3 
REMARK    2  A    between atoms: C3_3  and  C4_4 
REMARK    3  A    between atoms: C4_4  and  N1_5 
ROOT
HETATM    1  N1  UNL     1      24.258 -14.942 -12.552  1.00  0.00    -0.278 NA
HETATM    2  C5  UNL     1      24.570 -13.554 -12.485  1.00  0.00     0.146 C 
HETATM    3  N2  UNL     1      25.672 -13.307 -13.065  1.00  0.00    -0.389 N 
ATOM      4  H2  UNL     1      26.095 -12.382 -13.144  1.00  0.00     0.159 HD
HETATM    5  C6  UNL     1      26.235 -14.509 -13.592  1.00  0.00     0.135 C 
HETATM    6  C7  UNL     1      25.057 -15.440 -13.662  1.00  0.00     0.115 C 
ENDROOT
BRANCH   1   7
HETATM    7  C4  UNL     1      24.607 -15.613 -11.311  1.00  0.00     0.100 C 
BRANCH   7   8
HETATM    8  C3  UNL     1      24.615 -17.102 -11.602  1.00  0.00     0.041 C 
BRANCH   8   9
HETATM    9  C2  UNL     1      23.386 -17.765 -11.133  1.00  0.00    -0.036 C 
HETATM   10  C1  UNL     1      22.455 -18.112 -11.992  1.00  0.00     0.007 C 
ENDBRANCH   8   9
ENDBRANCH   7   8
ENDBRANCH   1   7
TORSDOF 3
ENDMDL
