MODEL 1
REMARK VINA RESULT: -4.877613142      0.000      0.000
REMARK  2 active torsions:
REMARK  status: ('A' for Active; 'I' for Inactive)
REMARK    1  A    between atoms: C2_3  and  C3_4 
REMARK    2  A    between atoms: C3_4  and  N2_5 
ROOT
HETATM    1  N1  UNL     1      24.555 -13.170 -11.650  1.00  0.00    -0.197 NA
HETATM    2  C1  UNL     1      24.148 -13.832 -12.509  1.00  0.00     0.060 C 
HETATM    3  C2  UNL     1      23.627 -14.667 -13.564  1.00  0.00     0.145 C 
ENDROOT
BRANCH   3   4
HETATM    4  C3  UNL     1      24.495 -15.926 -13.699  1.00  0.00     0.162 C 
BRANCH   4   5
HETATM    5  N2  UNL     1      23.762 -17.029 -13.091  1.00  0.00    -0.303 N 
HETATM    6  C4  UNL     1      24.106 -18.332 -13.208  1.00  0.00     0.111 A 
HETATM    7  C5  UNL     1      23.209 -19.119 -12.517  1.00  0.00     0.037 A 
HETATM    8  C6  UNL     1      22.302 -18.234 -11.972  1.00  0.00     0.108 A 
HETATM    9  N3  UNL     1      22.689 -17.003 -12.353  1.00  0.00    -0.310 N 
ATOM     10  H3  UNL     1      22.199 -16.147 -12.094  1.00  0.00     0.186 HD
ENDBRANCH   4   5
ENDBRANCH   3   4
TORSDOF 2
ENDMDL
MODEL 2
REMARK VINA RESULT: -4.566005349      1.028      1.165
REMARK  2 active torsions:
REMARK  status: ('A' for Active; 'I' for Inactive)
REMARK    1  A    between atoms: C2_3  and  C3_4 
REMARK    2  A    between atoms: C3_4  and  N2_5 
ROOT
HETATM    1  N1  UNL     1      24.220 -13.200 -11.742  1.00  0.00    -0.197 NA
HETATM    2  C1  UNL     1      24.352 -14.349 -11.808  1.00  0.00     0.060 C 
HETATM    3  C2  UNL     1      24.536 -15.777 -11.904  1.00  0.00     0.145 C 
ENDROOT
BRANCH   3   4
HETATM    4  C3  UNL     1      23.643 -16.334 -13.022  1.00  0.00     0.162 C 
BRANCH   4   5
HETATM    5  N2  UNL     1      23.042 -17.567 -12.527  1.00  0.00    -0.303 N 
HETATM    6  C4  UNL     1      23.511 -18.806 -12.796  1.00  0.00     0.111 A 
HETATM    7  C5  UNL     1      22.718 -19.752 -12.181  1.00  0.00     0.037 A 
HETATM    8  C6  UNL     1      21.744 -19.029 -11.523  1.00  0.00     0.108 A 
HETATM    9  N3  UNL     1      21.995 -17.731 -11.771  1.00  0.00    -0.310 N 
ATOM     10  H3  UNL     1      21.430 -16.964 -11.409  1.00  0.00     0.186 HD
ENDBRANCH   4   5
ENDBRANCH   3   4
TORSDOF 2
ENDMDL
MODEL 3
REMARK VINA RESULT: -4.552374591      1.115      1.327
REMARK  2 active torsions:
REMARK  status: ('A' for Active; 'I' for Inactive)
REMARK    1  A    between atoms: C2_3  and  C3_4 
REMARK    2  A    between atoms: C3_4  and  N2_5 
ROOT
HETATM    1  N1  UNL     1      24.511 -13.137 -11.656  1.00  0.00    -0.197 NA
HETATM    2  C1  UNL     1      24.166 -13.828 -12.518  1.00  0.00     0.060 C 
HETATM    3  C2  UNL     1      23.721 -14.700 -13.578  1.00  0.00     0.145 C 
ENDROOT
BRANCH   3   4
HETATM    4  C3  UNL     1      24.647 -15.921 -13.661  1.00  0.00     0.162 C 
BRANCH   4   5
HETATM    5  N2  UNL     1      24.245 -16.847 -12.610  1.00  0.00    -0.303 N 
HETATM    6  C4  UNL     1      23.013 -17.395 -12.505  1.00  0.00     0.111 A 
HETATM    7  C5  UNL     1      22.959 -18.222 -11.403  1.00  0.00     0.037 A 
HETATM    8  C6  UNL     1      24.218 -18.153 -10.841  1.00  0.00     0.108 A 
HETATM    9  N3  UNL     1      24.936 -17.314 -11.610  1.00  0.00    -0.310 N 
ATOM     10  H3  UNL     1      25.910 -17.072 -11.430  1.00  0.00     0.186 HD
ENDBRANCH   4   5
ENDBRANCH   3   4
TORSDOF 2
ENDMDL
MODEL 4
REMARK VINA RESULT: -4.510910396      1.542      1.767
REMARK  2 active torsions:
REMARK  status: ('A' for Active; 'I' for Inactive)
REMARK    1  A    between atoms: C2_3  and  C3_4 
REMARK    2  A    between atoms: C3_4  and  N2_5 
ROOT
HETATM    1  N1  UNL     1      26.209 -12.274 -13.518  1.00  0.00    -0.197 NA
HETATM    2  C1  UNL     1      25.411 -12.915 -12.977  1.00  0.00     0.060 C 
HETATM    3  C2  UNL     1      24.433 -13.728 -12.296  1.00  0.00     0.145 C 
ENDROOT
BRANCH   3   4
HETATM    4  C3  UNL     1      23.889 -14.793 -13.259  1.00  0.00     0.162 C 
BRANCH   4   5
HETATM    5  N2  UNL     1      23.722 -16.025 -12.499  1.00  0.00    -0.303 N 
HETATM    6  C4  UNL     1      24.609 -16.487 -11.589  1.00  0.00     0.111 A 
HETATM    7  C5  UNL     1      24.156 -17.673 -11.051  1.00  0.00     0.037 A 
HETATM    8  C6  UNL     1      22.949 -17.911 -11.676  1.00  0.00     0.108 A 
HETATM    9  N3  UNL     1      22.749 -16.890 -12.528  1.00  0.00    -0.310 N 
ATOM     10  H3  UNL     1      21.930 -16.803 -13.129  1.00  0.00     0.186 HD
ENDBRANCH   4   5
ENDBRANCH   3   4
TORSDOF 2
ENDMDL
MODEL 5
REMARK VINA RESULT: -4.369911579      2.751      4.982
REMARK  2 active torsions:
REMARK  status: ('A' for Active; 'I' for Inactive)
REMARK    1  A    between atoms: C2_3  and  C3_4 
REMARK    2  A    between atoms: C3_4  and  N2_5 
ROOT
HETATM    1  N1  UNL     1      18.843 -19.642  -9.062  1.00  0.00    -0.197 NA
HETATM    2  C1  UNL     1      19.868 -19.165  -9.312  1.00  0.00     0.060 C 
HETATM    3  C2  UNL     1      21.134 -18.551  -9.629  1.00  0.00     0.145 C 
ENDROOT
BRANCH   3   4
HETATM    4  C3  UNL     1      21.486 -18.829 -11.097  1.00  0.00     0.162 C 
BRANCH   4   5
HETATM    5  N2  UNL     1      22.608 -17.966 -11.448  1.00  0.00    -0.303 N 
HETATM    6  C4  UNL     1      23.817 -18.003 -10.846  1.00  0.00     0.111 A 
HETATM    7  C5  UNL     1      24.652 -17.061 -11.409  1.00  0.00     0.037 A 
HETATM    8  C6  UNL     1      23.893 -16.448 -12.385  1.00  0.00     0.108 A 
HETATM    9  N3  UNL     1      22.682 -17.035 -12.355  1.00  0.00    -0.310 N 
ATOM     10  H3  UNL     1      21.912 -16.779 -12.972  1.00  0.00     0.186 HD
ENDBRANCH   4   5
ENDBRANCH   3   4
TORSDOF 2
ENDMDL
