MODEL 1
REMARK VINA RESULT: -4.756961834      0.000      0.000
REMARK  1 active torsions:
REMARK  status: ('A' for Active; 'I' for Inactive)
REMARK    1  A    between atoms: N2_4  and  C1_6 
ROOT
HETATM    1  C1  UNL     1      25.382 -14.055 -13.302  1.00  0.00     0.044 A 
HETATM    2  C2  UNL     1      24.970 -15.220 -13.741  1.00  0.00     0.045 A 
HETATM    3  C3  UNL     1      23.695 -15.554 -13.118  1.00  0.00     0.085 A 
HETATM    4  N3  UNL     1      23.342 -14.610 -12.316  1.00  0.00    -0.393 N 
ATOM      5  H3  UNL     1      22.491 -14.593 -11.754  1.00  0.00     0.159 HD
HETATM    6  C4  UNL     1      24.342 -13.591 -12.347  1.00  0.00     0.177 A 
ENDROOT
BRANCH   1   7
HETATM    7  N2  UNL     1      26.566 -13.339 -13.637  1.00  0.00    -0.310 N 
HETATM    8  N1  UNL     1      26.660 -12.099 -13.416  1.00  0.00    -0.345 N 
ATOM      9  H12 UNL     1      25.867 -11.618 -12.991  1.00  0.00     0.176 HD
ATOM     10  H11 UNL     1      27.508 -11.586 -13.656  1.00  0.00     0.176 HD
ATOM     11  H2  UNL     1      27.350 -13.834 -14.062  1.00  0.00     0.186 HD
ENDBRANCH   1   7
TORSDOF 1
ENDMDL
MODEL 2
REMARK VINA RESULT: -4.741387615      1.290      3.054
REMARK  1 active torsions:
REMARK  status: ('A' for Active; 'I' for Inactive)
REMARK    1  A    between atoms: N2_4  and  C1_6 
ROOT
HETATM    1  C1  UNL     1      25.190 -13.662 -13.010  1.00  0.00     0.044 A 
HETATM    2  C2  UNL     1      25.768 -14.780 -13.377  1.00  0.00     0.045 A 
HETATM    3  C3  UNL     1      27.027 -14.481 -14.050  1.00  0.00     0.085 A 
HETATM    4  N3  UNL     1      27.207 -13.208 -14.091  1.00  0.00    -0.393 N 
ATOM      5  H3  UNL     1      28.008 -12.732 -14.507  1.00  0.00     0.159 HD
HETATM    6  C4  UNL     1      26.097 -12.572 -13.455  1.00  0.00     0.177 A 
ENDROOT
BRANCH   1   7
HETATM    7  N2  UNL     1      23.955 -13.474 -12.326  1.00  0.00    -0.310 N 
HETATM    8  N1  UNL     1      23.756 -13.990 -11.191  1.00  0.00    -0.345 N 
ATOM      9  H12 UNL     1      24.501 -14.547 -10.772  1.00  0.00     0.176 HD
ATOM     10  H11 UNL     1      22.872 -13.856 -10.701  1.00  0.00     0.176 HD
ATOM     11  H2  UNL     1      23.221 -12.914 -12.760  1.00  0.00     0.186 HD
ENDBRANCH   1   7
TORSDOF 1
ENDMDL
MODEL 3
REMARK VINA RESULT: -4.402223859      1.902      2.851
REMARK  1 active torsions:
REMARK  status: ('A' for Active; 'I' for Inactive)
REMARK    1  A    between atoms: N2_4  and  C1_6 
ROOT
HETATM    1  C1  UNL     1      24.316 -15.124 -13.226  1.00  0.00     0.044 A 
HETATM    2  C2  UNL     1      24.219 -16.345 -13.695  1.00  0.00     0.045 A 
HETATM    3  C3  UNL     1      25.453 -16.701 -14.385  1.00  0.00     0.085 A 
HETATM    4  N3  UNL     1      26.280 -15.716 -14.337  1.00  0.00    -0.393 N 
ATOM      5  H3  UNL     1      27.215 -15.703 -14.743  1.00  0.00     0.159 HD
HETATM    6  C4  UNL     1      25.666 -14.645 -13.618  1.00  0.00     0.177 A 
ENDROOT
BRANCH   1   7
HETATM    7  N2  UNL     1      23.359 -14.369 -12.488  1.00  0.00    -0.310 N 
HETATM    8  N1  UNL     1      23.682 -13.781 -11.418  1.00  0.00    -0.345 N 
ATOM      9  H12 UNL     1      24.645 -13.858 -11.091  1.00  0.00     0.176 HD
ATOM     10  H11 UNL     1      22.997 -13.240 -10.890  1.00  0.00     0.176 HD
ATOM     11  H2  UNL     1      22.400 -14.302 -12.829  1.00  0.00     0.186 HD
ENDBRANCH   1   7
TORSDOF 1
ENDMDL
MODEL 4
REMARK VINA RESULT: -4.360891768      1.125      1.182
REMARK  1 active torsions:
REMARK  status: ('A' for Active; 'I' for Inactive)
REMARK    1  A    between atoms: N2_4  and  C1_6 
ROOT
HETATM    1  C1  UNL     1      25.623 -14.442 -12.950  1.00  0.00     0.044 A 
HETATM    2  C2  UNL     1      25.428 -15.539 -12.257  1.00  0.00     0.045 A 
HETATM    3  C3  UNL     1      24.291 -15.355 -11.363  1.00  0.00     0.085 A 
HETATM    4  N3  UNL     1      23.809 -14.171 -11.509  1.00  0.00    -0.393 N 
ATOM      5  H3  UNL     1      23.012 -13.785 -11.002  1.00  0.00     0.159 HD
HETATM    6  C4  UNL     1      24.578 -13.487 -12.501  1.00  0.00     0.177 A 
ENDROOT
BRANCH   1   7
HETATM    7  N2  UNL     1      26.613 -14.171 -13.937  1.00  0.00    -0.310 N 
HETATM    8  N1  UNL     1      27.209 -13.058 -13.971  1.00  0.00    -0.345 N 
ATOM      9  H12 UNL     1      26.966 -12.354 -13.273  1.00  0.00     0.176 HD
ATOM     10  H11 UNL     1      27.918 -12.863 -14.677  1.00  0.00     0.176 HD
ATOM     11  H2  UNL     1      26.844 -14.885 -14.627  1.00  0.00     0.186 HD
ENDBRANCH   1   7
TORSDOF 1
ENDMDL
MODEL 5
REMARK VINA RESULT: -4.335059923      2.351      3.120
REMARK  1 active torsions:
REMARK  status: ('A' for Active; 'I' for Inactive)
REMARK    1  A    between atoms: N2_4  and  C1_6 
ROOT
HETATM    1  C1  UNL     1      23.694 -15.677 -13.004  1.00  0.00     0.044 A 
HETATM    2  C2  UNL     1      23.360 -16.844 -12.508  1.00  0.00     0.045 A 
HETATM    3  C3  UNL     1      24.081 -17.898 -13.211  1.00  0.00     0.085 A 
HETATM    4  N3  UNL     1      24.837 -17.381 -14.115  1.00  0.00    -0.393 N 
ATOM      5  H3  UNL     1      25.447 -17.897 -14.749  1.00  0.00     0.159 HD
HETATM    6  C4  UNL     1      24.678 -15.961 -14.081  1.00  0.00     0.177 A 
ENDROOT
BRANCH   1   7
HETATM    7  N2  UNL     1      23.242 -14.380 -12.626  1.00  0.00    -0.310 N 
HETATM    8  N1  UNL     1      23.688 -13.813 -11.589  1.00  0.00    -0.345 N 
ATOM      9  H12 UNL     1      24.382 -14.305 -11.025  1.00  0.00     0.176 HD
ATOM     10  H11 UNL     1      23.365 -12.885 -11.319  1.00  0.00     0.176 HD
ATOM     11  H2  UNL     1      22.549 -13.903 -13.201  1.00  0.00     0.186 HD
ENDBRANCH   1   7
TORSDOF 1
ENDMDL
