MODEL 1
REMARK VINA RESULT: -4.409994401      0.000      0.000
REMARK  2 active torsions:
REMARK  status: ('A' for Active; 'I' for Inactive)
REMARK    1  A    between atoms: C2_3  and  C3_4 
REMARK    2  A    between atoms: C3_4  and  N2_5 
ROOT
HETATM    1  N1  UNL     1      24.431 -13.067 -11.775  1.00  0.00    -0.197 NA
HETATM    2  C1  UNL     1      24.490 -13.866 -12.618  1.00  0.00     0.060 C 
HETATM    3  C2  UNL     1      24.552 -14.857 -13.687  1.00  0.00     0.144 C 
ENDROOT
BRANCH   3   4
HETATM    4  C3  UNL     1      25.249 -16.124 -13.176  1.00  0.00     0.143 C 
BRANCH   4   5
HETATM    5  N2  UNL     1      24.269 -16.858 -12.394  1.00  0.00    -0.351 N 
HETATM    6  C4  UNL     1      24.507 -17.395 -11.169  1.00  0.00     0.108 A 
HETATM    7  C5  UNL     1      23.365 -18.019 -10.713  1.00  0.00     0.106 A 
HETATM    8  N3  UNL     1      22.438 -17.854 -11.673  1.00  0.00    -0.361 N 
HETATM    9  C6  UNL     1      23.000 -17.151 -12.680  1.00  0.00     0.182 A 
ATOM     10  H3  UNL     1      21.479 -18.199 -11.645  1.00  0.00     0.166 HD
ENDBRANCH   4   5
ENDBRANCH   3   4
TORSDOF 2
ENDMDL
MODEL 2
REMARK VINA RESULT: -4.360408830      0.789      1.266
REMARK  2 active torsions:
REMARK  status: ('A' for Active; 'I' for Inactive)
REMARK    1  A    between atoms: C2_3  and  C3_4 
REMARK    2  A    between atoms: C3_4  and  N2_5 
ROOT
HETATM    1  N1  UNL     1      24.489 -13.112 -11.708  1.00  0.00    -0.197 NA
HETATM    2  C1  UNL     1      24.230 -13.856 -12.564  1.00  0.00     0.060 C 
HETATM    3  C2  UNL     1      23.888 -14.778 -13.641  1.00  0.00     0.144 C 
ENDROOT
BRANCH   3   4
HETATM    4  C3  UNL     1      24.816 -15.998 -13.591  1.00  0.00     0.143 C 
BRANCH   4   5
HETATM    5  N2  UNL     1      24.310 -16.869 -12.545  1.00  0.00    -0.351 N 
HETATM    6  C4  UNL     1      23.056 -17.391 -12.517  1.00  0.00     0.108 A 
HETATM    7  C5  UNL     1      22.910 -18.171 -11.389  1.00  0.00     0.106 A 
HETATM    8  N3  UNL     1      24.085 -18.114 -10.739  1.00  0.00    -0.361 N 
HETATM    9  C6  UNL     1      24.919 -17.324 -11.449  1.00  0.00     0.182 A 
ATOM     10  H3  UNL     1      24.308 -18.585  -9.861  1.00  0.00     0.166 HD
ENDBRANCH   4   5
ENDBRANCH   3   4
TORSDOF 2
ENDMDL
MODEL 3
REMARK VINA RESULT: -4.112065244      1.603      4.387
REMARK  2 active torsions:
REMARK  status: ('A' for Active; 'I' for Inactive)
REMARK    1  A    between atoms: C2_3  and  C3_4 
REMARK    2  A    between atoms: C3_4  and  N2_5 
ROOT
HETATM    1  N1  UNL     1      22.011 -18.493 -11.747  1.00  0.00    -0.197 NA
HETATM    2  C1  UNL     1      22.707 -17.703 -12.242  1.00  0.00     0.060 C 
HETATM    3  C2  UNL     1      23.577 -16.722 -12.881  1.00  0.00     0.144 C 
ENDROOT
BRANCH   3   4
HETATM    4  C3  UNL     1      24.328 -15.923 -11.809  1.00  0.00     0.143 C 
BRANCH   4   5
HETATM    5  N2  UNL     1      25.109 -14.915 -12.506  1.00  0.00    -0.351 N 
HETATM    6  C4  UNL     1      24.801 -13.592 -12.542  1.00  0.00     0.108 A 
HETATM    7  C5  UNL     1      25.750 -12.922 -13.287  1.00  0.00     0.106 A 
HETATM    8  N3  UNL     1      26.630 -13.852 -13.697  1.00  0.00    -0.361 N 
HETATM    9  C6  UNL     1      26.228 -15.049 -13.217  1.00  0.00     0.182 A 
ATOM     10  H3  UNL     1      27.456 -13.683 -14.271  1.00  0.00     0.166 HD
ENDBRANCH   4   5
ENDBRANCH   3   4
TORSDOF 2
ENDMDL
MODEL 4
REMARK VINA RESULT: -4.110896287      1.789      3.870
REMARK  2 active torsions:
REMARK  status: ('A' for Active; 'I' for Inactive)
REMARK    1  A    between atoms: C2_3  and  C3_4 
REMARK    2  A    between atoms: C3_4  and  N2_5 
ROOT
HETATM    1  N1  UNL     1      25.789 -18.097 -11.337  1.00  0.00    -0.197 NA
HETATM    2  C1  UNL     1      25.042 -17.832 -12.189  1.00  0.00     0.060 C 
HETATM    3  C2  UNL     1      24.093 -17.516 -13.250  1.00  0.00     0.144 C 
ENDROOT
BRANCH   3   4
HETATM    4  C3  UNL     1      24.726 -16.519 -14.228  1.00  0.00     0.143 C 
BRANCH   4   5
HETATM    5  N2  UNL     1      24.671 -15.213 -13.594  1.00  0.00    -0.351 N 
HETATM    6  C4  UNL     1      25.721 -14.354 -13.508  1.00  0.00     0.108 A 
HETATM    7  C5  UNL     1      25.323 -13.211 -12.846  1.00  0.00     0.106 A 
HETATM    8  N3  UNL     1      24.027 -13.389 -12.535  1.00  0.00    -0.361 N 
HETATM    9  C6  UNL     1      23.650 -14.602 -12.993  1.00  0.00     0.182 A 
ATOM     10  H3  UNL     1      23.433 -12.724 -12.039  1.00  0.00     0.166 HD
ENDBRANCH   4   5
ENDBRANCH   3   4
TORSDOF 2
ENDMDL
MODEL 5
REMARK VINA RESULT: -4.099200261      1.221      3.873
REMARK  2 active torsions:
REMARK  status: ('A' for Active; 'I' for Inactive)
REMARK    1  A    between atoms: C2_3  and  C3_4 
REMARK    2  A    between atoms: C3_4  and  N2_5 
ROOT
HETATM    1  N1  UNL     1      21.383 -18.465 -11.359  1.00  0.00    -0.197 NA
HETATM    2  C1  UNL     1      22.352 -18.336 -11.991  1.00  0.00     0.060 C 
HETATM    3  C2  UNL     1      23.557 -18.188 -12.799  1.00  0.00     0.144 C 
ENDROOT
BRANCH   3   4
HETATM    4  C3  UNL     1      24.645 -17.485 -11.977  1.00  0.00     0.143 C 
BRANCH   4   5
HETATM    5  N2  UNL     1      24.349 -16.063 -12.016  1.00  0.00    -0.351 N 
HETATM    6  C4  UNL     1      24.234 -15.331 -13.155  1.00  0.00     0.108 A 
HETATM    7  C5  UNL     1      23.949 -14.021 -12.830  1.00  0.00     0.106 A 
HETATM    8  N3  UNL     1      23.893 -13.971 -11.488  1.00  0.00    -0.361 N 
HETATM    9  C6  UNL     1      24.137 -15.211 -11.012  1.00  0.00     0.182 A 
ATOM     10  H3  UNL     1      23.701 -13.141 -10.927  1.00  0.00     0.166 HD
ENDBRANCH   4   5
ENDBRANCH   3   4
TORSDOF 2
ENDMDL
