MODEL 1
REMARK VINA RESULT: -4.499936266      0.000      0.000
REMARK  3 active torsions:
REMARK  status: ('A' for Active; 'I' for Inactive)
REMARK    1  A    between atoms: N1_1  and  C1_5 
REMARK    2  A    between atoms: C1_5  and  C2_6 
REMARK    3  A    between atoms: C2_6  and  N2_7 
ROOT
HETATM    1  N2  UNL     1      25.204 -15.621 -12.815  1.00  0.00    -0.365 N 
HETATM    2  C3  UNL     1      23.940 -15.891 -13.205  1.00  0.00     0.090 A 
HETATM    3  C4  UNL     1      23.236 -16.936 -12.649  1.00  0.00     0.017 A 
HETATM    4  C5  UNL     1      23.842 -17.716 -11.678  1.00  0.00     0.003 A 
HETATM    5  C6  UNL     1      25.148 -17.417 -11.295  1.00  0.00     0.017 A 
HETATM    6  C7  UNL     1      25.816 -16.361 -11.876  1.00  0.00     0.090 A 
ENDROOT
BRANCH   1   7
HETATM    7  C2  UNL     1      25.883 -14.518 -13.434  1.00  0.00     0.155 C 
BRANCH   7   8
HETATM    8  C1  UNL     1      25.392 -13.180 -12.924  1.00  0.00     0.249 C 
BRANCH   8   9
HETATM    9  N1  UNL     1      26.396 -12.193 -13.273  1.00  0.00    -0.078 N 
ATOM     10  H13 UNL     1      26.179 -11.261 -12.920  1.00  0.00     0.274 HD
ATOM     11  H12 UNL     1      27.274 -12.322 -12.770  1.00  0.00     0.274 HD
ATOM     12  H11 UNL     1      26.508 -12.222 -14.286  1.00  0.00     0.274 HD
ENDBRANCH   8   9
ENDBRANCH   7   8
ENDBRANCH   1   7
TORSDOF 3
ENDMDL
MODEL 2
REMARK VINA RESULT: -4.484460989      0.088      1.580
REMARK  3 active torsions:
REMARK  status: ('A' for Active; 'I' for Inactive)
REMARK    1  A    between atoms: N1_1  and  C1_5 
REMARK    2  A    between atoms: C1_5  and  C2_6 
REMARK    3  A    between atoms: C2_6  and  N2_7 
ROOT
HETATM    1  N2  UNL     1      25.138 -15.629 -12.863  1.00  0.00    -0.365 N 
HETATM    2  C3  UNL     1      25.826 -16.346 -11.948  1.00  0.00     0.090 A 
HETATM    3  C4  UNL     1      25.245 -17.418 -11.307  1.00  0.00     0.017 A 
HETATM    4  C5  UNL     1      23.937 -17.757 -11.610  1.00  0.00     0.003 A 
HETATM    5  C6  UNL     1      23.250 -17.000 -12.558  1.00  0.00     0.017 A 
HETATM    6  C7  UNL     1      23.869 -15.936 -13.177  1.00  0.00     0.090 A 
ENDROOT
BRANCH   1   7
HETATM    7  C2  UNL     1      25.801 -14.524 -13.495  1.00  0.00     0.155 C 
BRANCH   7   8
HETATM    8  C1  UNL     1      25.364 -13.190 -12.930  1.00  0.00     0.249 C 
BRANCH   8   9
HETATM    9  N1  UNL     1      26.396 -12.226 -13.258  1.00  0.00    -0.078 N 
ATOM     10  H13 UNL     1      26.216 -11.300 -12.869  1.00  0.00     0.274 HD
ATOM     11  H12 UNL     1      27.276 -12.403 -12.774  1.00  0.00     0.274 HD
ATOM     12  H11 UNL     1      26.492 -12.220 -14.273  1.00  0.00     0.274 HD
ENDBRANCH   8   9
ENDBRANCH   7   8
ENDBRANCH   1   7
TORSDOF 3
ENDMDL
MODEL 3
REMARK VINA RESULT: -4.481199177      1.483      1.681
REMARK  3 active torsions:
REMARK  status: ('A' for Active; 'I' for Inactive)
REMARK    1  A    between atoms: N1_1  and  C1_5 
REMARK    2  A    between atoms: C1_5  and  C2_6 
REMARK    3  A    between atoms: C2_6  and  N2_7 
ROOT
HETATM    1  N2  UNL     1      24.202 -16.245 -12.658  1.00  0.00    -0.365 N 
HETATM    2  C3  UNL     1      23.149 -17.081 -12.538  1.00  0.00     0.090 A 
HETATM    3  C4  UNL     1      23.258 -18.259 -11.833  1.00  0.00     0.017 A 
HETATM    4  C5  UNL     1      24.468 -18.583 -11.243  1.00  0.00     0.003 A 
HETATM    5  C6  UNL     1      25.540 -17.702 -11.382  1.00  0.00     0.017 A 
HETATM    6  C7  UNL     1      25.388 -16.534 -12.096  1.00  0.00     0.090 A 
ENDROOT
BRANCH   1   7
HETATM    7  C2  UNL     1      24.024 -15.033 -13.406  1.00  0.00     0.155 C 
BRANCH   7   8
HETATM    8  C1  UNL     1      24.552 -13.820 -12.673  1.00  0.00     0.249 C 
BRANCH   8   9
HETATM    9  N1  UNL     1      23.754 -13.661 -11.473  1.00  0.00    -0.078 N 
ATOM     10  H13 UNL     1      22.847 -13.229 -11.651  1.00  0.00     0.274 HD
ATOM     11  H12 UNL     1      23.407 -14.546 -11.105  1.00  0.00     0.274 HD
ATOM     12  H11 UNL     1      24.319 -13.143 -10.801  1.00  0.00     0.274 HD
ENDBRANCH   8   9
ENDBRANCH   7   8
ENDBRANCH   1   7
TORSDOF 3
ENDMDL
MODEL 4
REMARK VINA RESULT: -4.463189580      1.447      2.182
REMARK  3 active torsions:
REMARK  status: ('A' for Active; 'I' for Inactive)
REMARK    1  A    between atoms: N1_1  and  C1_5 
REMARK    2  A    between atoms: C1_5  and  C2_6 
REMARK    3  A    between atoms: C2_6  and  N2_7 
ROOT
HETATM    1  N2  UNL     1      24.260 -16.268 -12.687  1.00  0.00    -0.365 N 
HETATM    2  C3  UNL     1      25.452 -16.584 -12.138  1.00  0.00     0.090 A 
HETATM    3  C4  UNL     1      25.602 -17.726 -11.382  1.00  0.00     0.017 A 
HETATM    4  C5  UNL     1      24.509 -18.554 -11.187  1.00  0.00     0.003 A 
HETATM    5  C6  UNL     1      23.290 -18.204 -11.765  1.00  0.00     0.017 A 
HETATM    6  C7  UNL     1      23.184 -17.052 -12.515  1.00  0.00     0.090 A 
ENDROOT
BRANCH   1   7
HETATM    7  C2  UNL     1      24.170 -15.064 -13.464  1.00  0.00     0.155 C 
BRANCH   7   8
HETATM    8  C1  UNL     1      24.651 -13.849 -12.702  1.00  0.00     0.249 C 
BRANCH   8   9
HETATM    9  N1  UNL     1      23.766 -13.675 -11.567  1.00  0.00    -0.078 N 
ATOM     10  H13 UNL     1      23.233 -14.516 -11.344  1.00  0.00     0.274 HD
ATOM     11  H12 UNL     1      24.264 -13.596 -10.681  1.00  0.00     0.274 HD
ATOM     12  H11 UNL     1      23.174 -12.869 -11.767  1.00  0.00     0.274 HD
ENDBRANCH   8   9
ENDBRANCH   7   8
ENDBRANCH   1   7
TORSDOF 3
ENDMDL
MODEL 5
REMARK VINA RESULT: -4.433231303      1.953      2.234
REMARK  3 active torsions:
REMARK  status: ('A' for Active; 'I' for Inactive)
REMARK    1  A    between atoms: N1_1  and  C1_5 
REMARK    2  A    between atoms: C1_5  and  C2_6 
REMARK    3  A    between atoms: C2_6  and  N2_7 
ROOT
HETATM    1  N2  UNL     1      23.952 -16.109 -13.477  1.00  0.00    -0.365 N 
HETATM    2  C3  UNL     1      23.198 -16.901 -12.685  1.00  0.00     0.090 A 
HETATM    3  C4  UNL     1      23.410 -18.262 -12.639  1.00  0.00     0.017 A 
HETATM    4  C5  UNL     1      24.412 -18.815 -13.418  1.00  0.00     0.003 A 
HETATM    5  C6  UNL     1      25.175 -17.975 -14.227  1.00  0.00     0.017 A 
HETATM    6  C7  UNL     1      24.930 -16.619 -14.243  1.00  0.00     0.090 A 
ENDROOT
BRANCH   1   7
HETATM    7  C2  UNL     1      23.680 -14.699 -13.480  1.00  0.00     0.155 C 
BRANCH   7   8
HETATM    8  C1  UNL     1      24.573 -13.938 -12.525  1.00  0.00     0.249 C 
BRANCH   8   9
HETATM    9  N1  UNL     1      23.813 -13.718 -11.310  1.00  0.00    -0.078 N 
ATOM     10  H13 UNL     1      23.177 -12.923 -11.375  1.00  0.00     0.274 HD
ATOM     11  H12 UNL     1      23.110 -14.436 -11.144  1.00  0.00     0.274 HD
ATOM     12  H11 UNL     1      24.484 -13.631 -10.547  1.00  0.00     0.274 HD
ENDBRANCH   8   9
ENDBRANCH   7   8
ENDBRANCH   1   7
TORSDOF 3
ENDMDL
