MODEL 1
REMARK VINA RESULT: -3.736171146      0.000      0.000
REMARK  0 active torsions:
REMARK  status: ('A' for Active; 'I' for Inactive)
ROOT
HETATM    1  C1  UNL     1      16.293  18.613  22.425  1.00  0.00     0.144 C 
HETATM    2  C2  UNL     1      16.544  17.283  23.133  1.00  0.00     0.294 C 
HETATM    3  N1  UNL     1      15.965  16.273  22.292  1.00  0.00     0.123 N 
HETATM    4  C3  UNL     1      16.048  14.948  22.802  1.00  0.00     0.503 C 
HETATM    5  N2  UNL     1      16.731  14.139  21.832  1.00  0.00    -0.047 N 
ATOM      6  H21 UNL     1      16.157  13.378  21.470  1.00  0.00     0.279 HD
ATOM      7  H22 UNL     1      17.469  13.565  22.240  1.00  0.00     0.279 HD
HETATM    8  C4  UNL     1      17.211  15.024  20.800  1.00  0.00     0.271 C 
HETATM    9  C5  UNL     1      16.380  16.302  20.938  1.00  0.00     0.267 C 
HETATM   10  C6  UNL     1      17.205  17.454  20.521  1.00  0.00     0.151 C 
HETATM   11  N3  UNL     1      16.966  18.684  21.177  1.00  0.00    -0.417 N 
ATOM     12  H3  UNL     1      17.262  19.574  20.776  1.00  0.00     0.153 HD
ENDROOT
TORSDOF 0
ENDMDL
MODEL 2
REMARK VINA RESULT: -3.377100107      4.384      6.542
REMARK  0 active torsions:
REMARK  status: ('A' for Active; 'I' for Inactive)
ROOT
HETATM    1  C1  UNL     1      19.229   9.231  19.636  1.00  0.00     0.144 C 
HETATM    2  C2  UNL     1      17.992   9.590  20.458  1.00  0.00     0.294 C 
HETATM    3  N1  UNL     1      18.360  10.729  21.249  1.00  0.00     0.123 N 
HETATM    4  C3  UNL     1      17.352  11.196  22.135  1.00  0.00     0.503 C 
HETATM    5  N2  UNL     1      17.094  12.576  21.830  1.00  0.00    -0.047 N 
ATOM      6  H21 UNL     1      17.298  13.203  22.608  1.00  0.00     0.279 HD
ATOM      7  H22 UNL     1      16.099  12.788  21.748  1.00  0.00     0.279 HD
HETATM    8  C4  UNL     1      17.839  12.896  20.638  1.00  0.00     0.271 C 
HETATM    9  C5  UNL     1      18.915  11.814  20.526  1.00  0.00     0.267 C 
HETATM   10  C6  UNL     1      19.208  11.579  19.097  1.00  0.00     0.151 C 
HETATM   11  N3  UNL     1      19.577  10.265  18.726  1.00  0.00    -0.417 N 
ATOM     12  H3  UNL     1      20.066  10.070  17.853  1.00  0.00     0.153 HD
ENDROOT
TORSDOF 0
ENDMDL
MODEL 3
REMARK VINA RESULT: -3.297346007      6.903      7.544
REMARK  0 active torsions:
REMARK  status: ('A' for Active; 'I' for Inactive)
ROOT
HETATM    1  C1  UNL     1      14.345  14.087  29.135  1.00  0.00     0.144 C 
HETATM    2  C2  UNL     1      12.971  14.094  28.467  1.00  0.00     0.294 C 
HETATM    3  N1  UNL     1      13.216  13.957  27.059  1.00  0.00     0.123 N 
HETATM    4  C3  UNL     1      12.054  13.992  26.241  1.00  0.00     0.503 C 
HETATM    5  N2  UNL     1      12.012  12.778  25.474  1.00  0.00    -0.047 N 
ATOM      6  H21 UNL     1      12.057  12.940  24.467  1.00  0.00     0.279 HD
ATOM      7  H22 UNL     1      11.099  12.324  25.493  1.00  0.00     0.279 HD
HETATM    8  C4  UNL     1      13.074  11.931  25.957  1.00  0.00     0.271 C 
HETATM    9  C5  UNL     1      14.039  12.864  26.691  1.00  0.00     0.267 C 
HETATM   10  C6  UNL     1      14.680  12.116  27.792  1.00  0.00     0.151 C 
HETATM   11  N3  UNL     1      15.014  12.848  28.955  1.00  0.00    -0.417 N 
ATOM     12  H3  UNL     1      15.699  12.504  29.628  1.00  0.00     0.153 HD
ENDROOT
TORSDOF 0
ENDMDL
MODEL 4
REMARK VINA RESULT: -3.277702282      6.558      7.922
REMARK  0 active torsions:
REMARK  status: ('A' for Active; 'I' for Inactive)
ROOT
HETATM    1  C1  UNL     1      13.037  13.667  25.602  1.00  0.00     0.144 C 
HETATM    2  C2  UNL     1      14.329  13.652  26.418  1.00  0.00     0.294 C 
HETATM    3  N1  UNL     1      13.926  13.609  27.795  1.00  0.00     0.123 N 
HETATM    4  C3  UNL     1      14.994  13.641  28.733  1.00  0.00     0.503 C 
HETATM    5  N2  UNL     1      14.891  12.474  29.565  1.00  0.00    -0.047 N 
ATOM      6  H21 UNL     1      14.746  12.697  30.550  1.00  0.00     0.279 HD
ATOM      7  H22 UNL     1      15.776  11.980  29.671  1.00  0.00     0.279 HD
HETATM    8  C4  UNL     1      13.846  11.648  29.014  1.00  0.00     0.271 C 
HETATM    9  C5  UNL     1      13.014  12.578  28.128  1.00  0.00     0.267 C 
HETATM   10  C6  UNL     1      12.459  11.795  27.005  1.00  0.00     0.151 C 
HETATM   11  N3  UNL     1      12.289  12.471  25.774  1.00  0.00    -0.417 N 
ATOM     12  H3  UNL     1      11.664  12.120  25.049  1.00  0.00     0.153 HD
ENDROOT
TORSDOF 0
ENDMDL
MODEL 5
REMARK VINA RESULT: -3.255489096      5.190      6.176
REMARK  0 active torsions:
REMARK  status: ('A' for Active; 'I' for Inactive)
ROOT
HETATM    1  C1  UNL     1      19.502  12.604  18.731  1.00  0.00     0.144 C 
HETATM    2  C2  UNL     1      18.677  12.814  20.001  1.00  0.00     0.294 C 
HETATM    3  N1  UNL     1      18.374  11.502  20.496  1.00  0.00     0.123 N 
HETATM    4  C3  UNL     1      17.559  11.473  21.661  1.00  0.00     0.503 C 
HETATM    5  N2  UNL     1      18.267  10.753  22.682  1.00  0.00    -0.047 N 
ATOM      6  H21 UNL     1      17.780   9.910  22.988  1.00  0.00     0.279 HD
ATOM      7  H22 UNL     1      18.271  11.235  23.581  1.00  0.00     0.279 HD
HETATM    8  C4  UNL     1      19.591  10.488  22.178  1.00  0.00     0.271 C 
HETATM    9  C5  UNL     1      19.489  10.643  20.659  1.00  0.00     0.267 C 
HETATM   10  C6  UNL     1      20.784  11.131  20.142  1.00  0.00     0.151 C 
HETATM   11  N3  UNL     1      20.744  11.973  19.006  1.00  0.00    -0.417 N 
ATOM     12  H3  UNL     1      21.563  12.119  18.416  1.00  0.00     0.153 HD
ENDROOT
TORSDOF 0
ENDMDL
