MODEL 1
REMARK VINA RESULT: -3.768103945      0.000      0.000
REMARK  2 active torsions:
REMARK  status: ('A' for Active; 'I' for Inactive)
REMARK    1  A    between atoms: O1_1  and  C1_3 
REMARK    2  A    between atoms: C6_9  and  O2_10 
ROOT
HETATM    1  C1  UNL     1      13.294  13.871  28.501  1.00  0.00     0.174 C 
HETATM    2  C2  UNL     1      13.048  14.028  27.020  1.00  0.00     0.271 C 
HETATM    3  N1  UNL     1      13.888  13.003  26.447  1.00  0.00    -0.059 N 
HETATM    4  C3  UNL     1      13.857  12.729  25.043  1.00  0.00     0.265 A 
HETATM    5  C4  UNL     1      13.337  11.738  26.054  1.00  0.00     0.265 A 
HETATM    6  C5  UNL     1      15.126  13.053  27.161  1.00  0.00     0.271 C 
HETATM    7  C6  UNL     1      14.806  13.629  28.508  1.00  0.00     0.174 C 
ENDROOT
BRANCH   1   8
HETATM    8  O1  UNL     1      12.970  15.060  29.152  1.00  0.00    -0.391 OA
ATOM      9  H1  UNL     1      13.768  15.506  29.408  1.00  0.00     0.210 HD
ENDBRANCH   1   8
BRANCH   7  10
HETATM   10  O2  UNL     1      15.114  12.789  29.559  1.00  0.00    -0.391 OA
ATOM     11  H2  UNL     1      15.838  12.230  29.300  1.00  0.00     0.210 HD
ENDBRANCH   7  10
TORSDOF 2
ENDMDL
MODEL 2
REMARK VINA RESULT: -3.722138994      0.640      2.141
REMARK  2 active torsions:
REMARK  status: ('A' for Active; 'I' for Inactive)
REMARK    1  A    between atoms: O1_1  and  C1_3 
REMARK    2  A    between atoms: C6_9  and  O2_10 
ROOT
HETATM    1  C1  UNL     1      14.779  13.726  28.461  1.00  0.00     0.174 C 
HETATM    2  C2  UNL     1      14.807  12.633  27.421  1.00  0.00     0.271 C 
HETATM    3  N1  UNL     1      13.622  12.903  26.643  1.00  0.00    -0.059 N 
HETATM    4  C3  UNL     1      13.335  12.153  25.459  1.00  0.00     0.265 A 
HETATM    5  C4  UNL     1      13.707  13.613  25.399  1.00  0.00     0.265 A 
HETATM    6  C5  UNL     1      12.590  13.223  27.580  1.00  0.00     0.271 C 
HETATM    7  C6  UNL     1      13.285  13.751  28.799  1.00  0.00     0.174 C 
ENDROOT
BRANCH   1   8
HETATM    8  O1  UNL     1      15.538  13.337  29.563  1.00  0.00    -0.391 OA
ATOM      9  H1  UNL     1      15.859  14.109  30.013  1.00  0.00     0.210 HD
ENDBRANCH   1   8
BRANCH   7  10
HETATM   10  O2  UNL     1      12.928  15.044  29.126  1.00  0.00    -0.391 OA
ATOM     11  H2  UNL     1      11.980  15.095  29.172  1.00  0.00     0.210 HD
ENDBRANCH   7  10
TORSDOF 2
ENDMDL
MODEL 3
REMARK VINA RESULT: -3.479135584      1.635      2.372
REMARK  2 active torsions:
REMARK  status: ('A' for Active; 'I' for Inactive)
REMARK    1  A    between atoms: O1_1  and  C1_3 
REMARK    2  A    between atoms: C6_9  and  O2_10 
ROOT
HETATM    1  C1  UNL     1      14.374  11.788  28.544  1.00  0.00     0.174 C 
HETATM    2  C2  UNL     1      13.103  11.975  27.753  1.00  0.00     0.271 C 
HETATM    3  N1  UNL     1      13.157  13.370  27.387  1.00  0.00    -0.059 N 
HETATM    4  C3  UNL     1      12.178  13.937  26.511  1.00  0.00     0.265 A 
HETATM    5  C4  UNL     1      13.615  13.770  26.088  1.00  0.00     0.265 A 
HETATM    6  C5  UNL     1      13.602  14.074  28.550  1.00  0.00     0.271 C 
HETATM    7  C6  UNL     1      14.390  13.086  29.357  1.00  0.00     0.174 C 
ENDROOT
BRANCH   1   8
HETATM    8  O1  UNL     1      14.244  10.675  29.373  1.00  0.00    -0.391 OA
ATOM      9  H1  UNL     1      15.102  10.305  29.541  1.00  0.00     0.210 HD
ENDBRANCH   1   8
BRANCH   7  10
HETATM   10  O2  UNL     1      15.703  13.460  29.565  1.00  0.00    -0.391 OA
ATOM     11  H2  UNL     1      15.712  14.291  30.027  1.00  0.00     0.210 HD
ENDBRANCH   7  10
TORSDOF 2
ENDMDL
MODEL 4
REMARK VINA RESULT: -3.363933884      1.443      2.167
REMARK  2 active torsions:
REMARK  status: ('A' for Active; 'I' for Inactive)
REMARK    1  A    between atoms: O1_1  and  C1_3 
REMARK    2  A    between atoms: C6_9  and  O2_10 
ROOT
HETATM    1  C1  UNL     1      14.433  12.755  28.821  1.00  0.00     0.174 C 
HETATM    2  C2  UNL     1      13.594  13.882  28.272  1.00  0.00     0.271 C 
HETATM    3  N1  UNL     1      12.902  13.257  27.170  1.00  0.00    -0.059 N 
HETATM    4  C3  UNL     1      11.894  13.964  26.440  1.00  0.00     0.265 A 
HETATM    5  C4  UNL     1      11.554  12.788  27.321  1.00  0.00     0.265 A 
HETATM    6  C5  UNL     1      13.869  12.448  26.495  1.00  0.00     0.271 C 
HETATM    7  C6  UNL     1      14.907  12.101  27.519  1.00  0.00     0.174 C 
ENDROOT
BRANCH   1   8
HETATM    8  O1  UNL     1      15.504  13.283  29.540  1.00  0.00    -0.391 OA
ATOM      9  H1  UNL     1      15.645  12.763  30.322  1.00  0.00     0.210 HD
ENDBRANCH   1   8
BRANCH   7  10
HETATM   10  O2  UNL     1      15.047  10.744  27.732  1.00  0.00    -0.391 OA
ATOM     11  H2  UNL     1      15.182  10.317  26.894  1.00  0.00     0.210 HD
ENDBRANCH   7  10
TORSDOF 2
ENDMDL
MODEL 5
REMARK VINA RESULT: -3.352482648      7.203      8.099
REMARK  2 active torsions:
REMARK  status: ('A' for Active; 'I' for Inactive)
REMARK    1  A    between atoms: O1_1  and  C1_3 
REMARK    2  A    between atoms: C6_9  and  O2_10 
ROOT
HETATM    1  C1  UNL     1      17.544  15.963  20.661  1.00  0.00     0.174 C 
HETATM    2  C2  UNL     1      16.988  17.357  20.502  1.00  0.00     0.271 C 
HETATM    3  N1  UNL     1      16.236  17.541  21.720  1.00  0.00    -0.059 N 
HETATM    4  C3  UNL     1      15.635  18.802  22.028  1.00  0.00     0.265 A 
HETATM    5  C4  UNL     1      16.795  18.262  22.826  1.00  0.00     0.265 A 
HETATM    6  C5  UNL     1      15.533  16.315  21.947  1.00  0.00     0.271 C 
HETATM    7  C6  UNL     1      16.332  15.246  21.263  1.00  0.00     0.174 C 
ENDROOT
BRANCH   1   8
HETATM    8  O1  UNL     1      17.864  15.446  19.407  1.00  0.00    -0.391 OA
ATOM      9  H1  UNL     1      18.313  14.616  19.513  1.00  0.00     0.210 HD
ENDBRANCH   1   8
BRANCH   7  10
HETATM   10  O2  UNL     1      16.781  14.258  22.116  1.00  0.00    -0.391 OA
ATOM     11  H2  UNL     1      17.727  14.319  22.179  1.00  0.00     0.210 HD
ENDBRANCH   7  10
TORSDOF 2
ENDMDL
