MODEL 1
REMARK VINA RESULT: -3.656164418      0.000      0.000
REMARK  2 active torsions:
REMARK  status: ('A' for Active; 'I' for Inactive)
REMARK    1  A    between atoms: O1_1  and  N1_3 
REMARK    2  A    between atoms: C4_7  and  O2_8 
ROOT
HETATM    1  N1  UNL     1      13.401  14.428  27.884  1.00  0.00    -0.200 NA
HETATM    2  C1  UNL     1      12.380  13.731  27.205  1.00  0.00     0.120 C 
HETATM    3  C2  UNL     1      12.566  12.254  27.084  1.00  0.00     0.019 C 
HETATM    4  C3  UNL     1      12.491  11.550  28.438  1.00  0.00     0.033 C 
HETATM    5  C4  UNL     1      13.830  11.483  29.076  1.00  0.00     0.119 C 
HETATM    6  C5  UNL     1      14.476  12.796  29.344  1.00  0.00     0.048 C 
HETATM    7  C6  UNL     1      14.596  13.692  28.158  1.00  0.00     0.123 C 
ENDROOT
BRANCH   1   8
HETATM    8  O1  UNL     1      12.969  14.956  29.062  1.00  0.00    -0.313 OA
ATOM      9  H1  UNL     1      12.024  14.919  29.147  1.00  0.00     0.237 HD
ENDBRANCH   1   8
BRANCH   5  10
HETATM   10  O2  UNL     1      14.672  10.734  28.261  1.00  0.00    -0.396 OA
ATOM     11  H2  UNL     1      14.283   9.877  28.129  1.00  0.00     0.210 HD
ENDBRANCH   5  10
TORSDOF 2
ENDMDL
MODEL 2
REMARK VINA RESULT: -3.558300792      1.315      3.033
REMARK  2 active torsions:
REMARK  status: ('A' for Active; 'I' for Inactive)
REMARK    1  A    between atoms: O1_1  and  N1_3 
REMARK    2  A    between atoms: C4_7  and  O2_8 
ROOT
HETATM    1  N1  UNL     1      13.950  11.168  28.690  1.00  0.00    -0.200 NA
HETATM    2  C1  UNL     1      12.643  11.076  28.168  1.00  0.00     0.120 C 
HETATM    3  C2  UNL     1      11.860  12.347  28.140  1.00  0.00     0.019 C 
HETATM    4  C3  UNL     1      12.447  13.366  27.163  1.00  0.00     0.033 C 
HETATM    5  C4  UNL     1      13.461  14.218  27.832  1.00  0.00     0.119 C 
HETATM    6  C5  UNL     1      14.628  13.494  28.403  1.00  0.00     0.048 C 
HETATM    7  C6  UNL     1      14.284  12.392  29.349  1.00  0.00     0.123 C 
ENDROOT
BRANCH   1   8
HETATM    8  O1  UNL     1      14.901  10.944  27.741  1.00  0.00    -0.313 OA
ATOM      9  H1  UNL     1      15.703  11.421  27.917  1.00  0.00     0.237 HD
ENDBRANCH   1   8
BRANCH   5  10
HETATM   10  O2  UNL     1      12.839  14.928  28.853  1.00  0.00    -0.396 OA
ATOM     11  H2  UNL     1      13.509  15.336  29.390  1.00  0.00     0.210 HD
ENDBRANCH   5  10
TORSDOF 2
ENDMDL
MODEL 3
REMARK VINA RESULT: -3.523565584      2.013      2.506
REMARK  2 active torsions:
REMARK  status: ('A' for Active; 'I' for Inactive)
REMARK    1  A    between atoms: O1_1  and  N1_3 
REMARK    2  A    between atoms: C4_7  and  O2_8 
ROOT
HETATM    1  N1  UNL     1      13.043  13.090  25.591  1.00  0.00    -0.200 NA
HETATM    2  C1  UNL     1      12.075  13.529  26.518  1.00  0.00     0.120 C 
HETATM    3  C2  UNL     1      12.382  13.271  27.956  1.00  0.00     0.019 C 
HETATM    4  C3  UNL     1      13.581  14.083  28.445  1.00  0.00     0.033 C 
HETATM    5  C4  UNL     1      14.848  13.341  28.229  1.00  0.00     0.119 C 
HETATM    6  C5  UNL     1      15.151  12.994  26.815  1.00  0.00     0.048 C 
HETATM    7  C6  UNL     1      14.074  12.243  26.106  1.00  0.00     0.123 C 
ENDROOT
BRANCH   1   8
HETATM    8  O1  UNL     1      13.650  14.126  24.951  1.00  0.00    -0.313 OA
ATOM      9  H1  UNL     1      13.697  13.990  24.012  1.00  0.00     0.237 HD
ENDBRANCH   1   8
BRANCH   5  10
HETATM   10  O2  UNL     1      14.807  12.167  28.974  1.00  0.00    -0.396 OA
ATOM     11  H2  UNL     1      15.562  11.637  28.745  1.00  0.00     0.210 HD
ENDBRANCH   5  10
TORSDOF 2
ENDMDL
MODEL 4
REMARK VINA RESULT: -3.496339953      4.316      5.337
REMARK  2 active torsions:
REMARK  status: ('A' for Active; 'I' for Inactive)
REMARK    1  A    between atoms: O1_1  and  N1_3 
REMARK    2  A    between atoms: C4_7  and  O2_8 
ROOT
HETATM    1  N1  UNL     1      16.332  13.459  25.019  1.00  0.00    -0.200 NA
HETATM    2  C1  UNL     1      15.237  13.112  25.838  1.00  0.00     0.120 C 
HETATM    3  C2  UNL     1      13.909  13.650  25.416  1.00  0.00     0.019 C 
HETATM    4  C3  UNL     1      13.435  13.045  24.095  1.00  0.00     0.033 C 
HETATM    5  C4  UNL     1      13.920  13.843  22.942  1.00  0.00     0.119 C 
HETATM    6  C5  UNL     1      15.399  13.955  22.821  1.00  0.00     0.048 C 
HETATM    7  C6  UNL     1      16.092  14.470  24.037  1.00  0.00     0.123 C 
ENDROOT
BRANCH   1   8
HETATM    8  O1  UNL     1      16.855  12.380  24.374  1.00  0.00    -0.313 OA
ATOM      9  H1  UNL     1      16.660  11.565  24.821  1.00  0.00     0.237 HD
ENDBRANCH   1   8
BRANCH   5  10
HETATM   10  O2  UNL     1      13.385  15.123  23.032  1.00  0.00    -0.396 OA
ATOM     11  H2  UNL     1      13.808  15.675  22.383  1.00  0.00     0.210 HD
ENDBRANCH   5  10
TORSDOF 2
ENDMDL
MODEL 5
REMARK VINA RESULT: -3.487199835      1.888      3.058
REMARK  2 active torsions:
REMARK  status: ('A' for Active; 'I' for Inactive)
REMARK    1  A    between atoms: O1_1  and  N1_3 
REMARK    2  A    between atoms: C4_7  and  O2_8 
ROOT
HETATM    1  N1  UNL     1      13.495  13.506  28.696  1.00  0.00    -0.200 NA
HETATM    2  C1  UNL     1      14.795  13.149  28.281  1.00  0.00     0.120 C 
HETATM    3  C2  UNL     1      14.912  12.607  26.895  1.00  0.00     0.019 C 
HETATM    4  C3  UNL     1      14.592  13.659  25.834  1.00  0.00     0.033 C 
HETATM    5  C4  UNL     1      13.143  13.666  25.513  1.00  0.00     0.119 C 
HETATM    6  C5  UNL     1      12.238  13.963  26.656  1.00  0.00     0.048 C 
HETATM    7  C6  UNL     1      12.422  13.086  27.848  1.00  0.00     0.123 C 
ENDROOT
BRANCH   1   8
HETATM    8  O1  UNL     1      13.364  14.848  28.883  1.00  0.00    -0.313 OA
ATOM      9  H1  UNL     1      13.422  15.090  29.799  1.00  0.00     0.237 HD
ENDBRANCH   1   8
BRANCH   5  10
HETATM   10  O2  UNL     1      12.800  12.425  24.988  1.00  0.00    -0.396 OA
ATOM     11  H2  UNL     1      11.854  12.337  25.011  1.00  0.00     0.210 HD
ENDBRANCH   5  10
TORSDOF 2
ENDMDL
