MODEL 1
REMARK VINA RESULT: -3.247509077      0.000      0.000
REMARK  0 active torsions:
REMARK  status: ('A' for Active; 'I' for Inactive)
ROOT
HETATM    1  C1  UNL     1      15.807  14.410  23.158  1.00  0.00     0.259 C 
HETATM    2  N1  UNL     1      16.390  14.490  24.472  1.00  0.00    -0.059 N 
ATOM      3  H11 UNL     1      16.225  15.407  24.891  1.00  0.00     0.278 HD
ATOM      4  H12 UNL     1      17.408  14.514  24.421  1.00  0.00     0.278 HD
HETATM    5  C2  UNL     1      15.936  13.426  25.351  1.00  0.00     0.264 C 
HETATM    6  C3  UNL     1      14.462  13.698  25.623  1.00  0.00     0.158 C 
HETATM    7  N2  UNL     1      13.769  14.011  24.422  1.00  0.00    -0.412 N 
ATOM      8  H2  UNL     1      12.844  14.439  24.422  1.00  0.00     0.153 HD
HETATM    9  C4  UNL     1      14.463  13.682  23.210  1.00  0.00     0.111 C 
HETATM   10  C5  UNL     1      14.770  12.218  23.067  1.00  0.00     0.102 C 
HETATM   11  S1  UNL     1      15.924  11.827  24.448  1.00  0.00    -0.133 SA
ENDROOT
TORSDOF 0
ENDMDL
MODEL 2
REMARK VINA RESULT: -3.193859325      0.817      2.538
REMARK  0 active torsions:
REMARK  status: ('A' for Active; 'I' for Inactive)
ROOT
HETATM    1  C1  UNL     1      14.413  13.648  25.511  1.00  0.00     0.259 C 
HETATM    2  N1  UNL     1      13.661  14.082  24.362  1.00  0.00    -0.059 N 
ATOM      3  H11 UNL     1      13.494  15.088  24.392  1.00  0.00     0.278 HD
ATOM      4  H12 UNL     1      12.697  13.754  24.409  1.00  0.00     0.278 HD
HETATM    5  C2  UNL     1      14.283  13.694  23.108  1.00  0.00     0.264 C 
HETATM    6  C3  UNL     1      15.564  14.512  22.997  1.00  0.00     0.158 C 
HETATM    7  N2  UNL     1      16.290  14.495  24.218  1.00  0.00    -0.412 N 
ATOM      8  H2  UNL     1      17.041  15.156  24.415  1.00  0.00     0.153 HD
HETATM    9  C4  UNL     1      15.891  13.484  25.154  1.00  0.00     0.111 C 
HETATM   10  C5  UNL     1      16.047  12.083  24.635  1.00  0.00     0.102 C 
HETATM   11  S1  UNL     1      14.883  11.961  23.212  1.00  0.00    -0.133 SA
ENDROOT
TORSDOF 0
ENDMDL
MODEL 3
REMARK VINA RESULT: -3.185998897      1.480      1.936
REMARK  0 active torsions:
REMARK  status: ('A' for Active; 'I' for Inactive)
ROOT
HETATM    1  C1  UNL     1      16.344  12.980  22.497  1.00  0.00     0.259 C 
HETATM    2  N1  UNL     1      16.680  12.096  23.583  1.00  0.00    -0.059 N 
ATOM      3  H11 UNL     1      17.669  12.173  23.826  1.00  0.00     0.278 HD
ATOM      4  H12 UNL     1      16.660  11.122  23.283  1.00  0.00     0.278 HD
HETATM    5  C2  UNL     1      15.840  12.300  24.750  1.00  0.00     0.264 C 
HETATM    6  C3  UNL     1      16.209  13.669  25.308  1.00  0.00     0.158 C 
HETATM    7  N2  UNL     1      16.285  14.640  24.273  1.00  0.00    -0.412 N 
ATOM      8  H2  UNL     1      16.733  15.545  24.406  1.00  0.00     0.153 HD
HETATM    9  C4  UNL     1      15.687  14.255  23.027  1.00  0.00     0.111 C 
HETATM   10  C5  UNL     1      14.216  13.962  23.126  1.00  0.00     0.102 C 
HETATM   11  S1  UNL     1      14.088  12.498  24.236  1.00  0.00    -0.133 SA
ENDROOT
TORSDOF 0
ENDMDL
MODEL 4
REMARK VINA RESULT: -3.183775011      1.670      2.616
REMARK  0 active torsions:
REMARK  status: ('A' for Active; 'I' for Inactive)
ROOT
HETATM    1  C1  UNL     1      16.144  13.688  25.265  1.00  0.00     0.259 C 
HETATM    2  N1  UNL     1      16.304  14.668  24.222  1.00  0.00    -0.059 N 
ATOM      3  H11 UNL     1      17.291  14.859  24.047  1.00  0.00     0.278 HD
ATOM      4  H12 UNL     1      16.012  15.592  24.540  1.00  0.00     0.278 HD
HETATM    5  C2  UNL     1      15.619  14.298  22.996  1.00  0.00     0.264 C 
HETATM    6  C3  UNL     1      16.366  13.093  22.438  1.00  0.00     0.158 C 
HETATM    7  N2  UNL     1      16.630  12.137  23.456  1.00  0.00    -0.412 N 
ATOM      8  H2  UNL     1      17.306  11.384  23.335  1.00  0.00     0.153 HD
HETATM    9  C4  UNL     1      15.877  12.307  24.666  1.00  0.00     0.111 C 
HETATM   10  C5  UNL     1      14.390  12.212  24.471  1.00  0.00     0.102 C 
HETATM   11  S1  UNL     1      13.951  13.633  23.384  1.00  0.00    -0.133 SA
ENDROOT
TORSDOF 0
ENDMDL
MODEL 5
REMARK VINA RESULT: -3.164916061      3.709      4.443
REMARK  0 active torsions:
REMARK  status: ('A' for Active; 'I' for Inactive)
ROOT
HETATM    1  C1  UNL     1      14.971  11.771  26.798  1.00  0.00     0.259 C 
HETATM    2  N1  UNL     1      14.605  11.078  28.006  1.00  0.00    -0.059 N 
ATOM      3  H11 UNL     1      15.431  10.729  28.493  1.00  0.00     0.278 HD
ATOM      4  H12 UNL     1      14.150  10.190  27.796  1.00  0.00     0.278 HD
HETATM    5  C2  UNL     1      13.783  11.889  28.889  1.00  0.00     0.264 C 
HETATM    6  C3  UNL     1      14.684  13.004  29.404  1.00  0.00     0.158 C 
HETATM    7  N2  UNL     1      15.432  13.588  28.346  1.00  0.00    -0.412 N 
ATOM      8  H2  UNL     1      16.244  14.182  28.515  1.00  0.00     0.153 HD
HETATM    9  C4  UNL     1      14.965  13.283  27.024  1.00  0.00     0.111 C 
HETATM   10  C5  UNL     1      13.560  13.745  26.757  1.00  0.00     0.102 C 
HETATM   11  S1  UNL     1      12.504  12.779  27.916  1.00  0.00    -0.133 SA
ENDROOT
TORSDOF 0
ENDMDL
