MODEL 1
REMARK VINA RESULT: -7.047950910      0.000      0.000
REMARK  4 active torsions:
REMARK  status: ('A' for Active; 'I' for Inactive)
REMARK    1  A    between atoms: N1_2  and  N2_4 
REMARK       I    between atoms: N2_4  and  C2_6 
REMARK    2  A    between atoms: C2_6  and  C3_8 
REMARK    3  A    between atoms: C3_8  and  S1_9 
REMARK    4  A    between atoms: S1_9  and  C4_10 
ROOT
HETATM    1  C4  UNL     1      14.946  11.083  82.779  1.00  0.00     0.069 C 
HETATM    2  N3  UNL     1      16.048  11.396  82.187  1.00  0.00    -0.264 N 
ATOM      3  H3  UNL     1      16.576  12.190  82.549  1.00  0.00     0.194 HD
HETATM    4  O2  UNL     1      16.558  10.727  81.096  1.00  0.00    -0.279 OA
HETATM    5  C5  UNL     1      16.143   9.352  81.017  1.00  0.00     0.211 C 
HETATM    6  C6  UNL     1      14.625   9.411  80.962  1.00  0.00    -0.011 C 
HETATM    7  C7  UNL     1      14.289  10.340  79.800  1.00  0.00     0.012 C 
HETATM    8  C8  UNL     1      14.347   9.330  78.642  1.00  0.00     0.001 C 
HETATM    9  C9  UNL     1      13.503   8.211  79.207  1.00  0.00     0.001 C 
HETATM   10  C10 UNL     1      13.991   8.101  80.650  1.00  0.00     0.012 C 
HETATM   11  C11 UNL     1      14.150   9.928  82.276  1.00  0.00     0.078 C 
ENDROOT
BRANCH   1  12
HETATM   12  S1  UNL     1      14.285  11.948  84.192  1.00  0.00    -0.105 SA
BRANCH  12  13
HETATM   13  C3  UNL     1      12.710  11.292  84.749  1.00  0.00     0.185 C 
BRANCH  13  14
HETATM   14  C2  UNL     1      12.961  10.224  85.723  1.00  0.00     0.245 C 
HETATM   15  N2  UNL     1      14.272   9.715  85.878  1.00  0.00    -0.271 N 
ATOM     16  H2  UNL     1      15.020  10.106  85.305  1.00  0.00     0.190 HD
HETATM   17  O1  UNL     1      12.036   9.765  86.408  1.00  0.00    -0.271 OA
BRANCH  15  18
HETATM   18  N1  UNL     1      14.583   8.699  86.785  1.00  0.00    -0.319 N 
HETATM   19  C1  UNL     1      14.651   7.481  86.380  1.00  0.00     0.139 C 
ATOM     20  H1  UNL     1      14.755   8.922  87.765  1.00  0.00     0.185 HD
ENDBRANCH  15  18
ENDBRANCH  13  14
ENDBRANCH  12  13
ENDBRANCH   1  12
TORSDOF 4
ENDMDL
MODEL 2
REMARK VINA RESULT: -6.971617672      1.411      1.534
REMARK  4 active torsions:
REMARK  status: ('A' for Active; 'I' for Inactive)
REMARK    1  A    between atoms: N1_2  and  N2_4 
REMARK       I    between atoms: N2_4  and  C2_6 
REMARK    2  A    between atoms: C2_6  and  C3_8 
REMARK    3  A    between atoms: C3_8  and  S1_9 
REMARK    4  A    between atoms: S1_9  and  C4_10 
ROOT
HETATM    1  C4  UNL     1      14.886  11.044  82.859  1.00  0.00     0.069 C 
HETATM    2  N3  UNL     1      15.986  11.371  82.272  1.00  0.00    -0.264 N 
ATOM      3  H3  UNL     1      16.505  12.168  82.641  1.00  0.00     0.194 HD
HETATM    4  O2  UNL     1      16.506  10.714  81.179  1.00  0.00    -0.279 OA
HETATM    5  C5  UNL     1      16.105   9.336  81.090  1.00  0.00     0.211 C 
HETATM    6  C6  UNL     1      14.587   9.380  81.030  1.00  0.00    -0.011 C 
HETATM    7  C7  UNL     1      14.245  10.312  79.872  1.00  0.00     0.012 C 
HETATM    8  C8  UNL     1      14.317   9.310  78.709  1.00  0.00     0.001 C 
HETATM    9  C9  UNL     1      13.482   8.179  79.264  1.00  0.00     0.001 C 
HETATM   10  C10 UNL     1      13.966   8.066  80.709  1.00  0.00     0.012 C 
HETATM   11  C11 UNL     1      14.103   9.884  82.346  1.00  0.00     0.078 C 
ENDROOT
BRANCH   1  12
HETATM   12  S1  UNL     1      14.211  11.894  84.275  1.00  0.00    -0.105 SA
BRANCH  12  13
HETATM   13  C3  UNL     1      13.998  10.829  85.703  1.00  0.00     0.185 C 
BRANCH  13  14
HETATM   14  C2  UNL     1      12.598  10.395  85.765  1.00  0.00     0.245 C 
HETATM   15  N2  UNL     1      12.282   9.030  85.575  1.00  0.00    -0.271 N 
ATOM     16  H2  UNL     1      13.040   8.371  85.398  1.00  0.00     0.190 HD
HETATM   17  O1  UNL     1      11.693  11.215  85.982  1.00  0.00    -0.271 OA
BRANCH  15  18
HETATM   18  N1  UNL     1      10.972   8.547  85.620  1.00  0.00    -0.319 N 
HETATM   19  C1  UNL     1      10.700   7.500  86.314  1.00  0.00     0.139 C 
ATOM     20  H1  UNL     1      10.233   9.023  85.103  1.00  0.00     0.185 HD
ENDBRANCH  15  18
ENDBRANCH  13  14
ENDBRANCH  12  13
ENDBRANCH   1  12
TORSDOF 4
ENDMDL
MODEL 3
REMARK VINA RESULT: -6.946802229      1.048      1.091
REMARK  4 active torsions:
REMARK  status: ('A' for Active; 'I' for Inactive)
REMARK    1  A    between atoms: N1_2  and  N2_4 
REMARK       I    between atoms: N2_4  and  C2_6 
REMARK    2  A    between atoms: C2_6  and  C3_8 
REMARK    3  A    between atoms: C3_8  and  S1_9 
REMARK    4  A    between atoms: S1_9  and  C4_10 
ROOT
HETATM    1  C4  UNL     1      14.707  10.865  82.871  1.00  0.00     0.069 C 
HETATM    2  N3  UNL     1      15.884  11.214  82.476  1.00  0.00    -0.264 N 
ATOM      3  H3  UNL     1      16.368  11.941  83.003  1.00  0.00     0.194 HD
HETATM    4  O2  UNL     1      16.530  10.669  81.389  1.00  0.00    -0.279 OA
HETATM    5  C5  UNL     1      16.112   9.327  81.084  1.00  0.00     0.211 C 
HETATM    6  C6  UNL     1      14.616   9.438  80.832  1.00  0.00    -0.011 C 
HETATM    7  C7  UNL     1      14.456  10.512  79.761  1.00  0.00     0.012 C 
HETATM    8  C8  UNL     1      14.659   9.650  78.505  1.00  0.00     0.001 C 
HETATM    9  C9  UNL     1      13.729   8.496  78.805  1.00  0.00     0.001 C 
HETATM   10  C10 UNL     1      14.013   8.197  80.276  1.00  0.00     0.012 C 
HETATM   11  C11 UNL     1      13.972   9.805  82.125  1.00  0.00     0.078 C 
ENDROOT
BRANCH   1  12
HETATM   12  S1  UNL     1      13.870  11.571  84.280  1.00  0.00    -0.105 SA
BRANCH  12  13
HETATM   13  C3  UNL     1      13.062  10.344  85.309  1.00  0.00     0.185 C 
BRANCH  13  14
HETATM   14  C2  UNL     1      14.084   9.461  85.882  1.00  0.00     0.245 C 
HETATM   15  N2  UNL     1      14.183   8.123  85.432  1.00  0.00    -0.271 N 
ATOM     16  H2  UNL     1      13.535   7.799  84.713  1.00  0.00     0.190 HD
HETATM   17  O1  UNL     1      14.860   9.877  86.755  1.00  0.00    -0.271 OA
BRANCH  15  18
HETATM   18  N1  UNL     1      15.130   7.228  85.934  1.00  0.00    -0.319 N 
HETATM   19  C1  UNL     1      14.777   6.338  86.791  1.00  0.00     0.139 C 
ATOM     20  H1  UNL     1      16.100   7.280  85.621  1.00  0.00     0.185 HD
ENDBRANCH  15  18
ENDBRANCH  13  14
ENDBRANCH  12  13
ENDBRANCH   1  12
TORSDOF 4
ENDMDL
MODEL 4
REMARK VINA RESULT: -6.813677332      3.251      5.244
REMARK  4 active torsions:
REMARK  status: ('A' for Active; 'I' for Inactive)
REMARK    1  A    between atoms: N1_2  and  N2_4 
REMARK       I    between atoms: N2_4  and  C2_6 
REMARK    2  A    between atoms: C2_6  and  C3_8 
REMARK    3  A    between atoms: C3_8  and  S1_9 
REMARK    4  A    between atoms: S1_9  and  C4_10 
ROOT
HETATM    1  C4  UNL     1      13.629   8.589  79.881  1.00  0.00     0.069 C 
HETATM    2  N3  UNL     1      13.150   9.058  80.983  1.00  0.00    -0.264 N 
ATOM      3  H3  UNL     1      13.071  10.071  81.075  1.00  0.00     0.194 HD
HETATM    4  O2  UNL     1      12.739   8.281  82.042  1.00  0.00    -0.279 OA
HETATM    5  C5  UNL     1      12.317   6.960  81.658  1.00  0.00     0.211 C 
HETATM    6  C6  UNL     1      13.531   6.353  80.972  1.00  0.00    -0.011 C 
HETATM    7  C7  UNL     1      14.679   6.489  81.967  1.00  0.00     0.012 C 
HETATM    8  C8  UNL     1      14.446   5.219  82.800  1.00  0.00     0.001 C 
HETATM    9  C9  UNL     1      14.288   4.191  81.703  1.00  0.00     0.001 C 
HETATM   10  C10 UNL     1      13.389   4.899  80.691  1.00  0.00     0.012 C 
HETATM   11  C11 UNL     1      13.758   7.114  79.712  1.00  0.00     0.078 C 
ENDROOT
BRANCH   1  12
HETATM   12  S1  UNL     1      14.162   9.596  78.508  1.00  0.00    -0.105 SA
BRANCH  12  13
HETATM   13  C3  UNL     1      15.800  10.293  78.737  1.00  0.00     0.185 C 
BRANCH  13  14
HETATM   14  C2  UNL     1      15.751  11.264  79.836  1.00  0.00     0.245 C 
HETATM   15  N2  UNL     1      16.105  10.857  81.143  1.00  0.00    -0.271 N 
ATOM     16  H2  UNL     1      16.388   9.888  81.295  1.00  0.00     0.190 HD
HETATM   17  O1  UNL     1      15.404  12.436  79.626  1.00  0.00    -0.271 OA
BRANCH  15  18
HETATM   18  N1  UNL     1      16.080  11.727  82.236  1.00  0.00    -0.319 N 
HETATM   19  C1  UNL     1      15.082  11.709  83.045  1.00  0.00     0.139 C 
ATOM     20  H1  UNL     1      16.852  12.375  82.391  1.00  0.00     0.185 HD
ENDBRANCH  15  18
ENDBRANCH  13  14
ENDBRANCH  12  13
ENDBRANCH   1  12
TORSDOF 4
ENDMDL
MODEL 5
REMARK VINA RESULT: -6.748650458      1.206      1.206
REMARK  4 active torsions:
REMARK  status: ('A' for Active; 'I' for Inactive)
REMARK    1  A    between atoms: N1_2  and  N2_4 
REMARK       I    between atoms: N2_4  and  C2_6 
REMARK    2  A    between atoms: C2_6  and  C3_8 
REMARK    3  A    between atoms: C3_8  and  S1_9 
REMARK    4  A    between atoms: S1_9  and  C4_10 
ROOT
HETATM    1  C4  UNL     1      14.947  11.089  82.837  1.00  0.00     0.069 C 
HETATM    2  N3  UNL     1      16.035  11.411  82.224  1.00  0.00    -0.264 N 
ATOM      3  H3  UNL     1      16.560  12.214  82.572  1.00  0.00     0.194 HD
HETATM    4  O2  UNL     1      16.535  10.741  81.130  1.00  0.00    -0.279 OA
HETATM    5  C5  UNL     1      16.135   9.361  81.067  1.00  0.00     0.211 C 
HETATM    6  C6  UNL     1      14.616   9.401  81.036  1.00  0.00    -0.011 C 
HETATM    7  C7  UNL     1      14.249  10.317  79.874  1.00  0.00     0.012 C 
HETATM    8  C8  UNL     1      14.300   9.300  78.723  1.00  0.00     0.001 C 
HETATM    9  C9  UNL     1      13.479   8.175  79.309  1.00  0.00     0.001 C 
HETATM   10  C10 UNL     1      13.992   8.082  80.745  1.00  0.00     0.012 C 
HETATM   11  C11 UNL     1      14.157   9.921  82.355  1.00  0.00     0.078 C 
ENDROOT
BRANCH   1  12
HETATM   12  S1  UNL     1      14.299  11.957  84.255  1.00  0.00    -0.105 SA
BRANCH  12  13
HETATM   13  C3  UNL     1      12.910  11.119  85.022  1.00  0.00     0.185 C 
BRANCH  13  14
HETATM   14  C2  UNL     1      13.424  10.134  85.980  1.00  0.00     0.245 C 
HETATM   15  N2  UNL     1      12.529   9.226  86.594  1.00  0.00    -0.271 N 
ATOM     16  H2  UNL     1      11.539   9.276  86.354  1.00  0.00     0.190 HD
HETATM   17  O1  UNL     1      14.632  10.092  86.255  1.00  0.00    -0.271 OA
BRANCH  15  18
HETATM   18  N1  UNL     1      12.947   8.263  87.516  1.00  0.00    -0.319 N 
HETATM   19  C1  UNL     1      12.082   7.672  88.259  1.00  0.00     0.139 C 
ATOM     20  H1  UNL     1      13.937   8.030  87.599  1.00  0.00     0.185 HD
ENDBRANCH  15  18
ENDBRANCH  13  14
ENDBRANCH  12  13
ENDBRANCH   1  12
TORSDOF 4
ENDMDL
