MODEL 1
REMARK VINA RESULT: -6.952776179      0.000      0.000
REMARK  5 active torsions:
REMARK  status: ('A' for Active; 'I' for Inactive)
REMARK    1  A    between atoms: C7_7  and  O1_9 
REMARK    2  A    between atoms: O1_9  and  C9_10 
REMARK    3  A    between atoms: C9_10  and  C10_11 
REMARK    4  A    between atoms: C10_11  and  C11_12 
REMARK    5  A    between atoms: C11_12  and  C12_13 
ROOT
HETATM    1  C1  UNL     1      75.959  31.453  -7.440  1.00  0.00     0.020 C 
HETATM    2  C2  UNL     1      76.702  31.645  -8.499  1.00  0.00    -0.058 C 
HETATM    3  C3  UNL     1      78.126  32.012  -8.273  1.00  0.00     0.010 C 
HETATM    4  C4  UNL     1      78.681  32.921  -9.056  1.00  0.00    -0.072 C 
HETATM    5  C5  UNL     1      79.947  33.612  -9.277  1.00  0.00     0.037 C 
HETATM    6  C6  UNL     1      79.842  34.017 -10.781  1.00  0.00     0.042 C 
HETATM    7  C7  UNL     1      78.399  34.553 -10.666  1.00  0.00     0.065 C 
HETATM    8  C8  UNL     1      77.930  35.195 -11.914  1.00  0.00     0.047 C 
HETATM    9  C14 UNL     1      77.681  33.456 -10.075  1.00  0.00     0.054 C 
HETATM   10  C15 UNL     1      77.290  32.235 -10.800  1.00  0.00     0.010 C 
HETATM   11  C16 UNL     1      76.699  32.314 -12.139  1.00  0.00     0.007 C 
HETATM   12  C17 UNL     1      76.579  30.915 -12.700  1.00  0.00     0.016 C 
HETATM   13  C18 UNL     1      76.359  29.822 -11.756  1.00  0.00     0.002 C 
HETATM   14  C19 UNL     1      75.356  28.861 -12.417  1.00  0.00     0.022 C 
HETATM   15  C20 UNL     1      77.591  28.995 -11.558  1.00  0.00     0.035 C 
HETATM   16  N1  UNL     1      78.546  28.763 -12.601  1.00  0.00    -0.106 NA
HETATM   17  C21 UNL     1      77.638  28.544 -10.325  1.00  0.00    -0.062 C 
HETATM   18  C22 UNL     1      78.689  27.684  -9.705  1.00  0.00     0.045 C 
HETATM   19  C23 UNL     1      76.458  29.010  -9.600  1.00  0.00     0.042 C 
HETATM   20  C24 UNL     1      75.934  30.153 -10.375  1.00  0.00     0.016 C 
HETATM   21  C25 UNL     1      76.248  31.526  -9.906  1.00  0.00    -0.008 C 
HETATM   22  C26 UNL     1      74.967  32.369  -9.980  1.00  0.00     0.021 C 
ENDROOT
BRANCH   7  23
HETATM   23  O1  UNL     1      78.564  35.596  -9.728  1.00  0.00    -0.380 OA
BRANCH  23  24
HETATM   24  C9  UNL     1      78.755  36.833 -10.239  1.00  0.00     0.168 C 
BRANCH  24  25
HETATM   25  C10 UNL     1      77.878  37.815  -9.457  1.00  0.00     0.026 C 
BRANCH  25  26
HETATM   26  C11 UNL     1      76.461  37.825  -9.911  1.00  0.00     0.002 C 
BRANCH  26  27
HETATM   27  C12 UNL     1      75.648  38.465  -8.781  1.00  0.00    -0.004 C 
HETATM   28  C13 UNL     1      76.544  38.813  -7.610  1.00  0.00     0.005 C 
ENDBRANCH  26  27
ENDBRANCH  25  26
ENDBRANCH  24  25
ENDBRANCH  23  24
ENDBRANCH   7  23
TORSDOF 5
ENDMDL
MODEL 2
REMARK VINA RESULT: -6.891770130      2.671      6.136
REMARK  5 active torsions:
REMARK  status: ('A' for Active; 'I' for Inactive)
REMARK    1  A    between atoms: C7_7  and  O1_9 
REMARK    2  A    between atoms: O1_9  and  C9_10 
REMARK    3  A    between atoms: C9_10  and  C10_11 
REMARK    4  A    between atoms: C10_11  and  C11_12 
REMARK    5  A    between atoms: C11_12  and  C12_13 
ROOT
HETATM    1  C1  UNL     1      80.222  31.736  -8.788  1.00  0.00     0.020 C 
HETATM    2  C2  UNL     1      79.052  32.017  -9.301  1.00  0.00    -0.058 C 
HETATM    3  C3  UNL     1      77.954  32.342  -8.352  1.00  0.00     0.010 C 
HETATM    4  C4  UNL     1      76.740  31.880  -8.600  1.00  0.00    -0.072 C 
HETATM    5  C5  UNL     1      75.386  31.889  -8.055  1.00  0.00     0.037 C 
HETATM    6  C6  UNL     1      74.520  31.628  -9.328  1.00  0.00     0.042 C 
HETATM    7  C7  UNL     1      75.400  30.469  -9.841  1.00  0.00     0.065 C 
HETATM    8  C8  UNL     1      74.825  29.803 -11.032  1.00  0.00     0.047 C 
HETATM    9  C14 UNL     1      76.720  31.038  -9.870  1.00  0.00     0.054 C 
HETATM   10  C15 UNL     1      77.188  31.995 -10.887  1.00  0.00     0.010 C 
HETATM   11  C16 UNL     1      76.910  31.775 -12.309  1.00  0.00     0.007 C 
HETATM   12  C17 UNL     1      77.342  33.000 -13.084  1.00  0.00     0.016 C 
HETATM   13  C18 UNL     1      78.472  33.766 -12.565  1.00  0.00     0.002 C 
HETATM   14  C19 UNL     1      79.307  34.202 -13.782  1.00  0.00     0.022 C 
HETATM   15  C20 UNL     1      78.037  35.051 -11.934  1.00  0.00     0.035 C 
HETATM   16  N1  UNL     1      76.910  35.803 -12.401  1.00  0.00    -0.106 NA
HETATM   17  C21 UNL     1      78.830  35.353 -10.930  1.00  0.00    -0.062 C 
HETATM   18  C22 UNL     1      78.756  36.542 -10.031  1.00  0.00     0.045 C 
HETATM   19  C23 UNL     1      79.856  34.320 -10.806  1.00  0.00     0.042 C 
HETATM   20  C24 UNL     1      79.336  33.145 -11.533  1.00  0.00     0.016 C 
HETATM   21  C25 UNL     1      78.727  32.043 -10.748  1.00  0.00    -0.008 C 
HETATM   22  C26 UNL     1      79.253  30.708 -11.294  1.00  0.00     0.021 C 
ENDROOT
BRANCH   7  23
HETATM   23  O1  UNL     1      75.286  29.541  -8.783  1.00  0.00    -0.380 OA
BRANCH  23  24
HETATM   24  C9  UNL     1      74.304  28.618  -8.900  1.00  0.00     0.168 C 
BRANCH  24  25
HETATM   25  C10 UNL     1      73.450  28.663  -7.631  1.00  0.00     0.026 C 
BRANCH  25  26
HETATM   26  C11 UNL     1      72.089  29.219  -7.861  1.00  0.00     0.002 C 
BRANCH  26  27
HETATM   27  C12 UNL     1      71.956  30.437  -6.942  1.00  0.00    -0.004 C 
HETATM   28  C13 UNL     1      73.087  30.470  -5.934  1.00  0.00     0.005 C 
ENDBRANCH  26  27
ENDBRANCH  25  26
ENDBRANCH  24  25
ENDBRANCH  23  24
ENDBRANCH   7  23
TORSDOF 5
ENDMDL
MODEL 3
REMARK VINA RESULT: -6.815338550      2.825      4.302
REMARK  5 active torsions:
REMARK  status: ('A' for Active; 'I' for Inactive)
REMARK    1  A    between atoms: C7_7  and  O1_9 
REMARK    2  A    between atoms: O1_9  and  C9_10 
REMARK    3  A    between atoms: C9_10  and  C10_11 
REMARK    4  A    between atoms: C10_11  and  C11_12 
REMARK    5  A    between atoms: C11_12  and  C12_13 
ROOT
HETATM    1  C1  UNL     1      77.261  30.804 -12.868  1.00  0.00     0.020 C 
HETATM    2  C2  UNL     1      78.010  31.821 -12.528  1.00  0.00    -0.058 C 
HETATM    3  C3  UNL     1      78.062  32.174 -11.084  1.00  0.00     0.010 C 
HETATM    4  C4  UNL     1      78.065  33.450 -10.741  1.00  0.00    -0.072 C 
HETATM    5  C5  UNL     1      78.107  34.312  -9.563  1.00  0.00     0.037 C 
HETATM    6  C6  UNL     1      78.705  35.632 -10.144  1.00  0.00     0.042 C 
HETATM    7  C7  UNL     1      77.785  35.651 -11.383  1.00  0.00     0.065 C 
HETATM    8  C8  UNL     1      77.937  36.885 -12.186  1.00  0.00     0.047 C 
HETATM    9  C14 UNL     1      77.984  34.352 -11.967  1.00  0.00     0.054 C 
HETATM   10  C15 UNL     1      79.185  33.959 -12.724  1.00  0.00     0.010 C 
HETATM   11  C16 UNL     1      79.760  34.850 -13.735  1.00  0.00     0.007 C 
HETATM   12  C17 UNL     1      81.076  34.269 -14.203  1.00  0.00     0.016 C 
HETATM   13  C18 UNL     1      81.214  32.815 -14.199  1.00  0.00     0.002 C 
HETATM   14  C19 UNL     1      81.993  32.441 -15.473  1.00  0.00     0.022 C 
HETATM   15  C20 UNL     1      82.084  32.337 -13.079  1.00  0.00     0.035 C 
HETATM   16  N1  UNL     1      83.198  33.092 -12.584  1.00  0.00    -0.106 NA
HETATM   17  C21 UNL     1      81.668  31.165 -12.652  1.00  0.00    -0.062 C 
HETATM   18  C22 UNL     1      82.245  30.334 -11.555  1.00  0.00     0.045 C 
HETATM   19  C23 UNL     1      80.509  30.755 -13.441  1.00  0.00     0.042 C 
HETATM   20  C24 UNL     1      79.992  31.986 -14.070  1.00  0.00     0.016 C 
HETATM   21  C25 UNL     1      78.814  32.650 -13.458  1.00  0.00    -0.008 C 
HETATM   22  C26 UNL     1      77.841  33.043 -14.579  1.00  0.00     0.021 C 
ENDROOT
BRANCH   7  23
HETATM   23  O1  UNL     1      76.509  35.730 -10.783  1.00  0.00    -0.380 OA
BRANCH  23  24
HETATM   24  C9  UNL     1      75.848  36.900 -10.937  1.00  0.00     0.168 C 
BRANCH  24  25
HETATM   25  C10 UNL     1      74.813  37.018  -9.816  1.00  0.00     0.026 C 
BRANCH  25  26
HETATM   26  C11 UNL     1      74.947  38.271  -9.025  1.00  0.00     0.002 C 
BRANCH  26  27
HETATM   27  C12 UNL     1      76.436  38.630  -9.029  1.00  0.00    -0.004 C 
HETATM   28  C13 UNL     1      76.986  38.641  -7.617  1.00  0.00     0.005 C 
ENDBRANCH  26  27
ENDBRANCH  25  26
ENDBRANCH  24  25
ENDBRANCH  23  24
ENDBRANCH   7  23
TORSDOF 5
ENDMDL
MODEL 4
REMARK VINA RESULT: -6.693693782      3.065      4.962
REMARK  5 active torsions:
REMARK  status: ('A' for Active; 'I' for Inactive)
REMARK    1  A    between atoms: C7_7  and  O1_9 
REMARK    2  A    between atoms: O1_9  and  C9_10 
REMARK    3  A    between atoms: C9_10  and  C10_11 
REMARK    4  A    between atoms: C10_11  and  C11_12 
REMARK    5  A    between atoms: C11_12  and  C12_13 
ROOT
HETATM    1  C1  UNL     1      77.259  32.102 -14.393  1.00  0.00     0.020 C 
HETATM    2  C2  UNL     1      78.104  32.771 -13.652  1.00  0.00    -0.058 C 
HETATM    3  C3  UNL     1      78.039  32.554 -12.182  1.00  0.00     0.010 C 
HETATM    4  C4  UNL     1      78.189  33.593 -11.378  1.00  0.00    -0.072 C 
HETATM    5  C5  UNL     1      78.219  33.939  -9.961  1.00  0.00     0.037 C 
HETATM    6  C6  UNL     1      79.067  35.250  -9.962  1.00  0.00     0.042 C 
HETATM    7  C7  UNL     1      78.311  35.887 -11.147  1.00  0.00     0.065 C 
HETATM    8  C8  UNL     1      78.735  37.281 -11.409  1.00  0.00     0.047 C 
HETATM    9  C14 UNL     1      78.384  34.880 -12.170  1.00  0.00     0.054 C 
HETATM   10  C15 UNL     1      79.594  34.583 -12.956  1.00  0.00     0.010 C 
HETATM   11  C16 UNL     1      80.408  35.664 -13.519  1.00  0.00     0.007 C 
HETATM   12  C17 UNL     1      81.670  35.069 -14.103  1.00  0.00     0.016 C 
HETATM   13  C18 UNL     1      81.592  33.716 -14.646  1.00  0.00     0.002 C 
HETATM   14  C19 UNL     1      82.451  33.702 -15.924  1.00  0.00     0.022 C 
HETATM   15  C20 UNL     1      82.246  32.713 -13.749  1.00  0.00     0.035 C 
HETATM   16  N1  UNL     1      83.393  33.020 -12.946  1.00  0.00    -0.106 NA
HETATM   17  C21 UNL     1      81.616  31.561 -13.824  1.00  0.00    -0.062 C 
HETATM   18  C22 UNL     1      81.933  30.297 -13.098  1.00  0.00     0.045 C 
HETATM   19  C23 UNL     1      80.509  31.684 -14.769  1.00  0.00     0.042 C 
HETATM   20  C24 UNL     1      80.255  33.132 -14.908  1.00  0.00     0.016 C 
HETATM   21  C25 UNL     1      79.124  33.725 -14.152  1.00  0.00    -0.008 C 
HETATM   22  C26 UNL     1      78.356  34.669 -15.088  1.00  0.00     0.021 C 
ENDROOT
BRANCH   7  23
HETATM   23  O1  UNL     1      76.999  35.968 -10.629  1.00  0.00    -0.380 OA
BRANCH  23  24
HETATM   24  C9  UNL     1      76.349  37.137 -10.831  1.00  0.00     0.168 C 
BRANCH  24  25
HETATM   25  C10 UNL     1      75.081  37.135  -9.973  1.00  0.00     0.026 C 
BRANCH  25  26
HETATM   26  C11 UNL     1      75.001  38.294  -9.044  1.00  0.00     0.002 C 
BRANCH  26  27
HETATM   27  C12 UNL     1      76.433  38.808  -8.866  1.00  0.00    -0.004 C 
HETATM   28  C13 UNL     1      76.849  38.732  -7.411  1.00  0.00     0.005 C 
ENDBRANCH  26  27
ENDBRANCH  25  26
ENDBRANCH  24  25
ENDBRANCH  23  24
ENDBRANCH   7  23
TORSDOF 5
ENDMDL
MODEL 5
REMARK VINA RESULT: -6.681580745      4.737      7.368
REMARK  5 active torsions:
REMARK  status: ('A' for Active; 'I' for Inactive)
REMARK    1  A    between atoms: C7_7  and  O1_9 
REMARK    2  A    between atoms: O1_9  and  C9_10 
REMARK    3  A    between atoms: C9_10  and  C10_11 
REMARK    4  A    between atoms: C10_11  and  C11_12 
REMARK    5  A    between atoms: C11_12  and  C12_13 
ROOT
HETATM    1  C1  UNL     1      72.496  29.132 -12.186  1.00  0.00     0.020 C 
HETATM    2  C2  UNL     1      72.193  28.878 -10.939  1.00  0.00    -0.058 C 
HETATM    3  C3  UNL     1      71.008  29.574 -10.372  1.00  0.00     0.010 C 
HETATM    4  C4  UNL     1      71.067  30.022  -9.130  1.00  0.00    -0.072 C 
HETATM    5  C5  UNL     1      70.262  30.723  -8.133  1.00  0.00     0.037 C 
HETATM    6  C6  UNL     1      70.910  30.247  -6.795  1.00  0.00     0.042 C 
HETATM    7  C7  UNL     1      72.361  30.475  -7.272  1.00  0.00     0.065 C 
HETATM    8  C8  UNL     1      73.353  30.261  -6.194  1.00  0.00     0.047 C 
HETATM    9  C14 UNL     1      72.427  29.739  -8.505  1.00  0.00     0.054 C 
HETATM   10  C15 UNL     1      72.510  28.270  -8.590  1.00  0.00     0.010 C 
HETATM   11  C16 UNL     1      73.422  27.518  -7.724  1.00  0.00     0.007 C 
HETATM   12  C17 UNL     1      73.154  26.040  -7.901  1.00  0.00     0.016 C 
HETATM   13  C18 UNL     1      72.685  25.589  -9.209  1.00  0.00     0.002 C 
HETATM   14  C19 UNL     1      73.391  24.252  -9.495  1.00  0.00     0.022 C 
HETATM   15  C20 UNL     1      71.229  25.245  -9.195  1.00  0.00     0.035 C 
HETATM   16  N1  UNL     1      70.573  24.688  -8.049  1.00  0.00    -0.106 NA
HETATM   17  C21 UNL     1      70.686  25.528 -10.358  1.00  0.00    -0.062 C 
HETATM   18  C22 UNL     1      69.265  25.343 -10.774  1.00  0.00     0.045 C 
HETATM   19  C23 UNL     1      71.714  26.068 -11.245  1.00  0.00     0.042 C 
HETATM   20  C24 UNL     1      72.816  26.508 -10.365  1.00  0.00     0.016 C 
HETATM   21  C25 UNL     1      72.928  27.952 -10.043  1.00  0.00    -0.008 C 
HETATM   22  C26 UNL     1      74.401  28.365 -10.171  1.00  0.00     0.021 C 
ENDROOT
BRANCH   7  23
HETATM   23  O1  UNL     1      72.356  31.864  -7.527  1.00  0.00    -0.380 OA
BRANCH  23  24
HETATM   24  C9  UNL     1      73.555  32.485  -7.472  1.00  0.00     0.168 C 
BRANCH  24  25
HETATM   25  C10 UNL     1      73.960  32.876  -8.895  1.00  0.00     0.026 C 
BRANCH  25  26
HETATM   26  C11 UNL     1      75.082  32.058  -9.431  1.00  0.00     0.002 C 
BRANCH  26  27
HETATM   27  C12 UNL     1      75.896  31.593  -8.220  1.00  0.00    -0.004 C 
HETATM   28  C13 UNL     1      77.342  32.026  -8.352  1.00  0.00     0.005 C 
ENDBRANCH  26  27
ENDBRANCH  25  26
ENDBRANCH  24  25
ENDBRANCH  23  24
ENDBRANCH   7  23
TORSDOF 5
ENDMDL
