MODEL 1
REMARK VINA RESULT: -8.269084594      0.000      0.000
REMARK  5 active torsions:
REMARK  status: ('A' for Active; 'I' for Inactive)
REMARK    1  A    between atoms: C2_2  and  C3_3 
REMARK    2  A    between atoms: C3_3  and  C4_4 
REMARK    3  A    between atoms: C4_4  and  O1_5 
REMARK    4  A    between atoms: O1_5  and  C5_6 
REMARK    5  A    between atoms: C14_15  and  O2_16 
ROOT
HETATM    1  C5  UNL     1      78.529  35.642 -10.812  1.00  0.00     0.122 C 
HETATM    2  C6  UNL     1      77.446  35.378 -11.845  1.00  0.00     0.032 C 
HETATM    3  C7  UNL     1      76.284  34.747 -11.063  1.00  0.00     0.008 C 
HETATM    4  C8  UNL     1      76.761  33.352 -10.697  1.00  0.00    -0.001 C 
HETATM    5  C9  UNL     1      75.638  32.565 -10.105  1.00  0.00    -0.001 C 
HETATM    6  C10 UNL     1      74.767  33.371  -9.167  1.00  0.00     0.006 C 
HETATM    7  C11 UNL     1      73.473  32.631  -8.944  1.00  0.00     0.006 C 
HETATM    8  C12 UNL     1      73.627  31.146  -9.220  1.00  0.00    -0.003 C 
HETATM    9  C13 UNL     1      72.465  30.445  -8.602  1.00  0.00     0.037 C 
HETATM   10  C14 UNL     1      72.527  28.955  -8.665  1.00  0.00     0.118 C 
HETATM   11  C15 UNL     1      73.853  28.512  -8.094  1.00  0.00     0.032 C 
HETATM   12  C16 UNL     1      74.939  29.113  -8.972  1.00  0.00     0.012 C 
HETATM   13  C17 UNL     1      74.957  30.626  -8.730  1.00  0.00    -0.033 C 
HETATM   14  C18 UNL     1      75.130  30.826  -7.257  1.00  0.00     0.016 C 
HETATM   15  C19 UNL     1      76.067  31.250  -9.553  1.00  0.00    -0.032 C 
HETATM   16  C20 UNL     1      76.252  30.316 -10.762  1.00  0.00     0.016 C 
HETATM   17  C21 UNL     1      77.364  31.258  -8.817  1.00  0.00     0.011 C 
HETATM   18  C22 UNL     1      77.971  32.609  -8.623  1.00  0.00     0.010 C 
HETATM   19  C23 UNL     1      78.006  33.401  -9.897  1.00  0.00    -0.038 C 
HETATM   20  C24 UNL     1      79.218  32.895 -10.694  1.00  0.00     0.015 C 
HETATM   21  C25 UNL     1      78.341  34.850  -9.555  1.00  0.00     0.041 C 
ENDROOT
BRANCH   1  22
HETATM   22  O1  UNL     1      78.555  36.992 -10.575  1.00  0.00    -0.386 OA
BRANCH  22  23
HETATM   23  C4  UNL     1      77.986  37.290  -9.339  1.00  0.00     0.168 C 
BRANCH  23  24
HETATM   24  C3  UNL     1      77.221  38.595  -9.408  1.00  0.00     0.026 C 
BRANCH  24  25
HETATM   25  C2  UNL     1      75.891  38.510  -8.722  1.00  0.00    -0.002 C 
HETATM   26  C1  UNL     1      74.984  37.567  -9.478  1.00  0.00     0.005 C 
ENDBRANCH  24  25
ENDBRANCH  23  24
ENDBRANCH  22  23
ENDBRANCH   1  22
BRANCH  10  27
HETATM   27  O2  UNL     1      71.501  28.446  -7.871  1.00  0.00    -0.396 OA
ATOM     28  H2  UNL     1      71.816  28.400  -6.976  1.00  0.00     0.210 HD
ENDBRANCH  10  27
TORSDOF 5
ENDMDL
MODEL 2
REMARK VINA RESULT: -7.984280606      0.978      1.150
REMARK  5 active torsions:
REMARK  status: ('A' for Active; 'I' for Inactive)
REMARK    1  A    between atoms: C2_2  and  C3_3 
REMARK    2  A    between atoms: C3_3  and  C4_4 
REMARK    3  A    between atoms: C4_4  and  O1_5 
REMARK    4  A    between atoms: O1_5  and  C5_6 
REMARK    5  A    between atoms: C14_15  and  O2_16 
ROOT
HETATM    1  C5  UNL     1      78.220  34.787 -10.159  1.00  0.00     0.122 C 
HETATM    2  C6  UNL     1      77.060  34.827 -11.142  1.00  0.00     0.032 C 
HETATM    3  C7  UNL     1      75.853  34.272 -10.371  1.00  0.00     0.008 C 
HETATM    4  C8  UNL     1      76.127  32.786 -10.218  1.00  0.00    -0.001 C 
HETATM    5  C9  UNL     1      74.926  32.099  -9.656  1.00  0.00    -0.001 C 
HETATM    6  C10 UNL     1      74.234  32.889  -8.567  1.00  0.00     0.006 C 
HETATM    7  C11 UNL     1      72.854  32.322  -8.354  1.00  0.00     0.006 C 
HETATM    8  C12 UNL     1      72.764  30.882  -8.826  1.00  0.00    -0.003 C 
HETATM    9  C13 UNL     1      71.539  30.281  -8.225  1.00  0.00     0.037 C 
HETATM   10  C14 UNL     1      71.367  28.821  -8.481  1.00  0.00     0.118 C 
HETATM   11  C15 UNL     1      72.635  28.115  -8.062  1.00  0.00     0.032 C 
HETATM   12  C16 UNL     1      73.758  28.664  -8.928  1.00  0.00     0.012 C 
HETATM   13  C17 UNL     1      74.020  30.112  -8.496  1.00  0.00    -0.033 C 
HETATM   14  C18 UNL     1      74.291  30.082  -7.025  1.00  0.00     0.016 C 
HETATM   15  C19 UNL     1      75.173  30.672  -9.306  1.00  0.00    -0.032 C 
HETATM   16  C20 UNL     1      75.154  29.894 -10.634  1.00  0.00     0.016 C 
HETATM   17  C21 UNL     1      76.489  30.390  -8.664  1.00  0.00     0.011 C 
HETATM   18  C22 UNL     1      77.304  31.598  -8.341  1.00  0.00     0.010 C 
HETATM   19  C23 UNL     1      77.401  32.542  -9.503  1.00  0.00    -0.038 C 
HETATM   20  C24 UNL     1      78.481  31.977 -10.438  1.00  0.00     0.015 C 
HETATM   21  C25 UNL     1      77.971  33.866  -9.003  1.00  0.00     0.041 C 
ENDROOT
BRANCH   1  22
HETATM   22  O1  UNL     1      78.464  36.074  -9.755  1.00  0.00    -0.386 OA
BRANCH  22  23
HETATM   23  C4  UNL     1      77.982  36.987 -10.689  1.00  0.00     0.168 C 
BRANCH  23  24
HETATM   24  C3  UNL     1      77.425  38.211  -9.994  1.00  0.00     0.026 C 
BRANCH  24  25
HETATM   25  C2  UNL     1      76.051  37.975  -9.443  1.00  0.00    -0.002 C 
HETATM   26  C1  UNL     1      75.748  38.995  -8.370  1.00  0.00     0.005 C 
ENDBRANCH  24  25
ENDBRANCH  23  24
ENDBRANCH  22  23
ENDBRANCH   1  22
BRANCH  10  27
HETATM   27  O2  UNL     1      70.314  28.365  -7.691  1.00  0.00    -0.396 OA
ATOM     28  H2  UNL     1      69.515  28.426  -8.201  1.00  0.00     0.210 HD
ENDBRANCH  10  27
TORSDOF 5
ENDMDL
MODEL 3
REMARK VINA RESULT: -7.273369034      1.525      2.024
REMARK  5 active torsions:
REMARK  status: ('A' for Active; 'I' for Inactive)
REMARK    1  A    between atoms: C2_2  and  C3_3 
REMARK    2  A    between atoms: C3_3  and  C4_4 
REMARK    3  A    between atoms: C4_4  and  O1_5 
REMARK    4  A    between atoms: O1_5  and  C5_6 
REMARK    5  A    between atoms: C14_15  and  O2_16 
ROOT
HETATM    1  C5  UNL     1      78.529  34.935 -10.517  1.00  0.00     0.122 C 
HETATM    2  C6  UNL     1      77.418  34.801 -11.546  1.00  0.00     0.032 C 
HETATM    3  C7  UNL     1      76.185  34.335 -10.756  1.00  0.00     0.008 C 
HETATM    4  C8  UNL     1      76.479  32.894 -10.373  1.00  0.00    -0.001 C 
HETATM    5  C9  UNL     1      75.264  32.267  -9.771  1.00  0.00    -0.001 C 
HETATM    6  C10 UNL     1      74.507  33.190  -8.843  1.00  0.00     0.006 C 
HETATM    7  C11 UNL     1      73.129  32.626  -8.610  1.00  0.00     0.006 C 
HETATM    8  C12 UNL     1      73.089  31.131  -8.868  1.00  0.00    -0.003 C 
HETATM    9  C13 UNL     1      71.847  30.593  -8.241  1.00  0.00     0.037 C 
HETATM   10  C14 UNL     1      71.715  29.108  -8.286  1.00  0.00     0.118 C 
HETATM   11  C15 UNL     1      72.974  28.503  -7.711  1.00  0.00     0.032 C 
HETATM   12  C16 UNL     1      74.127  28.948  -8.597  1.00  0.00     0.012 C 
HETATM   13  C17 UNL     1      74.341  30.449  -8.373  1.00  0.00    -0.033 C 
HETATM   14  C18 UNL     1      74.541  30.642  -6.902  1.00  0.00     0.016 C 
HETATM   15  C19 UNL     1      75.521  30.913  -9.204  1.00  0.00    -0.032 C 
HETATM   16  C20 UNL     1      75.580  29.949 -10.402  1.00  0.00     0.016 C 
HETATM   17  C21 UNL     1      76.810  30.762  -8.468  1.00  0.00     0.011 C 
HETATM   18  C22 UNL     1      77.586  32.025  -8.291  1.00  0.00     0.010 C 
HETATM   19  C23 UNL     1      77.721  32.790  -9.575  1.00  0.00    -0.038 C 
HETATM   20  C24 UNL     1      78.855  32.122 -10.366  1.00  0.00     0.015 C 
HETATM   21  C25 UNL     1      78.242  34.188  -9.250  1.00  0.00     0.041 C 
ENDROOT
BRANCH   1  22
HETATM   22  O1  UNL     1      78.729  36.273 -10.296  1.00  0.00    -0.386 OA
BRANCH  22  23
HETATM   23  C4  UNL     1      78.580  36.998 -11.476  1.00  0.00     0.168 C 
BRANCH  23  24
HETATM   24  C3  UNL     1      79.399  38.270 -11.423  1.00  0.00     0.026 C 
BRANCH  24  25
HETATM   25  C2  UNL     1      79.977  38.630 -12.758  1.00  0.00    -0.002 C 
HETATM   26  C1  UNL     1      81.006  39.725 -12.592  1.00  0.00     0.005 C 
ENDBRANCH  24  25
ENDBRANCH  23  24
ENDBRANCH  22  23
ENDBRANCH   1  22
BRANCH  10  27
HETATM   27  O2  UNL     1      70.633  28.746  -7.486  1.00  0.00    -0.396 OA
ATOM     28  H2  UNL     1      70.073  29.506  -7.386  1.00  0.00     0.210 HD
ENDBRANCH  10  27
TORSDOF 5
ENDMDL
MODEL 4
REMARK VINA RESULT: -6.866140509      2.495      3.422
REMARK  5 active torsions:
REMARK  status: ('A' for Active; 'I' for Inactive)
REMARK    1  A    between atoms: C2_2  and  C3_3 
REMARK    2  A    between atoms: C3_3  and  C4_4 
REMARK    3  A    between atoms: C4_4  and  O1_5 
REMARK    4  A    between atoms: O1_5  and  C5_6 
REMARK    5  A    between atoms: C14_15  and  O2_16 
ROOT
HETATM    1  C5  UNL     1      77.766  37.345 -11.400  1.00  0.00     0.122 C 
HETATM    2  C6  UNL     1      76.423  36.675 -11.645  1.00  0.00     0.032 C 
HETATM    3  C7  UNL     1      76.454  35.384 -10.813  1.00  0.00     0.008 C 
HETATM    4  C8  UNL     1      77.434  34.471 -11.531  1.00  0.00    -0.001 C 
HETATM    5  C9  UNL     1      77.399  33.106 -10.926  1.00  0.00    -0.001 C 
HETATM    6  C10 UNL     1      77.294  33.118  -9.417  1.00  0.00     0.006 C 
HETATM    7  C11 UNL     1      76.872  31.751  -8.945  1.00  0.00     0.006 C 
HETATM    8  C12 UNL     1      77.213  30.680  -9.966  1.00  0.00    -0.003 C 
HETATM    9  C13 UNL     1      77.146  29.358  -9.280  1.00  0.00     0.037 C 
HETATM   10  C14 UNL     1      77.585  28.198 -10.110  1.00  0.00     0.118 C 
HETATM   11  C15 UNL     1      78.956  28.506 -10.665  1.00  0.00     0.032 C 
HETATM   12  C16 UNL     1      78.817  29.744 -11.536  1.00  0.00     0.012 C 
HETATM   13  C17 UNL     1      78.551  30.940 -10.616  1.00  0.00    -0.033 C 
HETATM   14  C18 UNL     1      79.663  30.973  -9.616  1.00  0.00     0.016 C 
HETATM   15  C19 UNL     1      78.460  32.201 -11.452  1.00  0.00    -0.032 C 
HETATM   16  C20 UNL     1      77.980  31.737 -12.838  1.00  0.00     0.016 C 
HETATM   17  C21 UNL     1      79.797  32.831 -11.651  1.00  0.00     0.011 C 
HETATM   18  C22 UNL     1      79.910  34.238 -11.163  1.00  0.00     0.010 C 
HETATM   19  C23 UNL     1      78.773  35.095 -11.638  1.00  0.00    -0.038 C 
HETATM   20  C24 UNL     1      79.102  35.496 -13.083  1.00  0.00     0.015 C 
HETATM   21  C25 UNL     1      78.795  36.404 -10.854  1.00  0.00     0.041 C 
ENDROOT
BRANCH   1  22
HETATM   22  O1  UNL     1      77.548  38.415 -10.570  1.00  0.00    -0.386 OA
BRANCH  22  23
HETATM   23  C4  UNL     1      78.177  38.224  -9.342  1.00  0.00     0.168 C 
BRANCH  23  24
HETATM   24  C3  UNL     1      77.164  38.270  -8.217  1.00  0.00     0.026 C 
BRANCH  24  25
HETATM   25  C2  UNL     1      75.992  39.144  -8.543  1.00  0.00    -0.002 C 
HETATM   26  C1  UNL     1      74.798  38.289  -8.898  1.00  0.00     0.005 C 
ENDBRANCH  24  25
ENDBRANCH  23  24
ENDBRANCH  22  23
ENDBRANCH   1  22
BRANCH  10  27
HETATM   27  O2  UNL     1      77.674  27.082  -9.281  1.00  0.00    -0.396 OA
ATOM     28  H2  UNL     1      76.798  26.867  -8.982  1.00  0.00     0.210 HD
ENDBRANCH  10  27
TORSDOF 5
ENDMDL
MODEL 5
REMARK VINA RESULT: -6.753965527      1.747      2.780
REMARK  5 active torsions:
REMARK  status: ('A' for Active; 'I' for Inactive)
REMARK    1  A    between atoms: C2_2  and  C3_3 
REMARK    2  A    between atoms: C3_3  and  C4_4 
REMARK    3  A    between atoms: C4_4  and  O1_5 
REMARK    4  A    between atoms: O1_5  and  C5_6 
REMARK    5  A    between atoms: C14_15  and  O2_16 
ROOT
HETATM    1  C5  UNL     1      77.637  33.615  -9.953  1.00  0.00     0.122 C 
HETATM    2  C6  UNL     1      76.357  34.107 -10.610  1.00  0.00     0.032 C 
HETATM    3  C7  UNL     1      75.217  33.586  -9.722  1.00  0.00     0.008 C 
HETATM    4  C8  UNL     1      75.177  32.086  -9.965  1.00  0.00    -0.001 C 
HETATM    5  C9  UNL     1      73.975  31.493  -9.306  1.00  0.00    -0.001 C 
HETATM    6  C10 UNL     1      73.686  32.078  -7.942  1.00  0.00     0.006 C 
HETATM    7  C11 UNL     1      72.276  31.720  -7.545  1.00  0.00     0.006 C 
HETATM    8  C12 UNL     1      71.785  30.490  -8.287  1.00  0.00    -0.003 C 
HETATM    9  C13 UNL     1      70.586  29.972  -7.567  1.00  0.00     0.037 C 
HETATM   10  C14 UNL     1      70.051  28.681  -8.090  1.00  0.00     0.118 C 
HETATM   11  C15 UNL     1      71.185  27.684  -8.138  1.00  0.00     0.032 C 
HETATM   12  C16 UNL     1      72.226  28.239  -9.097  1.00  0.00     0.012 C 
HETATM   13  C17 UNL     1      72.877  29.457  -8.432  1.00  0.00    -0.033 C 
HETATM   14  C18 UNL     1      73.396  29.000  -7.106  1.00  0.00     0.016 C 
HETATM   15  C19 UNL     1      73.959  30.003  -9.343  1.00  0.00    -0.032 C 
HETATM   16  C20 UNL     1      73.527  29.614 -10.768  1.00  0.00     0.016 C 
HETATM   17  C21 UNL     1      75.273  29.343  -9.099  1.00  0.00     0.011 C 
HETATM   18  C22 UNL     1      76.382  30.268  -8.716  1.00  0.00     0.010 C 
HETATM   19  C23 UNL     1      76.473  31.451  -9.634  1.00  0.00    -0.038 C 
HETATM   20  C24 UNL     1      77.213  30.973 -10.892  1.00  0.00     0.015 C 
HETATM   21  C25 UNL     1      77.404  32.481  -9.001  1.00  0.00     0.041 C 
ENDROOT
BRANCH   1  22
HETATM   22  O1  UNL     1      78.230  34.690  -9.344  1.00  0.00    -0.386 OA
BRANCH  22  23
HETATM   23  C4  UNL     1      79.295  35.166 -10.106  1.00  0.00     0.168 C 
BRANCH  23  24
HETATM   24  C3  UNL     1      79.112  36.638 -10.410  1.00  0.00     0.026 C 
BRANCH  24  25
HETATM   25  C2  UNL     1      78.938  36.899 -11.876  1.00  0.00    -0.002 C 
HETATM   26  C1  UNL     1      79.173  35.624 -12.654  1.00  0.00     0.005 C 
ENDBRANCH  24  25
ENDBRANCH  23  24
ENDBRANCH  22  23
ENDBRANCH   1  22
BRANCH  10  27
HETATM   27  O2  UNL     1      69.084  28.222  -7.198  1.00  0.00    -0.396 OA
ATOM     28  H2  UNL     1      68.270  28.115  -7.676  1.00  0.00     0.210 HD
ENDBRANCH  10  27
TORSDOF 5
ENDMDL
