MODEL 1
REMARK VINA RESULT: -7.100209103      0.000      0.000
REMARK  5 active torsions:
REMARK  status: ('A' for Active; 'I' for Inactive)
REMARK    1  A    between atoms: C2_2  and  C3_3 
REMARK    2  A    between atoms: C3_3  and  C4_4 
REMARK    3  A    between atoms: C4_4  and  C5_5 
REMARK    4  A    between atoms: C5_5  and  C6_6 
REMARK    5  A    between atoms: C13_14  and  O2_15 
ROOT
HETATM    1  C6  UNL     1      77.023  36.027 -11.295  1.00  0.00     0.126 C 
HETATM    2  O1  UNL     1      76.142  34.959 -11.045  1.00  0.00    -0.385 OA
HETATM    3  C7  UNL     1      76.498  33.972 -11.984  1.00  0.00     0.178 C 
HETATM    4  C8  UNL     1      77.813  33.343 -11.680  1.00  0.00    -0.010 C 
HETATM    5  C9  UNL     1      78.668  33.359 -12.942  1.00  0.00     0.018 C 
HETATM    6  C10 UNL     1      77.656  31.867 -11.265  1.00  0.00     0.007 C 
HETATM    7  C11 UNL     1      77.311  30.984 -12.386  1.00  0.00     0.015 C 
HETATM    8  C12 UNL     1      78.372  29.906 -12.657  1.00  0.00     0.013 C 
HETATM    9  C13 UNL     1      76.000  30.346 -12.501  1.00  0.00     0.122 C 
HETATM   10  C14 UNL     1      75.628  29.287 -11.516  1.00  0.00     0.033 C 
HETATM   11  C15 UNL     1      75.258  29.947 -10.237  1.00  0.00     0.011 C 
HETATM   12  C16 UNL     1      76.414  30.540  -9.482  1.00  0.00    -0.044 C 
HETATM   13  C17 UNL     1      75.804  30.849  -8.095  1.00  0.00     0.015 C 
HETATM   14  C18 UNL     1      77.528  29.570  -9.226  1.00  0.00     0.015 C 
HETATM   15  C19 UNL     1      76.864  31.858 -10.029  1.00  0.00    -0.001 C 
HETATM   16  C20 UNL     1      77.754  32.467  -8.933  1.00  0.00     0.006 C 
HETATM   17  C21 UNL     1      78.187  33.868  -9.237  1.00  0.00     0.011 C 
HETATM   18  C22 UNL     1      78.559  34.139 -10.644  1.00  0.00    -0.029 C 
HETATM   19  C23 UNL     1      80.071  33.903 -10.775  1.00  0.00     0.016 C 
HETATM   20  C24 UNL     1      78.379  35.636 -10.924  1.00  0.00     0.019 C 
HETATM   21  C25 UNL     1      79.097  36.404  -9.875  1.00  0.00     0.013 C 
ENDROOT
BRANCH   1  22
HETATM   22  C5  UNL     1      76.411  37.270 -10.797  1.00  0.00     0.032 C 
BRANCH  22  23
HETATM   23  C4  UNL     1      75.171  37.128  -9.957  1.00  0.00     0.002 C 
BRANCH  23  24
HETATM   24  C3  UNL     1      75.040  38.277  -8.989  1.00  0.00    -0.000 C 
BRANCH  24  25
HETATM   25  C2  UNL     1      76.298  39.035  -8.733  1.00  0.00    -0.005 C 
HETATM   26  C1  UNL     1      76.907  38.681  -7.383  1.00  0.00     0.005 C 
ENDBRANCH  24  25
ENDBRANCH  23  24
ENDBRANCH  22  23
ENDBRANCH   1  22
BRANCH   9  27
HETATM   27  O2  UNL     1      75.976  29.703 -13.770  1.00  0.00    -0.395 OA
ATOM     28  H2  UNL     1      76.609  30.157 -14.312  1.00  0.00     0.210 HD
ENDBRANCH   9  27
TORSDOF 5
ENDMDL
MODEL 2
REMARK VINA RESULT: -6.744022342      0.970      1.088
REMARK  5 active torsions:
REMARK  status: ('A' for Active; 'I' for Inactive)
REMARK    1  A    between atoms: C2_2  and  C3_3 
REMARK    2  A    between atoms: C3_3  and  C4_4 
REMARK    3  A    between atoms: C4_4  and  C5_5 
REMARK    4  A    between atoms: C5_5  and  C6_6 
REMARK    5  A    between atoms: C13_14  and  O2_15 
ROOT
HETATM    1  C6  UNL     1      77.714  35.345 -11.901  1.00  0.00     0.126 C 
HETATM    2  O1  UNL     1      76.659  34.415 -11.896  1.00  0.00    -0.385 OA
HETATM    3  C7  UNL     1      77.198  33.256 -12.486  1.00  0.00     0.178 C 
HETATM    4  C8  UNL     1      78.190  32.577 -11.607  1.00  0.00    -0.010 C 
HETATM    5  C9  UNL     1      79.455  32.305 -12.414  1.00  0.00     0.018 C 
HETATM    6  C10 UNL     1      77.673  31.213 -11.112  1.00  0.00     0.007 C 
HETATM    7  C11 UNL     1      77.657  30.185 -12.161  1.00  0.00     0.015 C 
HETATM    8  C12 UNL     1      78.571  28.989 -11.850  1.00  0.00     0.013 C 
HETATM    9  C13 UNL     1      76.411  29.651 -12.711  1.00  0.00     0.122 C 
HETATM   10  C14 UNL     1      75.541  28.812 -11.835  1.00  0.00     0.033 C 
HETATM   11  C15 UNL     1      74.811  29.709 -10.902  1.00  0.00     0.011 C 
HETATM   12  C16 UNL     1      75.664  30.320  -9.826  1.00  0.00    -0.044 C 
HETATM   13  C17 UNL     1      74.623  30.911  -8.849  1.00  0.00     0.015 C 
HETATM   14  C18 UNL     1      76.442  29.315  -9.030  1.00  0.00     0.015 C 
HETATM   15  C19 UNL     1      76.477  31.482 -10.305  1.00  0.00    -0.001 C 
HETATM   16  C20 UNL     1      76.959  32.190  -9.027  1.00  0.00     0.006 C 
HETATM   17  C21 UNL     1      77.675  33.476  -9.303  1.00  0.00     0.011 C 
HETATM   18  C22 UNL     1      78.591  33.471 -10.465  1.00  0.00    -0.029 C 
HETATM   19  C23 UNL     1      79.986  33.087  -9.950  1.00  0.00     0.016 C 
HETATM   20  C24 UNL     1      78.753  34.908 -10.975  1.00  0.00     0.019 C 
HETATM   21  C25 UNL     1      79.119  35.779  -9.829  1.00  0.00     0.013 C 
ENDROOT
BRANCH   1  22
HETATM   22  C5  UNL     1      77.147  36.703 -11.846  1.00  0.00     0.032 C 
BRANCH  22  23
HETATM   23  C4  UNL     1      75.707  36.822 -11.426  1.00  0.00     0.002 C 
BRANCH  23  24
HETATM   24  C3  UNL     1      75.597  37.121  -9.952  1.00  0.00    -0.000 C 
BRANCH  24  25
HETATM   25  C2  UNL     1      76.429  38.262  -9.475  1.00  0.00    -0.005 C 
HETATM   26  C1  UNL     1      75.692  39.109  -8.446  1.00  0.00     0.005 C 
ENDBRANCH  24  25
ENDBRANCH  23  24
ENDBRANCH  22  23
ENDBRANCH   1  22
BRANCH   9  27
HETATM   27  O2  UNL     1      76.780  28.806 -13.794  1.00  0.00    -0.395 OA
ATOM     28  H2  UNL     1      76.161  28.980 -14.492  1.00  0.00     0.210 HD
ENDBRANCH   9  27
TORSDOF 5
ENDMDL
MODEL 3
REMARK VINA RESULT: -6.697656476      2.383      4.348
REMARK  5 active torsions:
REMARK  status: ('A' for Active; 'I' for Inactive)
REMARK    1  A    between atoms: C2_2  and  C3_3 
REMARK    2  A    between atoms: C3_3  and  C4_4 
REMARK    3  A    between atoms: C4_4  and  C5_5 
REMARK    4  A    between atoms: C5_5  and  C6_6 
REMARK    5  A    between atoms: C13_14  and  O2_15 
ROOT
HETATM    1  C6  UNL     1      76.947  34.908 -10.405  1.00  0.00     0.126 C 
HETATM    2  O1  UNL     1      77.649  34.847 -11.622  1.00  0.00    -0.385 OA
HETATM    3  C7  UNL     1      78.939  34.408 -11.272  1.00  0.00     0.178 C 
HETATM    4  C8  UNL     1      78.960  32.979 -10.852  1.00  0.00    -0.010 C 
HETATM    5  C9  UNL     1      79.705  32.869  -9.526  1.00  0.00     0.018 C 
HETATM    6  C10 UNL     1      79.718  32.098 -11.865  1.00  0.00     0.007 C 
HETATM    7  C11 UNL     1      81.172  32.298 -11.830  1.00  0.00     0.015 C 
HETATM    8  C12 UNL     1      81.949  31.029 -11.443  1.00  0.00     0.013 C 
HETATM    9  C13 UNL     1      81.898  32.935 -12.928  1.00  0.00     0.122 C 
HETATM   10  C14 UNL     1      81.998  32.219 -14.234  1.00  0.00     0.033 C 
HETATM   11  C15 UNL     1      80.698  32.351 -14.942  1.00  0.00     0.011 C 
HETATM   12  C16 UNL     1      79.578  31.545 -14.346  1.00  0.00    -0.044 C 
HETATM   13  C17 UNL     1      78.483  31.612 -15.436  1.00  0.00     0.015 C 
HETATM   14  C18 UNL     1      79.901  30.091 -14.185  1.00  0.00     0.015 C 
HETATM   15  C19 UNL     1      78.978  32.177 -13.129  1.00  0.00    -0.001 C 
HETATM   16  C20 UNL     1      77.647  31.439 -12.907  1.00  0.00     0.006 C 
HETATM   17  C21 UNL     1      76.822  32.033 -11.808  1.00  0.00     0.011 C 
HETATM   18  C22 UNL     1      77.564  32.474 -10.606  1.00  0.00    -0.029 C 
HETATM   19  C23 UNL     1      77.588  31.296  -9.621  1.00  0.00     0.016 C 
HETATM   20  C24 UNL     1      76.749  33.558  -9.889  1.00  0.00     0.019 C 
HETATM   21  C25 UNL     1      75.368  33.052  -9.683  1.00  0.00     0.013 C 
ENDROOT
BRANCH   1  22
HETATM   22  C5  UNL     1      75.828  35.854 -10.552  1.00  0.00     0.032 C 
BRANCH  22  23
HETATM   23  C4  UNL     1      76.119  37.302 -10.269  1.00  0.00     0.002 C 
BRANCH  23  24
HETATM   24  C3  UNL     1      75.121  37.874  -9.294  1.00  0.00    -0.000 C 
BRANCH  24  25
HETATM   25  C2  UNL     1      75.591  39.067  -8.534  1.00  0.00    -0.005 C 
HETATM   26  C1  UNL     1      76.730  38.721  -7.584  1.00  0.00     0.005 C 
ENDBRANCH  24  25
ENDBRANCH  23  24
ENDBRANCH  22  23
ENDBRANCH   1  22
BRANCH   9  27
HETATM   27  O2  UNL     1      83.240  33.095 -12.484  1.00  0.00    -0.395 OA
ATOM     28  H2  UNL     1      83.760  33.266 -13.259  1.00  0.00     0.210 HD
ENDBRANCH   9  27
TORSDOF 5
ENDMDL
MODEL 4
REMARK VINA RESULT: -6.677885719      1.390      1.863
REMARK  5 active torsions:
REMARK  status: ('A' for Active; 'I' for Inactive)
REMARK    1  A    between atoms: C2_2  and  C3_3 
REMARK    2  A    between atoms: C3_3  and  C4_4 
REMARK    3  A    between atoms: C4_4  and  C5_5 
REMARK    4  A    between atoms: C5_5  and  C6_6 
REMARK    5  A    between atoms: C13_14  and  O2_15 
ROOT
HETATM    1  C6  UNL     1      76.399  36.377 -11.690  1.00  0.00     0.126 C 
HETATM    2  O1  UNL     1      76.246  35.166 -10.989  1.00  0.00    -0.385 OA
HETATM    3  C7  UNL     1      76.600  34.167 -11.914  1.00  0.00     0.178 C 
HETATM    4  C8  UNL     1      78.061  34.152 -12.206  1.00  0.00    -0.010 C 
HETATM    5  C9  UNL     1      78.258  34.148 -13.718  1.00  0.00     0.018 C 
HETATM    6  C10 UNL     1      78.737  32.879 -11.663  1.00  0.00     0.007 C 
HETATM    7  C11 UNL     1      78.407  31.674 -12.435  1.00  0.00     0.015 C 
HETATM    8  C12 UNL     1      79.633  31.017 -13.088  1.00  0.00     0.013 C 
HETATM    9  C13 UNL     1      77.576  30.602 -11.888  1.00  0.00     0.122 C 
HETATM   10  C14 UNL     1      78.117  29.772 -10.772  1.00  0.00     0.033 C 
HETATM   11  C15 UNL     1      78.025  30.561  -9.515  1.00  0.00     0.011 C 
HETATM   12  C16 UNL     1      78.999  31.701  -9.421  1.00  0.00    -0.044 C 
HETATM   13  C17 UNL     1      78.906  32.117  -7.935  1.00  0.00     0.015 C 
HETATM   14  C18 UNL     1      80.426  31.296  -9.640  1.00  0.00     0.015 C 
HETATM   15  C19 UNL     1      78.578  32.905 -10.205  1.00  0.00    -0.001 C 
HETATM   16  C20 UNL     1      79.461  34.053  -9.687  1.00  0.00     0.006 C 
HETATM   17  C21 UNL     1      79.083  35.386 -10.254  1.00  0.00     0.011 C 
HETATM   18  C22 UNL     1      78.721  35.401 -11.689  1.00  0.00    -0.029 C 
HETATM   19  C23 UNL     1      80.002  35.697 -12.484  1.00  0.00     0.016 C 
HETATM   20  C24 UNL     1      77.814  36.607 -11.959  1.00  0.00     0.019 C 
HETATM   21  C25 UNL     1      78.470  37.824 -11.414  1.00  0.00     0.013 C 
ENDROOT
BRANCH   1  22
HETATM   22  C5  UNL     1      75.553  37.400 -11.054  1.00  0.00     0.032 C 
BRANCH  22  23
HETATM   23  C4  UNL     1      75.184  37.179  -9.613  1.00  0.00     0.002 C 
BRANCH  23  24
HETATM   24  C3  UNL     1      75.003  38.492  -8.894  1.00  0.00    -0.000 C 
BRANCH  24  25
HETATM   25  C2  UNL     1      76.264  39.224  -8.588  1.00  0.00    -0.005 C 
HETATM   26  C1  UNL     1      77.276  38.337  -7.874  1.00  0.00     0.005 C 
ENDBRANCH  24  25
ENDBRANCH  23  24
ENDBRANCH  22  23
ENDBRANCH   1  22
BRANCH   9  27
HETATM   27  O2  UNL     1      77.344  29.689 -12.956  1.00  0.00    -0.395 OA
ATOM     28  H2  UNL     1      78.156  29.638 -13.445  1.00  0.00     0.210 HD
ENDBRANCH   9  27
TORSDOF 5
ENDMDL
MODEL 5
REMARK VINA RESULT: -6.517589786      2.533      5.609
REMARK  5 active torsions:
REMARK  status: ('A' for Active; 'I' for Inactive)
REMARK    1  A    between atoms: C2_2  and  C3_3 
REMARK    2  A    between atoms: C3_3  and  C4_4 
REMARK    3  A    between atoms: C4_4  and  C5_5 
REMARK    4  A    between atoms: C5_5  and  C6_6 
REMARK    5  A    between atoms: C13_14  and  O2_15 
ROOT
HETATM    1  C6  UNL     1      76.175  33.332  -9.803  1.00  0.00     0.126 C 
HETATM    2  O1  UNL     1      76.153  33.428 -11.207  1.00  0.00    -0.385 OA
HETATM    3  C7  UNL     1      76.753  34.668 -11.493  1.00  0.00     0.178 C 
HETATM    4  C8  UNL     1      78.218  34.668 -11.223  1.00  0.00    -0.010 C 
HETATM    5  C9  UNL     1      78.560  35.887 -10.372  1.00  0.00     0.018 C 
HETATM    6  C10 UNL     1      79.036  34.787 -12.524  1.00  0.00     0.007 C 
HETATM    7  C11 UNL     1      78.982  36.128 -13.121  1.00  0.00     0.015 C 
HETATM    8  C12 UNL     1      80.357  36.810 -13.203  1.00  0.00     0.013 C 
HETATM    9  C13 UNL     1      78.287  36.393 -14.380  1.00  0.00     0.122 C 
HETATM   10  C14 UNL     1      78.845  35.822 -15.642  1.00  0.00     0.033 C 
HETATM   11  C15 UNL     1      78.504  34.376 -15.692  1.00  0.00     0.011 C 
HETATM   12  C16 UNL     1      79.266  33.520 -14.720  1.00  0.00    -0.044 C 
HETATM   13  C17 UNL     1      78.963  32.085 -15.207  1.00  0.00     0.015 C 
HETATM   14  C18 UNL     1      80.754  33.675 -14.818  1.00  0.00     0.015 C 
HETATM   15  C19 UNL     1      78.733  33.595 -13.323  1.00  0.00    -0.001 C 
HETATM   16  C20 UNL     1      79.363  32.400 -12.587  1.00  0.00     0.006 C 
HETATM   17  C21 UNL     1      78.832  32.218 -11.200  1.00  0.00     0.011 C 
HETATM   18  C22 UNL     1      78.614  33.458 -10.422  1.00  0.00    -0.029 C 
HETATM   19  C23 UNL     1      79.900  33.738  -9.631  1.00  0.00     0.016 C 
HETATM   20  C24 UNL     1      77.553  33.189  -9.347  1.00  0.00     0.019 C 
HETATM   21  C25 UNL     1      77.946  31.975  -8.588  1.00  0.00     0.013 C 
ENDROOT
BRANCH   1  22
HETATM   22  C5  UNL     1      75.116  32.402  -9.377  1.00  0.00     0.032 C 
BRANCH  22  23
HETATM   23  C4  UNL     1      73.859  33.011  -8.819  1.00  0.00     0.002 C 
BRANCH  23  24
HETATM   24  C3  UNL     1      73.309  32.177  -7.690  1.00  0.00    -0.000 C 
BRANCH  24  25
HETATM   25  C2  UNL     1      74.124  30.981  -7.333  1.00  0.00    -0.005 C 
HETATM   26  C1  UNL     1      73.731  30.413  -5.976  1.00  0.00     0.005 C 
ENDBRANCH  24  25
ENDBRANCH  23  24
ENDBRANCH  22  23
ENDBRANCH   1  22
BRANCH   9  27
HETATM   27  O2  UNL     1      78.312  37.803 -14.563  1.00  0.00    -0.395 OA
ATOM     28  H2  UNL     1      77.429  38.058 -14.801  1.00  0.00     0.210 HD
ENDBRANCH   9  27
TORSDOF 5
ENDMDL
