MODEL 1
REMARK VINA RESULT: -6.237858136      0.000      0.000
REMARK  4 active torsions:
REMARK  status: ('A' for Active; 'I' for Inactive)
REMARK    1  A    between atoms: C4_5  and  N2_6 
REMARK    2  A    between atoms: N2_6  and  C5_9 
REMARK    3  A    between atoms: C5_9  and  C6_10 
REMARK    4  A    between atoms: C6_10  and  N3_11 
REMARK       I    between atoms: N3_11  and  C7_13 
ROOT
HETATM    1  N2  UNL     1     -20.265  14.275  -3.981  1.00  0.00    -0.068 N 
ATOM      2  H21 UNL     1     -21.086  14.102  -3.401  1.00  0.00     0.277 HD
ATOM      3  H22 UNL     1     -19.606  13.641  -3.529  1.00  0.00     0.277 HD
ENDROOT
BRANCH   1   4
HETATM    4  C4  UNL     1     -19.830  15.643  -3.861  1.00  0.00     0.215 C 
HETATM    5  C3  UNL     1     -20.311  16.488  -5.030  1.00  0.00     0.065 C 
HETATM    6  C2  UNL     1     -19.066  17.167  -5.535  1.00  0.00     0.274 C 
HETATM    7  N1  UNL     1     -18.000  16.276  -5.126  1.00  0.00     0.086 N 
HETATM    8  C1  UNL     1     -16.712  16.940  -5.170  1.00  0.00     0.310 C 
HETATM    9  C8  UNL     1     -18.345  15.809  -3.799  1.00  0.00     0.304 C 
ENDBRANCH   1   4
BRANCH   1  10
HETATM   10  C5  UNL     1     -20.507  13.880  -5.352  1.00  0.00     0.252 C 
BRANCH  10  11
HETATM   11  C6  UNL     1     -19.971  12.487  -5.612  1.00  0.00     0.150 C 
BRANCH  11  12
HETATM   12  N3  UNL     1     -20.975  11.454  -5.351  1.00  0.00    -0.363 N 
HETATM   13  C7  UNL     1     -20.699  10.095  -5.702  1.00  0.00     0.181 C 
HETATM   14  N4  UNL     1     -19.612   9.802  -6.287  1.00  0.00    -0.374 N 
HETATM   15  N5  UNL     1     -21.613   9.063  -5.413  1.00  0.00    -0.064 NA
ATOM     16  H42 UNL     1     -18.950  10.550  -6.496  1.00  0.00     0.158 HD
ATOM     17  H41 UNL     1     -19.414   8.833  -6.538  1.00  0.00     0.158 HD
ATOM     18  H3  UNL     1     -21.867  11.702  -4.920  1.00  0.00     0.162 HD
ENDBRANCH  11  12
ENDBRANCH  10  11
ENDBRANCH   1  10
TORSDOF 4
ENDMDL
MODEL 2
REMARK VINA RESULT: -6.063668887      1.639      2.532
REMARK  4 active torsions:
REMARK  status: ('A' for Active; 'I' for Inactive)
REMARK    1  A    between atoms: C4_5  and  N2_6 
REMARK    2  A    between atoms: N2_6  and  C5_9 
REMARK    3  A    between atoms: C5_9  and  C6_10 
REMARK    4  A    between atoms: C6_10  and  N3_11 
REMARK       I    between atoms: N3_11  and  C7_13 
ROOT
HETATM    1  N2  UNL     1     -19.112  14.671  -5.704  1.00  0.00    -0.068 N 
ATOM      2  H21 UNL     1     -18.497  15.151  -5.047  1.00  0.00     0.277 HD
ATOM      3  H22 UNL     1     -18.409  14.253  -6.314  1.00  0.00     0.277 HD
ENDROOT
BRANCH   1   4
HETATM    4  C4  UNL     1     -19.928  15.612  -6.428  1.00  0.00     0.215 C 
HETATM    5  C3  UNL     1     -19.467  17.043  -6.201  1.00  0.00     0.065 C 
HETATM    6  C2  UNL     1     -20.715  17.776  -5.789  1.00  0.00     0.274 C 
HETATM    7  N1  UNL     1     -21.551  16.737  -5.223  1.00  0.00     0.086 N 
HETATM    8  C1  UNL     1     -22.933  17.165  -5.133  1.00  0.00     0.310 C 
HETATM    9  C8  UNL     1     -21.378  15.571  -6.065  1.00  0.00     0.304 C 
ENDBRANCH   1   4
BRANCH   1  10
HETATM   10  C5  UNL     1     -19.890  13.651  -5.035  1.00  0.00     0.252 C 
BRANCH  10  11
HETATM   11  C6  UNL     1     -19.741  12.315  -5.735  1.00  0.00     0.150 C 
BRANCH  11  12
HETATM   12  N3  UNL     1     -20.840  11.402  -5.415  1.00  0.00    -0.363 N 
HETATM   13  C7  UNL     1     -20.716  10.012  -5.729  1.00  0.00     0.181 C 
HETATM   14  N4  UNL     1     -19.682   9.589  -6.332  1.00  0.00    -0.374 N 
HETATM   15  N5  UNL     1     -21.725   9.090  -5.385  1.00  0.00    -0.064 NA
ATOM     16  H42 UNL     1     -18.952  10.257  -6.581  1.00  0.00     0.158 HD
ATOM     17  H41 UNL     1     -19.594   8.598  -6.556  1.00  0.00     0.158 HD
ATOM     18  H3  UNL     1     -21.688  11.755  -4.971  1.00  0.00     0.162 HD
ENDBRANCH  11  12
ENDBRANCH  10  11
ENDBRANCH   1  10
TORSDOF 4
ENDMDL
MODEL 3
REMARK VINA RESULT: -6.057063556      1.684      2.989
REMARK  4 active torsions:
REMARK  status: ('A' for Active; 'I' for Inactive)
REMARK    1  A    between atoms: C4_5  and  N2_6 
REMARK    2  A    between atoms: N2_6  and  C5_9 
REMARK    3  A    between atoms: C5_9  and  C6_10 
REMARK    4  A    between atoms: C6_10  and  N3_11 
REMARK       I    between atoms: N3_11  and  C7_13 
ROOT
HETATM    1  N2  UNL     1     -18.614  15.926  -6.510  1.00  0.00    -0.068 N 
ATOM      2  H21 UNL     1     -17.751  16.381  -6.807  1.00  0.00     0.277 HD
ATOM      3  H22 UNL     1     -19.144  15.992  -7.379  1.00  0.00     0.277 HD
ENDROOT
BRANCH   1   4
HETATM    4  C4  UNL     1     -19.254  16.673  -5.458  1.00  0.00     0.215 C 
HETATM    5  C3  UNL     1     -19.511  15.809  -4.233  1.00  0.00     0.065 C 
HETATM    6  C2  UNL     1     -20.971  16.018  -3.930  1.00  0.00     0.274 C 
HETATM    7  N1  UNL     1     -21.537  16.392  -5.210  1.00  0.00     0.086 N 
HETATM    8  C1  UNL     1     -22.837  17.013  -5.050  1.00  0.00     0.310 C 
HETATM    9  C8  UNL     1     -20.571  17.267  -5.842  1.00  0.00     0.304 C 
ENDBRANCH   1   4
BRANCH   1  10
HETATM   10  C5  UNL     1     -18.375  14.544  -6.152  1.00  0.00     0.252 C 
BRANCH  10  11
HETATM   11  C6  UNL     1     -19.334  13.626  -6.882  1.00  0.00     0.150 C 
BRANCH  11  12
HETATM   12  N3  UNL     1     -19.118  12.220  -6.537  1.00  0.00    -0.363 N 
HETATM   13  C7  UNL     1     -20.066  11.543  -5.707  1.00  0.00     0.181 C 
HETATM   14  N4  UNL     1     -21.056  12.178  -5.230  1.00  0.00    -0.374 N 
HETATM   15  N5  UNL     1     -19.927  10.174  -5.401  1.00  0.00    -0.064 NA
ATOM     16  H42 UNL     1     -21.157  13.168  -5.452  1.00  0.00     0.158 HD
ATOM     17  H41 UNL     1     -21.732  11.695  -4.638  1.00  0.00     0.158 HD
ATOM     18  H3  UNL     1     -18.296  11.726  -6.886  1.00  0.00     0.162 HD
ENDBRANCH  11  12
ENDBRANCH  10  11
ENDBRANCH   1  10
TORSDOF 4
ENDMDL
MODEL 4
REMARK VINA RESULT: -5.868257330      1.492      2.038
REMARK  4 active torsions:
REMARK  status: ('A' for Active; 'I' for Inactive)
REMARK    1  A    between atoms: C4_5  and  N2_6 
REMARK    2  A    between atoms: N2_6  and  C5_9 
REMARK    3  A    between atoms: C5_9  and  C6_10 
REMARK    4  A    between atoms: C6_10  and  N3_11 
REMARK       I    between atoms: N3_11  and  C7_13 
ROOT
HETATM    1  N2  UNL     1     -19.152  14.586  -4.717  1.00  0.00    -0.068 N 
ATOM      2  H21 UNL     1     -19.978  14.009  -4.561  1.00  0.00     0.277 HD
ATOM      3  H22 UNL     1     -18.540  14.197  -4.001  1.00  0.00     0.277 HD
ENDROOT
BRANCH   1   4
HETATM    4  C4  UNL     1     -19.436  15.974  -4.454  1.00  0.00     0.215 C 
HETATM    5  C3  UNL     1     -20.919  16.279  -4.594  1.00  0.00     0.065 C 
HETATM    6  C2  UNL     1     -20.970  17.461  -5.524  1.00  0.00     0.274 C 
HETATM    7  N1  UNL     1     -19.745  17.348  -6.289  1.00  0.00     0.086 N 
HETATM    8  C1  UNL     1     -19.422  18.596  -6.952  1.00  0.00     0.310 C 
HETATM    9  C8  UNL     1     -18.720  16.927  -5.356  1.00  0.00     0.304 C 
ENDBRANCH   1   4
BRANCH   1  10
HETATM   10  C5  UNL     1     -18.608  14.365  -6.040  1.00  0.00     0.252 C 
BRANCH  10  11
HETATM   11  C6  UNL     1     -19.467  13.388  -6.818  1.00  0.00     0.150 C 
BRANCH  11  12
HETATM   12  N3  UNL     1     -19.205  12.000  -6.432  1.00  0.00    -0.363 N 
HETATM   13  C7  UNL     1     -20.168  11.292  -5.647  1.00  0.00     0.181 C 
HETATM   14  N4  UNL     1     -21.214  11.886  -5.242  1.00  0.00    -0.374 N 
HETATM   15  N5  UNL     1     -19.983   9.937  -5.305  1.00  0.00    -0.064 NA
ATOM     16  H42 UNL     1     -21.348  12.867  -5.489  1.00  0.00     0.158 HD
ATOM     17  H41 UNL     1     -21.901  11.381  -4.681  1.00  0.00     0.158 HD
ATOM     18  H3  UNL     1     -18.342  11.540  -6.723  1.00  0.00     0.162 HD
ENDBRANCH  11  12
ENDBRANCH  10  11
ENDBRANCH   1  10
TORSDOF 4
ENDMDL
MODEL 5
REMARK VINA RESULT: -5.835591350      2.163      2.524
REMARK  4 active torsions:
REMARK  status: ('A' for Active; 'I' for Inactive)
REMARK    1  A    between atoms: C4_5  and  N2_6 
REMARK    2  A    between atoms: N2_6  and  C5_9 
REMARK    3  A    between atoms: C5_9  and  C6_10 
REMARK    4  A    between atoms: C6_10  and  N3_11 
REMARK       I    between atoms: N3_11  and  C7_13 
ROOT
HETATM    1  N2  UNL     1     -19.083  14.765  -5.169  1.00  0.00    -0.068 N 
ATOM      2  H21 UNL     1     -18.793  15.192  -4.290  1.00  0.00     0.277 HD
ATOM      3  H22 UNL     1     -18.220  14.277  -5.409  1.00  0.00     0.277 HD
ENDROOT
BRANCH   1   4
HETATM    4  C4  UNL     1     -19.396  15.771  -6.152  1.00  0.00     0.215 C 
HETATM    5  C3  UNL     1     -20.886  15.821  -6.448  1.00  0.00     0.065 C 
HETATM    6  C2  UNL     1     -20.971  15.731  -7.948  1.00  0.00     0.274 C 
HETATM    7  N1  UNL     1     -19.750  15.047  -8.320  1.00  0.00     0.086 N 
HETATM    8  C1  UNL     1     -19.460  15.215  -9.730  1.00  0.00     0.310 C 
HETATM    9  C8  UNL     1     -18.708  15.579  -7.466  1.00  0.00     0.304 C 
ENDBRANCH   1   4
BRANCH   1  10
HETATM   10  C5  UNL     1     -20.167  13.830  -4.959  1.00  0.00     0.252 C 
BRANCH  10  11
HETATM   11  C6  UNL     1     -19.868  12.502  -5.623  1.00  0.00     0.150 C 
BRANCH  11  12
HETATM   12  N3  UNL     1     -20.908  11.507  -5.355  1.00  0.00    -0.363 N 
HETATM   13  C7  UNL     1     -20.682  10.138  -5.704  1.00  0.00     0.181 C 
HETATM   14  N4  UNL     1     -19.609   9.804  -6.293  1.00  0.00    -0.374 N 
HETATM   15  N5  UNL     1     -21.632   9.140  -5.409  1.00  0.00    -0.064 NA
ATOM     16  H42 UNL     1     -18.921  10.527  -6.507  1.00  0.00     0.158 HD
ATOM     17  H41 UNL     1     -19.448   8.828  -6.542  1.00  0.00     0.158 HD
ATOM     18  H3  UNL     1     -21.788  11.788  -4.921  1.00  0.00     0.162 HD
ENDBRANCH  11  12
ENDBRANCH  10  11
ENDBRANCH   1  10
TORSDOF 4
ENDMDL
