MODEL 1
REMARK VINA RESULT: -5.924884783      0.000      0.000
REMARK  3 active torsions:
REMARK  status: ('A' for Active; 'I' for Inactive)
REMARK    1  A    between atoms: C2_2  and  N1_3 
REMARK    2  A    between atoms: N1_3  and  C4_5 
REMARK    3  A    between atoms: C7_11  and  N3_12 
REMARK       I    between atoms: N3_12  and  C8_14 
ROOT
HETATM    1  C4  UNL     1     -20.058  15.652  -5.570  1.00  0.00     0.128 C 
HETATM    2  C5  UNL     1     -20.423  16.728  -4.612  1.00  0.00     0.259 C 
HETATM    3  N2  UNL     1     -20.005  16.285  -3.301  1.00  0.00    -0.071 N 
ATOM      4  H21 UNL     1     -20.768  16.268  -2.623  1.00  0.00     0.277 HD
ATOM      5  H22 UNL     1     -19.417  16.964  -2.818  1.00  0.00     0.277 HD
HETATM    6  C6  UNL     1     -19.367  15.001  -3.467  1.00  0.00     0.259 C 
HETATM    7  C7  UNL     1     -20.075  14.438  -4.664  1.00  0.00     0.133 C 
ENDROOT
BRANCH   7   8
HETATM    8  N3  UNL     1     -19.431  13.324  -5.268  1.00  0.00    -0.357 N 
HETATM    9  C8  UNL     1     -20.092  12.116  -5.632  1.00  0.00     0.182 C 
HETATM   10  N4  UNL     1     -21.271  11.821  -5.227  1.00  0.00    -0.374 N 
HETATM   11  N5  UNL     1     -19.429  11.185  -6.483  1.00  0.00    -0.064 NA
ATOM     12  H42 UNL     1     -21.746  12.487  -4.618  1.00  0.00     0.158 HD
ATOM     13  H41 UNL     1     -21.744  10.956  -5.488  1.00  0.00     0.158 HD
ATOM     14  H3  UNL     1     -18.431  13.393  -5.451  1.00  0.00     0.162 HD
ENDBRANCH   7   8
BRANCH   1  15
HETATM   15  N1  UNL     1     -20.856  15.485  -6.700  1.00  0.00    -0.409 N 
HETATM   16  C3  UNL     1     -22.265  15.550  -6.567  1.00  0.00     0.143 C 
BRANCH  15  17
HETATM   17  C2  UNL     1     -20.335  15.766  -7.982  1.00  0.00     0.112 C 
HETATM   18  C1  UNL     1     -19.131  14.987  -8.385  1.00  0.00     0.026 C 
ENDBRANCH  15  17
ENDBRANCH   1  15
TORSDOF 3
ENDMDL
MODEL 2
REMARK VINA RESULT: -5.807926774      2.095      4.712
REMARK  3 active torsions:
REMARK  status: ('A' for Active; 'I' for Inactive)
REMARK    1  A    between atoms: C2_2  and  N1_3 
REMARK    2  A    between atoms: N1_3  and  C4_5 
REMARK    3  A    between atoms: C7_11  and  N3_12 
REMARK       I    between atoms: N3_12  and  C8_14 
ROOT
HETATM    1  C4  UNL     1     -19.402  15.495  -5.354  1.00  0.00     0.128 C 
HETATM    2  C5  UNL     1     -19.217  14.098  -5.825  1.00  0.00     0.259 C 
HETATM    3  N2  UNL     1     -19.938  13.974  -7.072  1.00  0.00    -0.071 N 
ATOM      4  H21 UNL     1     -20.634  13.228  -7.060  1.00  0.00     0.277 HD
ATOM      5  H22 UNL     1     -19.364  13.606  -7.831  1.00  0.00     0.277 HD
HETATM    6  C6  UNL     1     -20.504  15.270  -7.370  1.00  0.00     0.259 C 
HETATM    7  C7  UNL     1     -20.725  15.849  -6.003  1.00  0.00     0.133 C 
ENDROOT
BRANCH   7   8
HETATM    8  N3  UNL     1     -20.962  17.250  -5.982  1.00  0.00    -0.357 N 
HETATM    9  C8  UNL     1     -22.176  17.852  -5.545  1.00  0.00     0.182 C 
HETATM   10  N4  UNL     1     -23.255  17.185  -5.366  1.00  0.00    -0.374 N 
HETATM   11  N5  UNL     1     -22.211  19.253  -5.291  1.00  0.00    -0.064 NA
ATOM     12  H42 UNL     1     -23.231  16.182  -5.548  1.00  0.00     0.158 HD
ATOM     13  H41 UNL     1     -24.126  17.616  -5.054  1.00  0.00     0.158 HD
ATOM     14  H3  UNL     1     -20.213  17.865  -6.300  1.00  0.00     0.162 HD
ENDBRANCH   7   8
BRANCH   1  15
HETATM   15  N1  UNL     1     -19.403  15.727  -3.980  1.00  0.00    -0.409 N 
HETATM   16  C3  UNL     1     -20.457  15.202  -3.192  1.00  0.00     0.143 C 
BRANCH  15  17
HETATM   17  C2  UNL     1     -18.193  15.997  -3.307  1.00  0.00     0.112 C 
HETATM   18  C1  UNL     1     -17.082  16.529  -4.144  1.00  0.00     0.026 C 
ENDBRANCH  15  17
ENDBRANCH   1  15
TORSDOF 3
ENDMDL
MODEL 3
REMARK VINA RESULT: -5.725280896      1.120      1.451
REMARK  3 active torsions:
REMARK  status: ('A' for Active; 'I' for Inactive)
REMARK    1  A    between atoms: C2_2  and  N1_3 
REMARK    2  A    between atoms: N1_3  and  C4_5 
REMARK    3  A    between atoms: C7_11  and  N3_12 
REMARK       I    between atoms: N3_12  and  C8_14 
ROOT
HETATM    1  C4  UNL     1     -19.387  15.096  -6.029  1.00  0.00     0.128 C 
HETATM    2  C5  UNL     1     -20.039  16.242  -5.346  1.00  0.00     0.259 C 
HETATM    3  N2  UNL     1     -20.572  15.742  -4.098  1.00  0.00    -0.071 N 
ATOM      4  H21 UNL     1     -21.574  15.904  -3.998  1.00  0.00     0.277 HD
ATOM      5  H22 UNL     1     -20.270  16.284  -3.289  1.00  0.00     0.277 HD
HETATM    6  C6  UNL     1     -20.213  14.346  -4.009  1.00  0.00     0.259 C 
HETATM    7  C7  UNL     1     -20.163  13.931  -5.451  1.00  0.00     0.133 C 
ENDROOT
BRANCH   7   8
HETATM    8  N3  UNL     1     -19.509  12.692  -5.692  1.00  0.00    -0.357 N 
HETATM    9  C8  UNL     1     -20.161  11.427  -5.689  1.00  0.00     0.182 C 
HETATM   10  N4  UNL     1     -21.344  11.257  -5.226  1.00  0.00    -0.374 N 
HETATM   11  N5  UNL     1     -19.486  10.290  -6.220  1.00  0.00    -0.064 NA
ATOM     12  H42 UNL     1     -21.828  12.070  -4.846  1.00  0.00     0.158 HD
ATOM     13  H41 UNL     1     -21.811  10.350  -5.224  1.00  0.00     0.158 HD
ATOM     14  H3  UNL     1     -18.507  12.711  -5.878  1.00  0.00     0.162 HD
ENDBRANCH   7   8
BRANCH   1  15
HETATM   15  N1  UNL     1     -19.373  15.088  -7.423  1.00  0.00    -0.409 N 
HETATM   16  C3  UNL     1     -20.503  15.572  -8.128  1.00  0.00     0.143 C 
BRANCH  15  17
HETATM   17  C2  UNL     1     -18.145  15.109  -8.119  1.00  0.00     0.112 C 
HETATM   18  C1  UNL     1     -16.944  14.700  -7.340  1.00  0.00     0.026 C 
ENDBRANCH  15  17
ENDBRANCH   1  15
TORSDOF 3
ENDMDL
MODEL 4
REMARK VINA RESULT: -5.657545054      1.959      3.871
REMARK  3 active torsions:
REMARK  status: ('A' for Active; 'I' for Inactive)
REMARK    1  A    between atoms: C2_2  and  N1_3 
REMARK    2  A    between atoms: N1_3  and  C4_5 
REMARK    3  A    between atoms: C7_11  and  N3_12 
REMARK       I    between atoms: N3_12  and  C8_14 
ROOT
HETATM    1  C4  UNL     1     -20.430  15.169  -5.762  1.00  0.00     0.128 C 
HETATM    2  C5  UNL     1     -20.231  13.915  -4.991  1.00  0.00     0.259 C 
HETATM    3  N2  UNL     1     -20.342  14.259  -3.591  1.00  0.00    -0.071 N 
ATOM      4  H21 UNL     1     -19.517  13.999  -3.049  1.00  0.00     0.277 HD
ATOM      5  H22 UNL     1     -21.016  13.681  -3.089  1.00  0.00     0.277 HD
HETATM    6  C6  UNL     1     -20.644  15.670  -3.519  1.00  0.00     0.259 C 
HETATM    7  C7  UNL     1     -19.980  16.207  -4.754  1.00  0.00     0.133 C 
ENDROOT
BRANCH   7   8
HETATM    8  N3  UNL     1     -20.389  17.515  -5.128  1.00  0.00    -0.357 N 
HETATM    9  C8  UNL     1     -21.746  17.911  -5.307  1.00  0.00     0.182 C 
HETATM   10  N4  UNL     1     -22.708  17.070  -5.391  1.00  0.00    -0.374 N 
HETATM   11  N5  UNL     1     -22.063  19.297  -5.397  1.00  0.00    -0.064 NA
ATOM     12  H42 UNL     1     -22.481  16.078  -5.327  1.00  0.00     0.158 HD
ATOM     13  H41 UNL     1     -23.680  17.354  -5.519  1.00  0.00     0.158 HD
ATOM     14  H3  UNL     1     -19.665  18.216  -5.279  1.00  0.00     0.162 HD
ENDBRANCH   7   8
BRANCH   1  15
HETATM   15  N1  UNL     1     -19.775  15.295  -6.985  1.00  0.00    -0.409 N 
HETATM   16  C3  UNL     1     -18.532  14.641  -7.173  1.00  0.00     0.143 C 
BRANCH  15  17
HETATM   17  C2  UNL     1     -20.508  15.594  -8.154  1.00  0.00     0.112 C 
HETATM   18  C1  UNL     1     -19.922  15.111  -9.436  1.00  0.00     0.026 C 
ENDBRANCH  15  17
ENDBRANCH   1  15
TORSDOF 3
ENDMDL
MODEL 5
REMARK VINA RESULT: -5.540838694      2.138      4.175
REMARK  3 active torsions:
REMARK  status: ('A' for Active; 'I' for Inactive)
REMARK    1  A    between atoms: C2_2  and  N1_3 
REMARK    2  A    between atoms: N1_3  and  C4_5 
REMARK    3  A    between atoms: C7_11  and  N3_12 
REMARK       I    between atoms: N3_12  and  C8_14 
ROOT
HETATM    1  C4  UNL     1     -19.166  15.791  -5.055  1.00  0.00     0.128 C 
HETATM    2  C5  UNL     1     -17.968  15.524  -5.891  1.00  0.00     0.259 C 
HETATM    3  N2  UNL     1     -17.895  16.583  -6.874  1.00  0.00    -0.071 N 
ATOM      4  H21 UNL     1     -17.884  16.237  -7.834  1.00  0.00     0.277 HD
ATOM      5  H22 UNL     1     -16.988  17.049  -6.892  1.00  0.00     0.277 HD
HETATM    6  C6  UNL     1     -18.990  17.486  -6.610  1.00  0.00     0.259 C 
HETATM    7  C7  UNL     1     -20.029  16.576  -6.022  1.00  0.00     0.133 C 
ENDROOT
BRANCH   7   8
HETATM    8  N3  UNL     1     -21.094  17.240  -5.356  1.00  0.00    -0.357 N 
HETATM    9  C8  UNL     1     -22.469  16.903  -5.508  1.00  0.00     0.182 C 
HETATM   10  N4  UNL     1     -22.897  16.140  -6.444  1.00  0.00    -0.374 N 
HETATM   11  N5  UNL     1     -23.424  17.428  -4.590  1.00  0.00    -0.064 NA
ATOM     12  H42 UNL     1     -22.213  15.764  -7.101  1.00  0.00     0.158 HD
ATOM     13  H41 UNL     1     -23.882  15.899  -6.553  1.00  0.00     0.158 HD
ATOM     14  H3  UNL     1     -20.858  18.008  -4.728  1.00  0.00     0.162 HD
ENDBRANCH   7   8
BRANCH   1  15
HETATM   15  N1  UNL     1     -19.838  14.699  -4.508  1.00  0.00    -0.409 N 
HETATM   16  C3  UNL     1     -20.257  14.753  -3.155  1.00  0.00     0.143 C 
BRANCH  15  17
HETATM   17  C2  UNL     1     -20.541  13.808  -5.346  1.00  0.00     0.112 C 
HETATM   18  C1  UNL     1     -19.911  12.476  -5.562  1.00  0.00     0.026 C 
ENDBRANCH  15  17
ENDBRANCH   1  15
TORSDOF 3
ENDMDL
