MODEL 1
REMARK VINA RESULT: -5.875539720      0.000      0.000
REMARK  6 active torsions:
REMARK  status: ('A' for Active; 'I' for Inactive)
REMARK    1  A    between atoms: C3_3  and  C4_4 
REMARK    2  A    between atoms: C4_4  and  C5_5 
REMARK    3  A    between atoms: C6_7  and  C7_8 
REMARK    4  A    between atoms: C7_8  and  O2_9 
REMARK    5  A    between atoms: C8_11  and  O3_12 
REMARK    6  A    between atoms: C9_14  and  O4_15 
ROOT
HETATM    1  C1  UNL     1     -20.614  10.703  -5.429  1.00  0.00     0.096 C 
HETATM    2  C2  UNL     1     -19.902  11.558  -5.939  1.00  0.00    -0.188 C 
HETATM    3  C3  UNL     1     -19.078  12.587  -6.541  1.00  0.00     0.082 C 
ENDROOT
BRANCH   3   4
HETATM    4  C4  UNL     1     -19.872  13.798  -6.957  1.00  0.00     0.046 C 
BRANCH   4   5
HETATM    5  C5  UNL     1     -20.442  14.544  -5.779  1.00  0.00     0.154 C 
HETATM    6  O1  UNL     1     -19.453  15.419  -5.318  1.00  0.00    -0.373 OA
HETATM    7  C6  UNL     1     -20.109  16.343  -4.510  1.00  0.00     0.176 C 
HETATM    8  C8  UNL     1     -21.508  16.480  -5.037  1.00  0.00     0.180 C 
HETATM    9  C9  UNL     1     -21.508  15.547  -6.221  1.00  0.00     0.178 C 
BRANCH   7  10
HETATM   10  C7  UNL     1     -20.109  15.757  -3.099  1.00  0.00     0.198 C 
BRANCH  10  11
HETATM   11  O2  UNL     1     -21.410  15.745  -2.568  1.00  0.00    -0.398 OA
ATOM     12  H2  UNL     1     -21.728  16.632  -2.442  1.00  0.00     0.209 HD
ENDBRANCH  10  11
ENDBRANCH   7  10
BRANCH   8  13
HETATM   13  O3  UNL     1     -21.816  17.788  -5.394  1.00  0.00    -0.390 OA
ATOM     14  H3  UNL     1     -22.733  17.994  -5.261  1.00  0.00     0.210 HD
ENDBRANCH   8  13
BRANCH   9  15
HETATM   15  O4  UNL     1     -21.033  16.230  -7.332  1.00  0.00    -0.390 OA
ATOM     16  H4  UNL     1     -20.979  17.154  -7.117  1.00  0.00     0.210 HD
ENDBRANCH   9  15
ENDBRANCH   4   5
ENDBRANCH   3   4
TORSDOF 6
ENDMDL
MODEL 2
REMARK VINA RESULT: -5.811557969      1.534      2.130
REMARK  6 active torsions:
REMARK  status: ('A' for Active; 'I' for Inactive)
REMARK    1  A    between atoms: C3_3  and  C4_4 
REMARK    2  A    between atoms: C4_4  and  C5_5 
REMARK    3  A    between atoms: C6_7  and  C7_8 
REMARK    4  A    between atoms: C7_8  and  O2_9 
REMARK    5  A    between atoms: C8_11  and  O3_12 
REMARK    6  A    between atoms: C9_14  and  O4_15 
ROOT
HETATM    1  C1  UNL     1     -20.333  10.073  -5.681  1.00  0.00     0.096 C 
HETATM    2  C2  UNL     1     -19.974  11.224  -5.893  1.00  0.00    -0.188 C 
HETATM    3  C3  UNL     1     -19.552  12.592  -6.119  1.00  0.00     0.082 C 
ENDROOT
BRANCH   3   4
HETATM    4  C4  UNL     1     -19.967  13.519  -5.006  1.00  0.00     0.046 C 
BRANCH   4   5
HETATM    5  C5  UNL     1     -20.581  14.795  -5.521  1.00  0.00     0.154 C 
HETATM    6  O1  UNL     1     -21.071  15.501  -4.418  1.00  0.00    -0.373 OA
HETATM    7  C6  UNL     1     -21.271  16.806  -4.859  1.00  0.00     0.176 C 
HETATM    8  C8  UNL     1     -20.270  17.066  -5.946  1.00  0.00     0.180 C 
HETATM    9  C9  UNL     1     -19.507  15.768  -6.011  1.00  0.00     0.178 C 
BRANCH   7  10
HETATM   10  C7  UNL     1     -22.699  16.860  -5.404  1.00  0.00     0.198 C 
BRANCH  10  11
HETATM   11  O2  UNL     1     -23.565  17.444  -4.465  1.00  0.00    -0.398 OA
ATOM     12  H2  UNL     1     -24.423  17.038  -4.503  1.00  0.00     0.209 HD
ENDBRANCH  10  11
ENDBRANCH   7  10
BRANCH   8  13
HETATM   13  O3  UNL     1     -19.446  18.150  -5.661  1.00  0.00    -0.390 OA
ATOM     14  H3  UNL     1     -19.172  18.612  -6.444  1.00  0.00     0.210 HD
ENDBRANCH   8  13
BRANCH   9  15
HETATM   15  O4  UNL     1     -18.484  15.799  -5.074  1.00  0.00    -0.390 OA
ATOM     16  H4  UNL     1     -17.901  15.068  -5.241  1.00  0.00     0.210 HD
ENDBRANCH   9  15
ENDBRANCH   4   5
ENDBRANCH   3   4
TORSDOF 6
ENDMDL
MODEL 3
REMARK VINA RESULT: -5.672652370      1.314      2.833
REMARK  6 active torsions:
REMARK  status: ('A' for Active; 'I' for Inactive)
REMARK    1  A    between atoms: C3_3  and  C4_4 
REMARK    2  A    between atoms: C4_4  and  C5_5 
REMARK    3  A    between atoms: C6_7  and  C7_8 
REMARK    4  A    between atoms: C7_8  and  O2_9 
REMARK    5  A    between atoms: C8_11  and  O3_12 
REMARK    6  A    between atoms: C9_14  and  O4_15 
ROOT
HETATM    1  C1  UNL     1     -20.801   9.836  -5.509  1.00  0.00     0.096 C 
HETATM    2  C2  UNL     1     -20.237  10.877  -5.814  1.00  0.00    -0.188 C 
HETATM    3  C3  UNL     1     -19.572  12.120  -6.152  1.00  0.00     0.082 C 
ENDROOT
BRANCH   3   4
HETATM    4  C4  UNL     1     -19.850  13.217  -5.157  1.00  0.00     0.046 C 
BRANCH   4   5
HETATM    5  C5  UNL     1     -19.704  14.590  -5.761  1.00  0.00     0.154 C 
HETATM    6  O1  UNL     1     -20.873  14.859  -6.479  1.00  0.00    -0.373 OA
HETATM    7  C6  UNL     1     -20.881  16.235  -6.692  1.00  0.00     0.176 C 
HETATM    8  C8  UNL     1     -20.155  16.867  -5.539  1.00  0.00     0.180 C 
HETATM    9  C9  UNL     1     -19.788  15.678  -4.689  1.00  0.00     0.178 C 
BRANCH   7  10
HETATM   10  C7  UNL     1     -20.135  16.471  -8.005  1.00  0.00     0.198 C 
BRANCH  10  11
HETATM   11  O2  UNL     1     -20.943  16.129  -9.102  1.00  0.00    -0.398 OA
ATOM     12  H2  UNL     1     -20.417  16.022  -9.886  1.00  0.00     0.209 HD
ENDBRANCH  10  11
ENDBRANCH   7  10
BRANCH   8  13
HETATM   13  O3  UNL     1     -20.944  17.784  -4.854  1.00  0.00    -0.390 OA
ATOM     14  H3  UNL     1     -21.076  17.541  -3.946  1.00  0.00     0.210 HD
ENDBRANCH   8  13
BRANCH   9  15
HETATM   15  O4  UNL     1     -20.849  15.382  -3.846  1.00  0.00    -0.390 OA
ATOM     16  H4  UNL     1     -21.246  16.198  -3.564  1.00  0.00     0.210 HD
ENDBRANCH   9  15
ENDBRANCH   4   5
ENDBRANCH   3   4
TORSDOF 6
ENDMDL
MODEL 4
REMARK VINA RESULT: -5.669840930      1.169      2.517
REMARK  6 active torsions:
REMARK  status: ('A' for Active; 'I' for Inactive)
REMARK    1  A    between atoms: C3_3  and  C4_4 
REMARK    2  A    between atoms: C4_4  and  C5_5 
REMARK    3  A    between atoms: C6_7  and  C7_8 
REMARK    4  A    between atoms: C7_8  and  O2_9 
REMARK    5  A    between atoms: C8_11  and  O3_12 
REMARK    6  A    between atoms: C9_14  and  O4_15 
ROOT
HETATM    1  C1  UNL     1     -19.925  10.949  -5.774  1.00  0.00     0.096 C 
HETATM    2  C2  UNL     1     -19.705  12.056  -6.245  1.00  0.00    -0.188 C 
HETATM    3  C3  UNL     1     -19.424  13.371  -6.787  1.00  0.00     0.082 C 
ENDROOT
BRANCH   3   4
HETATM    4  C4  UNL     1     -18.510  14.180  -5.904  1.00  0.00     0.046 C 
BRANCH   4   5
HETATM    5  C5  UNL     1     -19.202  15.378  -5.307  1.00  0.00     0.154 C 
HETATM    6  O1  UNL     1     -20.536  15.344  -5.726  1.00  0.00    -0.373 OA
HETATM    7  C6  UNL     1     -21.225  16.205  -4.876  1.00  0.00     0.176 C 
HETATM    8  C8  UNL     1     -20.510  16.191  -3.556  1.00  0.00     0.180 C 
HETATM    9  C9  UNL     1     -19.389  15.214  -3.798  1.00  0.00     0.178 C 
BRANCH   7  10
HETATM   10  C7  UNL     1     -21.158  17.590  -5.521  1.00  0.00     0.198 C 
BRANCH  10  11
HETATM   11  O2  UNL     1     -22.325  18.321  -5.243  1.00  0.00    -0.398 OA
ATOM     12  H2  UNL     1     -22.753  17.985  -4.465  1.00  0.00     0.209 HD
ENDBRANCH  10  11
ENDBRANCH   7  10
BRANCH   8  13
HETATM   13  O3  UNL     1     -21.337  15.801  -2.509  1.00  0.00    -0.390 OA
ATOM     14  H3  UNL     1     -21.066  16.168  -1.676  1.00  0.00     0.210 HD
ENDBRANCH   8  13
BRANCH   9  15
HETATM   15  O4  UNL     1     -19.851  13.929  -3.550  1.00  0.00    -0.390 OA
ATOM     16  H4  UNL     1     -19.496  13.637  -2.718  1.00  0.00     0.210 HD
ENDBRANCH   9  15
ENDBRANCH   4   5
ENDBRANCH   3   4
TORSDOF 6
ENDMDL
MODEL 5
REMARK VINA RESULT: -5.654074157      1.620      1.969
REMARK  6 active torsions:
REMARK  status: ('A' for Active; 'I' for Inactive)
REMARK    1  A    between atoms: C3_3  and  C4_4 
REMARK    2  A    between atoms: C4_4  and  C5_5 
REMARK    3  A    between atoms: C6_7  and  C7_8 
REMARK    4  A    between atoms: C7_8  and  O2_9 
REMARK    5  A    between atoms: C8_11  and  O3_12 
REMARK    6  A    between atoms: C9_14  and  O4_15 
ROOT
HETATM    1  C1  UNL     1     -20.215   9.492  -6.128  1.00  0.00     0.096 C 
HETATM    2  C2  UNL     1     -20.383  10.646  -5.756  1.00  0.00    -0.188 C 
HETATM    3  C3  UNL     1     -20.569  12.020  -5.336  1.00  0.00     0.082 C 
ENDROOT
BRANCH   3   4
HETATM    4  C4  UNL     1     -19.594  12.965  -5.990  1.00  0.00     0.046 C 
BRANCH   4   5
HETATM    5  C5  UNL     1     -19.250  14.136  -5.107  1.00  0.00     0.154 C 
HETATM    6  O1  UNL     1     -18.544  15.057  -5.886  1.00  0.00    -0.373 OA
HETATM    7  C6  UNL     1     -18.579  16.258  -5.183  1.00  0.00     0.176 C 
HETATM    8  C8  UNL     1     -19.853  16.271  -4.390  1.00  0.00     0.180 C 
HETATM    9  C9  UNL     1     -20.493  14.961  -4.771  1.00  0.00     0.178 C 
BRANCH   7  10
HETATM   10  C7  UNL     1     -17.359  16.252  -4.261  1.00  0.00     0.198 C 
BRANCH  10  11
HETATM   11  O2  UNL     1     -17.732  16.571  -2.945  1.00  0.00    -0.398 OA
ATOM     12  H2  UNL     1     -17.176  16.120  -2.321  1.00  0.00     0.209 HD
ENDBRANCH  10  11
ENDBRANCH   7  10
BRANCH   8  13
HETATM   13  O3  UNL     1     -20.658  17.362  -4.696  1.00  0.00    -0.390 OA
ATOM     14  H3  UNL     1     -21.552  17.109  -4.896  1.00  0.00     0.210 HD
ENDBRANCH   8  13
BRANCH   9  15
HETATM   15  O4  UNL     1     -21.227  15.140  -5.936  1.00  0.00    -0.390 OA
ATOM     16  H4  UNL     1     -21.977  14.558  -5.910  1.00  0.00     0.210 HD
ENDBRANCH   9  15
ENDBRANCH   4   5
ENDBRANCH   3   4
TORSDOF 6
ENDMDL
