MODEL 1
REMARK VINA RESULT: -6.271682469      0.000      0.000
REMARK  6 active torsions:
REMARK  status: ('A' for Active; 'I' for Inactive)
REMARK    1  A    between atoms: N1_2  and  C2_5 
REMARK    2  A    between atoms: C2_5  and  C3_6 
REMARK    3  A    between atoms: C4_7  and  C5_8 
REMARK    4  A    between atoms: C5_8  and  N2_9 
REMARK    5  A    between atoms: C7_14  and  C8_15 
REMARK    6  A    between atoms: N4_17  and  N5_19 
ROOT
HETATM    1  C3  UNL     1     -19.909  15.356  -4.642  1.00  0.00     0.028 C 
HETATM    2  C4  UNL     1     -21.151  16.091  -5.097  1.00  0.00     0.018 C 
HETATM    3  C6  UNL     1     -21.197  15.094  -6.248  1.00  0.00     0.019 C 
HETATM    4  C7  UNL     1     -20.547  14.114  -5.257  1.00  0.00     0.058 C 
ENDROOT
BRANCH   4   5
HETATM    5  C8  UNL     1     -19.616  13.169  -5.875  1.00  0.00     0.111 C 
HETATM    6  N3  UNL     1     -18.392  13.549  -6.495  1.00  0.00    -0.086 NA
HETATM    7  N4  UNL     1     -19.886  11.908  -5.879  1.00  0.00    -0.297 N 
ATOM      8  H4  UNL     1     -19.236  11.250  -6.309  1.00  0.00     0.187 HD
BRANCH   7   9
HETATM    9  N5  UNL     1     -21.065  11.441  -5.296  1.00  0.00    -0.344 N 
ATOM     10  H52 UNL     1     -21.761  12.117  -4.983  1.00  0.00     0.176 HD
ATOM     11  H51 UNL     1     -21.221  10.439  -5.186  1.00  0.00     0.176 HD
ENDBRANCH   7   9
ENDBRANCH   4   5
BRANCH   1  12
HETATM   12  C2  UNL     1     -19.724  15.330  -3.166  1.00  0.00     0.237 C 
BRANCH  12  13
HETATM   13  N1  UNL     1     -18.358  15.542  -2.794  1.00  0.00    -0.079 N 
HETATM   14  C1  UNL     1     -17.722  16.228  -3.933  1.00  0.00     0.267 C 
ATOM     15  H12 UNL     1     -17.876  14.687  -2.515  1.00  0.00     0.276 HD
ATOM     16  H11 UNL     1     -18.251  16.040  -1.911  1.00  0.00     0.276 HD
ENDBRANCH  12  13
ENDBRANCH   1  12
BRANCH   2  17
HETATM   17  C5  UNL     1     -20.933  17.518  -5.522  1.00  0.00     0.234 C 
BRANCH  17  18
HETATM   18  N2  UNL     1     -22.156  18.288  -5.517  1.00  0.00    -0.079 N 
ATOM     19  H23 UNL     1     -22.300  18.743  -4.615  1.00  0.00     0.274 HD
ATOM     20  H22 UNL     1     -22.070  19.117  -6.106  1.00  0.00     0.274 HD
ATOM     21  H21 UNL     1     -22.968  17.731  -5.782  1.00  0.00     0.274 HD
ENDBRANCH  17  18
ENDBRANCH   2  17
TORSDOF 6
ENDMDL
MODEL 2
REMARK VINA RESULT: -6.263925097      1.628      3.962
REMARK  6 active torsions:
REMARK  status: ('A' for Active; 'I' for Inactive)
REMARK    1  A    between atoms: N1_2  and  C2_5 
REMARK    2  A    between atoms: C2_5  and  C3_6 
REMARK    3  A    between atoms: C4_7  and  C5_8 
REMARK    4  A    between atoms: C5_8  and  N2_9 
REMARK    5  A    between atoms: C7_14  and  C8_15 
REMARK    6  A    between atoms: N4_17  and  N5_19 
ROOT
HETATM    1  C3  UNL     1     -19.913  15.180  -5.191  1.00  0.00     0.028 C 
HETATM    2  C4  UNL     1     -19.081  16.286  -4.578  1.00  0.00     0.018 C 
HETATM    3  C6  UNL     1     -20.003  17.250  -5.314  1.00  0.00     0.019 C 
HETATM    4  C7  UNL     1     -21.076  16.165  -5.127  1.00  0.00     0.058 C 
ENDROOT
BRANCH   4   5
HETATM    5  C8  UNL     1     -22.035  16.077  -6.230  1.00  0.00     0.111 C 
HETATM    6  N3  UNL     1     -21.735  15.515  -7.502  1.00  0.00    -0.086 NA
HETATM    7  N4  UNL     1     -23.235  16.526  -6.076  1.00  0.00    -0.297 N 
ATOM      8  H4  UNL     1     -23.903  16.463  -6.845  1.00  0.00     0.187 HD
BRANCH   7   9
HETATM    9  N5  UNL     1     -23.622  17.095  -4.863  1.00  0.00    -0.344 N 
ATOM     10  H52 UNL     1     -23.148  17.939  -4.542  1.00  0.00     0.176 HD
ATOM     11  H51 UNL     1     -24.367  16.671  -4.311  1.00  0.00     0.176 HD
ENDBRANCH   7   9
ENDBRANCH   4   5
BRANCH   1  12
HETATM   12  C2  UNL     1     -20.038  13.969  -4.336  1.00  0.00     0.237 C 
BRANCH  12  13
HETATM   13  N1  UNL     1     -20.266  12.788  -5.113  1.00  0.00    -0.079 N 
HETATM   14  C1  UNL     1     -19.315  12.842  -6.237  1.00  0.00     0.267 C 
ATOM     15  H12 UNL     1     -21.237  12.679  -5.407  1.00  0.00     0.276 HD
ATOM     16  H11 UNL     1     -20.202  11.927  -4.570  1.00  0.00     0.276 HD
ENDBRANCH  12  13
ENDBRANCH   1  12
BRANCH   2  17
HETATM   17  C5  UNL     1     -17.646  16.335  -5.029  1.00  0.00     0.234 C 
BRANCH  17  18
HETATM   18  N2  UNL     1     -16.744  16.704  -3.962  1.00  0.00    -0.079 N 
ATOM     19  H23 UNL     1     -16.701  17.717  -3.851  1.00  0.00     0.274 HD
ATOM     20  H22 UNL     1     -17.132  16.456  -3.052  1.00  0.00     0.274 HD
ATOM     21  H21 UNL     1     -15.812  16.308  -4.085  1.00  0.00     0.274 HD
ENDBRANCH  17  18
ENDBRANCH   2  17
TORSDOF 6
ENDMDL
MODEL 3
REMARK VINA RESULT: -6.008735534      1.467      3.914
REMARK  6 active torsions:
REMARK  status: ('A' for Active; 'I' for Inactive)
REMARK    1  A    between atoms: N1_2  and  C2_5 
REMARK    2  A    between atoms: C2_5  and  C3_6 
REMARK    3  A    between atoms: C4_7  and  C5_8 
REMARK    4  A    between atoms: C5_8  and  N2_9 
REMARK    5  A    between atoms: C7_14  and  C8_15 
REMARK    6  A    between atoms: N4_17  and  N5_19 
ROOT
HETATM    1  C3  UNL     1     -19.562  14.765  -5.847  1.00  0.00     0.028 C 
HETATM    2  C4  UNL     1     -20.129  15.874  -6.707  1.00  0.00     0.018 C 
HETATM    3  C6  UNL     1     -20.179  16.703  -5.430  1.00  0.00     0.019 C 
HETATM    4  C7  UNL     1     -18.955  15.879  -4.999  1.00  0.00     0.058 C 
ENDROOT
BRANCH   4   5
HETATM    5  C8  UNL     1     -18.891  15.611  -3.561  1.00  0.00     0.111 C 
HETATM    6  N3  UNL     1     -19.916  14.949  -2.829  1.00  0.00    -0.086 NA
HETATM    7  N4  UNL     1     -17.859  15.984  -2.882  1.00  0.00    -0.297 N 
ATOM      8  H4  UNL     1     -17.816  15.796  -1.881  1.00  0.00     0.187 HD
BRANCH   7   9
HETATM    9  N5  UNL     1     -16.803  16.642  -3.513  1.00  0.00    -0.344 N 
ATOM     10  H52 UNL     1     -17.000  17.486  -4.051  1.00  0.00     0.176 HD
ATOM     11  H51 UNL     1     -15.853  16.279  -3.436  1.00  0.00     0.176 HD
ENDBRANCH   7   9
ENDBRANCH   4   5
BRANCH   1  12
HETATM   12  C2  UNL     1     -18.594  13.883  -6.552  1.00  0.00     0.237 C 
BRANCH  12  13
HETATM   13  N1  UNL     1     -19.065  12.534  -6.638  1.00  0.00    -0.079 N 
HETATM   14  C1  UNL     1     -20.072  12.379  -5.574  1.00  0.00     0.267 C 
ATOM     15  H12 UNL     1     -18.319  11.840  -6.595  1.00  0.00     0.276 HD
ATOM     16  H11 UNL     1     -19.414  12.285  -7.564  1.00  0.00     0.276 HD
ENDBRANCH  12  13
ENDBRANCH   1  12
BRANCH   2  17
HETATM   17  C5  UNL     1     -21.476  15.589  -7.315  1.00  0.00     0.234 C 
BRANCH  17  18
HETATM   18  N2  UNL     1     -22.565  15.952  -6.438  1.00  0.00    -0.079 N 
ATOM     19  H23 UNL     1     -22.880  15.150  -5.892  1.00  0.00     0.274 HD
ATOM     20  H22 UNL     1     -22.241  16.550  -5.679  1.00  0.00     0.274 HD
ATOM     21  H21 UNL     1     -23.343  16.382  -6.939  1.00  0.00     0.274 HD
ENDBRANCH  17  18
ENDBRANCH   2  17
TORSDOF 6
ENDMDL
MODEL 4
REMARK VINA RESULT: -6.004745652      1.989      4.068
REMARK  6 active torsions:
REMARK  status: ('A' for Active; 'I' for Inactive)
REMARK    1  A    between atoms: N1_2  and  C2_5 
REMARK    2  A    between atoms: C2_5  and  C3_6 
REMARK    3  A    between atoms: C4_7  and  C5_8 
REMARK    4  A    between atoms: C5_8  and  N2_9 
REMARK    5  A    between atoms: C7_14  and  C8_15 
REMARK    6  A    between atoms: N4_17  and  N5_19 
ROOT
HETATM    1  C3  UNL     1     -20.180  14.181  -5.824  1.00  0.00     0.028 C 
HETATM    2  C4  UNL     1     -19.169  14.805  -6.762  1.00  0.00     0.018 C 
HETATM    3  C6  UNL     1     -19.491  16.123  -6.071  1.00  0.00     0.019 C 
HETATM    4  C7  UNL     1     -19.763  15.259  -4.829  1.00  0.00     0.058 C 
ENDROOT
BRANCH   4   5
HETATM    5  C8  UNL     1     -20.832  15.768  -3.969  1.00  0.00     0.111 C 
HETATM    6  N3  UNL     1     -21.869  16.634  -4.416  1.00  0.00    -0.086 NA
HETATM    7  N4  UNL     1     -20.870  15.434  -2.723  1.00  0.00    -0.297 N 
ATOM      8  H4  UNL     1     -21.616  15.789  -2.125  1.00  0.00     0.187 HD
BRANCH   7   9
HETATM    9  N5  UNL     1     -19.895  14.589  -2.192  1.00  0.00    -0.344 N 
ATOM     10  H52 UNL     1     -19.247  14.125  -2.828  1.00  0.00     0.176 HD
ATOM     11  H51 UNL     1     -19.837  14.442  -1.185  1.00  0.00     0.176 HD
ENDBRANCH   7   9
ENDBRANCH   4   5
BRANCH   1  12
HETATM   12  C2  UNL     1     -19.865  12.779  -5.436  1.00  0.00     0.237 C 
BRANCH  12  13
HETATM   13  N1  UNL     1     -21.049  11.987  -5.289  1.00  0.00    -0.079 N 
HETATM   14  C1  UNL     1     -20.638  10.588  -5.495  1.00  0.00     0.267 C 
ATOM     15  H12 UNL     1     -21.811  12.281  -5.900  1.00  0.00     0.276 HD
ATOM     16  H11 UNL     1     -21.532  12.141  -4.404  1.00  0.00     0.276 HD
ENDBRANCH  12  13
ENDBRANCH   1  12
BRANCH   2  17
HETATM   17  C5  UNL     1     -19.536  14.764  -8.221  1.00  0.00     0.234 C 
BRANCH  17  18
HETATM   18  N2  UNL     1     -20.595  15.689  -8.550  1.00  0.00    -0.079 N 
ATOM     19  H23 UNL     1     -20.217  16.599  -8.818  1.00  0.00     0.274 HD
ATOM     20  H22 UNL     1     -21.045  15.435  -9.429  1.00  0.00     0.274 HD
ATOM     21  H21 UNL     1     -21.279  15.782  -7.800  1.00  0.00     0.274 HD
ENDBRANCH  17  18
ENDBRANCH   2  17
TORSDOF 6
ENDMDL
MODEL 5
REMARK VINA RESULT: -5.681027246      1.349      4.261
REMARK  6 active torsions:
REMARK  status: ('A' for Active; 'I' for Inactive)
REMARK    1  A    between atoms: N1_2  and  C2_5 
REMARK    2  A    between atoms: C2_5  and  C3_6 
REMARK    3  A    between atoms: C4_7  and  C5_8 
REMARK    4  A    between atoms: C5_8  and  N2_9 
REMARK    5  A    between atoms: C7_14  and  C8_15 
REMARK    6  A    between atoms: N4_17  and  N5_19 
ROOT
HETATM    1  C3  UNL     1     -19.624  15.155  -5.074  1.00  0.00     0.028 C 
HETATM    2  C4  UNL     1     -19.038  14.371  -6.229  1.00  0.00     0.018 C 
HETATM    3  C6  UNL     1     -19.995  15.158  -7.117  1.00  0.00     0.019 C 
HETATM    4  C7  UNL     1     -19.828  16.283  -6.082  1.00  0.00     0.058 C 
ENDROOT
BRANCH   4   5
HETATM    5  C8  UNL     1     -21.029  17.095  -5.883  1.00  0.00     0.111 C 
HETATM    6  N3  UNL     1     -22.348  16.564  -5.829  1.00  0.00    -0.086 NA
HETATM    7  N4  UNL     1     -20.926  18.373  -5.745  1.00  0.00    -0.297 N 
ATOM      8  H4  UNL     1     -21.764  18.938  -5.605  1.00  0.00     0.187 HD
BRANCH   7   9
HETATM    9  N5  UNL     1     -19.673  18.985  -5.785  1.00  0.00    -0.344 N 
ATOM     10  H52 UNL     1     -18.854  18.450  -5.498  1.00  0.00     0.176 HD
ATOM     11  H51 UNL     1     -19.584  19.952  -6.096  1.00  0.00     0.176 HD
ENDBRANCH   7   9
ENDBRANCH   4   5
BRANCH   1  12
HETATM   12  C2  UNL     1     -18.660  15.431  -3.975  1.00  0.00     0.237 C 
BRANCH  12  13
HETATM   13  N1  UNL     1     -19.326  15.775  -2.755  1.00  0.00    -0.079 N 
HETATM   14  C1  UNL     1     -20.612  15.057  -2.768  1.00  0.00     0.267 C 
ATOM     15  H12 UNL     1     -19.424  16.781  -2.617  1.00  0.00     0.276 HD
ATOM     16  H11 UNL     1     -18.767  15.589  -1.922  1.00  0.00     0.276 HD
ENDBRANCH  12  13
ENDBRANCH   1  12
BRANCH   2  17
HETATM   17  C5  UNL     1     -19.300  12.889  -6.196  1.00  0.00     0.234 C 
BRANCH  17  18
HETATM   18  N2  UNL     1     -20.442  12.548  -5.381  1.00  0.00    -0.079 N 
ATOM     19  H23 UNL     1     -20.675  11.558  -5.471  1.00  0.00     0.274 HD
ATOM     20  H22 UNL     1     -20.204  12.569  -4.389  1.00  0.00     0.274 HD
ATOM     21  H21 UNL     1     -21.252  13.136  -5.578  1.00  0.00     0.274 HD
ENDBRANCH  17  18
ENDBRANCH   2  17
TORSDOF 6
ENDMDL
