MODEL 1
REMARK VINA RESULT: -5.206559331      0.000      0.000
REMARK  4 active torsions:
REMARK  status: ('A' for Active; 'I' for Inactive)
REMARK    1  A    between atoms: N1_1  and  C1_5 
REMARK    2  A    between atoms: C3_7  and  N2_8 
REMARK    3  A    between atoms: N2_8  and  S1_10 
REMARK    4  A    between atoms: S1_10  and  N3_11 
ROOT
HETATM    1  C1  UNL     1       2.224  23.342  28.377  1.00  0.00     0.187 C 
HETATM    2  C2  UNL     1       2.027  24.486  29.369  1.00  0.00     0.058 C 
HETATM    3  C3  UNL     1       3.163  25.205  28.663  1.00  0.00     0.098 C 
HETATM    4  C4  UNL     1       2.874  24.342  27.446  1.00  0.00     0.058 C 
ENDROOT
BRANCH   3   5
HETATM    5  N2  UNL     1       2.892  26.603  28.490  1.00  0.00    -0.298 N 
ATOM      6  H2  UNL     1       2.251  26.961  27.783  1.00  0.00     0.174 HD
BRANCH   5   7
HETATM    7  S1  UNL     1       3.745  27.613  29.576  1.00  0.00     0.313 S 
HETATM    8  O1  UNL     1       5.209  27.720  29.244  1.00  0.00    -0.183 OA
HETATM    9  O2  UNL     1       3.681  27.091  31.004  1.00  0.00    -0.183 OA
BRANCH   7  10
HETATM   10  N3  UNL     1       3.073  29.225  29.594  1.00  0.00    -0.312 N 
ATOM     11  H32 UNL     1       2.535  29.605  30.373  1.00  0.00     0.170 HD
ATOM     12  H31 UNL     1       3.290  29.721  28.730  1.00  0.00     0.170 HD
ENDBRANCH   7  10
ENDBRANCH   5   7
ENDBRANCH   3   5
BRANCH   1  13
HETATM   13  N1  UNL     1       1.006  22.748  27.909  1.00  0.00    -0.075 N 
ATOM     14  H13 UNL     1       0.239  23.419  27.965  1.00  0.00     0.274 HD
ATOM     15  H12 UNL     1       1.043  22.610  26.898  1.00  0.00     0.274 HD
ATOM     16  H11 UNL     1       0.753  21.879  28.378  1.00  0.00     0.274 HD
ENDBRANCH   1  13
TORSDOF 4
ENDMDL
MODEL 2
REMARK VINA RESULT: -5.197504546      4.511      5.553
REMARK  4 active torsions:
REMARK  status: ('A' for Active; 'I' for Inactive)
REMARK    1  A    between atoms: N1_1  and  C1_5 
REMARK    2  A    between atoms: C3_7  and  N2_8 
REMARK    3  A    between atoms: N2_8  and  S1_10 
REMARK    4  A    between atoms: S1_10  and  N3_11 
ROOT
HETATM    1  C1  UNL     1       3.133  24.325  29.336  1.00  0.00     0.187 C 
HETATM    2  C2  UNL     1       1.987  24.236  28.331  1.00  0.00     0.058 C 
HETATM    3  C3  UNL     1       1.138  23.659  29.449  1.00  0.00     0.098 C 
HETATM    4  C4  UNL     1       2.090  24.320  30.433  1.00  0.00     0.058 C 
ENDROOT
BRANCH   3   5
HETATM    5  N2  UNL     1      -0.193  24.193  29.447  1.00  0.00    -0.298 N 
ATOM      6  H2  UNL     1      -0.392  25.193  29.473  1.00  0.00     0.174 HD
BRANCH   5   7
HETATM    7  S1  UNL     1      -1.418  22.998  29.398  1.00  0.00     0.313 S 
HETATM    8  O1  UNL     1      -2.802  23.587  29.344  1.00  0.00    -0.183 OA
HETATM    9  O2  UNL     1      -1.392  22.110  30.633  1.00  0.00    -0.183 OA
BRANCH   7  10
HETATM   10  N3  UNL     1      -1.218  21.951  28.015  1.00  0.00    -0.312 N 
ATOM     11  H32 UNL     1      -0.348  21.467  27.794  1.00  0.00     0.170 HD
ATOM     12  H31 UNL     1      -2.079  21.895  27.471  1.00  0.00     0.170 HD
ENDBRANCH   7  10
ENDBRANCH   5   7
ENDBRANCH   3   5
BRANCH   1  13
HETATM   13  N1  UNL     1       3.924  25.515  29.229  1.00  0.00    -0.075 N 
ATOM     14  H13 UNL     1       4.914  25.279  29.160  1.00  0.00     0.274 HD
ATOM     15  H12 UNL     1       3.786  25.954  28.318  1.00  0.00     0.274 HD
ATOM     16  H11 UNL     1       3.771  26.192  29.976  1.00  0.00     0.274 HD
ENDBRANCH   1  13
TORSDOF 4
ENDMDL
MODEL 3
REMARK VINA RESULT: -5.145151707      2.924      3.195
REMARK  4 active torsions:
REMARK  status: ('A' for Active; 'I' for Inactive)
REMARK    1  A    between atoms: N1_1  and  C1_5 
REMARK    2  A    between atoms: C3_7  and  N2_8 
REMARK    3  A    between atoms: N2_8  and  S1_10 
REMARK    4  A    between atoms: S1_10  and  N3_11 
ROOT
HETATM    1  C1  UNL     1       3.535  23.793  31.814  1.00  0.00     0.187 C 
HETATM    2  C2  UNL     1       4.492  24.794  31.170  1.00  0.00     0.058 C 
HETATM    3  C3  UNL     1       3.278  25.650  30.854  1.00  0.00     0.098 C 
HETATM    4  C4  UNL     1       2.553  24.932  31.980  1.00  0.00     0.058 C 
ENDROOT
BRANCH   3   5
HETATM    5  N2  UNL     1       3.525  27.044  31.088  1.00  0.00    -0.298 N 
ATOM      6  H2  UNL     1       3.511  27.463  32.017  1.00  0.00     0.174 HD
BRANCH   5   7
HETATM    7  S1  UNL     1       3.844  27.938  29.664  1.00  0.00     0.313 S 
HETATM    8  O1  UNL     1       3.609  27.139  28.411  1.00  0.00    -0.183 OA
HETATM    9  O2  UNL     1       5.293  28.397  29.597  1.00  0.00    -0.183 OA
BRANCH   7  10
HETATM   10  N3  UNL     1       2.852  29.373  29.588  1.00  0.00    -0.312 N 
ATOM     11  H32 UNL     1       1.912  29.431  29.979  1.00  0.00     0.170 HD
ATOM     12  H31 UNL     1       3.338  30.129  29.107  1.00  0.00     0.170 HD
ENDBRANCH   7  10
ENDBRANCH   5   7
ENDBRANCH   3   5
BRANCH   1  13
HETATM   13  N1  UNL     1       4.023  23.204  33.027  1.00  0.00    -0.075 N 
ATOM     14  H13 UNL     1       4.801  22.574  32.828  1.00  0.00     0.274 HD
ATOM     15  H12 UNL     1       4.504  23.903  33.594  1.00  0.00     0.274 HD
ATOM     16  H11 UNL     1       3.311  22.726  33.579  1.00  0.00     0.274 HD
ENDBRANCH   1  13
TORSDOF 4
ENDMDL
MODEL 4
REMARK VINA RESULT: -5.101111252      1.173      1.437
REMARK  4 active torsions:
REMARK  status: ('A' for Active; 'I' for Inactive)
REMARK    1  A    between atoms: N1_1  and  C1_5 
REMARK    2  A    between atoms: C3_7  and  N2_8 
REMARK    3  A    between atoms: N2_8  and  S1_10 
REMARK    4  A    between atoms: S1_10  and  N3_11 
ROOT
HETATM    1  C1  UNL     1       2.248  23.305  28.339  1.00  0.00     0.187 C 
HETATM    2  C2  UNL     1       2.102  24.426  29.365  1.00  0.00     0.058 C 
HETATM    3  C3  UNL     1       3.235  25.140  28.650  1.00  0.00     0.098 C 
HETATM    4  C4  UNL     1       2.897  24.315  27.418  1.00  0.00     0.058 C 
ENDROOT
BRANCH   3   5
HETATM    5  N2  UNL     1       2.991  26.547  28.520  1.00  0.00    -0.298 N 
ATOM      6  H2  UNL     1       2.367  26.940  27.816  1.00  0.00     0.174 HD
BRANCH   5   7
HETATM    7  S1  UNL     1       3.841  27.505  29.655  1.00  0.00     0.313 S 
HETATM    8  O1  UNL     1       3.674  27.016  31.069  1.00  0.00    -0.183 OA
HETATM    9  O2  UNL     1       3.357  28.946  29.655  1.00  0.00    -0.183 OA
BRANCH   7  10
HETATM   10  N3  UNL     1       5.548  27.542  29.291  1.00  0.00    -0.312 N 
ATOM     11  H32 UNL     1       6.198  26.798  29.546  1.00  0.00     0.170 HD
ATOM     12  H31 UNL     1       5.798  28.398  28.796  1.00  0.00     0.170 HD
ENDBRANCH   7  10
ENDBRANCH   5   7
ENDBRANCH   3   5
BRANCH   1  13
HETATM   13  N1  UNL     1       1.006  22.750  27.887  1.00  0.00    -0.075 N 
ATOM     14  H13 UNL     1       0.968  21.751  28.089  1.00  0.00     0.274 HD
ATOM     15  H12 UNL     1       0.236  23.076  28.472  1.00  0.00     0.274 HD
ATOM     16  H11 UNL     1       0.802  22.922  26.903  1.00  0.00     0.274 HD
ENDBRANCH   1  13
TORSDOF 4
ENDMDL
MODEL 5
REMARK VINA RESULT: -4.851064884      3.256      3.882
REMARK  4 active torsions:
REMARK  status: ('A' for Active; 'I' for Inactive)
REMARK    1  A    between atoms: N1_1  and  C1_5 
REMARK    2  A    between atoms: C3_7  and  N2_8 
REMARK    3  A    between atoms: N2_8  and  S1_10 
REMARK    4  A    between atoms: S1_10  and  N3_11 
ROOT
HETATM    1  C1  UNL     1       2.722  25.012  31.532  1.00  0.00     0.187 C 
HETATM    2  C2  UNL     1       2.405  24.270  30.236  1.00  0.00     0.058 C 
HETATM    3  C3  UNL     1       3.078  25.411  29.494  1.00  0.00     0.098 C 
HETATM    4  C4  UNL     1       3.824  25.727  30.780  1.00  0.00     0.058 C 
ENDROOT
BRANCH   3   5
HETATM    5  N2  UNL     1       3.902  24.944  28.418  1.00  0.00    -0.298 N 
ATOM      6  H2  UNL     1       4.765  24.421  28.564  1.00  0.00     0.174 HD
BRANCH   5   7
HETATM    7  S1  UNL     1       3.305  25.346  26.864  1.00  0.00     0.313 S 
HETATM    8  O1  UNL     1       2.571  26.660  26.847  1.00  0.00    -0.183 OA
HETATM    9  O2  UNL     1       2.315  24.310  26.354  1.00  0.00    -0.183 OA
BRANCH   7  10
HETATM   10  N3  UNL     1       4.600  25.430  25.697  1.00  0.00    -0.312 N 
ATOM     11  H32 UNL     1       4.926  24.630  25.155  1.00  0.00     0.170 HD
ATOM     12  H31 UNL     1       4.976  26.376  25.635  1.00  0.00     0.170 HD
ENDBRANCH   7  10
ENDBRANCH   5   7
ENDBRANCH   3   5
BRANCH   1  13
HETATM   13  N1  UNL     1       3.145  24.167  32.610  1.00  0.00    -0.075 N 
ATOM     14  H13 UNL     1       3.473  23.270  32.251  1.00  0.00     0.274 HD
ATOM     15  H12 UNL     1       4.012  24.518  33.019  1.00  0.00     0.274 HD
ATOM     16  H11 UNL     1       2.442  24.025  33.334  1.00  0.00     0.274 HD
ENDBRANCH   1  13
TORSDOF 4
ENDMDL
