MODEL 1
REMARK VINA RESULT: -5.880521962      0.000      0.000
REMARK  5 active torsions:
REMARK  status: ('A' for Active; 'I' for Inactive)
REMARK    1  A    between atoms: C2_4  and  N2_5 
REMARK    2  A    between atoms: N2_5  and  C3_7 
REMARK    3  A    between atoms: C5_12  and  C6_13 
REMARK    4  A    between atoms: C6_13  and  O1_14 
REMARK    5  A    between atoms: C7_16  and  O2_17 
ROOT
HETATM    1  C3  UNL     1       3.655  25.395  28.965  1.00  0.00     0.138 C 
HETATM    2  C4  UNL     1       4.875  24.543  29.111  1.00  0.00     0.260 C 
HETATM    3  N3  UNL     1       6.003  25.425  29.336  1.00  0.00    -0.064 N 
ATOM      4  H31 UNL     1       6.874  25.099  28.916  1.00  0.00     0.277 HD
ATOM      5  H32 UNL     1       6.334  25.434  30.301  1.00  0.00     0.277 HD
HETATM    6  C5  UNL     1       5.575  26.704  28.860  1.00  0.00     0.239 C 
HETATM    7  C7  UNL     1       4.150  26.754  29.407  1.00  0.00     0.175 C 
ENDROOT
BRANCH   1   8
HETATM    8  N2  UNL     1       2.577  24.895  29.762  1.00  0.00    -0.378 N 
ATOM      9  H2  UNL     1       2.475  25.251  30.712  1.00  0.00     0.160 HD
BRANCH   8  10
HETATM   10  C2  UNL     1       1.640  23.928  29.304  1.00  0.00     0.171 C 
HETATM   11  N1  UNL     1       0.417  24.069  29.622  1.00  0.00    -0.391 N 
HETATM   12  C1  UNL     1      -0.654  23.189  29.245  1.00  0.00     0.147 C 
ATOM     13  H1  UNL     1       0.175  24.877  30.195  1.00  0.00     0.159 HD
ENDBRANCH   8  10
ENDBRANCH   1   8
BRANCH   7  14
HETATM   14  O2  UNL     1       4.193  26.893  30.780  1.00  0.00    -0.391 OA
ATOM     15  H2  UNL     1       4.876  27.484  31.073  1.00  0.00     0.210 HD
ENDBRANCH   7  14
BRANCH   6  16
HETATM   16  C6  UNL     1       6.402  27.852  29.354  1.00  0.00     0.199 C 
BRANCH  16  17
HETATM   17  O1  UNL     1       5.656  29.006  29.501  1.00  0.00    -0.399 OA
ATOM     18  H1  UNL     1       6.190  29.788  29.434  1.00  0.00     0.209 HD
ENDBRANCH  16  17
ENDBRANCH   6  16
TORSDOF 5
ENDMDL
MODEL 2
REMARK VINA RESULT: -5.733446996      1.321      1.441
REMARK  5 active torsions:
REMARK  status: ('A' for Active; 'I' for Inactive)
REMARK    1  A    between atoms: C2_4  and  N2_5 
REMARK    2  A    between atoms: N2_5  and  C3_7 
REMARK    3  A    between atoms: C5_12  and  C6_13 
REMARK    4  A    between atoms: C6_13  and  O1_14 
REMARK    5  A    between atoms: C7_16  and  O2_17 
ROOT
HETATM    1  C3  UNL     1       2.964  24.690  29.293  1.00  0.00     0.138 C 
HETATM    2  C4  UNL     1       3.486  24.839  30.686  1.00  0.00     0.260 C 
HETATM    3  N3  UNL     1       4.617  25.744  30.638  1.00  0.00    -0.064 N 
ATOM      4  H31 UNL     1       5.356  25.518  31.303  1.00  0.00     0.277 HD
ATOM      5  H32 UNL     1       4.415  26.677  30.999  1.00  0.00     0.277 HD
HETATM    6  C5  UNL     1       5.043  25.733  29.272  1.00  0.00     0.239 C 
HETATM    7  C7  UNL     1       3.698  25.783  28.550  1.00  0.00     0.175 C 
ENDROOT
BRANCH   1   8
HETATM    8  N2  UNL     1       1.541  24.834  29.256  1.00  0.00    -0.378 N 
ATOM      9  H2  UNL     1       1.150  25.774  29.320  1.00  0.00     0.160 HD
BRANCH   8  10
HETATM   10  C2  UNL     1       0.640  23.740  29.137  1.00  0.00     0.171 C 
HETATM   11  N1  UNL     1      -0.570  23.906  29.492  1.00  0.00    -0.391 N 
HETATM   12  C1  UNL     1      -1.604  22.912  29.437  1.00  0.00     0.147 C 
ATOM     13  H1  UNL     1      -0.828  24.827  29.848  1.00  0.00     0.159 HD
ENDBRANCH   8  10
ENDBRANCH   1   8
BRANCH   7  14
HETATM   14  O2  UNL     1       3.132  27.030  28.725  1.00  0.00    -0.391 OA
ATOM     15  H2  UNL     1       3.360  27.642  28.036  1.00  0.00     0.210 HD
ENDBRANCH   7  14
BRANCH   6  16
HETATM   16  C6  UNL     1       5.923  26.886  28.893  1.00  0.00     0.199 C 
BRANCH  16  17
HETATM   17  O1  UNL     1       5.765  27.961  29.746  1.00  0.00    -0.399 OA
ATOM     18  H1  UNL     1       5.621  28.773  29.274  1.00  0.00     0.209 HD
ENDBRANCH  16  17
ENDBRANCH   6  16
TORSDOF 5
ENDMDL
MODEL 3
REMARK VINA RESULT: -5.391447906      1.248      1.317
REMARK  5 active torsions:
REMARK  status: ('A' for Active; 'I' for Inactive)
REMARK    1  A    between atoms: C2_4  and  N2_5 
REMARK    2  A    between atoms: N2_5  and  C3_7 
REMARK    3  A    between atoms: C5_12  and  C6_13 
REMARK    4  A    between atoms: C6_13  and  O1_14 
REMARK    5  A    between atoms: C7_16  and  O2_17 
ROOT
HETATM    1  C3  UNL     1       2.587  25.646  29.356  1.00  0.00     0.138 C 
HETATM    2  C4  UNL     1       3.073  25.569  27.944  1.00  0.00     0.260 C 
HETATM    3  N3  UNL     1       4.354  26.245  27.883  1.00  0.00    -0.064 N 
ATOM      4  H31 UNL     1       4.518  26.740  27.006  1.00  0.00     0.277 HD
ATOM      5  H32 UNL     1       5.152  25.613  27.812  1.00  0.00     0.277 HD
HETATM    6  C5  UNL     1       4.384  27.088  29.039  1.00  0.00     0.239 C 
HETATM    7  C7  UNL     1       3.806  26.149  30.095  1.00  0.00     0.175 C 
ENDROOT
BRANCH   1   8
HETATM    8  N2  UNL     1       2.129  24.371  29.815  1.00  0.00    -0.378 N 
ATOM      9  H2  UNL     1       2.559  23.977  30.652  1.00  0.00     0.160 HD
BRANCH   8  10
HETATM   10  C2  UNL     1       1.107  23.620  29.170  1.00  0.00     0.171 C 
HETATM   11  N1  UNL     1      -0.045  23.576  29.706  1.00  0.00    -0.391 N 
HETATM   12  C1  UNL     1      -1.183  22.868  29.189  1.00  0.00     0.147 C 
ATOM     13  H1  UNL     1      -0.173  24.087  30.579  1.00  0.00     0.159 HD
ENDBRANCH   8  10
ENDBRANCH   1   8
BRANCH   7  14
HETATM   14  O2  UNL     1       4.721  25.152  30.370  1.00  0.00    -0.391 OA
ATOM     15  H2  UNL     1       5.616  25.468  30.406  1.00  0.00     0.210 HD
ENDBRANCH   7  14
BRANCH   6  16
HETATM   16  C6  UNL     1       5.754  27.571  29.410  1.00  0.00     0.199 C 
BRANCH  16  17
HETATM   17  O1  UNL     1       5.840  28.950  29.395  1.00  0.00    -0.399 OA
ATOM     18  H1  UNL     1       5.745  29.304  28.518  1.00  0.00     0.209 HD
ENDBRANCH  16  17
ENDBRANCH   6  16
TORSDOF 5
ENDMDL
MODEL 4
REMARK VINA RESULT: -5.368043901      2.799      5.500
REMARK  5 active torsions:
REMARK  status: ('A' for Active; 'I' for Inactive)
REMARK    1  A    between atoms: C2_4  and  N2_5 
REMARK    2  A    between atoms: N2_5  and  C3_7 
REMARK    3  A    between atoms: C5_12  and  C6_13 
REMARK    4  A    between atoms: C6_13  and  O1_14 
REMARK    5  A    between atoms: C7_16  and  O2_17 
ROOT
HETATM    1  C3  UNL     1       2.735  23.879  29.096  1.00  0.00     0.138 C 
HETATM    2  C4  UNL     1       2.424  23.048  27.893  1.00  0.00     0.260 C 
HETATM    3  N3  UNL     1       0.991  22.827  27.869  1.00  0.00    -0.064 N 
ATOM      4  H31 UNL     1       0.720  21.912  27.509  1.00  0.00     0.277 HD
ATOM      5  H32 UNL     1       0.500  23.380  27.167  1.00  0.00     0.277 HD
HETATM    6  C5  UNL     1       0.556  23.074  29.210  1.00  0.00     0.239 C 
HETATM    7  C7  UNL     1       1.363  24.325  29.549  1.00  0.00     0.175 C 
ENDROOT
BRANCH   1   8
HETATM    8  N2  UNL     1       3.604  24.965  28.762  1.00  0.00    -0.378 N 
ATOM      9  H2  UNL     1       4.084  24.939  27.862  1.00  0.00     0.160 HD
BRANCH   8  10
HETATM   10  C2  UNL     1       3.839  26.080  29.615  1.00  0.00     0.171 C 
HETATM   11  N1  UNL     1       3.454  27.230  29.232  1.00  0.00    -0.391 N 
HETATM   12  C1  UNL     1       3.610  28.454  29.966  1.00  0.00     0.147 C 
ATOM     13  H1  UNL     1       2.994  27.288  28.324  1.00  0.00     0.159 HD
ENDBRANCH   8  10
ENDBRANCH   1   8
BRANCH   7  14
HETATM   14  O2  UNL     1       0.875  25.394  28.825  1.00  0.00    -0.391 OA
ATOM     15  H2  UNL     1       1.271  26.221  29.069  1.00  0.00     0.210 HD
ENDBRANCH   7  14
BRANCH   6  16
HETATM   16  C6  UNL     1      -0.919  23.308  29.343  1.00  0.00     0.199 C 
BRANCH  16  17
HETATM   17  O1  UNL     1      -1.509  22.420  30.222  1.00  0.00    -0.399 OA
ATOM     18  H1  UNL     1      -2.450  22.539  30.273  1.00  0.00     0.209 HD
ENDBRANCH  16  17
ENDBRANCH   6  16
TORSDOF 5
ENDMDL
MODEL 5
REMARK VINA RESULT: -5.332903701      3.015      5.286
REMARK  5 active torsions:
REMARK  status: ('A' for Active; 'I' for Inactive)
REMARK    1  A    between atoms: C2_4  and  N2_5 
REMARK    2  A    between atoms: N2_5  and  C3_7 
REMARK    3  A    between atoms: C5_12  and  C6_13 
REMARK    4  A    between atoms: C6_13  and  O1_14 
REMARK    5  A    between atoms: C7_16  and  O2_17 
ROOT
HETATM    1  C3  UNL     1       5.577  23.539  29.640  1.00  0.00     0.138 C 
HETATM    2  C4  UNL     1       5.694  25.000  29.346  1.00  0.00     0.260 C 
HETATM    3  N3  UNL     1       4.734  25.695  30.182  1.00  0.00    -0.064 N 
ATOM      4  H31 UNL     1       4.317  26.515  29.740  1.00  0.00     0.277 HD
ATOM      5  H32 UNL     1       5.154  26.188  30.971  1.00  0.00     0.277 HD
HETATM    6  C5  UNL     1       3.783  24.696  30.563  1.00  0.00     0.239 C 
HETATM    7  C7  UNL     1       4.708  23.522  30.877  1.00  0.00     0.175 C 
ENDROOT
BRANCH   1   8
HETATM    8  N2  UNL     1       6.864  22.948  29.841  1.00  0.00    -0.378 N 
ATOM      9  H2  UNL     1       7.097  22.606  30.773  1.00  0.00     0.160 HD
BRANCH   8  10
HETATM   10  C2  UNL     1       7.839  22.811  28.813  1.00  0.00     0.171 C 
HETATM   11  N1  UNL     1       8.507  21.731  28.749  1.00  0.00    -0.391 N 
HETATM   12  C1  UNL     1       9.523  21.431  27.780  1.00  0.00     0.147 C 
ATOM     13  H1  UNL     1       8.304  21.016  29.447  1.00  0.00     0.159 HD
ENDBRANCH   8  10
ENDBRANCH   1   8
BRANCH   7  14
HETATM   14  O2  UNL     1       5.410  23.791  32.035  1.00  0.00    -0.391 OA
ATOM     15  H2  UNL     1       5.446  23.051  32.628  1.00  0.00     0.210 HD
ENDBRANCH   7  14
BRANCH   6  16
HETATM   16  C6  UNL     1       2.938  25.072  31.743  1.00  0.00     0.199 C 
BRANCH  16  17
HETATM   17  O1  UNL     1       3.322  26.280  32.293  1.00  0.00    -0.399 OA
ATOM     18  H1  UNL     1       2.945  26.416  33.154  1.00  0.00     0.209 HD
ENDBRANCH  16  17
ENDBRANCH   6  16
TORSDOF 5
ENDMDL
