MODEL 1
REMARK VINA RESULT: -6.320059571      0.000      0.000
REMARK  3 active torsions:
REMARK  status: ('A' for Active; 'I' for Inactive)
REMARK    1  A    between atoms: C3_3  and  N1_4 
REMARK       I    between atoms: N1_4  and  C4_6 
REMARK       I    between atoms: C4_6  and  N3_10 
REMARK    2  A    between atoms: N3_10  and  N4_12 
REMARK    3  A    between atoms: N4_12  and  N5_14 
ROOT
HETATM    1  C1  UNL     1       4.729  22.083  27.753  1.00  0.00     0.014 C 
HETATM    2  C2  UNL     1       3.815  22.815  27.438  1.00  0.00    -0.097 C 
HETATM    3  C3  UNL     1       2.679  23.696  27.076  1.00  0.00     0.231 C 
ENDROOT
BRANCH   3   4
HETATM    4  N1  UNL     1       2.541  24.755  28.071  1.00  0.00    -0.215 N 
HETATM    5  C4  UNL     1       2.066  24.506  29.357  1.00  0.00     0.690 C 
HETATM    6  N2  UNL     1       2.707  25.059  30.327  1.00  0.00    -0.229 N 
HETATM    7  N3  UNL     1       0.955  23.704  29.622  1.00  0.00    -0.113 N 
HETATM    8  C5  UNL     1       2.402  24.943  31.720  1.00  0.00     0.165 C 
ATOM      9  H2  UNL     1       3.510  25.636  30.078  1.00  0.00     0.177 HD
ATOM     10  H3  UNL     1       1.138  22.729  29.859  1.00  0.00     0.207 HD
ATOM     11  H1  UNL     1       2.801  25.708  27.816  1.00  0.00     0.178 HD
BRANCH   7  12
HETATM   12  N4  UNL     1      -0.385  24.106  29.597  1.00  0.00    -0.168 N 
ATOM     13  H4  UNL     1      -0.636  25.078  29.777  1.00  0.00     0.215 HD
BRANCH  12  14
HETATM   14  N5  UNL     1      -1.369  23.166  29.323  1.00  0.00    -0.023 N 
HETATM   15  O1  UNL     1      -1.067  22.026  28.955  1.00  0.00    -0.515 OA
HETATM   16  O2  UNL     1      -2.683  23.489  29.455  1.00  0.00    -0.515 OA
ENDBRANCH  12  14
ENDBRANCH   7  12
ENDBRANCH   3   4
TORSDOF 3
ENDMDL
MODEL 2
REMARK VINA RESULT: -6.252655865      0.910      1.369
REMARK  3 active torsions:
REMARK  status: ('A' for Active; 'I' for Inactive)
REMARK    1  A    between atoms: C3_3  and  N1_4 
REMARK       I    between atoms: N1_4  and  C4_6 
REMARK       I    between atoms: C4_6  and  N3_10 
REMARK    2  A    between atoms: N3_10  and  N4_12 
REMARK    3  A    between atoms: N4_12  and  N5_14 
ROOT
HETATM    1  C1  UNL     1       3.640  24.742  24.765  1.00  0.00     0.014 C 
HETATM    2  C2  UNL     1       3.172  24.277  25.781  1.00  0.00    -0.097 C 
HETATM    3  C3  UNL     1       2.630  23.707  27.039  1.00  0.00     0.231 C 
ENDROOT
BRANCH   3   4
HETATM    4  N1  UNL     1       2.522  24.756  28.047  1.00  0.00    -0.215 N 
HETATM    5  C4  UNL     1       2.066  24.498  29.339  1.00  0.00     0.690 C 
HETATM    6  N2  UNL     1       2.731  25.032  30.304  1.00  0.00    -0.229 N 
HETATM    7  N3  UNL     1       0.951  23.706  29.615  1.00  0.00    -0.113 N 
HETATM    8  C5  UNL     1       2.449  24.904  31.701  1.00  0.00     0.165 C 
ATOM      9  H2  UNL     1       3.536  25.603  30.048  1.00  0.00     0.177 HD
ATOM     10  H3  UNL     1       1.127  22.726  29.837  1.00  0.00     0.207 HD
ATOM     11  H1  UNL     1       2.789  25.709  27.799  1.00  0.00     0.178 HD
BRANCH   7  12
HETATM   12  N4  UNL     1      -0.384  24.123  29.617  1.00  0.00    -0.168 N 
ATOM     13  H4  UNL     1      -0.621  25.095  29.817  1.00  0.00     0.215 HD
BRANCH  12  14
HETATM   14  N5  UNL     1      -1.384  23.199  29.346  1.00  0.00    -0.023 N 
HETATM   15  O1  UNL     1      -1.101  22.054  28.979  1.00  0.00    -0.515 OA
HETATM   16  O2  UNL     1      -2.693  23.544  29.478  1.00  0.00    -0.515 OA
ENDBRANCH  12  14
ENDBRANCH   7  12
ENDBRANCH   3   4
TORSDOF 3
ENDMDL
MODEL 3
REMARK VINA RESULT: -5.956038955      4.439      5.043
REMARK  3 active torsions:
REMARK  status: ('A' for Active; 'I' for Inactive)
REMARK    1  A    between atoms: C3_3  and  N1_4 
REMARK       I    between atoms: N1_4  and  C4_6 
REMARK       I    between atoms: C4_6  and  N3_10 
REMARK    2  A    between atoms: N3_10  and  N4_12 
REMARK    3  A    between atoms: N4_12  and  N5_14 
ROOT
HETATM    1  C1  UNL     1       4.949  22.369  28.234  1.00  0.00     0.014 C 
HETATM    2  C2  UNL     1       5.511  23.438  28.330  1.00  0.00    -0.097 C 
HETATM    3  C3  UNL     1       6.170  24.762  28.441  1.00  0.00     0.231 C 
ENDROOT
BRANCH   3   4
HETATM    4  N1  UNL     1       5.831  25.374  29.722  1.00  0.00    -0.215 N 
HETATM    5  C4  UNL     1       4.511  25.601  30.109  1.00  0.00     0.690 C 
HETATM    6  N2  UNL     1       4.201  25.287  31.318  1.00  0.00    -0.229 N 
HETATM    7  N3  UNL     1       3.545  26.139  29.258  1.00  0.00    -0.113 N 
HETATM    8  C5  UNL     1       2.915  25.430  31.928  1.00  0.00     0.165 C 
ATOM      9  H2  UNL     1       4.945  24.899  31.899  1.00  0.00     0.177 HD
ATOM     10  H3  UNL     1       2.940  25.477  28.772  1.00  0.00     0.207 HD
ATOM     11  H1  UNL     1       6.584  25.644  30.355  1.00  0.00     0.178 HD
BRANCH   7  12
HETATM   12  N4  UNL     1       3.323  27.497  29.007  1.00  0.00    -0.168 N 
ATOM     13  H4  UNL     1       2.658  27.788  28.290  1.00  0.00     0.215 HD
BRANCH  12  14
HETATM   14  N5  UNL     1       4.018  28.446  29.744  1.00  0.00    -0.023 N 
HETATM   15  O1  UNL     1       3.430  29.170  30.554  1.00  0.00    -0.515 OA
HETATM   16  O2  UNL     1       5.361  28.594  29.582  1.00  0.00    -0.515 OA
ENDBRANCH  12  14
ENDBRANCH   7  12
ENDBRANCH   3   4
TORSDOF 3
ENDMDL
MODEL 4
REMARK VINA RESULT: -5.822021359      4.659      5.378
REMARK  3 active torsions:
REMARK  status: ('A' for Active; 'I' for Inactive)
REMARK    1  A    between atoms: C3_3  and  N1_4 
REMARK       I    between atoms: N1_4  and  C4_6 
REMARK       I    between atoms: C4_6  and  N3_10 
REMARK    2  A    between atoms: N3_10  and  N4_12 
REMARK    3  A    between atoms: N4_12  and  N5_14 
ROOT
HETATM    1  C1  UNL     1       7.772  26.426  27.069  1.00  0.00     0.014 C 
HETATM    2  C2  UNL     1       7.049  25.676  27.690  1.00  0.00    -0.097 C 
HETATM    3  C3  UNL     1       6.192  24.750  28.469  1.00  0.00     0.231 C 
ENDROOT
BRANCH   3   4
HETATM    4  N1  UNL     1       5.839  25.363  29.745  1.00  0.00    -0.215 N 
HETATM    5  C4  UNL     1       4.514  25.581  30.121  1.00  0.00     0.690 C 
HETATM    6  N2  UNL     1       4.197  25.269  31.329  1.00  0.00    -0.229 N 
HETATM    7  N3  UNL     1       3.551  26.110  29.261  1.00  0.00    -0.113 N 
HETATM    8  C5  UNL     1       2.906  25.404  31.929  1.00  0.00     0.165 C 
ATOM      9  H2  UNL     1       4.940  24.888  31.916  1.00  0.00     0.177 HD
ATOM     10  H3  UNL     1       2.955  25.442  28.772  1.00  0.00     0.207 HD
ATOM     11  H1  UNL     1       6.585  25.641  30.383  1.00  0.00     0.178 HD
BRANCH   7  12
HETATM   12  N4  UNL     1       3.321  27.466  29.004  1.00  0.00    -0.168 N 
ATOM     13  H4  UNL     1       2.651  27.749  28.289  1.00  0.00     0.215 HD
BRANCH  12  14
HETATM   14  N5  UNL     1       4.015  28.422  29.733  1.00  0.00    -0.023 N 
HETATM   15  O1  UNL     1       3.421  29.169  30.518  1.00  0.00    -0.515 OA
HETATM   16  O2  UNL     1       5.361  28.551  29.591  1.00  0.00    -0.515 OA
ENDBRANCH  12  14
ENDBRANCH   7  12
ENDBRANCH   3   4
TORSDOF 3
ENDMDL
MODEL 5
REMARK VINA RESULT: -5.778994197      1.819      1.987
REMARK  3 active torsions:
REMARK  status: ('A' for Active; 'I' for Inactive)
REMARK    1  A    between atoms: C3_3  and  N1_4 
REMARK       I    between atoms: N1_4  and  C4_6 
REMARK       I    between atoms: C4_6  and  N3_10 
REMARK    2  A    between atoms: N3_10  and  N4_12 
REMARK    3  A    between atoms: N4_12  and  N5_14 
ROOT
HETATM    1  C1  UNL     1       5.771  25.052  26.773  1.00  0.00     0.014 C 
HETATM    2  C2  UNL     1       4.603  25.374  26.760  1.00  0.00    -0.097 C 
HETATM    3  C3  UNL     1       3.166  25.742  26.762  1.00  0.00     0.231 C 
ENDROOT
BRANCH   3   4
HETATM    4  N1  UNL     1       2.826  26.387  28.027  1.00  0.00    -0.215 N 
HETATM    5  C4  UNL     1       2.811  25.689  29.233  1.00  0.00     0.690 C 
HETATM    6  N2  UNL     1       3.362  26.268  30.243  1.00  0.00    -0.229 N 
HETATM    7  N3  UNL     1       2.238  24.426  29.381  1.00  0.00    -0.113 N 
HETATM    8  C5  UNL     1       3.464  25.743  31.570  1.00  0.00     0.165 C 
ATOM      9  H2  UNL     1       3.764  27.191  30.081  1.00  0.00     0.177 HD
ATOM     10  H3  UNL     1       2.865  23.624  29.307  1.00  0.00     0.207 HD
ATOM     11  H1  UNL     1       2.592  27.380  28.028  1.00  0.00     0.178 HD
BRANCH   7  12
HETATM   12  N4  UNL     1       0.887  24.149  29.621  1.00  0.00    -0.168 N 
ATOM     13  H4  UNL     1       0.361  24.696  30.302  1.00  0.00     0.215 HD
BRANCH  12  14
HETATM   14  N5  UNL     1       0.271  23.120  28.922  1.00  0.00    -0.023 N 
HETATM   15  O1  UNL     1       0.730  22.728  27.844  1.00  0.00    -0.515 OA
HETATM   16  O2  UNL     1      -0.850  22.529  29.414  1.00  0.00    -0.515 OA
ENDBRANCH  12  14
ENDBRANCH   7  12
ENDBRANCH   3   4
TORSDOF 3
ENDMDL
