MODEL 1
REMARK VINA RESULT: -5.834733551      0.000      0.000
REMARK  3 active torsions:
REMARK  status: ('A' for Active; 'I' for Inactive)
REMARK    1  A    between atoms: N3_4  and  N4_6 
REMARK       I    between atoms: C2_8  and  N6_10 
REMARK    2  A    between atoms: N6_10  and  C3_12 
REMARK    3  A    between atoms: C3_12  and  C4_13 
ROOT
HETATM    1  N4  UNL     1       2.279  24.661  29.812  1.00  0.00    -0.272 N 
ATOM      2  H4  UNL     1       2.644  24.807  28.872  1.00  0.00     0.189 HD
HETATM    3  C2  UNL     1       3.036  24.974  30.784  1.00  0.00     0.203 C 
HETATM    4  N5  UNL     1       2.580  24.790  32.099  1.00  0.00    -0.062 NA
HETATM    5  N6  UNL     1       4.324  25.503  30.583  1.00  0.00    -0.363 N 
ATOM      6  H6  UNL     1       4.605  26.290  31.168  1.00  0.00     0.162 HD
ENDROOT
BRANCH   1   7
HETATM    7  N3  UNL     1       0.996  24.135  29.919  1.00  0.00    -0.274 N 
HETATM    8  C1  UNL     1       0.430  23.339  29.100  1.00  0.00     0.215 C 
HETATM    9  N1  UNL     1       1.080  22.858  27.901  1.00  0.00    -0.065 NA
HETATM   10  N2  UNL     1      -0.884  22.850  29.287  1.00  0.00    -0.065 NA
ATOM     11  H3  UNL     1       0.453  24.415  30.736  1.00  0.00     0.189 HD
ENDBRANCH   1   7
BRANCH   5  12
HETATM   12  C3  UNL     1       5.271  25.021  29.621  1.00  0.00     0.127 C 
BRANCH  12  13
HETATM   13  C4  UNL     1       5.647  23.580  29.819  1.00  0.00     0.003 A 
HETATM   14  C5  UNL     1       6.708  23.089  28.846  1.00  0.00     0.007 A 
HETATM   15  C6  UNL     1       5.301  22.534  28.847  1.00  0.00     0.007 A 
ENDBRANCH  12  13
ENDBRANCH   5  12
TORSDOF 3
ENDMDL
MODEL 2
REMARK VINA RESULT: -5.834388834      1.193      1.945
REMARK  3 active torsions:
REMARK  status: ('A' for Active; 'I' for Inactive)
REMARK    1  A    between atoms: N3_4  and  N4_6 
REMARK       I    between atoms: C2_8  and  N6_10 
REMARK    2  A    between atoms: N6_10  and  C3_12 
REMARK    3  A    between atoms: C3_12  and  C4_13 
ROOT
HETATM    1  N4  UNL     1       2.282  24.704  29.812  1.00  0.00    -0.272 N 
ATOM      2  H4  UNL     1       2.616  24.916  28.872  1.00  0.00     0.189 HD
HETATM    3  C2  UNL     1       3.058  24.981  30.780  1.00  0.00     0.203 C 
HETATM    4  N5  UNL     1       2.645  24.708  32.093  1.00  0.00    -0.062 NA
HETATM    5  N6  UNL     1       4.325  25.558  30.576  1.00  0.00    -0.363 N 
ATOM      6  H6  UNL     1       4.601  26.317  31.198  1.00  0.00     0.162 HD
ENDROOT
BRANCH   1   7
HETATM    7  N3  UNL     1       1.018  24.136  29.922  1.00  0.00    -0.274 N 
HETATM    8  C1  UNL     1       0.470  23.334  29.096  1.00  0.00     0.215 C 
HETATM    9  N1  UNL     1       1.125  22.891  27.885  1.00  0.00    -0.065 NA
HETATM   10  N2  UNL     1      -0.826  22.801  29.286  1.00  0.00    -0.065 NA
ATOM     11  H3  UNL     1       0.473  24.387  30.747  1.00  0.00     0.189 HD
ENDBRANCH   1   7
BRANCH   5  12
HETATM   12  C3  UNL     1       5.257  25.161  29.562  1.00  0.00     0.127 C 
BRANCH  12  13
HETATM   13  C4  UNL     1       5.610  26.265  28.607  1.00  0.00     0.003 A 
HETATM   14  C5  UNL     1       7.100  26.369  28.322  1.00  0.00     0.007 A 
HETATM   15  C6  UNL     1       6.339  27.469  29.028  1.00  0.00     0.007 A 
ENDBRANCH  12  13
ENDBRANCH   5  12
TORSDOF 3
ENDMDL
MODEL 3
REMARK VINA RESULT: -5.571191078      2.298      5.318
REMARK  3 active torsions:
REMARK  status: ('A' for Active; 'I' for Inactive)
REMARK    1  A    between atoms: N3_4  and  N4_6 
REMARK       I    between atoms: C2_8  and  N6_10 
REMARK    2  A    between atoms: N6_10  and  C3_12 
REMARK    3  A    between atoms: C3_12  and  C4_13 
ROOT
HETATM    1  N4  UNL     1       4.160  25.854  29.388  1.00  0.00    -0.272 N 
ATOM      2  H4  UNL     1       3.265  26.182  29.025  1.00  0.00     0.189 HD
HETATM    3  C2  UNL     1       4.203  24.669  29.845  1.00  0.00     0.203 C 
HETATM    4  N5  UNL     1       5.411  24.172  30.358  1.00  0.00    -0.062 NA
HETATM    5  N6  UNL     1       3.071  23.834  29.853  1.00  0.00    -0.363 N 
ATOM      6  H6  UNL     1       3.201  22.863  29.571  1.00  0.00     0.162 HD
ENDROOT
BRANCH   1   7
HETATM    7  N3  UNL     1       5.227  26.744  29.340  1.00  0.00    -0.274 N 
HETATM    8  C1  UNL     1       5.178  28.002  29.543  1.00  0.00     0.215 C 
HETATM    9  N1  UNL     1       3.950  28.694  29.865  1.00  0.00    -0.065 NA
HETATM   10  N2  UNL     1       6.317  28.837  29.475  1.00  0.00    -0.065 NA
ATOM     11  H3  UNL     1       6.143  26.352  29.120  1.00  0.00     0.189 HD
ENDBRANCH   1   7
BRANCH   5  12
HETATM   12  C3  UNL     1       1.749  24.243  30.228  1.00  0.00     0.127 C 
BRANCH  12  13
HETATM   13  C4  UNL     1       0.751  24.148  29.109  1.00  0.00     0.003 A 
HETATM   14  C5  UNL     1      -0.422  23.231  29.416  1.00  0.00     0.007 A 
HETATM   15  C6  UNL     1       0.570  22.924  28.316  1.00  0.00     0.007 A 
ENDBRANCH  12  13
ENDBRANCH   5  12
TORSDOF 3
ENDMDL
MODEL 4
REMARK VINA RESULT: -5.561195057      1.825      2.432
REMARK  3 active torsions:
REMARK  status: ('A' for Active; 'I' for Inactive)
REMARK    1  A    between atoms: N3_4  and  N4_6 
REMARK       I    between atoms: C2_8  and  N6_10 
REMARK    2  A    between atoms: N6_10  and  C3_12 
REMARK    3  A    between atoms: C3_12  and  C4_13 
ROOT
HETATM    1  N4  UNL     1       1.386  23.580  29.104  1.00  0.00    -0.272 N 
ATOM      2  H4  UNL     1       1.745  22.648  29.310  1.00  0.00     0.189 HD
HETATM    3  C2  UNL     1       2.190  24.406  28.568  1.00  0.00     0.203 C 
HETATM    4  N5  UNL     1       1.745  25.703  28.266  1.00  0.00    -0.062 NA
HETATM    5  N6  UNL     1       3.519  24.060  28.265  1.00  0.00    -0.363 N 
ATOM      6  H6  UNL     1       3.889  24.358  27.362  1.00  0.00     0.162 HD
ENDROOT
BRANCH   1   7
HETATM    7  N3  UNL     1       0.060  23.837  29.435  1.00  0.00    -0.274 N 
HETATM    8  C1  UNL     1      -0.949  23.114  29.145  1.00  0.00     0.215 C 
HETATM    9  N1  UNL     1      -0.839  21.878  28.402  1.00  0.00    -0.065 NA
HETATM   10  N2  UNL     1      -2.270  23.450  29.524  1.00  0.00    -0.065 NA
ATOM     11  H3  UNL     1      -0.123  24.690  29.964  1.00  0.00     0.189 HD
ENDBRANCH   1   7
BRANCH   5  12
HETATM   12  C3  UNL     1       4.394  23.320  29.127  1.00  0.00     0.127 C 
BRANCH  12  13
HETATM   13  C4  UNL     1       5.038  24.160  30.192  1.00  0.00     0.003 A 
HETATM   14  C5  UNL     1       4.919  23.569  31.588  1.00  0.00     0.007 A 
HETATM   15  C6  UNL     1       4.258  24.877  31.211  1.00  0.00     0.007 A 
ENDBRANCH  12  13
ENDBRANCH   5  12
TORSDOF 3
ENDMDL
MODEL 5
REMARK VINA RESULT: -5.517283725      3.629      5.914
REMARK  3 active torsions:
REMARK  status: ('A' for Active; 'I' for Inactive)
REMARK    1  A    between atoms: N3_4  and  N4_6 
REMARK       I    between atoms: C2_8  and  N6_10 
REMARK    2  A    between atoms: N6_10  and  C3_12 
REMARK    3  A    between atoms: C3_12  and  C4_13 
ROOT
HETATM    1  N4  UNL     1       6.122  26.538  29.120  1.00  0.00    -0.272 N 
ATOM      2  H4  UNL     1       5.740  25.598  29.016  1.00  0.00     0.189 HD
HETATM    3  C2  UNL     1       5.298  27.475  29.360  1.00  0.00     0.203 C 
HETATM    4  N5  UNL     1       5.773  28.788  29.510  1.00  0.00    -0.062 NA
HETATM    5  N6  UNL     1       3.917  27.239  29.481  1.00  0.00    -0.363 N 
ATOM      6  H6  UNL     1       3.424  27.708  30.241  1.00  0.00     0.162 HD
ENDROOT
BRANCH   1   7
HETATM    7  N3  UNL     1       7.498  26.681  28.987  1.00  0.00    -0.274 N 
HETATM    8  C1  UNL     1       8.313  25.810  28.535  1.00  0.00     0.215 C 
HETATM    9  N1  UNL     1       7.890  24.503  28.083  1.00  0.00    -0.065 NA
HETATM   10  N2  UNL     1       9.705  26.040  28.433  1.00  0.00    -0.065 NA
ATOM     11  H3  UNL     1       7.897  27.573  29.279  1.00  0.00     0.189 HD
ENDBRANCH   1   7
BRANCH   5  12
HETATM   12  C3  UNL     1       3.148  26.390  28.618  1.00  0.00     0.127 C 
BRANCH  12  13
HETATM   13  C4  UNL     1       3.025  24.979  29.119  1.00  0.00     0.003 A 
HETATM   14  C5  UNL     1       1.586  24.524  29.307  1.00  0.00     0.007 A 
HETATM   15  C6  UNL     1       2.543  24.661  30.471  1.00  0.00     0.007 A 
ENDBRANCH  12  13
ENDBRANCH   5  12
TORSDOF 3
ENDMDL
