MODEL 1
REMARK VINA RESULT: -6.301217459      0.000      0.000
REMARK  4 active torsions:
REMARK  status: ('A' for Active; 'I' for Inactive)
REMARK    1  A    between atoms: N1_2  and  C2_5 
REMARK    2  A    between atoms: N2_8  and  C5_9 
REMARK    3  A    between atoms: C5_9  and  C6_10 
REMARK    4  A    between atoms: N4_12  and  N5_14 
ROOT
HETATM    1  C2  UNL     1       3.465  26.661  29.781  1.00  0.00     0.215 C 
HETATM    2  C3  UNL     1       3.953  25.609  30.765  1.00  0.00     0.065 C 
HETATM    3  C4  UNL     1       2.829  24.612  30.696  1.00  0.00     0.275 C 
HETATM    4  N2  UNL     1       2.087  24.881  29.457  1.00  0.00     0.097 N 
HETATM    5  C7  UNL     1       2.994  25.693  28.667  1.00  0.00     0.305 C 
ENDROOT
BRANCH   4   6
HETATM    6  C5  UNL     1       1.741  23.627  28.814  1.00  0.00     0.346 C 
BRANCH   6   7
HETATM    7  C6  UNL     1       0.298  23.346  28.935  1.00  0.00     0.135 C 
HETATM    8  N3  UNL     1      -0.252  22.181  28.308  1.00  0.00    -0.084 NA
HETATM    9  N4  UNL     1      -0.526  24.085  29.584  1.00  0.00    -0.296 N 
ATOM     10  H4  UNL     1      -0.170  24.920  30.049  1.00  0.00     0.187 HD
BRANCH   9  11
HETATM   11  N5  UNL     1      -1.877  23.798  29.682  1.00  0.00    -0.344 N 
ATOM     12  H52 UNL     1      -2.184  22.870  29.393  1.00  0.00     0.176 HD
ATOM     13  H51 UNL     1      -2.562  24.471  30.025  1.00  0.00     0.176 HD
ENDBRANCH   9  11
ENDBRANCH   6   7
ENDBRANCH   4   6
BRANCH   1  14
HETATM   14  N1  UNL     1       4.511  27.499  29.291  1.00  0.00    -0.073 N 
HETATM   15  C1  UNL     1       5.619  26.726  28.803  1.00  0.00     0.267 C 
ATOM     16  H12 UNL     1       4.809  28.175  29.995  1.00  0.00     0.277 HD
ATOM     17  H11 UNL     1       4.168  28.149  28.584  1.00  0.00     0.277 HD
ENDBRANCH   1  14
TORSDOF 4
ENDMDL
MODEL 2
REMARK VINA RESULT: -5.986098095      1.618      5.687
REMARK  4 active torsions:
REMARK  status: ('A' for Active; 'I' for Inactive)
REMARK    1  A    between atoms: N1_2  and  C2_5 
REMARK    2  A    between atoms: N2_8  and  C5_9 
REMARK    3  A    between atoms: C5_9  and  C6_10 
REMARK    4  A    between atoms: N4_12  and  N5_14 
ROOT
HETATM    1  C2  UNL     1       2.235  24.334  30.045  1.00  0.00     0.215 C 
HETATM    2  C3  UNL     1       2.423  24.903  31.443  1.00  0.00     0.065 C 
HETATM    3  C4  UNL     1       3.660  25.736  31.247  1.00  0.00     0.275 C 
HETATM    4  N2  UNL     1       3.807  25.959  29.803  1.00  0.00     0.097 N 
HETATM    5  C7  UNL     1       2.500  25.641  29.258  1.00  0.00     0.305 C 
ENDROOT
BRANCH   4   6
HETATM    6  C5  UNL     1       4.204  27.333  29.559  1.00  0.00     0.346 C 
BRANCH   6   7
HETATM    7  C6  UNL     1       5.658  27.436  29.334  1.00  0.00     0.135 C 
HETATM    8  N3  UNL     1       6.285  28.725  29.327  1.00  0.00    -0.084 NA
HETATM    9  N4  UNL     1       6.429  26.428  29.146  1.00  0.00    -0.296 N 
ATOM     10  H4  UNL     1       6.020  25.494  29.150  1.00  0.00     0.187 HD
BRANCH   9  11
HETATM   11  N5  UNL     1       7.792  26.553  28.936  1.00  0.00    -0.344 N 
ATOM     12  H52 UNL     1       8.212  27.469  29.098  1.00  0.00     0.176 HD
ATOM     13  H51 UNL     1       8.379  25.777  28.632  1.00  0.00     0.176 HD
ENDBRANCH   9  11
ENDBRANCH   6   7
ENDBRANCH   4   6
BRANCH   1  14
HETATM   14  N1  UNL     1       0.905  23.875  29.801  1.00  0.00    -0.073 N 
HETATM   15  C1  UNL     1       0.827  23.121  28.581  1.00  0.00     0.267 C 
ATOM     16  H12 UNL     1       0.237  24.646  29.806  1.00  0.00     0.277 HD
ATOM     17  H11 UNL     1       0.542  23.345  30.592  1.00  0.00     0.277 HD
ENDBRANCH   1  14
TORSDOF 4
ENDMDL
MODEL 3
REMARK VINA RESULT: -5.734453795      1.733      2.134
REMARK  4 active torsions:
REMARK  status: ('A' for Active; 'I' for Inactive)
REMARK    1  A    between atoms: N1_2  and  C2_5 
REMARK    2  A    between atoms: N2_8  and  C5_9 
REMARK    3  A    between atoms: C5_9  and  C6_10 
REMARK    4  A    between atoms: N4_12  and  N5_14 
ROOT
HETATM    1  C2  UNL     1       4.617  24.589  29.080  1.00  0.00     0.215 C 
HETATM    2  C3  UNL     1       4.173  26.040  28.985  1.00  0.00     0.065 C 
HETATM    3  C4  UNL     1       2.720  25.870  28.634  1.00  0.00     0.275 C 
HETATM    4  N2  UNL     1       2.347  24.494  28.988  1.00  0.00     0.097 N 
HETATM    5  C7  UNL     1       3.404  24.057  29.881  1.00  0.00     0.305 C 
ENDROOT
BRANCH   4   6
HETATM    6  C5  UNL     1       1.037  24.489  29.611  1.00  0.00     0.346 C 
BRANCH   6   7
HETATM    7  C6  UNL     1       0.195  23.404  29.075  1.00  0.00     0.135 C 
HETATM    8  N3  UNL     1       0.752  22.468  28.144  1.00  0.00    -0.084 NA
HETATM    9  N4  UNL     1      -1.035  23.225  29.395  1.00  0.00    -0.296 N 
ATOM     10  H4  UNL     1      -1.464  23.867  30.060  1.00  0.00     0.187 HD
BRANCH   9  11
HETATM   11  N5  UNL     1      -1.804  22.197  28.876  1.00  0.00    -0.344 N 
ATOM     12  H52 UNL     1      -2.684  21.983  29.345  1.00  0.00     0.176 HD
ATOM     13  H51 UNL     1      -1.525  21.657  28.057  1.00  0.00     0.176 HD
ENDBRANCH   9  11
ENDBRANCH   6   7
ENDBRANCH   4   6
BRANCH   1  14
HETATM   14  N1  UNL     1       5.817  24.417  29.835  1.00  0.00    -0.073 N 
HETATM   15  C1  UNL     1       5.914  23.089  30.371  1.00  0.00     0.267 C 
ATOM     16  H12 UNL     1       5.901  25.122  30.567  1.00  0.00     0.277 HD
ATOM     17  H11 UNL     1       6.641  24.660  29.286  1.00  0.00     0.277 HD
ENDBRANCH   1  14
TORSDOF 4
ENDMDL
MODEL 4
REMARK VINA RESULT: -5.687674583      1.751      5.166
REMARK  4 active torsions:
REMARK  status: ('A' for Active; 'I' for Inactive)
REMARK    1  A    between atoms: N1_2  and  C2_5 
REMARK    2  A    between atoms: N2_8  and  C5_9 
REMARK    3  A    between atoms: C5_9  and  C6_10 
REMARK    4  A    between atoms: N4_12  and  N5_14 
ROOT
HETATM    1  C2  UNL     1       2.143  23.729  27.877  1.00  0.00     0.215 C 
HETATM    2  C3  UNL     1       3.540  23.129  27.823  1.00  0.00     0.065 C 
HETATM    3  C4  UNL     1       4.383  24.350  28.073  1.00  0.00     0.275 C 
HETATM    4  N2  UNL     1       3.507  25.366  28.671  1.00  0.00     0.097 N 
HETATM    5  C7  UNL     1       2.352  24.616  29.129  1.00  0.00     0.305 C 
ENDROOT
BRANCH   4   6
HETATM    6  C5  UNL     1       4.209  26.042  29.746  1.00  0.00     0.346 C 
BRANCH   6   7
HETATM    7  C6  UNL     1       4.106  27.507  29.612  1.00  0.00     0.135 C 
HETATM    8  N3  UNL     1       5.294  28.307  29.646  1.00  0.00    -0.084 NA
HETATM    9  N4  UNL     1       3.000  28.138  29.456  1.00  0.00    -0.296 N 
ATOM     10  H4  UNL     1       2.133  27.602  29.422  1.00  0.00     0.187 HD
BRANCH   9  11
HETATM   11  N5  UNL     1       2.932  29.516  29.333  1.00  0.00    -0.344 N 
ATOM     12  H52 UNL     1       3.059  29.913  28.403  1.00  0.00     0.176 HD
ATOM     13  H51 UNL     1       2.763  30.134  30.126  1.00  0.00     0.176 HD
ENDBRANCH   9  11
ENDBRANCH   6   7
ENDBRANCH   4   6
BRANCH   1  14
HETATM   14  N1  UNL     1       1.126  22.760  28.128  1.00  0.00    -0.073 N 
HETATM   15  C1  UNL     1       0.147  23.254  29.055  1.00  0.00     0.267 C 
ATOM     16  H12 UNL     1       1.522  21.874  28.440  1.00  0.00     0.277 HD
ATOM     17  H11 UNL     1       0.692  22.442  27.261  1.00  0.00     0.277 HD
ENDBRANCH   1  14
TORSDOF 4
ENDMDL
MODEL 5
REMARK VINA RESULT: -5.681191653      1.455      1.807
REMARK  4 active torsions:
REMARK  status: ('A' for Active; 'I' for Inactive)
REMARK    1  A    between atoms: N1_2  and  C2_5 
REMARK    2  A    between atoms: N2_8  and  C5_9 
REMARK    3  A    between atoms: C5_9  and  C6_10 
REMARK    4  A    between atoms: N4_12  and  N5_14 
ROOT
HETATM    1  C2  UNL     1       4.809  25.076  28.772  1.00  0.00     0.215 C 
HETATM    2  C3  UNL     1       4.141  26.439  28.858  1.00  0.00     0.065 C 
HETATM    3  C4  UNL     1       2.696  26.059  28.686  1.00  0.00     0.275 C 
HETATM    4  N2  UNL     1       2.590  24.622  28.970  1.00  0.00     0.097 N 
HETATM    5  C7  UNL     1       3.817  24.307  29.678  1.00  0.00     0.305 C 
ENDROOT
BRANCH   4   6
HETATM    6  C5  UNL     1       1.398  24.367  29.757  1.00  0.00     0.346 C 
BRANCH   6   7
HETATM    7  C6  UNL     1       0.490  23.434  29.064  1.00  0.00     0.135 C 
HETATM    8  N3  UNL     1       0.922  22.787  27.860  1.00  0.00    -0.084 NA
HETATM    9  N4  UNL     1      -0.690  23.142  29.474  1.00  0.00    -0.296 N 
ATOM     10  H4  UNL     1      -1.030  23.578  30.331  1.00  0.00     0.187 HD
BRANCH   9  11
HETATM   11  N5  UNL     1      -1.523  22.262  28.804  1.00  0.00    -0.344 N 
ATOM     12  H52 UNL     1      -1.415  22.189  27.792  1.00  0.00     0.176 HD
ATOM     13  H51 UNL     1      -2.225  21.696  29.278  1.00  0.00     0.176 HD
ENDBRANCH   9  11
ENDBRANCH   6   7
ENDBRANCH   4   6
BRANCH   1  14
HETATM   14  N1  UNL     1       6.116  25.054  29.346  1.00  0.00    -0.073 N 
HETATM   15  C1  UNL     1       7.042  25.832  28.572  1.00  0.00     0.267 C 
ATOM     16  H12 UNL     1       6.450  24.100  29.478  1.00  0.00     0.277 HD
ATOM     17  H11 UNL     1       6.100  25.353  30.321  1.00  0.00     0.277 HD
ENDBRANCH   1  14
TORSDOF 4
ENDMDL
