MODEL 1
REMARK VINA RESULT: -7.846681480      0.000      0.000
REMARK  6 active torsions:
REMARK  status: ('A' for Active; 'I' for Inactive)
REMARK    1  A    between atoms: O1_2  and  C2_3 
REMARK    2  A    between atoms: N1_5  and  O2_6 
REMARK    3  A    between atoms: C7_11  and  N2_12 
REMARK    4  A    between atoms: N2_12  and  C8_14 
REMARK    5  A    between atoms: C12_20  and  N4_21 
REMARK    6  A    between atoms: N4_21  and  C13_23 
ROOT
HETATM    1  C8  UNL     1      -3.833   4.515  13.464  1.00  0.00     0.684 A 
HETATM    2  N3  UNL     1      -4.141   5.765  13.853  1.00  0.00    -0.201 N 
ATOM      3  H3  UNL     1      -5.098   5.977  14.134  1.00  0.00     0.183 HD
HETATM    4  C9  UNL     1      -3.207   6.751  13.883  1.00  0.00     0.116 A 
HETATM    5  C10 UNL     1      -1.916   6.437  13.498  1.00  0.00    -0.001 A 
HETATM    6  C11 UNL     1      -0.852   7.473  13.508  1.00  0.00     0.054 C 
HETATM    7  C12 UNL     1      -1.589   5.158  13.096  1.00  0.00     0.129 A 
HETATM    8  N7  UNL     1      -2.568   4.238  13.094  1.00  0.00    -0.176 N 
ATOM      9  H7  UNL     1      -2.343   3.288  12.800  1.00  0.00     0.186 HD
ENDROOT
BRANCH   1  10
HETATM   10  N2  UNL     1      -4.698   3.584  13.432  1.00  0.00    -0.189 N 
ATOM     11  H2  UNL     1      -5.295   3.545  12.605  1.00  0.00     0.184 HD
BRANCH  10  12
HETATM   12  C7  UNL     1      -4.918   2.613  14.405  1.00  0.00     0.086 A 
HETATM   13  C2  UNL     1      -4.416   1.341  14.246  1.00  0.00     0.113 A 
HETATM   14  C3  UNL     1      -4.646   0.386  15.228  1.00  0.00     0.162 A 
HETATM   15  N1  UNL     1      -5.362   0.709  16.338  1.00  0.00    -0.238 N 
HETATM   16  C4  UNL     1      -5.858   1.946  16.507  1.00  0.00     0.038 A 
HETATM   17  C5  UNL     1      -6.648   2.278  17.746  1.00  0.00     0.071 C 
HETATM   18  C6  UNL     1      -5.639   2.897  15.546  1.00  0.00     0.060 A 
BRANCH  13  19
HETATM   19  O1  UNL     1      -3.695   1.086  13.089  1.00  0.00    -0.352 OA
HETATM   20  C1  UNL     1      -4.221   0.160  12.160  1.00  0.00     0.210 C 
ENDBRANCH  13  19
BRANCH  15  21
HETATM   21  O2  UNL     1      -5.605  -0.214  17.327  1.00  0.00    -0.283 OA
ATOM     22  H2  UNL     1      -5.007  -0.326  18.057  1.00  0.00     0.245 HD
ENDBRANCH  15  21
ENDBRANCH  10  12
ENDBRANCH   1  10
BRANCH   7  23
HETATM   23  N4  UNL     1      -0.383   4.899  12.745  1.00  0.00    -0.339 N 
ATOM     24  H4  UNL     1       0.306   4.772  13.487  1.00  0.00     0.167 HD
BRANCH  23  25
HETATM   25  C13 UNL     1       0.062   4.778  11.421  1.00  0.00     0.068 A 
HETATM   26  C14 UNL     1      -0.486   5.245  10.244  1.00  0.00     0.138 A 
HETATM   27  N5  UNL     1       0.344   4.851   9.262  1.00  0.00    -0.308 N 
HETATM   28  N6  UNL     1       1.364   4.179   9.721  1.00  0.00    -0.306 N 
ATOM     29  H5  UNL     1       0.194   5.054   8.273  1.00  0.00     0.186 HD
HETATM   30  C15 UNL     1       2.481   3.581   8.996  1.00  0.00     0.177 C 
HETATM   31  C16 UNL     1       1.216   4.117  11.055  1.00  0.00     0.140 A 
ENDBRANCH  23  25
ENDBRANCH   7  23
TORSDOF 6
ENDMDL
MODEL 2
REMARK VINA RESULT: -7.620010573      0.507      1.010
REMARK  6 active torsions:
REMARK  status: ('A' for Active; 'I' for Inactive)
REMARK    1  A    between atoms: O1_2  and  C2_3 
REMARK    2  A    between atoms: N1_5  and  O2_6 
REMARK    3  A    between atoms: C7_11  and  N2_12 
REMARK    4  A    between atoms: N2_12  and  C8_14 
REMARK    5  A    between atoms: C12_20  and  N4_21 
REMARK    6  A    between atoms: N4_21  and  C13_23 
ROOT
HETATM    1  C8  UNL     1      -3.840   4.567  13.520  1.00  0.00     0.684 A 
HETATM    2  N3  UNL     1      -4.154   5.815  13.912  1.00  0.00    -0.201 N 
ATOM      3  H3  UNL     1      -5.114   6.024  14.186  1.00  0.00     0.183 HD
HETATM    4  C9  UNL     1      -3.223   6.803  13.951  1.00  0.00     0.116 A 
HETATM    5  C10 UNL     1      -1.929   6.494  13.574  1.00  0.00    -0.001 A 
HETATM    6  C11 UNL     1      -0.867   7.532  13.596  1.00  0.00     0.054 C 
HETATM    7  C12 UNL     1      -1.596   5.217  13.170  1.00  0.00     0.129 A 
HETATM    8  N7  UNL     1      -2.572   4.295  13.158  1.00  0.00    -0.176 N 
ATOM      9  H7  UNL     1      -2.343   3.347  12.861  1.00  0.00     0.186 HD
ENDROOT
BRANCH   1  10
HETATM   10  N2  UNL     1      -4.703   3.635  13.478  1.00  0.00    -0.189 N 
ATOM     11  H2  UNL     1      -5.300   3.602  12.652  1.00  0.00     0.184 HD
BRANCH  10  12
HETATM   12  C7  UNL     1      -4.919   2.652  14.441  1.00  0.00     0.086 A 
HETATM   13  C2  UNL     1      -4.416   1.383  14.267  1.00  0.00     0.113 A 
HETATM   14  C3  UNL     1      -4.643   0.418  15.240  1.00  0.00     0.162 A 
HETATM   15  N1  UNL     1      -5.357   0.727  16.354  1.00  0.00    -0.238 N 
HETATM   16  C4  UNL     1      -5.855   1.961  16.538  1.00  0.00     0.038 A 
HETATM   17  C5  UNL     1      -6.643   2.279  17.781  1.00  0.00     0.071 C 
HETATM   18  C6  UNL     1      -5.639   2.923  15.587  1.00  0.00     0.060 A 
BRANCH  13  19
HETATM   19  O1  UNL     1      -3.697   1.142  13.106  1.00  0.00    -0.352 OA
HETATM   20  C1  UNL     1      -4.249   0.266  12.144  1.00  0.00     0.210 C 
ENDBRANCH  13  19
BRANCH  15  21
HETATM   21  O2  UNL     1      -5.597  -0.207  17.333  1.00  0.00    -0.283 OA
ATOM     22  H2  UNL     1      -5.719   0.047  18.240  1.00  0.00     0.245 HD
ENDBRANCH  15  21
ENDBRANCH  10  12
ENDBRANCH   1  10
BRANCH   7  23
HETATM   23  N4  UNL     1      -0.386   4.963  12.826  1.00  0.00    -0.339 N 
ATOM     24  H4  UNL     1       0.306   4.876  13.570  1.00  0.00     0.167 HD
BRANCH  23  25
HETATM   25  C13 UNL     1       0.058   4.794  11.507  1.00  0.00     0.068 A 
HETATM   26  C14 UNL     1       1.199   4.196  11.015  1.00  0.00     0.138 A 
HETATM   27  N5  UNL     1       1.133   4.306   9.676  1.00  0.00    -0.308 N 
HETATM   28  N6  UNL     1       0.049   4.921   9.287  1.00  0.00    -0.306 N 
ATOM     29  H5  UNL     1       1.846   3.952   9.039  1.00  0.00     0.186 HD
HETATM   30  C15 UNL     1      -0.399   5.243   7.936  1.00  0.00     0.177 C 
HETATM   31  C16 UNL     1      -0.636   5.235  10.400  1.00  0.00     0.140 A 
ENDBRANCH  23  25
ENDBRANCH   7  23
TORSDOF 6
ENDMDL
MODEL 3
REMARK VINA RESULT: -7.423010523      2.667      4.127
REMARK  6 active torsions:
REMARK  status: ('A' for Active; 'I' for Inactive)
REMARK    1  A    between atoms: O1_2  and  C2_3 
REMARK    2  A    between atoms: N1_5  and  O2_6 
REMARK    3  A    between atoms: C7_11  and  N2_12 
REMARK    4  A    between atoms: N2_12  and  C8_14 
REMARK    5  A    between atoms: C12_20  and  N4_21 
REMARK    6  A    between atoms: N4_21  and  C13_23 
ROOT
HETATM    1  C8  UNL     1      -3.816   4.326  13.204  1.00  0.00     0.684 A 
HETATM    2  N3  UNL     1      -2.676   4.436  13.909  1.00  0.00    -0.201 N 
ATOM      3  H3  UNL     1      -2.303   3.614  14.384  1.00  0.00     0.183 HD
HETATM    4  C9  UNL     1      -2.010   5.615  14.004  1.00  0.00     0.116 A 
HETATM    5  C10 UNL     1      -2.537   6.715  13.351  1.00  0.00    -0.001 A 
HETATM    6  C11 UNL     1      -1.854   8.032  13.417  1.00  0.00     0.054 C 
HETATM    7  C12 UNL     1      -3.706   6.613  12.625  1.00  0.00     0.129 A 
HETATM    8  N7  UNL     1      -4.306   5.412  12.579  1.00  0.00    -0.176 N 
ATOM      9  H7  UNL     1      -5.171   5.320  12.047  1.00  0.00     0.186 HD
ENDROOT
BRANCH   1  10
HETATM   10  N2  UNL     1      -4.449   3.227  13.109  1.00  0.00    -0.189 N 
ATOM     11  H2  UNL     1      -4.759   2.958  12.175  1.00  0.00     0.184 HD
BRANCH  10  12
HETATM   12  C7  UNL     1      -4.762   2.350  14.145  1.00  0.00     0.086 A 
HETATM   13  C2  UNL     1      -4.334   1.043  14.105  1.00  0.00     0.113 A 
HETATM   14  C3  UNL     1      -4.656   0.185  15.148  1.00  0.00     0.162 A 
HETATM   15  N1  UNL     1      -5.391   0.635  16.200  1.00  0.00    -0.238 N 
HETATM   16  C4  UNL     1      -5.816   1.908  16.252  1.00  0.00     0.038 A 
HETATM   17  C5  UNL     1      -6.629   2.384  17.428  1.00  0.00     0.071 C 
HETATM   18  C6  UNL     1      -5.505   2.765  15.230  1.00  0.00     0.060 A 
BRANCH  13  19
HETATM   19  O1  UNL     1      -3.588   0.655  13.001  1.00  0.00    -0.352 OA
HETATM   20  C1  UNL     1      -4.158  -0.269  12.096  1.00  0.00     0.210 C 
ENDBRANCH  13  19
BRANCH  15  21
HETATM   21  O2  UNL     1      -5.725  -0.190  17.246  1.00  0.00    -0.283 OA
ATOM     22  H2  UNL     1      -6.403  -0.850  17.158  1.00  0.00     0.245 HD
ENDBRANCH  15  21
ENDBRANCH  10  12
ENDBRANCH   1  10
BRANCH   7  23
HETATM   23  N4  UNL     1      -4.169   7.652  12.031  1.00  0.00    -0.339 N 
ATOM     24  H4  UNL     1      -3.670   8.532  12.164  1.00  0.00     0.167 HD
BRANCH  23  25
HETATM   25  C13 UNL     1      -5.307   7.671  11.212  1.00  0.00     0.068 A 
HETATM   26  C14 UNL     1      -6.615   7.998  11.503  1.00  0.00     0.138 A 
HETATM   27  N5  UNL     1      -7.303   7.849  10.356  1.00  0.00    -0.308 N 
HETATM   28  N6  UNL     1      -6.539   7.458   9.373  1.00  0.00    -0.306 N 
ATOM     29  H5  UNL     1      -8.304   8.021  10.266  1.00  0.00     0.186 HD
HETATM   30  C15 UNL     1      -6.888   7.182   7.983  1.00  0.00     0.177 C 
HETATM   31  C16 UNL     1      -5.297   7.339   9.873  1.00  0.00     0.140 A 
ENDBRANCH  23  25
ENDBRANCH   7  23
TORSDOF 6
ENDMDL
MODEL 4
REMARK VINA RESULT: -7.380201922      2.910      4.258
REMARK  6 active torsions:
REMARK  status: ('A' for Active; 'I' for Inactive)
REMARK    1  A    between atoms: O1_2  and  C2_3 
REMARK    2  A    between atoms: N1_5  and  O2_6 
REMARK    3  A    between atoms: C7_11  and  N2_12 
REMARK    4  A    between atoms: N2_12  and  C8_14 
REMARK    5  A    between atoms: C12_20  and  N4_21 
REMARK    6  A    between atoms: N4_21  and  C13_23 
ROOT
HETATM    1  C8  UNL     1      -4.270   4.485  13.275  1.00  0.00     0.684 A 
HETATM    2  N3  UNL     1      -3.199   4.724  14.053  1.00  0.00    -0.201 N 
ATOM      3  H3  UNL     1      -2.869   3.995  14.685  1.00  0.00     0.183 HD
HETATM    4  C9  UNL     1      -2.545   5.914  14.016  1.00  0.00     0.116 A 
HETATM    5  C10 UNL     1      -3.012   6.887  13.151  1.00  0.00    -0.001 A 
HETATM    6  C11 UNL     1      -2.339   8.209  13.066  1.00  0.00     0.054 C 
HETATM    7  C12 UNL     1      -4.111   6.653  12.349  1.00  0.00     0.129 A 
HETATM    8  N7  UNL     1      -4.703   5.451  12.443  1.00  0.00    -0.176 N 
ATOM      9  H7  UNL     1      -5.516   5.261  11.858  1.00  0.00     0.186 HD
ENDROOT
BRANCH   1  10
HETATM   10  N2  UNL     1      -4.890   3.376  13.302  1.00  0.00    -0.189 N 
ATOM     11  H2  UNL     1      -5.336   3.082  12.433  1.00  0.00     0.184 HD
BRANCH  10  12
HETATM   12  C7  UNL     1      -5.025   2.519  14.392  1.00  0.00     0.086 A 
HETATM   13  C2  UNL     1      -4.436   1.275  14.377  1.00  0.00     0.113 A 
HETATM   14  C3  UNL     1      -4.582   0.436  15.474  1.00  0.00     0.162 A 
HETATM   15  N1  UNL     1      -5.302   0.842  16.553  1.00  0.00    -0.238 N 
HETATM   16  C4  UNL     1      -5.883   2.053  16.581  1.00  0.00     0.038 A 
HETATM   17  C5  UNL     1      -6.676   2.481  17.789  1.00  0.00     0.071 C 
HETATM   18  C6  UNL     1      -5.747   2.891  15.506  1.00  0.00     0.060 A 
BRANCH  13  19
HETATM   19  O1  UNL     1      -3.717   0.930  13.242  1.00  0.00    -0.352 OA
HETATM   20  C1  UNL     1      -4.184  -0.145  12.452  1.00  0.00     0.210 C 
ENDBRANCH  13  19
BRANCH  15  21
HETATM   21  O2  UNL     1      -5.463   0.034  17.652  1.00  0.00    -0.283 OA
ATOM     22  H2  UNL     1      -6.049  -0.715  17.634  1.00  0.00     0.245 HD
ENDBRANCH  15  21
ENDBRANCH  10  12
ENDBRANCH   1  10
BRANCH   7  23
HETATM   23  N4  UNL     1      -4.519   7.576  11.557  1.00  0.00    -0.339 N 
ATOM     24  H4  UNL     1      -4.240   8.534  11.768  1.00  0.00     0.167 HD
BRANCH  23  25
HETATM   25  C13 UNL     1      -5.318   7.369  10.424  1.00  0.00     0.068 A 
HETATM   26  C14 UNL     1      -5.065   6.666   9.264  1.00  0.00     0.138 A 
HETATM   27  N5  UNL     1      -6.168   6.786   8.504  1.00  0.00    -0.308 N 
HETATM   28  N6  UNL     1      -7.090   7.503   9.088  1.00  0.00    -0.306 N 
ATOM     29  H5  UNL     1      -6.272   6.368   7.580  1.00  0.00     0.186 HD
HETATM   30  C15 UNL     1      -8.419   7.869   8.609  1.00  0.00     0.177 C 
HETATM   31  C16 UNL     1      -6.592   7.877  10.278  1.00  0.00     0.140 A 
ENDBRANCH  23  25
ENDBRANCH   7  23
TORSDOF 6
ENDMDL
MODEL 5
REMARK VINA RESULT: -7.371571328      1.145      1.283
REMARK  6 active torsions:
REMARK  status: ('A' for Active; 'I' for Inactive)
REMARK    1  A    between atoms: O1_2  and  C2_3 
REMARK    2  A    between atoms: N1_5  and  O2_6 
REMARK    3  A    between atoms: C7_11  and  N2_12 
REMARK    4  A    between atoms: N2_12  and  C8_14 
REMARK    5  A    between atoms: C12_20  and  N4_21 
REMARK    6  A    between atoms: N4_21  and  C13_23 
ROOT
HETATM    1  C8  UNL     1      -3.968   4.743  13.627  1.00  0.00     0.684 A 
HETATM    2  N3  UNL     1      -4.068   5.587  14.669  1.00  0.00    -0.201 N 
ATOM      3  H3  UNL     1      -4.770   5.410  15.388  1.00  0.00     0.183 HD
HETATM    4  C9  UNL     1      -3.257   6.670  14.788  1.00  0.00     0.116 A 
HETATM    5  C10 UNL     1      -2.313   6.888  13.800  1.00  0.00    -0.001 A 
HETATM    6  C11 UNL     1      -1.398   8.055  13.874  1.00  0.00     0.054 C 
HETATM    7  C12 UNL     1      -2.203   6.029  12.725  1.00  0.00     0.129 A 
HETATM    8  N7  UNL     1      -3.041   4.980  12.680  1.00  0.00    -0.176 N 
ATOM      9  H7  UNL     1      -2.973   4.336  11.892  1.00  0.00     0.186 HD
ENDROOT
BRANCH   1  10
HETATM   10  N2  UNL     1      -4.723   3.727  13.505  1.00  0.00    -0.189 N 
ATOM     11  H2  UNL     1      -5.229   3.638  12.623  1.00  0.00     0.184 HD
BRANCH  10  12
HETATM   12  C7  UNL     1      -4.931   2.723  14.447  1.00  0.00     0.086 A 
HETATM   13  C2  UNL     1      -4.427   1.460  14.242  1.00  0.00     0.113 A 
HETATM   14  C3  UNL     1      -4.645   0.472  15.193  1.00  0.00     0.162 A 
HETATM   15  N1  UNL     1      -5.354   0.755  16.319  1.00  0.00    -0.238 N 
HETATM   16  C4  UNL     1      -5.853   1.983  16.533  1.00  0.00     0.038 A 
HETATM   17  C5  UNL     1      -6.635   2.271  17.788  1.00  0.00     0.071 C 
HETATM   18  C6  UNL     1      -5.644   2.966  15.602  1.00  0.00     0.060 A 
BRANCH  13  19
HETATM   19  O1  UNL     1      -3.714   1.246  13.071  1.00  0.00    -0.352 OA
HETATM   20  C1  UNL     1      -4.233   0.332  12.126  1.00  0.00     0.210 C 
ENDBRANCH  13  19
BRANCH  15  21
HETATM   21  O2  UNL     1      -5.586  -0.202  17.278  1.00  0.00    -0.283 OA
ATOM     22  H2  UNL     1      -6.090  -0.984  17.085  1.00  0.00     0.245 HD
ENDBRANCH  15  21
ENDBRANCH  10  12
ENDBRANCH   1  10
BRANCH   7  23
HETATM   23  N4  UNL     1      -1.318   6.259  11.826  1.00  0.00    -0.339 N 
ATOM     24  H4  UNL     1      -1.507   7.008  11.160  1.00  0.00     0.167 HD
BRANCH  23  25
HETATM   25  C13 UNL     1      -0.109   5.561  11.688  1.00  0.00     0.068 A 
HETATM   26  C14 UNL     1       0.135   4.256  11.313  1.00  0.00     0.138 A 
HETATM   27  N5  UNL     1       1.470   4.100  11.344  1.00  0.00    -0.308 N 
HETATM   28  N6  UNL     1       2.084   5.194  11.705  1.00  0.00    -0.306 N 
ATOM     29  H5  UNL     1       1.948   3.229  11.112  1.00  0.00     0.186 HD
HETATM   30  C15 UNL     1       3.513   5.445  11.864  1.00  0.00     0.177 C 
HETATM   31  C16 UNL     1       1.131   6.116  11.926  1.00  0.00     0.140 A 
ENDBRANCH  23  25
ENDBRANCH   7  23
TORSDOF 6
ENDMDL
