MODEL 1
REMARK VINA RESULT: -7.983345421      0.000      0.000
REMARK  4 active torsions:
REMARK  status: ('A' for Active; 'I' for Inactive)
REMARK    1  A    between atoms: O1_2  and  C2_3 
REMARK    2  A    between atoms: C10_15  and  C11_16 
REMARK    3  A    between atoms: C11_16  and  N3_17 
REMARK    4  A    between atoms: N3_17  and  C12_19 
ROOT
HETATM    1  C2  UNL     1      -3.429   5.133  13.110  1.00  0.00     0.090 A 
HETATM    2  C3  UNL     1      -3.288   6.420  12.642  1.00  0.00    -0.028 A 
HETATM    3  C4  UNL     1      -2.884   7.467  13.599  1.00  0.00     0.051 C 
HETATM    4  C5  UNL     1      -3.529   6.684  11.296  1.00  0.00     0.012 A 
HETATM    5  C6  UNL     1      -3.905   5.694  10.417  1.00  0.00     0.032 A 
HETATM    6  C7  UNL     1      -4.043   4.411  10.898  1.00  0.00     0.065 A 
HETATM    7  N1  UNL     1      -4.384   3.265  10.311  1.00  0.00    -0.289 N 
ATOM      8  H1  UNL     1      -4.614   3.176   9.321  1.00  0.00     0.188 HD
HETATM    9  N2  UNL     1      -4.389   2.249  11.170  1.00  0.00    -0.202 N 
HETATM   10  C8  UNL     1      -4.664   0.942  11.036  1.00  0.00     0.270 A 
HETATM   11  O2  UNL     1      -4.995   0.452   9.926  1.00  0.00    -0.266 OA
HETATM   12  C9  UNL     1      -4.579   0.126  12.134  1.00  0.00     0.103 A 
HETATM   13  C10 UNL     1      -4.217   0.659  13.345  1.00  0.00     0.034 A 
HETATM   14  N6  UNL     1      -3.952   1.970  13.433  1.00  0.00    -0.342 N 
ATOM     15  H6  UNL     1      -3.684   2.361  14.336  1.00  0.00     0.167 HD
HETATM   16  C16 UNL     1      -4.030   2.781  12.369  1.00  0.00     0.146 A 
HETATM   17  C17 UNL     1      -3.804   4.133  12.239  1.00  0.00     0.072 A 
ENDROOT
BRANCH  13  18
HETATM   18  C11 UNL     1      -4.111  -0.199  14.580  1.00  0.00     0.178 C 
BRANCH  18  19
HETATM   19  N3  UNL     1      -4.030   0.666  15.715  1.00  0.00    -0.370 N 
ATOM     20  H3  UNL     1      -3.101   0.883  16.077  1.00  0.00     0.161 HD
BRANCH  19  21
HETATM   21  C12 UNL     1      -5.026   1.187  16.308  1.00  0.00     0.117 A 
HETATM   22  C13 UNL     1      -5.972   0.555  17.079  1.00  0.00     0.068 A 
HETATM   23  C14 UNL     1      -6.868   1.513  17.523  1.00  0.00     0.113 A 
HETATM   24  N4  UNL     1      -6.457   2.673  17.027  1.00  0.00    -0.306 N 
HETATM   25  C15 UNL     1      -7.142   3.943  17.270  1.00  0.00     0.177 C 
HETATM   26  N5  UNL     1      -5.357   2.488  16.301  1.00  0.00    -0.284 N 
ATOM     27  H5  UNL     1      -4.845   3.223  15.812  1.00  0.00     0.188 HD
ENDBRANCH  19  21
ENDBRANCH  18  19
ENDBRANCH  13  18
BRANCH   1  28
HETATM   28  O1  UNL     1      -3.201   4.842  14.414  1.00  0.00    -0.354 OA
HETATM   29  C1  UNL     1      -1.980   4.441  14.979  1.00  0.00     0.210 C 
ENDBRANCH   1  28
TORSDOF 4
ENDMDL
MODEL 2
REMARK VINA RESULT: -7.604747365      3.569      6.998
REMARK  4 active torsions:
REMARK  status: ('A' for Active; 'I' for Inactive)
REMARK    1  A    between atoms: O1_2  and  C2_3 
REMARK    2  A    between atoms: C10_15  and  C11_16 
REMARK    3  A    between atoms: C11_16  and  N3_17 
REMARK    4  A    between atoms: N3_17  and  C12_19 
ROOT
HETATM    1  C2  UNL     1      -5.002   2.038  15.789  1.00  0.00     0.090 A 
HETATM    2  C3  UNL     1      -5.954   1.774  16.748  1.00  0.00    -0.028 A 
HETATM    3  C4  UNL     1      -5.927   0.458  17.410  1.00  0.00     0.051 C 
HETATM    4  C5  UNL     1      -6.899   2.751  17.053  1.00  0.00     0.012 A 
HETATM    5  C6  UNL     1      -6.908   3.975  16.425  1.00  0.00     0.032 A 
HETATM    6  C7  UNL     1      -5.951   4.226  15.468  1.00  0.00     0.065 A 
HETATM    7  N1  UNL     1      -5.703   5.288  14.703  1.00  0.00    -0.289 N 
ATOM      8  H1  UNL     1      -6.250   6.149  14.727  1.00  0.00     0.188 HD
HETATM    9  N2  UNL     1      -4.659   5.092  13.904  1.00  0.00    -0.202 N 
HETATM   10  C8  UNL     1      -4.056   5.862  12.984  1.00  0.00     0.270 A 
HETATM   11  O2  UNL     1      -4.466   7.025  12.732  1.00  0.00    -0.266 OA
HETATM   12  C9  UNL     1      -2.971   5.369  12.306  1.00  0.00     0.103 A 
HETATM   13  C10 UNL     1      -2.525   4.102  12.580  1.00  0.00     0.034 A 
HETATM   14  N6  UNL     1      -3.156   3.368  13.506  1.00  0.00    -0.342 N 
ATOM     15  H6  UNL     1      -2.819   2.426  13.706  1.00  0.00     0.167 HD
HETATM   16  C16 UNL     1      -4.217   3.836  14.178  1.00  0.00     0.146 A 
HETATM   17  C17 UNL     1      -5.001   3.261  15.153  1.00  0.00     0.072 A 
ENDROOT
BRANCH  13  18
HETATM   18  C11 UNL     1      -1.336   3.517  11.860  1.00  0.00     0.178 C 
BRANCH  18  19
HETATM   19  N3  UNL     1      -0.655   4.583  11.192  1.00  0.00    -0.370 N 
ATOM     20  H3  UNL     1      -1.209   5.188  10.585  1.00  0.00     0.161 HD
BRANCH  19  21
HETATM   21  C12 UNL     1       0.586   4.835  11.294  1.00  0.00     0.117 A 
HETATM   22  C13 UNL     1       1.616   4.311  10.549  1.00  0.00     0.068 A 
HETATM   23  C14 UNL     1       2.798   4.868  11.006  1.00  0.00     0.113 A 
HETATM   24  N4  UNL     1       2.469   5.695  11.991  1.00  0.00    -0.306 N 
HETATM   25  C15 UNL     1       3.445   6.486  12.741  1.00  0.00     0.177 C 
HETATM   26  N5  UNL     1       1.150   5.681  12.169  1.00  0.00    -0.284 N 
ATOM     27  H5  UNL     1       0.645   6.231  12.865  1.00  0.00     0.188 HD
ENDBRANCH  19  21
ENDBRANCH  18  19
ENDBRANCH  13  18
BRANCH   1  28
HETATM   28  O1  UNL     1      -4.068   1.109  15.467  1.00  0.00    -0.354 OA
HETATM   29  C1  UNL     1      -4.206   0.078  14.525  1.00  0.00     0.210 C 
ENDBRANCH   1  28
TORSDOF 4
ENDMDL
MODEL 3
REMARK VINA RESULT: -7.494682742      2.794      4.322
REMARK  4 active torsions:
REMARK  status: ('A' for Active; 'I' for Inactive)
REMARK    1  A    between atoms: O1_2  and  C2_3 
REMARK    2  A    between atoms: C10_15  and  C11_16 
REMARK    3  A    between atoms: C11_16  and  N3_17 
REMARK    4  A    between atoms: N3_17  and  C12_19 
ROOT
HETATM    1  C2  UNL     1      -5.852   6.563   9.643  1.00  0.00     0.090 A 
HETATM    2  C3  UNL     1      -6.455   6.872   8.444  1.00  0.00    -0.028 A 
HETATM    3  C4  UNL     1      -7.825   7.417   8.475  1.00  0.00     0.051 C 
HETATM    4  C5  UNL     1      -5.756   6.662   7.258  1.00  0.00     0.012 A 
HETATM    5  C6  UNL     1      -4.477   6.153   7.249  1.00  0.00     0.032 A 
HETATM    6  C7  UNL     1      -3.886   5.847   8.454  1.00  0.00     0.065 A 
HETATM    7  N1  UNL     1      -2.690   5.353   8.767  1.00  0.00    -0.289 N 
ATOM      8  H1  UNL     1      -1.976   5.108   8.080  1.00  0.00     0.188 HD
HETATM    9  N2  UNL     1      -2.537   5.216  10.081  1.00  0.00    -0.202 N 
HETATM   10  C8  UNL     1      -1.525   4.768  10.840  1.00  0.00     0.270 A 
HETATM   11  O2  UNL     1      -0.447   4.368  10.327  1.00  0.00    -0.266 OA
HETATM   12  C9  UNL     1      -1.669   4.748  12.203  1.00  0.00     0.103 A 
HETATM   13  C10 UNL     1      -2.843   5.183  12.763  1.00  0.00     0.034 A 
HETATM   14  N6  UNL     1      -3.828   5.622  11.967  1.00  0.00    -0.342 N 
ATOM     15  H6  UNL     1      -4.700   5.945  12.389  1.00  0.00     0.167 HD
HETATM   16  C16 UNL     1      -3.702   5.649  10.633  1.00  0.00     0.146 A 
HETATM   17  C17 UNL     1      -4.573   6.053   9.646  1.00  0.00     0.072 A 
ENDROOT
BRANCH  13  18
HETATM   18  C11 UNL     1      -3.049   5.179  14.257  1.00  0.00     0.178 C 
BRANCH  18  19
HETATM   19  N3  UNL     1      -3.109   3.818  14.691  1.00  0.00    -0.370 N 
ATOM     20  H3  UNL     1      -2.274   3.246  14.567  1.00  0.00     0.161 HD
BRANCH  19  21
HETATM   21  C12 UNL     1      -4.124   3.265  15.221  1.00  0.00     0.117 A 
HETATM   22  C13 UNL     1      -5.439   3.657  15.132  1.00  0.00     0.068 A 
HETATM   23  C14 UNL     1      -6.199   2.762  15.864  1.00  0.00     0.113 A 
HETATM   24  N4  UNL     1      -5.354   1.872  16.368  1.00  0.00    -0.306 N 
HETATM   25  C15 UNL     1      -5.769   0.749  17.210  1.00  0.00     0.177 C 
HETATM   26  N5  UNL     1      -4.112   2.165  15.988  1.00  0.00    -0.284 N 
ATOM     27  H5  UNL     1      -3.279   1.633  16.242  1.00  0.00     0.188 HD
ENDBRANCH  19  21
ENDBRANCH  18  19
ENDBRANCH  13  18
BRANCH   1  28
HETATM   28  O1  UNL     1      -6.505   6.756  10.816  1.00  0.00    -0.354 OA
HETATM   29  C1  UNL     1      -6.500   7.926  11.591  1.00  0.00     0.210 C 
ENDBRANCH   1  28
TORSDOF 4
ENDMDL
MODEL 4
REMARK VINA RESULT: -7.486718478      3.348      6.951
REMARK  4 active torsions:
REMARK  status: ('A' for Active; 'I' for Inactive)
REMARK    1  A    between atoms: O1_2  and  C2_3 
REMARK    2  A    between atoms: C10_15  and  C11_16 
REMARK    3  A    between atoms: C11_16  and  N3_17 
REMARK    4  A    between atoms: N3_17  and  C12_19 
ROOT
HETATM    1  C2  UNL     1      -5.080   1.971  15.923  1.00  0.00     0.090 A 
HETATM    2  C3  UNL     1      -5.944   1.696  16.960  1.00  0.00    -0.028 A 
HETATM    3  C4  UNL     1      -5.801   0.406  17.659  1.00  0.00     0.051 C 
HETATM    4  C5  UNL     1      -6.911   2.637  17.305  1.00  0.00     0.012 A 
HETATM    5  C6  UNL     1      -7.028   3.836  16.641  1.00  0.00     0.032 A 
HETATM    6  C7  UNL     1      -6.159   4.099  15.606  1.00  0.00     0.065 A 
HETATM    7  N1  UNL     1      -6.023   5.144  14.792  1.00  0.00    -0.289 N 
ATOM      8  H1  UNL     1      -6.609   5.978  14.830  1.00  0.00     0.188 HD
HETATM    9  N2  UNL     1      -5.032   4.970  13.922  1.00  0.00    -0.202 N 
HETATM   10  C8  UNL     1      -4.540   5.734  12.935  1.00  0.00     0.270 A 
HETATM   11  O2  UNL     1      -5.025   6.867  12.679  1.00  0.00    -0.266 OA
HETATM   12  C9  UNL     1      -3.485   5.270  12.192  1.00  0.00     0.103 A 
HETATM   13  C10 UNL     1      -2.956   4.036  12.471  1.00  0.00     0.034 A 
HETATM   14  N6  UNL     1      -3.478   3.306  13.466  1.00  0.00    -0.342 N 
ATOM     15  H6  UNL     1      -3.081   2.388  13.669  1.00  0.00     0.167 HD
HETATM   16  C16 UNL     1      -4.509   3.746  14.201  1.00  0.00     0.146 A 
HETATM   17  C17 UNL     1      -5.188   3.169  15.251  1.00  0.00     0.072 A 
ENDROOT
BRANCH  13  18
HETATM   18  C11 UNL     1      -1.796   3.483  11.682  1.00  0.00     0.178 C 
BRANCH  18  19
HETATM   19  N3  UNL     1      -0.589   3.836  12.363  1.00  0.00    -0.370 N 
ATOM     20  H3  UNL     1      -0.444   3.448  13.296  1.00  0.00     0.161 HD
BRANCH  19  21
HETATM   21  C12 UNL     1       0.318   4.595  11.897  1.00  0.00     0.117 A 
HETATM   22  C13 UNL     1       0.292   5.965  11.781  1.00  0.00     0.068 A 
HETATM   23  C14 UNL     1       1.492   6.366  11.220  1.00  0.00     0.113 A 
HETATM   24  N4  UNL     1       2.201   5.263  11.015  1.00  0.00    -0.306 N 
HETATM   25  C15 UNL     1       3.543   5.262  10.432  1.00  0.00     0.177 C 
HETATM   26  N5  UNL     1       1.507   4.201  11.417  1.00  0.00    -0.284 N 
ATOM     27  H5  UNL     1       1.830   3.234  11.367  1.00  0.00     0.188 HD
ENDBRANCH  19  21
ENDBRANCH  18  19
ENDBRANCH  13  18
BRANCH   1  28
HETATM   28  O1  UNL     1      -4.127   1.077  15.561  1.00  0.00    -0.354 OA
HETATM   29  C1  UNL     1      -4.261   0.054  14.608  1.00  0.00     0.210 C 
ENDBRANCH   1  28
TORSDOF 4
ENDMDL
MODEL 5
REMARK VINA RESULT: -7.372156152      2.285      5.970
REMARK  4 active torsions:
REMARK  status: ('A' for Active; 'I' for Inactive)
REMARK    1  A    between atoms: O1_2  and  C2_3 
REMARK    2  A    between atoms: C10_15  and  C11_16 
REMARK    3  A    between atoms: C11_16  and  N3_17 
REMARK    4  A    between atoms: N3_17  and  C12_19 
ROOT
HETATM    1  C2  UNL     1      -6.097   3.262  15.892  1.00  0.00     0.090 A 
HETATM    2  C3  UNL     1      -6.486   2.974  17.181  1.00  0.00    -0.028 A 
HETATM    3  C4  UNL     1      -7.177   4.026  17.949  1.00  0.00     0.051 C 
HETATM    4  C5  UNL     1      -6.214   1.714  17.707  1.00  0.00     0.012 A 
HETATM    5  C6  UNL     1      -5.568   0.745  16.974  1.00  0.00     0.032 A 
HETATM    6  C7  UNL     1      -5.184   1.045  15.687  1.00  0.00     0.065 A 
HETATM    7  N1  UNL     1      -4.558   0.337  14.749  1.00  0.00    -0.289 N 
ATOM      8  H1  UNL     1      -4.245  -0.626  14.874  1.00  0.00     0.188 HD
HETATM    9  N2  UNL     1      -4.389   1.034  13.629  1.00  0.00    -0.202 N 
HETATM   10  C8  UNL     1      -3.823   0.741  12.448  1.00  0.00     0.270 A 
HETATM   11  O2  UNL     1      -3.314  -0.388  12.227  1.00  0.00    -0.266 OA
HETATM   12  C9  UNL     1      -3.803   1.694  11.462  1.00  0.00     0.103 A 
HETATM   13  C10 UNL     1      -4.358   2.924  11.702  1.00  0.00     0.034 A 
HETATM   14  N6  UNL     1      -4.912   3.175  12.896  1.00  0.00    -0.342 N 
ATOM     15  H6  UNL     1      -5.323   4.092  13.070  1.00  0.00     0.167 HD
HETATM   16  C16 UNL     1      -4.941   2.254  13.870  1.00  0.00     0.146 A 
HETATM   17  C17 UNL     1      -5.450   2.299  15.149  1.00  0.00     0.072 A 
ENDROOT
BRANCH  13  18
HETATM   18  C11 UNL     1      -4.358   4.003  10.649  1.00  0.00     0.178 C 
BRANCH  18  19
HETATM   19  N3  UNL     1      -4.530   5.263  11.305  1.00  0.00    -0.370 N 
ATOM     20  H3  UNL     1      -3.912   5.474  12.088  1.00  0.00     0.161 HD
BRANCH  19  21
HETATM   21  C12 UNL     1      -5.394   6.139  10.989  1.00  0.00     0.117 A 
HETATM   22  C13 UNL     1      -5.856   7.182  11.756  1.00  0.00     0.068 A 
HETATM   23  C14 UNL     1      -6.789   7.879  11.007  1.00  0.00     0.113 A 
HETATM   24  N4  UNL     1      -6.870   7.262   9.835  1.00  0.00    -0.306 N 
HETATM   25  C15 UNL     1      -7.755   7.696   8.753  1.00  0.00     0.177 C 
HETATM   26  N5  UNL     1      -6.041   6.222   9.815  1.00  0.00    -0.284 N 
ATOM     27  H5  UNL     1      -5.916   5.585   9.028  1.00  0.00     0.188 HD
ENDBRANCH  19  21
ENDBRANCH  18  19
ENDBRANCH  13  18
BRANCH   1  28
HETATM   28  O1  UNL     1      -6.346   4.480  15.349  1.00  0.00    -0.354 OA
HETATM   29  C1  UNL     1      -5.419   5.518  15.169  1.00  0.00     0.210 C 
ENDBRANCH   1  28
TORSDOF 4
ENDMDL
