MODEL 1
REMARK VINA RESULT: -8.194038354      0.000      0.000
REMARK  4 active torsions:
REMARK  status: ('A' for Active; 'I' for Inactive)
REMARK    1  A    between atoms: O1_2  and  C2_3 
REMARK    2  A    between atoms: C5_6  and  N1_7 
REMARK    3  A    between atoms: N1_7  and  C6_9 
REMARK    4  A    between atoms: N4_22  and  C15_24 
ROOT
HETATM    1  C15 UNL     1      -4.744   2.307  15.865  1.00  0.00     0.262 C 
HETATM    2  C16 UNL     1      -4.692   0.870  15.544  1.00  0.00     0.079 C 
HETATM    3  N5  UNL     1      -4.664  -0.239  15.290  1.00  0.00    -0.196 NA
ENDROOT
BRANCH   1   4
HETATM    4  N4  UNL     1      -3.512   2.950  15.506  1.00  0.00    -0.212 N 
HETATM    5  C14 UNL     1      -3.472   3.985  14.724  1.00  0.00     0.696 A 
HETATM    6  N3  UNL     1      -4.489   4.633  14.123  1.00  0.00    -0.172 N 
HETATM    7  N6  UNL     1      -2.358   4.632  14.348  1.00  0.00    -0.109 N 
HETATM    8  C13 UNL     1      -3.990   5.651  13.401  1.00  0.00     0.173 A 
ATOM      9  H3  UNL     1      -5.477   4.390  14.203  1.00  0.00     0.186 HD
HETATM   10  C12 UNL     1      -4.592   6.616  12.604  1.00  0.00     0.038 A 
HETATM   11  N7  UNL     1      -2.646   5.647  13.545  1.00  0.00    -0.054 N 
HETATM   12  C7  UNL     1      -3.809   7.550  11.974  1.00  0.00     0.063 A 
HETATM   13  C11 UNL     1      -5.977   6.620  12.455  1.00  0.00     0.017 A 
HETATM   14  N2  UNL     1      -2.468   7.498  12.155  1.00  0.00    -0.189 N 
HETATM   15  C8  UNL     1      -4.399   8.512  11.179  1.00  0.00     0.031 A 
HETATM   16  C6  UNL     1      -1.883   6.565  12.927  1.00  0.00     0.706 A 
ATOM     17  H2  UNL     1      -1.881   8.190  11.689  1.00  0.00     0.184 HD
HETATM   18  C9  UNL     1      -5.759   8.516  11.034  1.00  0.00     0.002 A 
HETATM   19  C10 UNL     1      -6.556   7.580  11.663  1.00  0.00     0.001 A 
ATOM     20  H6  UNL     1      -1.415   4.377  14.641  1.00  0.00     0.207 HD
ATOM     21  H4  UNL     1      -2.637   2.581  15.878  1.00  0.00     0.178 HD
BRANCH  16  22
HETATM   22  N1  UNL     1      -0.602   6.584  13.047  1.00  0.00    -0.190 N 
ATOM     23  H1  UNL     1      -0.201   7.157  13.790  1.00  0.00     0.184 HD
BRANCH  22  24
HETATM   24  C5  UNL     1       0.280   5.867  12.223  1.00  0.00     0.049 A 
HETATM   25  C4  UNL     1       1.582   6.345  12.124  1.00  0.00     0.033 A 
HETATM   26  C3  UNL     1       2.457   5.650  11.318  1.00  0.00     0.039 A 
HETATM   27  C2  UNL     1       2.072   4.509  10.621  1.00  0.00     0.068 A 
HETATM   28  C18 UNL     1       0.759   4.051  10.738  1.00  0.00     0.039 A 
HETATM   29  C17 UNL     1      -0.128   4.736  11.540  1.00  0.00     0.033 A 
BRANCH  27  30
HETATM   30  O1  UNL     1       2.978   3.832   9.818  1.00  0.00    -0.356 OA
HETATM   31  C1  UNL     1       2.567   3.280   8.601  1.00  0.00     0.210 C 
ENDBRANCH  27  30
ENDBRANCH  22  24
ENDBRANCH  16  22
ENDBRANCH   1   4
TORSDOF 4
ENDMDL
MODEL 2
REMARK VINA RESULT: -7.941355936      3.995      5.979
REMARK  4 active torsions:
REMARK  status: ('A' for Active; 'I' for Inactive)
REMARK    1  A    between atoms: O1_2  and  C2_3 
REMARK    2  A    between atoms: C5_6  and  N1_7 
REMARK    3  A    between atoms: N1_7  and  C6_9 
REMARK    4  A    between atoms: N4_22  and  C15_24 
ROOT
HETATM    1  C15 UNL     1      -5.305   2.851  15.833  1.00  0.00     0.262 C 
HETATM    2  C16 UNL     1      -4.411   1.699  16.039  1.00  0.00     0.079 C 
HETATM    3  N5  UNL     1      -3.729   0.801  16.206  1.00  0.00    -0.196 NA
ENDROOT
BRANCH   1   4
HETATM    4  N4  UNL     1      -5.322   3.236  14.450  1.00  0.00    -0.212 N 
HETATM    5  C14 UNL     1      -4.722   4.303  14.020  1.00  0.00     0.696 A 
HETATM    6  N3  UNL     1      -4.009   5.212  14.714  1.00  0.00    -0.172 N 
HETATM    7  N6  UNL     1      -4.698   4.721  12.745  1.00  0.00    -0.109 N 
HETATM    8  C13 UNL     1      -3.567   6.157  13.865  1.00  0.00     0.173 A 
ATOM      9  H3  UNL     1      -3.834   5.188  15.719  1.00  0.00     0.186 HD
HETATM   10  C12 UNL     1      -2.800   7.300  14.054  1.00  0.00     0.038 A 
HETATM   11  N7  UNL     1      -4.004   5.843  12.625  1.00  0.00    -0.054 N 
HETATM   12  C7  UNL     1      -2.500   8.092  12.976  1.00  0.00     0.063 A 
HETATM   13  C11 UNL     1      -2.350   7.622  15.332  1.00  0.00     0.017 A 
HETATM   14  N2  UNL     1      -2.965   7.729  11.757  1.00  0.00    -0.189 N 
HETATM   15  C8  UNL     1      -1.740   9.230  13.155  1.00  0.00     0.031 A 
HETATM   16  C6  UNL     1      -3.707   6.622  11.571  1.00  0.00     0.706 A 
ATOM     17  H2  UNL     1      -2.745   8.315  10.951  1.00  0.00     0.184 HD
HETATM   18  C9  UNL     1      -1.297   9.546  14.410  1.00  0.00     0.002 A 
HETATM   19  C10 UNL     1      -1.594   8.756  15.502  1.00  0.00     0.001 A 
ATOM     20  H6  UNL     1      -5.155   4.238  11.971  1.00  0.00     0.207 HD
ATOM     21  H4  UNL     1      -5.825   2.651  13.782  1.00  0.00     0.178 HD
BRANCH  16  22
HETATM   22  N1  UNL     1      -4.110   6.348  10.381  1.00  0.00    -0.190 N 
ATOM     23  H1  UNL     1      -3.524   5.739   9.808  1.00  0.00     0.184 HD
BRANCH  22  24
HETATM   24  C5  UNL     1      -5.302   6.829   9.819  1.00  0.00     0.049 A 
HETATM   25  C4  UNL     1      -6.243   7.363  10.693  1.00  0.00     0.033 A 
HETATM   26  C3  UNL     1      -7.417   7.839  10.153  1.00  0.00     0.039 A 
HETATM   27  C2  UNL     1      -7.673   7.797   8.785  1.00  0.00     0.068 A 
HETATM   28  C18 UNL     1      -6.711   7.255   7.930  1.00  0.00     0.039 A 
HETATM   29  C17 UNL     1      -5.532   6.775   8.456  1.00  0.00     0.033 A 
BRANCH  27  30
HETATM   30  O1  UNL     1      -8.866   8.285   8.274  1.00  0.00    -0.356 OA
HETATM   31  C1  UNL     1      -8.890   9.495   7.572  1.00  0.00     0.210 C 
ENDBRANCH  27  30
ENDBRANCH  22  24
ENDBRANCH  16  22
ENDBRANCH   1   4
TORSDOF 4
ENDMDL
MODEL 3
REMARK VINA RESULT: -7.688805517      3.229      4.143
REMARK  4 active torsions:
REMARK  status: ('A' for Active; 'I' for Inactive)
REMARK    1  A    between atoms: O1_2  and  C2_3 
REMARK    2  A    between atoms: C5_6  and  N1_7 
REMARK    3  A    between atoms: N1_7  and  C6_9 
REMARK    4  A    between atoms: N4_22  and  C15_24 
ROOT
HETATM    1  C15 UNL     1      -4.613   2.811  15.433  1.00  0.00     0.262 C 
HETATM    2  C16 UNL     1      -4.214   1.458  15.862  1.00  0.00     0.079 C 
HETATM    3  N5  UNL     1      -3.916   0.408  16.185  1.00  0.00    -0.196 NA
ENDROOT
BRANCH   1   4
HETATM    4  N4  UNL     1      -3.457   3.598  15.109  1.00  0.00    -0.212 N 
HETATM    5  C14 UNL     1      -3.522   4.639  14.336  1.00  0.00     0.696 A 
HETATM    6  N3  UNL     1      -4.594   5.168  13.716  1.00  0.00    -0.172 N 
HETATM    7  N6  UNL     1      -2.484   5.418  13.993  1.00  0.00    -0.109 N 
HETATM    8  C13 UNL     1      -4.202   6.246  13.014  1.00  0.00     0.173 A 
ATOM      9  H3  UNL     1      -5.548   4.810  13.769  1.00  0.00     0.186 HD
HETATM   10  C12 UNL     1      -4.895   7.142  12.210  1.00  0.00     0.038 A 
HETATM   11  N7  UNL     1      -2.871   6.399  13.192  1.00  0.00    -0.054 N 
HETATM   12  C7  UNL     1      -4.214   8.169  11.608  1.00  0.00     0.063 A 
HETATM   13  C11 UNL     1      -6.267   6.984  12.028  1.00  0.00     0.017 A 
HETATM   14  N2  UNL     1      -2.880   8.273  11.821  1.00  0.00    -0.189 N 
HETATM   15  C8  UNL     1      -4.894   9.063  10.806  1.00  0.00     0.031 A 
HETATM   16  C6  UNL     1      -2.207   7.408  12.600  1.00  0.00     0.706 A 
ATOM     17  H2  UNL     1      -2.368   9.035  11.375  1.00  0.00     0.184 HD
HETATM   18  C9  UNL     1      -6.241   8.907  10.627  1.00  0.00     0.002 A 
HETATM   19  C10 UNL     1      -6.936   7.877  11.228  1.00  0.00     0.001 A 
ATOM     20  H6  UNL     1      -1.524   5.272  14.308  1.00  0.00     0.207 HD
ATOM     21  H4  UNL     1      -2.554   3.331  15.500  1.00  0.00     0.178 HD
BRANCH  16  22
HETATM   22  N1  UNL     1      -0.941   7.577  12.752  1.00  0.00    -0.190 N 
ATOM     23  H1  UNL     1      -0.312   6.960  12.236  1.00  0.00     0.184 HD
BRANCH  22  24
HETATM   24  C5  UNL     1      -0.368   8.554  13.581  1.00  0.00     0.049 A 
HETATM   25  C4  UNL     1      -1.077   8.910  14.723  1.00  0.00     0.033 A 
HETATM   26  C3  UNL     1      -0.524   9.867  15.544  1.00  0.00     0.039 A 
HETATM   27  C2  UNL     1       0.699  10.469  15.259  1.00  0.00     0.068 A 
HETATM   28  C18 UNL     1       1.390  10.093  14.106  1.00  0.00     0.039 A 
HETATM   29  C17 UNL     1       0.848   9.136  13.275  1.00  0.00     0.033 A 
BRANCH  27  30
HETATM   30  O1  UNL     1       1.228  11.430  16.108  1.00  0.00    -0.356 OA
HETATM   31  C1  UNL     1       2.531  11.297  16.599  1.00  0.00     0.210 C 
ENDBRANCH  27  30
ENDBRANCH  22  24
ENDBRANCH  16  22
ENDBRANCH   1   4
TORSDOF 4
ENDMDL
MODEL 4
REMARK VINA RESULT: -7.679636551      4.339      6.629
REMARK  4 active torsions:
REMARK  status: ('A' for Active; 'I' for Inactive)
REMARK    1  A    between atoms: O1_2  and  C2_3 
REMARK    2  A    between atoms: C5_6  and  N1_7 
REMARK    3  A    between atoms: N1_7  and  C6_9 
REMARK    4  A    between atoms: N4_22  and  C15_24 
ROOT
HETATM    1  C15 UNL     1      -4.370   0.649  12.517  1.00  0.00     0.262 C 
HETATM    2  C16 UNL     1      -3.927  -0.672  12.038  1.00  0.00     0.079 C 
HETATM    3  N5  UNL     1      -3.594  -1.700  11.677  1.00  0.00    -0.196 NA
ENDROOT
BRANCH   1   4
HETATM    4  N4  UNL     1      -4.698   1.503  11.412  1.00  0.00    -0.212 N 
HETATM    5  C14 UNL     1      -4.413   2.769  11.405  1.00  0.00     0.696 A 
HETATM    6  N3  UNL     1      -3.800   3.505  12.353  1.00  0.00    -0.172 N 
HETATM    7  N6  UNL     1      -4.691   3.623  10.408  1.00  0.00    -0.109 N 
HETATM    8  C13 UNL     1      -3.713   4.777  11.927  1.00  0.00     0.173 A 
ATOM      9  H3  UNL     1      -3.458   3.153  13.248  1.00  0.00     0.186 HD
HETATM   10  C12 UNL     1      -3.181   5.923  12.505  1.00  0.00     0.038 A 
HETATM   11  N7  UNL     1      -4.276   4.847  10.701  1.00  0.00    -0.054 N 
HETATM   12  C7  UNL     1      -3.237   7.109  11.819  1.00  0.00     0.063 A 
HETATM   13  C11 UNL     1      -2.600   5.849  13.769  1.00  0.00     0.017 A 
HETATM   14  N2  UNL     1      -3.813   7.120  10.593  1.00  0.00    -0.189 N 
HETATM   15  C8  UNL     1      -2.711   8.252  12.386  1.00  0.00     0.031 A 
HETATM   16  C6  UNL     1      -4.329   6.012  10.031  1.00  0.00     0.706 A 
ATOM     17  H2  UNL     1      -3.858   8.000  10.078  1.00  0.00     0.184 HD
HETATM   18  C9  UNL     1      -2.141   8.180  13.627  1.00  0.00     0.002 A 
HETATM   19  C10 UNL     1      -2.080   6.992  14.326  1.00  0.00     0.001 A 
ATOM     20  H6  UNL     1      -5.160   3.364   9.539  1.00  0.00     0.207 HD
ATOM     21  H4  UNL     1      -5.172   1.101  10.602  1.00  0.00     0.178 HD
BRANCH  16  22
HETATM   22  N1  UNL     1      -4.859   6.107   8.863  1.00  0.00    -0.190 N 
ATOM     23  H1  UNL     1      -4.524   5.475   8.135  1.00  0.00     0.184 HD
BRANCH  22  24
HETATM   24  C5  UNL     1      -5.867   7.022   8.524  1.00  0.00     0.049 A 
HETATM   25  C4  UNL     1      -7.079   6.906   9.197  1.00  0.00     0.033 A 
HETATM   26  C3  UNL     1      -8.076   7.799   8.874  1.00  0.00     0.039 A 
HETATM   27  C2  UNL     1      -7.898   8.790   7.912  1.00  0.00     0.068 A 
HETATM   28  C18 UNL     1      -6.672   8.884   7.252  1.00  0.00     0.039 A 
HETATM   29  C17 UNL     1      -5.665   7.997   7.565  1.00  0.00     0.033 A 
BRANCH  27  30
HETATM   30  O1  UNL     1      -8.923   9.674   7.611  1.00  0.00    -0.356 OA
HETATM   31  C1  UNL     1      -8.895  10.407   6.420  1.00  0.00     0.210 C 
ENDBRANCH  27  30
ENDBRANCH  22  24
ENDBRANCH  16  22
ENDBRANCH   1   4
TORSDOF 4
ENDMDL
MODEL 5
REMARK VINA RESULT: -7.600186056      3.348      7.068
REMARK  4 active torsions:
REMARK  status: ('A' for Active; 'I' for Inactive)
REMARK    1  A    between atoms: O1_2  and  C2_3 
REMARK    2  A    between atoms: C5_6  and  N1_7 
REMARK    3  A    between atoms: N1_7  and  C6_9 
REMARK    4  A    between atoms: N4_22  and  C15_24 
ROOT
HETATM    1  C15 UNL     1       0.788   5.327   8.946  1.00  0.00     0.262 C 
HETATM    2  C16 UNL     1       1.883   4.463   9.420  1.00  0.00     0.079 C 
HETATM    3  N5  UNL     1       2.738   3.807   9.789  1.00  0.00    -0.196 NA
ENDROOT
BRANCH   1   4
HETATM    4  N4  UNL     1      -0.459   4.932   9.537  1.00  0.00    -0.212 N 
HETATM    5  C14 UNL     1      -0.924   5.489  10.613  1.00  0.00     0.696 A 
HETATM    6  N3  UNL     1      -0.387   6.477  11.355  1.00  0.00    -0.172 N 
HETATM    7  N6  UNL     1      -2.078   5.168  11.217  1.00  0.00    -0.109 N 
HETATM    8  C13 UNL     1      -1.210   6.742  12.385  1.00  0.00     0.173 A 
ATOM      9  H3  UNL     1       0.499   6.947  11.166  1.00  0.00     0.186 HD
HETATM   10  C12 UNL     1      -1.136   7.654  13.430  1.00  0.00     0.038 A 
HETATM   11  N7  UNL     1      -2.275   5.915  12.295  1.00  0.00    -0.054 N 
HETATM   12  C7  UNL     1      -2.147   7.698  14.355  1.00  0.00     0.063 A 
HETATM   13  C11 UNL     1      -0.038   8.507  13.523  1.00  0.00     0.017 A 
HETATM   14  N2  UNL     1      -3.190   6.845  14.214  1.00  0.00    -0.189 N 
HETATM   15  C8  UNL     1      -2.082   8.601  15.398  1.00  0.00     0.031 A 
HETATM   16  C6  UNL     1      -3.264   5.962  13.203  1.00  0.00     0.706 A 
ATOM     17  H2  UNL     1      -3.946   6.873  14.900  1.00  0.00     0.184 HD
HETATM   18  C9  UNL     1      -1.004   9.438  15.488  1.00  0.00     0.002 A 
HETATM   19  C10 UNL     1       0.019   9.401  14.563  1.00  0.00     0.001 A 
ATOM     20  H6  UNL     1      -2.720   4.446  10.890  1.00  0.00     0.207 HD
ATOM     21  H4  UNL     1      -0.999   4.186   9.096  1.00  0.00     0.178 HD
BRANCH  16  22
HETATM   22  N1  UNL     1      -4.289   5.186  13.140  1.00  0.00    -0.190 N 
ATOM     23  H1  UNL     1      -4.831   5.181  12.276  1.00  0.00     0.184 HD
BRANCH  22  24
HETATM   24  C5  UNL     1      -4.708   4.345  14.183  1.00  0.00     0.049 A 
HETATM   25  C4  UNL     1      -5.958   4.601  14.738  1.00  0.00     0.033 A 
HETATM   26  C3  UNL     1      -6.380   3.782  15.762  1.00  0.00     0.039 A 
HETATM   27  C2  UNL     1      -5.601   2.732  16.238  1.00  0.00     0.068 A 
HETATM   28  C18 UNL     1      -4.351   2.497  15.663  1.00  0.00     0.039 A 
HETATM   29  C17 UNL     1      -3.915   3.308  14.637  1.00  0.00     0.033 A 
BRANCH  27  30
HETATM   30  O1  UNL     1      -6.057   1.925  17.270  1.00  0.00    -0.356 OA
HETATM   31  C1  UNL     1      -7.231   1.181  17.118  1.00  0.00     0.210 C 
ENDBRANCH  27  30
ENDBRANCH  22  24
ENDBRANCH  16  22
ENDBRANCH   1   4
TORSDOF 4
ENDMDL
