MODEL 1
REMARK VINA RESULT: -6.898036778      0.000      0.000
REMARK  8 active torsions:
REMARK  status: ('A' for Active; 'I' for Inactive)
REMARK    1  A    between atoms: C2_2  and  O1_3 
REMARK    2  A    between atoms: O1_3  and  C3_4 
REMARK    3  A    between atoms: C3_4  and  C5_7 
REMARK    4  A    between atoms: C5_7  and  S1_8 
REMARK    5  A    between atoms: S1_8  and  C6_9 
REMARK    6  A    between atoms: N4_15  and  C8_17 
REMARK    7  A    between atoms: C10_19  and  O2_20 
REMARK    8  A    between atoms: C11_22  and  O3_23 
ROOT
HETATM    1  C3  UNL     1       0.077   3.615  10.076  1.00  0.00     0.237 C 
HETATM    2  C4  UNL     1       1.452   3.478   9.614  1.00  0.00     0.092 C 
HETATM    3  N1  UNL     1       2.542   3.364   9.228  1.00  0.00    -0.194 NA
ENDROOT
BRANCH   1   4
HETATM    4  O1  UNL     1      -0.697   2.507   9.790  1.00  0.00    -0.371 OA
BRANCH   4   5
HETATM    5  C2  UNL     1      -1.249   1.908  10.910  1.00  0.00     0.165 C 
HETATM    6  C1  UNL     1      -2.016   0.650  10.588  1.00  0.00     0.033 C 
ENDBRANCH   4   5
ENDBRANCH   1   4
BRANCH   1   7
HETATM    7  C5  UNL     1      -0.614   4.816   9.500  1.00  0.00     0.128 C 
BRANCH   7   8
HETATM    8  S1  UNL     1      -0.965   6.094  10.713  1.00  0.00    -0.100 SA
BRANCH   8   9
HETATM    9  C6  UNL     1      -1.591   5.264  12.190  1.00  0.00     0.130 A 
HETATM   10  N2  UNL     1      -0.953   5.042  13.324  1.00  0.00    -0.286 N 
HETATM   11  N3  UNL     1      -1.520   4.443  14.289  1.00  0.00    -0.279 N 
ATOM     12  H2  UNL     1       0.011   5.358  13.427  1.00  0.00     0.188 HD
HETATM   13  C7  UNL     1      -2.788   4.041  14.121  1.00  0.00     0.162 A 
ATOM     14  H3  UNL     1      -1.025   4.272  15.165  1.00  0.00     0.189 HD
HETATM   15  N4  UNL     1      -3.512   3.419  14.998  1.00  0.00    -0.365 N 
HETATM   16  S2  UNL     1      -3.112   4.564  12.529  1.00  0.00    -0.027 SA
ATOM     17  H4  UNL     1      -3.109   3.201  15.910  1.00  0.00     0.162 HD
BRANCH  15  18
HETATM   18  C8  UNL     1      -4.874   3.027  14.719  1.00  0.00     0.088 C 
HETATM   19  C9  UNL     1      -4.892   1.528  14.500  1.00  0.00     0.059 C 
HETATM   20  C10 UNL     1      -4.971   0.918  15.861  1.00  0.00     0.148 C 
HETATM   21  C11 UNL     1      -5.514   1.972  16.783  1.00  0.00     0.148 C 
HETATM   22  C12 UNL     1      -5.769   3.189  15.930  1.00  0.00     0.059 C 
BRANCH  20  23
HETATM   23  O2  UNL     1      -3.683   0.596  16.271  1.00  0.00    -0.393 OA
ATOM     24  H2  UNL     1      -3.594  -0.349  16.264  1.00  0.00     0.210 HD
ENDBRANCH  20  23
BRANCH  21  25
HETATM   25  O3  UNL     1      -6.687   1.498  17.385  1.00  0.00    -0.393 OA
ATOM     26  H3  UNL     1      -6.642   1.654  18.321  1.00  0.00     0.210 HD
ENDBRANCH  21  25
ENDBRANCH  15  18
ENDBRANCH   8   9
ENDBRANCH   7   8
ENDBRANCH   1   7
TORSDOF 8
ENDMDL
MODEL 2
REMARK VINA RESULT: -6.770149824      1.640      2.455
REMARK  8 active torsions:
REMARK  status: ('A' for Active; 'I' for Inactive)
REMARK    1  A    between atoms: C2_2  and  O1_3 
REMARK    2  A    between atoms: O1_3  and  C3_4 
REMARK    3  A    between atoms: C3_4  and  C5_7 
REMARK    4  A    between atoms: C5_7  and  S1_8 
REMARK    5  A    between atoms: S1_8  and  C6_9 
REMARK    6  A    between atoms: N4_15  and  C8_17 
REMARK    7  A    between atoms: C10_19  and  O2_20 
REMARK    8  A    between atoms: C11_22  and  O3_23 
ROOT
HETATM    1  C3  UNL     1       1.938   4.398   9.983  1.00  0.00     0.237 C 
HETATM    2  C4  UNL     1       2.423   3.880   8.710  1.00  0.00     0.092 C 
HETATM    3  N1  UNL     1       2.813   3.449   7.704  1.00  0.00    -0.194 NA
ENDROOT
BRANCH   1   4
HETATM    4  O1  UNL     1       2.829   4.194  11.019  1.00  0.00    -0.371 OA
BRANCH   4   5
HETATM    5  C2  UNL     1       3.039   5.316  11.802  1.00  0.00     0.165 C 
HETATM    6  C1  UNL     1       4.259   5.201  12.681  1.00  0.00     0.033 C 
ENDBRANCH   4   5
ENDBRANCH   1   4
BRANCH   1   7
HETATM    7  C5  UNL     1       0.621   3.804  10.389  1.00  0.00     0.128 C 
BRANCH   7   8
HETATM    8  S1  UNL     1      -0.656   5.029  10.696  1.00  0.00    -0.100 SA
BRANCH   8   9
HETATM    9  C6  UNL     1      -1.455   4.583  12.253  1.00  0.00     0.130 A 
HETATM   10  N2  UNL     1      -0.946   4.646  13.470  1.00  0.00    -0.286 N 
HETATM   11  N3  UNL     1      -1.626   4.299  14.484  1.00  0.00    -0.279 N 
ATOM     12  H2  UNL     1       0.009   4.979  13.597  1.00  0.00     0.188 HD
HETATM   13  C7  UNL     1      -2.878   3.865  14.282  1.00  0.00     0.162 A 
ATOM     14  H3  UNL     1      -1.231   4.347  15.423  1.00  0.00     0.189 HD
HETATM   15  N4  UNL     1      -3.706   3.474  15.199  1.00  0.00    -0.365 N 
HETATM   16  S2  UNL     1      -3.020   3.984  12.585  1.00  0.00    -0.027 SA
ATOM     17  H4  UNL     1      -3.408   3.486  16.175  1.00  0.00     0.162 HD
BRANCH  15  18
HETATM   18  C8  UNL     1      -5.040   3.023  14.878  1.00  0.00     0.088 C 
HETATM   19  C9  UNL     1      -4.963   1.553  14.526  1.00  0.00     0.059 C 
HETATM   20  C10 UNL     1      -5.004   0.819  15.826  1.00  0.00     0.148 C 
HETATM   21  C11 UNL     1      -5.614   1.750  16.835  1.00  0.00     0.148 C 
HETATM   22  C12 UNL     1      -5.945   3.020  16.092  1.00  0.00     0.059 C 
BRANCH  20  23
HETATM   23  O2  UNL     1      -3.699   0.544  16.214  1.00  0.00    -0.393 OA
ATOM     24  H2  UNL     1      -3.725  -0.066  16.941  1.00  0.00     0.210 HD
ENDBRANCH  20  23
BRANCH  21  25
HETATM   25  O3  UNL     1      -6.754   1.151  17.385  1.00  0.00    -0.393 OA
ATOM     26  H3  UNL     1      -7.002   1.616  18.176  1.00  0.00     0.210 HD
ENDBRANCH  21  25
ENDBRANCH  15  18
ENDBRANCH   8   9
ENDBRANCH   7   8
ENDBRANCH   1   7
TORSDOF 8
ENDMDL
MODEL 3
REMARK VINA RESULT: -6.737076584      1.245      1.399
REMARK  8 active torsions:
REMARK  status: ('A' for Active; 'I' for Inactive)
REMARK    1  A    between atoms: C2_2  and  O1_3 
REMARK    2  A    between atoms: O1_3  and  C3_4 
REMARK    3  A    between atoms: C3_4  and  C5_7 
REMARK    4  A    between atoms: C5_7  and  S1_8 
REMARK    5  A    between atoms: S1_8  and  C6_9 
REMARK    6  A    between atoms: N4_15  and  C8_17 
REMARK    7  A    between atoms: C10_19  and  O2_20 
REMARK    8  A    between atoms: C11_22  and  O3_23 
ROOT
HETATM    1  C3  UNL     1      -0.691   3.330   8.940  1.00  0.00     0.237 C 
HETATM    2  C4  UNL     1      -1.206   4.243   7.927  1.00  0.00     0.092 C 
HETATM    3  N1  UNL     1      -1.629   4.977   7.132  1.00  0.00    -0.194 NA
ENDROOT
BRANCH   1   4
HETATM    4  O1  UNL     1      -1.688   2.617   9.575  1.00  0.00    -0.371 OA
BRANCH   4   5
HETATM    5  C2  UNL     1      -1.215   1.607  10.396  1.00  0.00     0.165 C 
HETATM    6  C1  UNL     1      -2.280   0.611  10.778  1.00  0.00     0.033 C 
ENDBRANCH   4   5
ENDBRANCH   1   4
BRANCH   1   7
HETATM    7  C5  UNL     1       0.115   4.029   9.996  1.00  0.00     0.128 C 
BRANCH   7   8
HETATM    8  S1  UNL     1      -0.733   5.426  10.741  1.00  0.00    -0.100 SA
BRANCH   8   9
HETATM    9  C6  UNL     1      -1.493   4.831  12.267  1.00  0.00     0.130 A 
HETATM   10  N2  UNL     1      -0.964   4.800  13.477  1.00  0.00    -0.286 N 
HETATM   11  N3  UNL     1      -1.617   4.353  14.468  1.00  0.00    -0.279 N 
ATOM     12  H2  UNL     1      -0.013   5.142  13.616  1.00  0.00     0.188 HD
HETATM   13  C7  UNL     1      -2.864   3.911  14.251  1.00  0.00     0.162 A 
ATOM     14  H3  UNL     1      -1.206   4.330  15.402  1.00  0.00     0.189 HD
HETATM   15  N4  UNL     1      -3.667   3.426  15.145  1.00  0.00    -0.365 N 
HETATM   16  S2  UNL     1      -3.039   4.171  12.573  1.00  0.00    -0.027 SA
ATOM     17  H4  UNL     1      -3.350   3.360  16.112  1.00  0.00     0.162 HD
BRANCH  15  18
HETATM   18  C8  UNL     1      -4.997   2.975  14.808  1.00  0.00     0.088 C 
HETATM   19  C9  UNL     1      -4.925   1.492  14.510  1.00  0.00     0.059 C 
HETATM   20  C10 UNL     1      -5.003   0.805  15.833  1.00  0.00     0.148 C 
HETATM   21  C11 UNL     1      -5.628   1.776  16.794  1.00  0.00     0.148 C 
HETATM   22  C12 UNL     1      -5.929   3.021  16.000  1.00  0.00     0.059 C 
BRANCH  20  23
HETATM   23  O2  UNL     1      -3.710   0.533  16.261  1.00  0.00    -0.393 OA
ATOM     24  H2  UNL     1      -3.257   1.357  16.391  1.00  0.00     0.210 HD
ENDBRANCH  20  23
BRANCH  21  25
HETATM   25  O3  UNL     1      -6.786   1.205  17.338  1.00  0.00    -0.393 OA
ATOM     26  H3  UNL     1      -7.496   1.835  17.292  1.00  0.00     0.210 HD
ENDBRANCH  21  25
ENDBRANCH  15  18
ENDBRANCH   8   9
ENDBRANCH   7   8
ENDBRANCH   1   7
TORSDOF 8
ENDMDL
MODEL 4
REMARK VINA RESULT: -6.697302142      2.560      8.238
REMARK  8 active torsions:
REMARK  status: ('A' for Active; 'I' for Inactive)
REMARK    1  A    between atoms: C2_2  and  O1_3 
REMARK    2  A    between atoms: O1_3  and  C3_4 
REMARK    3  A    between atoms: C3_4  and  C5_7 
REMARK    4  A    between atoms: C5_7  and  S1_8 
REMARK    5  A    between atoms: S1_8  and  C6_9 
REMARK    6  A    between atoms: N4_15  and  C8_17 
REMARK    7  A    between atoms: C10_19  and  O2_20 
REMARK    8  A    between atoms: C11_22  and  O3_23 
ROOT
HETATM    1  C3  UNL     1      -4.965   2.840  15.615  1.00  0.00     0.237 C 
HETATM    2  C4  UNL     1      -4.311   1.568  15.895  1.00  0.00     0.092 C 
HETATM    3  N1  UNL     1      -3.800   0.546  16.105  1.00  0.00    -0.194 NA
ENDROOT
BRANCH   1   4
HETATM    4  O1  UNL     1      -6.343   2.748  15.630  1.00  0.00    -0.371 OA
BRANCH   4   5
HETATM    5  C2  UNL     1      -6.872   2.505  16.887  1.00  0.00     0.165 C 
HETATM    6  C1  UNL     1      -7.557   1.165  16.989  1.00  0.00     0.033 C 
ENDBRANCH   4   5
ENDBRANCH   1   4
BRANCH   1   7
HETATM    7  C5  UNL     1      -4.560   3.424  14.293  1.00  0.00     0.128 C 
BRANCH   7   8
HETATM    8  S1  UNL     1      -4.868   2.332  12.901  1.00  0.00    -0.100 SA
BRANCH   8   9
HETATM    9  C6  UNL     1      -3.351   2.284  11.921  1.00  0.00     0.130 A 
HETATM   10  N2  UNL     1      -2.462   1.310  11.854  1.00  0.00    -0.286 N 
HETATM   11  N3  UNL     1      -1.434   1.410  11.118  1.00  0.00    -0.279 N 
ATOM     12  H2  UNL     1      -2.604   0.464  12.405  1.00  0.00     0.188 HD
HETATM   13  C7  UNL     1      -1.277   2.536  10.407  1.00  0.00     0.162 A 
ATOM     14  H3  UNL     1      -0.747   0.656  11.068  1.00  0.00     0.189 HD
HETATM   15  N4  UNL     1      -0.291   2.802   9.609  1.00  0.00    -0.365 N 
HETATM   16  S2  UNL     1      -2.665   3.425  10.851  1.00  0.00    -0.027 SA
ATOM     17  H4  UNL     1       0.450   2.111   9.488  1.00  0.00     0.162 HD
BRANCH  15  18
HETATM   18  C8  UNL     1      -0.214   4.050   8.886  1.00  0.00     0.088 C 
HETATM   19  C9  UNL     1       1.083   4.731   9.269  1.00  0.00     0.059 C 
HETATM   20  C10 UNL     1       2.134   4.132   8.393  1.00  0.00     0.148 C 
HETATM   21  C11 UNL     1       1.429   3.543   7.204  1.00  0.00     0.148 C 
HETATM   22  C12 UNL     1      -0.038   3.832   7.398  1.00  0.00     0.059 C 
BRANCH  20  23
HETATM   23  O2  UNL     1       2.752   3.103   9.092  1.00  0.00    -0.393 OA
ATOM     24  H2  UNL     1       2.569   2.285   8.645  1.00  0.00     0.210 HD
ENDBRANCH  20  23
BRANCH  21  25
HETATM   25  O3  UNL     1       1.930   4.128   6.035  1.00  0.00    -0.393 OA
ATOM     26  H3  UNL     1       1.493   3.747   5.282  1.00  0.00     0.210 HD
ENDBRANCH  21  25
ENDBRANCH  15  18
ENDBRANCH   8   9
ENDBRANCH   7   8
ENDBRANCH   1   7
TORSDOF 8
ENDMDL
MODEL 5
REMARK VINA RESULT: -6.674361395      2.015      7.805
REMARK  8 active torsions:
REMARK  status: ('A' for Active; 'I' for Inactive)
REMARK    1  A    between atoms: C2_2  and  O1_3 
REMARK    2  A    between atoms: O1_3  and  C3_4 
REMARK    3  A    between atoms: C3_4  and  C5_7 
REMARK    4  A    between atoms: C5_7  and  S1_8 
REMARK    5  A    between atoms: S1_8  and  C6_9 
REMARK    6  A    between atoms: N4_15  and  C8_17 
REMARK    7  A    between atoms: C10_19  and  O2_20 
REMARK    8  A    between atoms: C11_22  and  O3_23 
ROOT
HETATM    1  C3  UNL     1      -5.588   2.492  15.868  1.00  0.00     0.237 C 
HETATM    2  C4  UNL     1      -4.596   1.428  15.951  1.00  0.00     0.092 C 
HETATM    3  N1  UNL     1      -3.818   0.567  16.007  1.00  0.00    -0.194 NA
ENDROOT
BRANCH   1   4
HETATM    4  O1  UNL     1      -6.835   2.099  16.312  1.00  0.00    -0.371 OA
BRANCH   4   5
HETATM    5  C2  UNL     1      -6.812   1.454  17.537  1.00  0.00     0.165 C 
HETATM    6  C1  UNL     1      -6.507   2.381  18.686  1.00  0.00     0.033 C 
ENDBRANCH   4   5
ENDBRANCH   1   4
BRANCH   1   7
HETATM    7  C5  UNL     1      -5.747   3.032  14.477  1.00  0.00     0.128 C 
BRANCH   7   8
HETATM    8  S1  UNL     1      -5.064   4.679  14.262  1.00  0.00    -0.100 SA
BRANCH   8   9
HETATM    9  C6  UNL     1      -3.366   4.477  13.680  1.00  0.00     0.130 A 
HETATM   10  N2  UNL     1      -2.334   3.995  14.347  1.00  0.00    -0.286 N 
HETATM   11  N3  UNL     1      -1.188   3.908  13.810  1.00  0.00    -0.279 N 
ATOM     12  H2  UNL     1      -2.461   3.688  15.312  1.00  0.00     0.188 HD
HETATM   13  C7  UNL     1      -1.056   4.320  12.541  1.00  0.00     0.162 A 
ATOM     14  H3  UNL     1      -0.391   3.535  14.328  1.00  0.00     0.189 HD
HETATM   15  N4  UNL     1       0.036   4.301  11.844  1.00  0.00    -0.365 N 
HETATM   16  S2  UNL     1      -2.643   4.830  12.173  1.00  0.00    -0.027 SA
ATOM     17  H4  UNL     1       0.892   3.946  12.271  1.00  0.00     0.162 HD
BRANCH  15  18
HETATM   18  C8  UNL     1       0.075   4.770  10.478  1.00  0.00     0.088 C 
HETATM   19  C9  UNL     1       1.252   5.713  10.342  1.00  0.00     0.059 C 
HETATM   20  C10 UNL     1       2.444   4.846  10.102  1.00  0.00     0.148 C 
HETATM   21  C11 UNL     1       1.932   3.532   9.585  1.00  0.00     0.148 C 
HETATM   22  C12 UNL     1       0.432   3.663   9.509  1.00  0.00     0.059 C 
BRANCH  20  23
HETATM   23  O2  UNL     1       3.075   4.625  11.319  1.00  0.00    -0.393 OA
ATOM     24  H2  UNL     1       3.970   4.355  11.148  1.00  0.00     0.210 HD
ENDBRANCH  20  23
BRANCH  21  25
HETATM   25  O3  UNL     1       2.502   3.277   8.331  1.00  0.00    -0.393 OA
ATOM     26  H3  UNL     1       1.817   3.265   7.673  1.00  0.00     0.210 HD
ENDBRANCH  21  25
ENDBRANCH  15  18
ENDBRANCH   8   9
ENDBRANCH   7   8
ENDBRANCH   1   7
TORSDOF 8
ENDMDL
