MODEL 1
REMARK VINA RESULT: -5.667877963      0.000      0.000
REMARK  8 active torsions:
REMARK  status: ('A' for Active; 'I' for Inactive)
REMARK    1  A    between atoms: C2_2  and  O1_4 
REMARK    2  A    between atoms: O1_4  and  C4_5 
REMARK    3  A    between atoms: C4_5  and  C5_6 
REMARK    4  A    between atoms: C5_6  and  O2_7 
REMARK    5  A    between atoms: C7_11  and  S1_12 
REMARK    6  A    between atoms: S1_12  and  C8_13 
REMARK    7  A    between atoms: C11_18  and  O5_19 
REMARK    8  A    between atoms: C12_21  and  O6_22 
ROOT
HETATM    1  C4  UNL     1      -2.593   4.152  11.786  1.00  0.00     0.132 C 
HETATM    2  C6  UNL     1      -3.404   3.171  12.626  1.00  0.00     0.212 C 
HETATM    3  O3  UNL     1      -4.763   3.466  12.506  1.00  0.00    -0.370 OA
HETATM    4  C7  UNL     1      -5.039   4.535  13.370  1.00  0.00     0.215 C 
HETATM    5  C11 UNL     1      -4.227   5.705  12.906  1.00  0.00     0.189 C 
HETATM    6  C12 UNL     1      -3.383   5.424  11.697  1.00  0.00     0.189 C 
ENDROOT
BRANCH   1   7
HETATM    7  O1  UNL     1      -2.396   3.527  10.570  1.00  0.00    -0.368 OA
BRANCH   7   8
HETATM    8  C2  UNL     1      -1.241   2.783  10.485  1.00  0.00     0.114 C 
HETATM    9  C1  UNL     1      -0.577   3.159   9.166  1.00  0.00     0.039 C 
HETATM   10  C3  UNL     1      -1.494   1.291  10.419  1.00  0.00     0.039 C 
ENDBRANCH   7   8
ENDBRANCH   1   7
BRANCH   1  11
HETATM   11  C5  UNL     1      -1.276   4.334  12.493  1.00  0.00     0.207 C 
BRANCH  11  12
HETATM   12  O2  UNL     1      -1.407   3.978  13.825  1.00  0.00    -0.398 OA
ATOM     13  H2  UNL     1      -0.812   4.494  14.356  1.00  0.00     0.209 HD
ENDBRANCH  11  12
ENDBRANCH   1  11
BRANCH   6  14
HETATM   14  O6  UNL     1      -2.568   6.552  11.511  1.00  0.00    -0.390 OA
ATOM     15  H6  UNL     1      -2.457   7.057  12.308  1.00  0.00     0.210 HD
ENDBRANCH   6  14
BRANCH   5  16
HETATM   16  O5  UNL     1      -3.427   6.256  13.895  1.00  0.00    -0.389 OA
ATOM     17  H5  UNL     1      -3.823   6.246  14.758  1.00  0.00     0.210 HD
ENDBRANCH   5  16
BRANCH   4  18
HETATM   18  S1  UNL     1      -4.621   3.982  15.032  1.00  0.00    -0.117 SA
BRANCH  18  19
HETATM   19  C8  UNL     1      -5.331   2.390  15.452  1.00  0.00     0.137 C 
HETATM   20  C9  UNL     1      -4.400   1.544  16.319  1.00  0.00     0.194 C 
HETATM   21  O4  UNL     1      -5.188   0.597  16.944  1.00  0.00    -0.379 OA
HETATM   22  C10 UNL     1      -6.048   1.282  17.819  1.00  0.00     0.242 C 
HETATM   23  S2  UNL     1      -6.696   2.544  16.663  1.00  0.00    -0.126 SA
ENDBRANCH  18  19
ENDBRANCH   4  18
TORSDOF 8
ENDMDL
MODEL 2
REMARK VINA RESULT: -5.562011072      2.485      6.331
REMARK  8 active torsions:
REMARK  status: ('A' for Active; 'I' for Inactive)
REMARK    1  A    between atoms: C2_2  and  O1_4 
REMARK    2  A    between atoms: O1_4  and  C4_5 
REMARK    3  A    between atoms: C4_5  and  C5_6 
REMARK    4  A    between atoms: C5_6  and  O2_7 
REMARK    5  A    between atoms: C7_11  and  S1_12 
REMARK    6  A    between atoms: S1_12  and  C8_13 
REMARK    7  A    between atoms: C11_18  and  O5_19 
REMARK    8  A    between atoms: C12_21  and  O6_22 
ROOT
HETATM    1  C4  UNL     1      -5.138   2.939  14.536  1.00  0.00     0.132 C 
HETATM    2  C6  UNL     1      -4.987   4.418  14.198  1.00  0.00     0.212 C 
HETATM    3  O3  UNL     1      -5.398   4.640  12.883  1.00  0.00    -0.370 OA
HETATM    4  C7  UNL     1      -4.338   4.272  12.043  1.00  0.00     0.215 C 
HETATM    5  C11 UNL     1      -4.089   2.810  12.252  1.00  0.00     0.189 C 
HETATM    6  C12 UNL     1      -5.004   2.171  13.255  1.00  0.00     0.189 C 
ENDROOT
BRANCH   1   7
HETATM    7  O1  UNL     1      -6.376   2.819  15.137  1.00  0.00    -0.368 OA
BRANCH   7   8
HETATM    8  C2  UNL     1      -6.341   2.618  16.497  1.00  0.00     0.114 C 
HETATM    9  C1  UNL     1      -7.125   1.338  16.769  1.00  0.00     0.039 C 
HETATM   10  C3  UNL     1      -7.034   3.711  17.283  1.00  0.00     0.039 C 
ENDBRANCH   7   8
ENDBRANCH   1   7
BRANCH   1  11
HETATM   11  C5  UNL     1      -4.050   2.613  15.526  1.00  0.00     0.207 C 
BRANCH  11  12
HETATM   12  O2  UNL     1      -2.992   3.491  15.363  1.00  0.00    -0.398 OA
ATOM     13  H2  UNL     1      -2.186   3.078  15.650  1.00  0.00     0.209 HD
ENDBRANCH  11  12
ENDBRANCH   1  11
BRANCH   6  14
HETATM   14  O6  UNL     1      -4.523   0.867  13.456  1.00  0.00    -0.390 OA
ATOM     15  H6  UNL     1      -5.221   0.223  13.492  1.00  0.00     0.210 HD
ENDBRANCH   6  14
BRANCH   5  16
HETATM   16  O5  UNL     1      -2.777   2.509  12.585  1.00  0.00    -0.389 OA
ATOM     17  H5  UNL     1      -2.619   2.473  13.520  1.00  0.00     0.210 HD
ENDBRANCH   5  16
BRANCH   4  18
HETATM   18  S1  UNL     1      -2.937   5.312  12.488  1.00  0.00    -0.117 SA
BRANCH  18  19
HETATM   19  C8  UNL     1      -1.828   5.640  11.118  1.00  0.00     0.137 C 
HETATM   20  C9  UNL     1      -0.524   4.852  11.218  1.00  0.00     0.194 C 
HETATM   21  O4  UNL     1       0.019   4.815   9.948  1.00  0.00    -0.379 OA
HETATM   22  C10 UNL     1      -0.853   4.060   9.145  1.00  0.00     0.242 C 
HETATM   23  S2  UNL     1      -2.427   4.897   9.556  1.00  0.00    -0.126 SA
ENDBRANCH  18  19
ENDBRANCH   4  18
TORSDOF 8
ENDMDL
MODEL 3
REMARK VINA RESULT: -5.559942180      3.529      7.065
REMARK  8 active torsions:
REMARK  status: ('A' for Active; 'I' for Inactive)
REMARK    1  A    between atoms: C2_2  and  O1_4 
REMARK    2  A    between atoms: O1_4  and  C4_5 
REMARK    3  A    between atoms: C4_5  and  C5_6 
REMARK    4  A    between atoms: C5_6  and  O2_7 
REMARK    5  A    between atoms: C7_11  and  S1_12 
REMARK    6  A    between atoms: S1_12  and  C8_13 
REMARK    7  A    between atoms: C11_18  and  O5_19 
REMARK    8  A    between atoms: C12_21  and  O6_22 
ROOT
HETATM    1  C4  UNL     1      -3.775   2.925  11.623  1.00  0.00     0.132 C 
HETATM    2  C6  UNL     1      -2.270   2.683  11.558  1.00  0.00     0.212 C 
HETATM    3  O3  UNL     1      -1.596   3.893  11.722  1.00  0.00    -0.370 OA
HETATM    4  C7  UNL     1      -1.608   4.552  10.484  1.00  0.00     0.215 C 
HETATM    5  C11 UNL     1      -3.040   4.818  10.135  1.00  0.00     0.189 C 
HETATM    6  C12 UNL     1      -4.022   4.331  11.161  1.00  0.00     0.189 C 
ENDROOT
BRANCH   1   7
HETATM    7  O1  UNL     1      -4.134   2.694  12.937  1.00  0.00    -0.368 OA
BRANCH   7   8
HETATM    8  C2  UNL     1      -4.507   3.817  13.639  1.00  0.00     0.114 C 
HETATM    9  C1  UNL     1      -3.474   4.002  14.746  1.00  0.00     0.039 C 
HETATM   10  C3  UNL     1      -5.846   3.672  14.332  1.00  0.00     0.039 C 
ENDBRANCH   7   8
ENDBRANCH   1   7
BRANCH   1  11
HETATM   11  C5  UNL     1      -4.413   1.897  10.725  1.00  0.00     0.207 C 
BRANCH  11  12
HETATM   12  O2  UNL     1      -5.773   1.838  10.974  1.00  0.00    -0.398 OA
ATOM     13  H2  UNL     1      -6.185   1.235  10.367  1.00  0.00     0.209 HD
ENDBRANCH  11  12
ENDBRANCH   1  11
BRANCH   6  14
HETATM   14  O6  UNL     1      -5.298   4.497  10.599  1.00  0.00    -0.390 OA
ATOM     15  H6  UNL     1      -5.489   5.403  10.389  1.00  0.00     0.210 HD
ENDBRANCH   6  14
BRANCH   5  16
HETATM   16  O5  UNL     1      -3.411   4.330   8.891  1.00  0.00    -0.389 OA
ATOM     17  H5  UNL     1      -4.209   3.816   8.905  1.00  0.00     0.210 HD
ENDBRANCH   5  16
BRANCH   4  18
HETATM   18  S1  UNL     1      -0.769   3.473   9.313  1.00  0.00    -0.117 SA
BRANCH  18  19
HETATM   19  C8  UNL     1       0.638   4.245   8.514  1.00  0.00     0.137 C 
HETATM   20  C9  UNL     1       1.964   3.597   8.908  1.00  0.00     0.194 C 
HETATM   21  O4  UNL     1       2.879   3.935   7.929  1.00  0.00    -0.379 OA
HETATM   22  C10 UNL     1       2.463   3.317   6.738  1.00  0.00     0.242 C 
HETATM   23  S2  UNL     1       0.714   3.856   6.726  1.00  0.00    -0.126 SA
ENDBRANCH  18  19
ENDBRANCH   4  18
TORSDOF 8
ENDMDL
MODEL 4
REMARK VINA RESULT: -5.557316884      1.855      2.444
REMARK  8 active torsions:
REMARK  status: ('A' for Active; 'I' for Inactive)
REMARK    1  A    between atoms: C2_2  and  O1_4 
REMARK    2  A    between atoms: O1_4  and  C4_5 
REMARK    3  A    between atoms: C4_5  and  C5_6 
REMARK    4  A    between atoms: C5_6  and  O2_7 
REMARK    5  A    between atoms: C7_11  and  S1_12 
REMARK    6  A    between atoms: S1_12  and  C8_13 
REMARK    7  A    between atoms: C11_18  and  O5_19 
REMARK    8  A    between atoms: C12_21  and  O6_22 
ROOT
HETATM    1  C4  UNL     1      -2.470   3.363  10.668  1.00  0.00     0.132 C 
HETATM    2  C6  UNL     1      -3.868   2.852  11.001  1.00  0.00     0.212 C 
HETATM    3  O3  UNL     1      -4.651   3.907  11.470  1.00  0.00    -0.370 OA
HETATM    4  C7  UNL     1      -4.330   4.102  12.821  1.00  0.00     0.215 C 
HETATM    5  C11 UNL     1      -2.883   4.482  12.885  1.00  0.00     0.189 C 
HETATM    6  C12 UNL     1      -2.208   4.551  11.546  1.00  0.00     0.189 C 
ENDROOT
BRANCH   1   7
HETATM    7  O1  UNL     1      -2.492   3.655   9.319  1.00  0.00    -0.368 OA
BRANCH   7   8
HETATM    8  C2  UNL     1      -2.347   4.989   9.015  1.00  0.00     0.114 C 
HETATM    9  C1  UNL     1      -3.565   5.382   8.186  1.00  0.00     0.039 C 
HETATM   10  C3  UNL     1      -1.138   5.278   8.150  1.00  0.00     0.039 C 
ENDBRANCH   7   8
ENDBRANCH   1   7
BRANCH   1  11
HETATM   11  C5  UNL     1      -1.523   2.222  10.934  1.00  0.00     0.207 C 
BRANCH  11  12
HETATM   12  O2  UNL     1      -2.158   1.254  11.694  1.00  0.00    -0.398 OA
ATOM     13  H2  UNL     1      -1.642   1.064  12.468  1.00  0.00     0.209 HD
ENDBRANCH  11  12
ENDBRANCH   1  11
BRANCH   6  14
HETATM   14  O6  UNL     1      -0.840   4.740  11.801  1.00  0.00    -0.390 OA
ATOM     15  H6  UNL     1      -0.519   5.570  11.468  1.00  0.00     0.210 HD
ENDBRANCH   6  14
BRANCH   5  16
HETATM   16  O5  UNL     1      -2.131   3.677  13.727  1.00  0.00    -0.389 OA
ATOM     17  H5  UNL     1      -1.282   4.041  13.945  1.00  0.00     0.210 HD
ENDBRANCH   5  16
BRANCH   4  18
HETATM   18  S1  UNL     1      -4.709   2.561  13.672  1.00  0.00    -0.117 SA
BRANCH  18  19
HETATM   19  C8  UNL     1      -5.112   2.784  15.404  1.00  0.00     0.137 C 
HETATM   20  C9  UNL     1      -6.502   3.382  15.610  1.00  0.00     0.194 C 
HETATM   21  O4  UNL     1      -6.877   3.084  16.906  1.00  0.00    -0.379 OA
HETATM   22  C10 UNL     1      -7.019   1.688  16.988  1.00  0.00     0.242 C 
HETATM   23  S2  UNL     1      -5.421   1.189  16.250  1.00  0.00    -0.126 SA
ENDBRANCH  18  19
ENDBRANCH   4  18
TORSDOF 8
ENDMDL
MODEL 5
REMARK VINA RESULT: -5.544354978      3.473      6.582
REMARK  8 active torsions:
REMARK  status: ('A' for Active; 'I' for Inactive)
REMARK    1  A    between atoms: C2_2  and  O1_4 
REMARK    2  A    between atoms: O1_4  and  C4_5 
REMARK    3  A    between atoms: C4_5  and  C5_6 
REMARK    4  A    between atoms: C5_6  and  O2_7 
REMARK    5  A    between atoms: C7_11  and  S1_12 
REMARK    6  A    between atoms: S1_12  and  C8_13 
REMARK    7  A    between atoms: C11_18  and  O5_19 
REMARK    8  A    between atoms: C12_21  and  O6_22 
ROOT
HETATM    1  C4  UNL     1      -3.977   3.272  11.631  1.00  0.00     0.132 C 
HETATM    2  C6  UNL     1      -2.466   3.071  11.715  1.00  0.00     0.212 C 
HETATM    3  O3  UNL     1      -1.836   4.311  11.819  1.00  0.00    -0.370 OA
HETATM    4  C7  UNL     1      -1.758   4.853  10.528  1.00  0.00     0.215 C 
HETATM    5  C11 UNL     1      -3.160   5.041  10.037  1.00  0.00     0.189 C 
HETATM    6  C12 UNL     1      -4.215   4.621  11.020  1.00  0.00     0.189 C 
ENDROOT
BRANCH   1   7
HETATM    7  O1  UNL     1      -4.440   3.152  12.927  1.00  0.00    -0.368 OA
BRANCH   7   8
HETATM    8  C2  UNL     1      -4.504   4.333  13.629  1.00  0.00     0.114 C 
HETATM    9  C1  UNL     1      -3.580   4.176  14.831  1.00  0.00     0.039 C 
HETATM   10  C3  UNL     1      -5.881   4.623  14.191  1.00  0.00     0.039 C 
ENDBRANCH   7   8
ENDBRANCH   1   7
BRANCH   1  11
HETATM   11  C5  UNL     1      -4.511   2.147  10.785  1.00  0.00     0.207 C 
BRANCH  11  12
HETATM   12  O2  UNL     1      -5.858   1.962  11.049  1.00  0.00    -0.398 OA
ATOM     13  H2  UNL     1      -6.035   1.039  11.187  1.00  0.00     0.209 HD
ENDBRANCH  11  12
ENDBRANCH   1  11
BRANCH   6  14
HETATM   14  O6  UNL     1      -5.442   4.695  10.342  1.00  0.00    -0.390 OA
ATOM     15  H6  UNL     1      -5.976   5.425  10.633  1.00  0.00     0.210 HD
ENDBRANCH   6  14
BRANCH   5  16
HETATM   16  O5  UNL     1      -3.413   4.430   8.819  1.00  0.00    -0.389 OA
ATOM     17  H5  UNL     1      -3.090   4.919   8.072  1.00  0.00     0.210 HD
ENDBRANCH   5  16
BRANCH   4  18
HETATM   18  S1  UNL     1      -0.797   3.697   9.537  1.00  0.00    -0.117 SA
BRANCH  18  19
HETATM   19  C8  UNL     1       0.891   3.500  10.108  1.00  0.00     0.137 C 
HETATM   20  C9  UNL     1       1.901   3.505   8.963  1.00  0.00     0.194 C 
HETATM   21  O4  UNL     1       3.130   3.810   9.516  1.00  0.00    -0.379 OA
HETATM   22  C10 UNL     1       3.054   5.128   9.997  1.00  0.00     0.242 C 
HETATM   23  S2  UNL     1       1.506   4.997  10.964  1.00  0.00    -0.126 SA
ENDBRANCH  18  19
ENDBRANCH   4  18
TORSDOF 8
ENDMDL
