MODEL 1
REMARK VINA RESULT: -7.742154548      0.000      0.000
REMARK  11 active torsions:
REMARK  status: ('A' for Active; 'I' for Inactive)
REMARK    1  A    between atoms: C2_2  and  C3_3 
REMARK    2  A    between atoms: C3_3  and  C4_4 
REMARK    3  A    between atoms: C4_4  and  C5_5 
REMARK    4  A    between atoms: C6_7  and  O2_9 
REMARK    5  A    between atoms: C9_13  and  O4_15 
REMARK    6  A    between atoms: O4_15  and  C11_16 
REMARK    7  A    between atoms: C11_16  and  C12_18 
REMARK    8  A    between atoms: C12_18  and  C13_19 
REMARK    9  A    between atoms: C13_19  and  O6_20 
REMARK   10  A    between atoms: O6_20  and  C14_21 
REMARK   11  A    between atoms: C16_24  and  O8_25 
ROOT
HETATM    1  C5  UNL     1      -2.607   2.332  10.730  1.00  0.00     0.168 C 
HETATM    2  O1  UNL     1      -2.056   3.242   9.864  1.00  0.00    -0.340 OA
HETATM    3  C6  UNL     1      -2.841   4.389   9.802  1.00  0.00     0.224 C 
HETATM    4  C7  UNL     1      -1.997   5.615   9.513  1.00  0.00     0.088 C 
HETATM    5  C8  UNL     1      -3.709   4.575  10.984  1.00  0.00     0.225 C 
HETATM    6  O3  UNL     1      -4.689   5.289  10.928  1.00  0.00    -0.288 OA
HETATM    7  C9  UNL     1      -3.493   3.923  12.344  1.00  0.00     0.161 C 
HETATM    8  C10 UNL     1      -3.086   5.042  13.272  1.00  0.00     0.058 C 
HETATM    9  C16 UNL     1      -2.394   2.879  12.138  1.00  0.00     0.190 C 
ENDROOT
BRANCH   7  10
HETATM   10  O4  UNL     1      -4.709   3.443  12.725  1.00  0.00    -0.299 OA
BRANCH  10  11
HETATM   11  C11 UNL     1      -5.134   3.015  13.954  1.00  0.00     0.262 C 
HETATM   12  O5  UNL     1      -5.997   3.652  14.569  1.00  0.00    -0.265 OA
BRANCH  11  13
HETATM   13  C12 UNL     1      -4.493   1.771  14.484  1.00  0.00     0.138 C 
BRANCH  13  14
HETATM   14  C13 UNL     1      -3.924   1.864  15.815  1.00  0.00     0.188 C 
BRANCH  14  15
HETATM   15  O6  UNL     1      -4.628   1.566  16.970  1.00  0.00    -0.321 OA
BRANCH  15  16
HETATM   16  C14 UNL     1      -5.778   0.736  16.915  1.00  0.00     0.254 C 
HETATM   17  C15 UNL     1      -7.149   1.264  16.852  1.00  0.00     0.126 C 
HETATM   18  O7  UNL     1      -5.534  -0.509  16.925  1.00  0.00    -0.266 OA
ENDBRANCH  15  16
ENDBRANCH  14  15
ENDBRANCH  13  14
ENDBRANCH  11  13
ENDBRANCH  10  11
ENDBRANCH   7  10
BRANCH   9  19
HETATM   19  O8  UNL     1      -1.157   3.537  12.149  1.00  0.00    -0.389 OA
ATOM     20  H8  UNL     1      -1.316   4.447  11.931  1.00  0.00     0.210 HD
ENDBRANCH   9  19
BRANCH   3  21
HETATM   21  O2  UNL     1      -3.647   4.234   8.683  1.00  0.00    -0.360 OA
ATOM     22  H2  UNL     1      -4.273   3.555   8.908  1.00  0.00     0.213 HD
ENDBRANCH   3  21
BRANCH   1  23
HETATM   23  C4  UNL     1      -2.014   1.008  10.600  1.00  0.00     0.119 C 
BRANCH  23  24
HETATM   24  C3  UNL     1      -2.529  -0.080  10.879  1.00  0.00    -0.154 C 
BRANCH  24  25
HETATM   25  C2  UNL     1      -3.109  -1.287  11.191  1.00  0.00     0.040 C 
HETATM   26  C1  UNL     1      -2.534  -2.508  11.133  1.00  0.00     0.020 C 
ENDBRANCH  24  25
ENDBRANCH  23  24
ENDBRANCH   1  23
TORSDOF 11
ENDMDL
MODEL 2
REMARK VINA RESULT: -7.722172541      1.709      3.874
REMARK  11 active torsions:
REMARK  status: ('A' for Active; 'I' for Inactive)
REMARK    1  A    between atoms: C2_2  and  C3_3 
REMARK    2  A    between atoms: C3_3  and  C4_4 
REMARK    3  A    between atoms: C4_4  and  C5_5 
REMARK    4  A    between atoms: C6_7  and  O2_9 
REMARK    5  A    between atoms: C9_13  and  O4_15 
REMARK    6  A    between atoms: O4_15  and  C11_16 
REMARK    7  A    between atoms: C11_16  and  C12_18 
REMARK    8  A    between atoms: C12_18  and  C13_19 
REMARK    9  A    between atoms: C13_19  and  O6_20 
REMARK   10  A    between atoms: O6_20  and  C14_21 
REMARK   11  A    between atoms: C16_24  and  O8_25 
ROOT
HETATM    1  C5  UNL     1      -3.240   4.324  11.718  1.00  0.00     0.168 C 
HETATM    2  O1  UNL     1      -2.448   4.739  10.678  1.00  0.00    -0.340 OA
HETATM    3  C6  UNL     1      -1.369   3.875  10.516  1.00  0.00     0.224 C 
HETATM    4  C7  UNL     1      -0.929   3.813   9.067  1.00  0.00     0.088 C 
HETATM    5  C8  UNL     1      -1.599   2.530  11.087  1.00  0.00     0.225 C 
HETATM    6  O3  UNL     1      -0.666   1.803  11.356  1.00  0.00    -0.288 OA
HETATM    7  C9  UNL     1      -2.965   1.929  11.394  1.00  0.00     0.161 C 
HETATM    8  C10 UNL     1      -3.161   0.825  10.383  1.00  0.00     0.058 C 
HETATM    9  C16 UNL     1      -3.970   3.072  11.243  1.00  0.00     0.190 C 
ENDROOT
BRANCH   7  10
HETATM   10  O4  UNL     1      -2.861   1.385  12.638  1.00  0.00    -0.299 OA
BRANCH  10  11
HETATM   11  C11 UNL     1      -3.839   0.895  13.463  1.00  0.00     0.262 C 
HETATM   12  O5  UNL     1      -4.252  -0.261  13.314  1.00  0.00    -0.265 OA
BRANCH  11  13
HETATM   13  C12 UNL     1      -4.358   1.829  14.510  1.00  0.00     0.138 C 
BRANCH  13  14
HETATM   14  C13 UNL     1      -3.814   1.658  15.843  1.00  0.00     0.188 C 
BRANCH  14  15
HETATM   15  O6  UNL     1      -4.598   1.502  16.974  1.00  0.00    -0.321 OA
BRANCH  15  16
HETATM   16  C14 UNL     1      -5.772   0.706  16.930  1.00  0.00     0.254 C 
HETATM   17  C15 UNL     1      -7.126   1.273  16.855  1.00  0.00     0.126 C 
HETATM   18  O7  UNL     1      -5.565  -0.545  16.960  1.00  0.00    -0.266 OA
ENDBRANCH  15  16
ENDBRANCH  14  15
ENDBRANCH  13  14
ENDBRANCH  11  13
ENDBRANCH  10  11
ENDBRANCH   7  10
BRANCH   9  19
HETATM   19  O8  UNL     1      -4.243   3.238   9.878  1.00  0.00    -0.389 OA
ATOM     20  H8  UNL     1      -4.104   2.399   9.456  1.00  0.00     0.210 HD
ENDBRANCH   9  19
BRANCH   3  21
HETATM   21  O2  UNL     1      -0.309   4.464  11.191  1.00  0.00    -0.360 OA
ATOM     22  H2  UNL     1       0.435   3.888  11.058  1.00  0.00     0.213 HD
ENDBRANCH   3  21
BRANCH   1  23
HETATM   23  C4  UNL     1      -4.193   5.345  12.134  1.00  0.00     0.119 C 
BRANCH  23  24
HETATM   24  C3  UNL     1      -5.081   5.244  12.988  1.00  0.00    -0.154 C 
BRANCH  24  25
HETATM   25  C2  UNL     1      -6.073   5.128  13.933  1.00  0.00     0.040 C 
HETATM   26  C1  UNL     1      -5.917   4.913  15.257  1.00  0.00     0.020 C 
ENDBRANCH  24  25
ENDBRANCH  23  24
ENDBRANCH   1  23
TORSDOF 11
ENDMDL
MODEL 3
REMARK VINA RESULT: -7.694799693      1.877      4.212
REMARK  11 active torsions:
REMARK  status: ('A' for Active; 'I' for Inactive)
REMARK    1  A    between atoms: C2_2  and  C3_3 
REMARK    2  A    between atoms: C3_3  and  C4_4 
REMARK    3  A    between atoms: C4_4  and  C5_5 
REMARK    4  A    between atoms: C6_7  and  O2_9 
REMARK    5  A    between atoms: C9_13  and  O4_15 
REMARK    6  A    between atoms: O4_15  and  C11_16 
REMARK    7  A    between atoms: C11_16  and  C12_18 
REMARK    8  A    between atoms: C12_18  and  C13_19 
REMARK    9  A    between atoms: C13_19  and  O6_20 
REMARK   10  A    between atoms: O6_20  and  C14_21 
REMARK   11  A    between atoms: C16_24  and  O8_25 
ROOT
HETATM    1  C5  UNL     1      -3.558   4.275  11.940  1.00  0.00     0.168 C 
HETATM    2  O1  UNL     1      -2.831   4.775  10.890  1.00  0.00    -0.340 OA
HETATM    3  C6  UNL     1      -1.706   3.989  10.661  1.00  0.00     0.224 C 
HETATM    4  C7  UNL     1      -1.315   4.005   9.197  1.00  0.00     0.088 C 
HETATM    5  C8  UNL     1      -1.829   2.614  11.190  1.00  0.00     0.225 C 
HETATM    6  O3  UNL     1      -0.842   1.940  11.402  1.00  0.00    -0.288 OA
HETATM    7  C9  UNL     1      -3.141   1.915  11.521  1.00  0.00     0.161 C 
HETATM    8  C10 UNL     1      -3.302   0.835  10.478  1.00  0.00     0.058 C 
HETATM    9  C16 UNL     1      -4.222   2.995  11.444  1.00  0.00     0.190 C 
ENDROOT
BRANCH   7  10
HETATM   10  O4  UNL     1      -2.959   1.337  12.741  1.00  0.00    -0.299 OA
BRANCH  10  11
HETATM   11  C11 UNL     1      -3.886   0.891  13.645  1.00  0.00     0.262 C 
HETATM   12  O5  UNL     1      -4.282  -0.280  13.600  1.00  0.00    -0.265 OA
BRANCH  11  13
HETATM   13  C12 UNL     1      -4.374   1.891  14.646  1.00  0.00     0.138 C 
BRANCH  13  14
HETATM   14  C13 UNL     1      -3.867   1.739  15.996  1.00  0.00     0.188 C 
BRANCH  14  15
HETATM   15  O6  UNL     1      -4.677   1.511  17.096  1.00  0.00    -0.321 OA
BRANCH  15  16
HETATM   16  C14 UNL     1      -5.825   0.684  16.982  1.00  0.00     0.254 C 
HETATM   17  C15 UNL     1      -7.191   1.214  16.866  1.00  0.00     0.126 C 
HETATM   18  O7  UNL     1      -5.582  -0.562  16.989  1.00  0.00    -0.266 OA
ENDBRANCH  15  16
ENDBRANCH  14  15
ENDBRANCH  13  14
ENDBRANCH  11  13
ENDBRANCH  10  11
ENDBRANCH   7  10
BRANCH   9  19
HETATM   19  O8  UNL     1      -4.554   3.188  10.097  1.00  0.00    -0.389 OA
ATOM     20  H8  UNL     1      -4.729   2.333   9.721  1.00  0.00     0.210 HD
ENDBRANCH   9  19
BRANCH   3  21
HETATM   21  O2  UNL     1      -0.662   4.623  11.321  1.00  0.00    -0.360 OA
ATOM     22  H2  UNL     1      -0.487   4.098  12.093  1.00  0.00     0.213 HD
ENDBRANCH   3  21
BRANCH   1  23
HETATM   23  C4  UNL     1      -4.558   5.216  12.424  1.00  0.00     0.119 C 
BRANCH  23  24
HETATM   24  C3  UNL     1      -5.005   6.209  11.838  1.00  0.00    -0.154 C 
BRANCH  24  25
HETATM   25  C2  UNL     1      -5.500   7.318  11.192  1.00  0.00     0.040 C 
HETATM   26  C1  UNL     1      -6.775   7.766  11.203  1.00  0.00     0.020 C 
ENDBRANCH  24  25
ENDBRANCH  23  24
ENDBRANCH   1  23
TORSDOF 11
ENDMDL
MODEL 4
REMARK VINA RESULT: -7.598907495      1.173      1.255
REMARK  11 active torsions:
REMARK  status: ('A' for Active; 'I' for Inactive)
REMARK    1  A    between atoms: C2_2  and  C3_3 
REMARK    2  A    between atoms: C3_3  and  C4_4 
REMARK    3  A    between atoms: C4_4  and  C5_5 
REMARK    4  A    between atoms: C6_7  and  O2_9 
REMARK    5  A    between atoms: C9_13  and  O4_15 
REMARK    6  A    between atoms: O4_15  and  C11_16 
REMARK    7  A    between atoms: C11_16  and  C12_18 
REMARK    8  A    between atoms: C12_18  and  C13_19 
REMARK    9  A    between atoms: C13_19  and  O6_20 
REMARK   10  A    between atoms: O6_20  and  C14_21 
REMARK   11  A    between atoms: C16_24  and  O8_25 
ROOT
HETATM    1  C5  UNL     1      -4.090   2.257  11.259  1.00  0.00     0.168 C 
HETATM    2  O1  UNL     1      -3.721   2.796  10.053  1.00  0.00    -0.340 OA
HETATM    3  C6  UNL     1      -3.727   4.185  10.120  1.00  0.00     0.224 C 
HETATM    4  C7  UNL     1      -2.694   4.784   9.186  1.00  0.00     0.088 C 
HETATM    5  C8  UNL     1      -3.604   4.710  11.497  1.00  0.00     0.225 C 
HETATM    6  O3  UNL     1      -3.955   5.840  11.764  1.00  0.00    -0.288 OA
HETATM    7  C9  UNL     1      -3.054   3.933  12.687  1.00  0.00     0.161 C 
HETATM    8  C10 UNL     1      -1.728   4.574  13.015  1.00  0.00     0.058 C 
HETATM    9  C16 UNL     1      -2.924   2.483  12.216  1.00  0.00     0.190 C 
ENDROOT
BRANCH   7  10
HETATM   10  O4  UNL     1      -3.925   4.153  13.710  1.00  0.00    -0.299 OA
BRANCH  10  11
HETATM   11  C11 UNL     1      -4.552   3.255  14.533  1.00  0.00     0.262 C 
HETATM   12  O5  UNL     1      -5.778   3.105  14.467  1.00  0.00    -0.265 OA
BRANCH  11  13
HETATM   13  C12 UNL     1      -3.678   2.505  15.490  1.00  0.00     0.138 C 
BRANCH  13  14
HETATM   14  C13 UNL     1      -3.925   1.080  15.594  1.00  0.00     0.188 C 
BRANCH  14  15
HETATM   15  O6  UNL     1      -4.487   0.482  16.710  1.00  0.00    -0.321 OA
BRANCH  15  16
HETATM   16  C14 UNL     1      -5.780   0.863  17.154  1.00  0.00     0.254 C 
HETATM   17  C15 UNL     1      -6.013   1.949  18.117  1.00  0.00     0.126 C 
HETATM   18  O7  UNL     1      -6.732   0.190  16.652  1.00  0.00    -0.266 OA
ENDBRANCH  15  16
ENDBRANCH  14  15
ENDBRANCH  13  14
ENDBRANCH  11  13
ENDBRANCH  10  11
ENDBRANCH   7  10
BRANCH   9  19
HETATM   19  O8  UNL     1      -1.742   2.368  11.472  1.00  0.00    -0.389 OA
ATOM     20  H8  UNL     1      -1.228   1.671  11.862  1.00  0.00     0.210 HD
ENDBRANCH   9  19
BRANCH   3  21
HETATM   21  O2  UNL     1      -4.953   4.583   9.606  1.00  0.00    -0.360 OA
ATOM     22  H2  UNL     1      -4.802   5.430   9.203  1.00  0.00     0.213 HD
ENDBRANCH   3  21
BRANCH   1  23
HETATM   23  C4  UNL     1      -4.405   0.838  11.162  1.00  0.00     0.119 C 
BRANCH  23  24
HETATM   24  C3  UNL     1      -3.626  -0.094  10.934  1.00  0.00    -0.154 C 
BRANCH  24  25
HETATM   25  C2  UNL     1      -2.753  -1.125  10.679  1.00  0.00     0.040 C 
HETATM   26  C1  UNL     1      -2.770  -2.362  11.223  1.00  0.00     0.020 C 
ENDBRANCH  24  25
ENDBRANCH  23  24
ENDBRANCH   1  23
TORSDOF 11
ENDMDL
MODEL 5
REMARK VINA RESULT: -7.548125751      1.730      4.151
REMARK  11 active torsions:
REMARK  status: ('A' for Active; 'I' for Inactive)
REMARK    1  A    between atoms: C2_2  and  C3_3 
REMARK    2  A    between atoms: C3_3  and  C4_4 
REMARK    3  A    between atoms: C4_4  and  C5_5 
REMARK    4  A    between atoms: C6_7  and  O2_9 
REMARK    5  A    between atoms: C9_13  and  O4_15 
REMARK    6  A    between atoms: O4_15  and  C11_16 
REMARK    7  A    between atoms: C11_16  and  C12_18 
REMARK    8  A    between atoms: C12_18  and  C13_19 
REMARK    9  A    between atoms: C13_19  and  O6_20 
REMARK   10  A    between atoms: O6_20  and  C14_21 
REMARK   11  A    between atoms: C16_24  and  O8_25 
ROOT
HETATM    1  C5  UNL     1      -3.306   4.596  11.585  1.00  0.00     0.168 C 
HETATM    2  O1  UNL     1      -2.165   4.407  10.847  1.00  0.00    -0.340 OA
HETATM    3  C6  UNL     1      -1.632   3.145  11.091  1.00  0.00     0.224 C 
HETATM    4  C7  UNL     1      -0.905   2.612   9.873  1.00  0.00     0.088 C 
HETATM    5  C8  UNL     1      -2.621   2.179  11.617  1.00  0.00     0.225 C 
HETATM    6  O3  UNL     1      -2.260   1.186  12.214  1.00  0.00    -0.288 OA
HETATM    7  C9  UNL     1      -4.133   2.310  11.485  1.00  0.00     0.161 C 
HETATM    8  C10 UNL     1      -4.553   1.227  10.520  1.00  0.00     0.058 C 
HETATM    9  C16 UNL     1      -4.386   3.723  10.956  1.00  0.00     0.190 C 
ENDROOT
BRANCH   7  10
HETATM   10  O4  UNL     1      -4.640   2.033  12.718  1.00  0.00    -0.299 OA
BRANCH  10  11
HETATM   11  C11 UNL     1      -4.976   2.885  13.737  1.00  0.00     0.262 C 
HETATM   12  O5  UNL     1      -6.025   3.537  13.679  1.00  0.00    -0.265 OA
BRANCH  11  13
HETATM   13  C12 UNL     1      -4.010   2.972  14.877  1.00  0.00     0.138 C 
BRANCH  13  14
HETATM   14  C13 UNL     1      -3.844   1.767  15.665  1.00  0.00     0.188 C 
BRANCH  14  15
HETATM   15  O6  UNL     1      -4.524   1.528  16.849  1.00  0.00    -0.321 OA
BRANCH  15  16
HETATM   16  C14 UNL     1      -5.716   0.759  16.849  1.00  0.00     0.254 C 
HETATM   17  C15 UNL     1      -7.059   1.355  16.811  1.00  0.00     0.126 C 
HETATM   18  O7  UNL     1      -5.536  -0.497  16.886  1.00  0.00    -0.266 OA
ENDBRANCH  15  16
ENDBRANCH  14  15
ENDBRANCH  13  14
ENDBRANCH  11  13
ENDBRANCH  10  11
ENDBRANCH   7  10
BRANCH   9  19
HETATM   19  O8  UNL     1      -4.169   3.718   9.572  1.00  0.00    -0.389 OA
ATOM     20  H8  UNL     1      -3.230   3.691   9.431  1.00  0.00     0.210 HD
ENDBRANCH   9  19
BRANCH   3  21
HETATM   21  O2  UNL     1      -0.646   3.331  12.049  1.00  0.00    -0.360 OA
ATOM     22  H2  UNL     1      -1.104   3.477  12.868  1.00  0.00     0.213 HD
ENDBRANCH   3  21
BRANCH   1  23
HETATM   23  C4  UNL     1      -3.726   5.990  11.614  1.00  0.00     0.119 C 
BRANCH  23  24
HETATM   24  C3  UNL     1      -4.880   6.428  11.673  1.00  0.00    -0.154 C 
BRANCH  24  25
HETATM   25  C2  UNL     1      -6.167   6.911  11.733  1.00  0.00     0.040 C 
HETATM   26  C1  UNL     1      -6.639   8.045  11.170  1.00  0.00     0.020 C 
ENDBRANCH  24  25
ENDBRANCH  23  24
ENDBRANCH   1  23
TORSDOF 11
ENDMDL
