MODEL 1
REMARK VINA RESULT: -6.945765098      0.000      0.000
REMARK  8 active torsions:
REMARK  status: ('A' for Active; 'I' for Inactive)
REMARK    1  A    between atoms: C2_2  and  N7_24 
REMARK    2  A    between atoms: C3_3  and  N1_4 
REMARK    3  A    between atoms: N1_4  and  N2_6 
REMARK    4  A    between atoms: N2_6  and  C4_8 
REMARK    5  A    between atoms: C5_13  and  C6_14 
REMARK       I    between atoms: C6_14  and  N5_16 
REMARK    6  A    between atoms: C7_18  and  C8_19 
REMARK    7  A    between atoms: N7_24  and  N8_26 
REMARK    8  A    between atoms: N8_26  and  C11_28 
ROOT
HETATM    1  C8  UNL     1      -4.869   1.950  15.871  1.00  0.00     0.127 C 
HETATM    2  C9  UNL     1      -5.996   2.950  15.716  1.00  0.00     0.031 C 
HETATM    3  C10 UNL     1      -5.321   0.737  16.550  1.00  0.00     0.069 C 
HETATM    4  N6  UNL     1      -5.696  -0.222  17.096  1.00  0.00    -0.197 NA
ENDROOT
BRANCH   1   5
HETATM    5  C7  UNL     1      -4.349   1.650  14.513  1.00  0.00     0.083 C 
HETATM    6  N5  UNL     1      -4.819   2.350  13.539  1.00  0.00    -0.334 N 
HETATM    7  C6  UNL     1      -4.387   2.140  12.205  1.00  0.00     0.280 C 
ATOM      8  H5  UNL     1      -5.515   3.070  13.732  1.00  0.00     0.168 HD
HETATM    9  O1  UNL     1      -5.211   1.743  11.340  1.00  0.00    -0.265 OA
BRANCH   7  10
HETATM   10  C5  UNL     1      -2.986   2.389  11.855  1.00  0.00     0.161 A 
HETATM   11  N4  UNL     1      -2.005   1.531  11.645  1.00  0.00    -0.287 N 
HETATM   12  N3  UNL     1      -0.841   1.943  11.346  1.00  0.00    -0.277 N 
ATOM     13  H4  UNL     1      -2.183   0.530  11.723  1.00  0.00     0.188 HD
HETATM   14  C4  UNL     1      -0.623   3.254  11.249  1.00  0.00     0.180 A 
ATOM     15  H3  UNL     1      -0.083   1.280  11.183  1.00  0.00     0.189 HD
HETATM   16  S1  UNL     1      -2.193   3.880  11.611  1.00  0.00    -0.027 SA
BRANCH  14  17
HETATM   17  N2  UNL     1       0.493   3.878  10.956  1.00  0.00    -0.279 N 
ATOM     18  H2  UNL     1       1.276   3.925  11.608  1.00  0.00     0.189 HD
BRANCH  17  19
HETATM   19  N1  UNL     1       0.541   4.468   9.707  1.00  0.00    -0.308 N 
ATOM     20  H1  UNL     1       0.292   5.454   9.627  1.00  0.00     0.186 HD
BRANCH  19  21
HETATM   21  C3  UNL     1       0.877   3.849   8.658  1.00  0.00     0.133 C 
HETATM   22  C2  UNL     1       0.187   3.941   7.402  1.00  0.00     0.038 C 
HETATM   23  C1  UNL     1      -1.014   4.771   7.159  1.00  0.00     0.071 C 
BRANCH  22  24
HETATM   24  N7  UNL     1       0.666   3.236   6.412  1.00  0.00    -0.304 N 
ATOM     25  H7  UNL     1       0.858   2.246   6.566  1.00  0.00     0.186 HD
BRANCH  24  26
HETATM   26  N8  UNL     1       0.925   3.779   5.153  1.00  0.00    -0.301 N 
ATOM     27  H8  UNL     1       0.170   4.095   4.546  1.00  0.00     0.187 HD
BRANCH  26  28
HETATM   28  C11 UNL     1       2.286   3.874   4.752  1.00  0.00     0.188 C 
HETATM   29  S2  UNL     1       3.527   3.597   5.796  1.00  0.00    -0.073 SA
ENDBRANCH  26  28
ENDBRANCH  24  26
ENDBRANCH  22  24
ENDBRANCH  19  21
ENDBRANCH  17  19
ENDBRANCH  14  17
ENDBRANCH   7  10
ENDBRANCH   1   5
TORSDOF 8
ENDMDL
MODEL 2
REMARK VINA RESULT: -6.828601190      1.182      1.341
REMARK  8 active torsions:
REMARK  status: ('A' for Active; 'I' for Inactive)
REMARK    1  A    between atoms: C2_2  and  N7_24 
REMARK    2  A    between atoms: C3_3  and  N1_4 
REMARK    3  A    between atoms: N1_4  and  N2_6 
REMARK    4  A    between atoms: N2_6  and  C4_8 
REMARK    5  A    between atoms: C5_13  and  C6_14 
REMARK       I    between atoms: C6_14  and  N5_16 
REMARK    6  A    between atoms: C7_18  and  C8_19 
REMARK    7  A    between atoms: N7_24  and  N8_26 
REMARK    8  A    between atoms: N8_26  and  C11_28 
ROOT
HETATM    1  C8  UNL     1      -4.801   1.992  15.757  1.00  0.00     0.127 C 
HETATM    2  C9  UNL     1      -5.887   3.037  15.605  1.00  0.00     0.031 C 
HETATM    3  C10 UNL     1      -5.286   0.818  16.481  1.00  0.00     0.069 C 
HETATM    4  N6  UNL     1      -5.688  -0.108  17.064  1.00  0.00    -0.197 NA
ENDROOT
BRANCH   1   5
HETATM    5  C7  UNL     1      -4.334   1.633  14.393  1.00  0.00     0.083 C 
HETATM    6  N5  UNL     1      -4.805   2.324  13.414  1.00  0.00    -0.334 N 
HETATM    7  C6  UNL     1      -4.422   2.059  12.074  1.00  0.00     0.280 C 
ATOM      8  H5  UNL     1      -5.467   3.076  13.606  1.00  0.00     0.168 HD
HETATM    9  O1  UNL     1      -5.287   1.672  11.245  1.00  0.00    -0.265 OA
BRANCH   7  10
HETATM   10  C5  UNL     1      -3.023   2.242  11.676  1.00  0.00     0.161 A 
HETATM   11  N4  UNL     1      -2.039   1.364  11.634  1.00  0.00    -0.287 N 
HETATM   12  N3  UNL     1      -0.877   1.715  11.256  1.00  0.00    -0.277 N 
ATOM     13  H4  UNL     1      -2.211   0.396  11.906  1.00  0.00     0.188 HD
HETATM   14  C4  UNL     1      -0.667   2.983  10.904  1.00  0.00     0.180 A 
ATOM     15  H3  UNL     1      -0.117   1.036  11.222  1.00  0.00     0.189 HD
HETATM   16  S1  UNL     1      -2.239   3.660  11.144  1.00  0.00    -0.027 SA
BRANCH  14  17
HETATM   17  N2  UNL     1       0.445   3.543  10.491  1.00  0.00    -0.279 N 
ATOM     18  H2  UNL     1       1.341   3.372  10.947  1.00  0.00     0.189 HD
BRANCH  17  19
HETATM   19  N1  UNL     1       0.325   4.380   9.398  1.00  0.00    -0.308 N 
ATOM     20  H1  UNL     1       0.387   5.387   9.549  1.00  0.00     0.186 HD
BRANCH  19  21
HETATM   21  C3  UNL     1       0.142   3.963   8.220  1.00  0.00     0.133 C 
HETATM   22  C2  UNL     1       1.170   3.863   7.222  1.00  0.00     0.038 C 
HETATM   23  C1  UNL     1       2.587   4.233   7.433  1.00  0.00     0.071 C 
BRANCH  22  24
HETATM   24  N7  UNL     1       0.814   3.410   6.050  1.00  0.00    -0.304 N 
ATOM     25  H7  UNL     1      -0.119   3.013   5.943  1.00  0.00     0.186 HD
BRANCH  24  26
HETATM   26  N8  UNL     1       1.656   3.446   4.938  1.00  0.00    -0.301 N 
ATOM     27  H8  UNL     1       2.576   3.006   4.955  1.00  0.00     0.187 HD
BRANCH  26  28
HETATM   28  C11 UNL     1       1.180   4.122   3.781  1.00  0.00     0.188 C 
HETATM   29  S2  UNL     1      -0.248   4.940   3.771  1.00  0.00    -0.073 SA
ENDBRANCH  26  28
ENDBRANCH  24  26
ENDBRANCH  22  24
ENDBRANCH  19  21
ENDBRANCH  17  19
ENDBRANCH  14  17
ENDBRANCH   7  10
ENDBRANCH   1   5
TORSDOF 8
ENDMDL
MODEL 3
REMARK VINA RESULT: -6.823069859      3.765      7.427
REMARK  8 active torsions:
REMARK  status: ('A' for Active; 'I' for Inactive)
REMARK    1  A    between atoms: C2_2  and  N7_24 
REMARK    2  A    between atoms: C3_3  and  N1_4 
REMARK    3  A    between atoms: N1_4  and  N2_6 
REMARK    4  A    between atoms: N2_6  and  C4_8 
REMARK    5  A    between atoms: C5_13  and  C6_14 
REMARK       I    between atoms: C6_14  and  N5_16 
REMARK    6  A    between atoms: C7_18  and  C8_19 
REMARK    7  A    between atoms: N7_24  and  N8_26 
REMARK    8  A    between atoms: N8_26  and  C11_28 
ROOT
HETATM    1  C8  UNL     1      -3.370  -0.756  11.227  1.00  0.00     0.127 C 
HETATM    2  C9  UNL     1      -4.214  -0.486   9.999  1.00  0.00     0.031 C 
HETATM    3  C10 UNL     1      -2.778  -2.093  11.186  1.00  0.00     0.069 C 
HETATM    4  N6  UNL     1      -2.318  -3.162  11.139  1.00  0.00    -0.197 NA
ENDROOT
BRANCH   1   5
HETATM    5  C7  UNL     1      -2.325   0.298  11.290  1.00  0.00     0.083 C 
HETATM    6  N5  UNL     1      -2.308   1.161  10.335  1.00  0.00    -0.334 N 
HETATM    7  C6  UNL     1      -1.350   2.206  10.303  1.00  0.00     0.280 C 
ATOM      8  H5  UNL     1      -2.998   1.092   9.587  1.00  0.00     0.168 HD
HETATM    9  O1  UNL     1      -0.513   2.254   9.364  1.00  0.00    -0.265 OA
BRANCH   7  10
HETATM   10  C5  UNL     1      -1.351   3.216  11.366  1.00  0.00     0.161 A 
HETATM   11  N4  UNL     1      -0.493   3.401  12.351  1.00  0.00    -0.287 N 
HETATM   12  N3  UNL     1      -0.664   4.344  13.187  1.00  0.00    -0.277 N 
ATOM     13  H4  UNL     1       0.313   2.784  12.443  1.00  0.00     0.188 HD
HETATM   14  C4  UNL     1      -1.723   5.142  13.054  1.00  0.00     0.180 A 
ATOM     15  H3  UNL     1      -0.000   4.488  13.947  1.00  0.00     0.189 HD
HETATM   16  S1  UNL     1      -2.474   4.467  11.652  1.00  0.00    -0.027 SA
BRANCH  14  17
HETATM   17  N2  UNL     1      -2.078   6.161  13.801  1.00  0.00    -0.279 N 
ATOM     18  H2  UNL     1      -1.475   6.973  13.933  1.00  0.00     0.189 HD
BRANCH  17  19
HETATM   19  N1  UNL     1      -3.320   6.064  14.397  1.00  0.00    -0.308 N 
ATOM     20  H1  UNL     1      -3.849   6.921  14.556  1.00  0.00     0.186 HD
BRANCH  19  21
HETATM   21  C3  UNL     1      -3.836   4.968  14.755  1.00  0.00     0.133 C 
HETATM   22  C2  UNL     1      -5.165   4.543  14.415  1.00  0.00     0.038 C 
HETATM   23  C1  UNL     1      -6.117   5.329  13.598  1.00  0.00     0.071 C 
BRANCH  22  24
HETATM   24  N7  UNL     1      -5.547   3.378  14.865  1.00  0.00    -0.304 N 
ATOM     25  H7  UNL     1      -6.545   3.174  14.907  1.00  0.00     0.186 HD
BRANCH  24  26
HETATM   26  N8  UNL     1      -4.647   2.401  15.293  1.00  0.00    -0.301 N 
ATOM     27  H8  UNL     1      -3.835   2.145  14.731  1.00  0.00     0.187 HD
BRANCH  26  28
HETATM   28  C11 UNL     1      -4.908   1.777  16.544  1.00  0.00     0.188 C 
HETATM   29  S2  UNL     1      -6.388   1.166  16.924  1.00  0.00    -0.073 SA
ENDBRANCH  26  28
ENDBRANCH  24  26
ENDBRANCH  22  24
ENDBRANCH  19  21
ENDBRANCH  17  19
ENDBRANCH  14  17
ENDBRANCH   7  10
ENDBRANCH   1   5
TORSDOF 8
ENDMDL
MODEL 4
REMARK VINA RESULT: -6.794541440      3.125      3.976
REMARK  8 active torsions:
REMARK  status: ('A' for Active; 'I' for Inactive)
REMARK    1  A    between atoms: C2_2  and  N7_24 
REMARK    2  A    between atoms: C3_3  and  N1_4 
REMARK    3  A    between atoms: N1_4  and  N2_6 
REMARK    4  A    between atoms: N2_6  and  C4_8 
REMARK    5  A    between atoms: C5_13  and  C6_14 
REMARK       I    between atoms: C6_14  and  N5_16 
REMARK    6  A    between atoms: C7_18  and  C8_19 
REMARK    7  A    between atoms: N7_24  and  N8_26 
REMARK    8  A    between atoms: N8_26  and  C11_28 
ROOT
HETATM    1  C8  UNL     1      -5.561   2.141  16.756  1.00  0.00     0.127 C 
HETATM    2  C9  UNL     1      -6.949   2.722  16.924  1.00  0.00     0.031 C 
HETATM    3  C10 UNL     1      -5.579   0.681  16.831  1.00  0.00     0.069 C 
HETATM    4  N6  UNL     1      -5.612  -0.482  16.897  1.00  0.00    -0.197 NA
ENDROOT
BRANCH   1   5
HETATM    5  C7  UNL     1      -5.036   2.610  15.448  1.00  0.00     0.083 C 
HETATM    6  N5  UNL     1      -5.300   3.826  15.115  1.00  0.00    -0.334 N 
HETATM    7  C6  UNL     1      -4.846   4.368  13.886  1.00  0.00     0.280 C 
ATOM      8  H5  UNL     1      -5.847   4.409  15.748  1.00  0.00     0.168 HD
HETATM    9  O1  UNL     1      -5.683   4.732  13.019  1.00  0.00    -0.265 OA
BRANCH   7  10
HETATM   10  C5  UNL     1      -3.405   4.497  13.646  1.00  0.00     0.161 A 
HETATM   11  N4  UNL     1      -2.389   4.062  14.367  1.00  0.00    -0.287 N 
HETATM   12  N3  UNL     1      -1.194   4.273  13.991  1.00  0.00    -0.277 N 
ATOM     13  H4  UNL     1      -2.565   3.552  15.233  1.00  0.00     0.188 HD
HETATM   14  C4  UNL     1      -0.980   4.941  12.858  1.00  0.00     0.180 A 
ATOM     15  H3  UNL     1      -0.409   3.935  14.548  1.00  0.00     0.189 HD
HETATM   16  S1  UNL     1      -2.601   5.258  12.348  1.00  0.00    -0.027 SA
BRANCH  14  17
HETATM   17  N2  UNL     1       0.163   5.260  12.300  1.00  0.00    -0.279 N 
ATOM     18  H2  UNL     1       0.598   6.173  12.437  1.00  0.00     0.189 HD
BRANCH  17  19
HETATM   19  N1  UNL     1       0.742   4.282  11.515  1.00  0.00    -0.308 N 
ATOM     20  H1  UNL     1       1.650   4.475  11.091  1.00  0.00     0.186 HD
BRANCH  19  21
HETATM   21  C3  UNL     1       0.206   3.160  11.293  1.00  0.00     0.133 C 
HETATM   22  C2  UNL     1      -0.557   2.839  10.119  1.00  0.00     0.038 C 
HETATM   23  C1  UNL     1      -0.821   3.776   9.004  1.00  0.00     0.071 C 
BRANCH  22  24
HETATM   24  N7  UNL     1      -1.045   1.630  10.043  1.00  0.00    -0.304 N 
ATOM     25  H7  UNL     1      -1.104   1.184   9.128  1.00  0.00     0.186 HD
BRANCH  24  26
HETATM   26  N8  UNL     1      -1.489   0.923  11.161  1.00  0.00    -0.301 N 
ATOM     27  H8  UNL     1      -0.885   0.774  11.969  1.00  0.00     0.187 HD
BRANCH  26  28
HETATM   28  C11 UNL     1      -2.818   0.417  11.126  1.00  0.00     0.188 C 
HETATM   29  S2  UNL     1      -4.100   1.289  11.679  1.00  0.00    -0.073 SA
ENDBRANCH  26  28
ENDBRANCH  24  26
ENDBRANCH  22  24
ENDBRANCH  19  21
ENDBRANCH  17  19
ENDBRANCH  14  17
ENDBRANCH   7  10
ENDBRANCH   1   5
TORSDOF 8
ENDMDL
MODEL 5
REMARK VINA RESULT: -6.693373263      5.616      6.759
REMARK  8 active torsions:
REMARK  status: ('A' for Active; 'I' for Inactive)
REMARK    1  A    between atoms: C2_2  and  N7_24 
REMARK    2  A    between atoms: C3_3  and  N1_4 
REMARK    3  A    between atoms: N1_4  and  N2_6 
REMARK    4  A    between atoms: N2_6  and  C4_8 
REMARK    5  A    between atoms: C5_13  and  C6_14 
REMARK       I    between atoms: C6_14  and  N5_16 
REMARK    6  A    between atoms: C7_18  and  C8_19 
REMARK    7  A    between atoms: N7_24  and  N8_26 
REMARK    8  A    between atoms: N8_26  and  C11_28 
ROOT
HETATM    1  C8  UNL     1      -4.502   3.015  15.674  1.00  0.00     0.127 C 
HETATM    2  C9  UNL     1      -5.993   2.942  15.415  1.00  0.00     0.031 C 
HETATM    3  C10 UNL     1      -3.912   1.682  15.778  1.00  0.00     0.069 C 
HETATM    4  N6  UNL     1      -3.458   0.612  15.862  1.00  0.00    -0.197 NA
ENDROOT
BRANCH   1   5
HETATM    5  C7  UNL     1      -3.895   3.792  14.564  1.00  0.00     0.083 C 
HETATM    6  N5  UNL     1      -2.878   3.268  13.972  1.00  0.00    -0.334 N 
HETATM    7  C6  UNL     1      -2.226   3.930  12.900  1.00  0.00     0.280 C 
ATOM      8  H5  UNL     1      -2.536   2.358  14.279  1.00  0.00     0.168 HD
HETATM    9  O1  UNL     1      -1.028   4.292  13.030  1.00  0.00    -0.265 OA
BRANCH   7  10
HETATM   10  C5  UNL     1      -2.961   4.183  11.657  1.00  0.00     0.161 A 
HETATM   11  N4  UNL     1      -3.525   3.329  10.825  1.00  0.00    -0.287 N 
HETATM   12  N3  UNL     1      -4.127   3.743   9.785  1.00  0.00    -0.277 N 
ATOM     13  H4  UNL     1      -3.479   2.329  11.018  1.00  0.00     0.188 HD
HETATM   14  C4  UNL     1      -4.178   5.053   9.546  1.00  0.00     0.180 A 
ATOM     15  H3  UNL     1      -4.564   3.083   9.142  1.00  0.00     0.189 HD
HETATM   16  S1  UNL     1      -3.310   5.674  10.905  1.00  0.00    -0.027 SA
BRANCH  14  17
HETATM   17  N2  UNL     1      -4.743   5.680   8.540  1.00  0.00    -0.279 N 
ATOM     18  H2  UNL     1      -4.207   6.009   7.737  1.00  0.00     0.189 HD
BRANCH  17  19
HETATM   19  N1  UNL     1      -6.108   5.865   8.639  1.00  0.00    -0.308 N 
ATOM     20  H1  UNL     1      -6.672   5.111   9.033  1.00  0.00     0.186 HD
BRANCH  19  21
HETATM   21  C3  UNL     1      -6.696   6.919   8.267  1.00  0.00     0.133 C 
HETATM   22  C2  UNL     1      -6.906   8.071   9.098  1.00  0.00     0.038 C 
HETATM   23  C1  UNL     1      -6.464   8.186  10.507  1.00  0.00     0.071 C 
BRANCH  22  24
HETATM   24  N7  UNL     1      -7.532   9.083   8.559  1.00  0.00    -0.304 N 
ATOM     25  H7  UNL     1      -7.479   9.991   9.020  1.00  0.00     0.186 HD
BRANCH  24  26
HETATM   26  N8  UNL     1      -8.270   8.973   7.380  1.00  0.00    -0.301 N 
ATOM     27  H8  UNL     1      -8.028   8.289   6.664  1.00  0.00     0.187 HD
BRANCH  26  28
HETATM   28  C11 UNL     1      -9.374   9.856   7.218  1.00  0.00     0.188 C 
HETATM   29  S2  UNL     1      -9.769  10.503   5.757  1.00  0.00    -0.073 SA
ENDBRANCH  26  28
ENDBRANCH  24  26
ENDBRANCH  22  24
ENDBRANCH  19  21
ENDBRANCH  17  19
ENDBRANCH  14  17
ENDBRANCH   7  10
ENDBRANCH   1   5
TORSDOF 8
ENDMDL
