MODEL 1
REMARK VINA RESULT: -7.715802782      0.000      0.000
REMARK  6 active torsions:
REMARK  status: ('A' for Active; 'I' for Inactive)
REMARK    1  A    between atoms: C2_3  and  N2_4 
REMARK    2  A    between atoms: N2_4  and  N3_6 
REMARK    3  A    between atoms: C3_11  and  S1_12 
REMARK    4  A    between atoms: S1_12  and  C4_13 
REMARK    5  A    between atoms: C4_13  and  C5_14 
REMARK       I    between atoms: C5_14  and  N7_16 
REMARK    6  A    between atoms: N7_16  and  C6_18 
ROOT
HETATM    1  N1  UNL     1      -5.490   1.951  10.844  1.00  0.00    -0.195 NA
HETATM    2  C1  UNL     1      -4.619   1.317  11.277  1.00  0.00     0.092 C 
HETATM    3  C2  UNL     1      -3.539   0.498  11.826  1.00  0.00     0.135 C 
HETATM    4  C10 UNL     1      -3.927  -0.957  11.759  1.00  0.00     0.048 C 
HETATM    5  C11 UNL     1      -2.553  -1.257  11.201  1.00  0.00     0.007 C 
HETATM    6  C12 UNL     1      -2.414   0.210  10.861  1.00  0.00     0.048 C 
ENDROOT
BRANCH   3   7
HETATM    7  N2  UNL     1      -3.117   0.907  13.145  1.00  0.00    -0.291 N 
ATOM      8  H2  UNL     1      -2.186   1.307  13.264  1.00  0.00     0.184 HD
BRANCH   7   9
HETATM    9  N3  UNL     1      -3.935   0.772  14.251  1.00  0.00    -0.160 N 
HETATM   10  N4  UNL     1      -4.303  -0.307  14.922  1.00  0.00     0.017 NA
HETATM   11  N5  UNL     1      -5.101   0.006  15.927  1.00  0.00    -0.005 NA
HETATM   12  N6  UNL     1      -5.267   1.338  15.921  1.00  0.00    -0.263 N 
HETATM   13  C3  UNL     1      -4.550   1.808  14.891  1.00  0.00     0.194 A 
ATOM     14  H6  UNL     1      -5.829   1.885  16.572  1.00  0.00     0.186 HD
BRANCH  13  15
HETATM   15  S1  UNL     1      -4.413   3.523  14.405  1.00  0.00    -0.081 SA
BRANCH  15  16
HETATM   16  C4  UNL     1      -2.718   4.128  14.586  1.00  0.00     0.185 C 
BRANCH  16  17
HETATM   17  C5  UNL     1      -2.207   4.535  13.270  1.00  0.00     0.227 C 
HETATM   18  O1  UNL     1      -2.994   5.142  12.491  1.00  0.00    -0.273 OA
HETATM   19  N7  UNL     1      -0.885   4.281  12.833  1.00  0.00    -0.355 N 
ATOM     20  H7  UNL     1      -0.236   3.797  13.454  1.00  0.00     0.162 HD
BRANCH  19  21
HETATM   21  C6  UNL     1      -0.435   4.697  11.513  1.00  0.00     0.094 C 
HETATM   22  C7  UNL     1       0.232   6.032  11.495  1.00  0.00     0.036 C 
HETATM   23  C8  UNL     1       1.698   5.891  11.732  1.00  0.00     0.076 C 
HETATM   24  S2  UNL     1       2.047   4.418  10.687  1.00  0.00    -0.167 SA
HETATM   25  C9  UNL     1       0.366   3.681  10.792  1.00  0.00     0.099 C 
ENDBRANCH  19  21
ENDBRANCH  16  17
ENDBRANCH  15  16
ENDBRANCH  13  15
ENDBRANCH   7   9
ENDBRANCH   3   7
TORSDOF 6
ENDMDL
MODEL 2
REMARK VINA RESULT: -7.652017363      2.451      5.700
REMARK  6 active torsions:
REMARK  status: ('A' for Active; 'I' for Inactive)
REMARK    1  A    between atoms: C2_3  and  N2_4 
REMARK    2  A    between atoms: N2_4  and  N3_6 
REMARK    3  A    between atoms: C3_11  and  S1_12 
REMARK    4  A    between atoms: S1_12  and  C4_13 
REMARK    5  A    between atoms: C4_13  and  C5_14 
REMARK       I    between atoms: C5_14  and  N7_16 
REMARK    6  A    between atoms: N7_16  and  C6_18 
ROOT
HETATM    1  N1  UNL     1      -5.384   1.770  10.841  1.00  0.00    -0.195 NA
HETATM    2  C1  UNL     1      -4.426   1.131  10.984  1.00  0.00     0.092 C 
HETATM    3  C2  UNL     1      -3.228   0.317  11.186  1.00  0.00     0.135 C 
HETATM    4  C10 UNL     1      -3.528  -0.782  12.173  1.00  0.00     0.048 C 
HETATM    5  C11 UNL     1      -2.841  -1.755  11.238  1.00  0.00     0.007 C 
HETATM    6  C12 UNL     1      -2.996  -0.737  10.130  1.00  0.00     0.048 C 
ENDROOT
BRANCH   3   7
HETATM    7  N2  UNL     1      -2.059   1.087  11.542  1.00  0.00    -0.291 N 
ATOM      8  H2  UNL     1      -1.662   0.979  12.476  1.00  0.00     0.184 HD
BRANCH   7   9
HETATM    9  N3  UNL     1      -1.461   1.964  10.657  1.00  0.00    -0.160 N 
HETATM   10  N4  UNL     1      -0.990   1.767   9.437  1.00  0.00     0.017 NA
HETATM   11  N5  UNL     1      -0.495   2.883   8.931  1.00  0.00    -0.005 NA
HETATM   12  N6  UNL     1      -0.643   3.851   9.849  1.00  0.00    -0.263 N 
HETATM   13  C3  UNL     1      -1.237   3.286  10.909  1.00  0.00     0.194 A 
ATOM     14  H6  UNL     1      -0.359   4.826   9.757  1.00  0.00     0.186 HD
BRANCH  13  15
HETATM   15  S1  UNL     1      -1.669   4.114  12.433  1.00  0.00    -0.081 SA
BRANCH  15  16
HETATM   16  C4  UNL     1      -3.431   3.938  12.804  1.00  0.00     0.185 C 
BRANCH  16  17
HETATM   17  C5  UNL     1      -3.591   3.553  14.214  1.00  0.00     0.227 C 
HETATM   18  O1  UNL     1      -2.608   3.721  14.989  1.00  0.00    -0.273 OA
HETATM   19  N7  UNL     1      -4.784   3.005  14.743  1.00  0.00    -0.355 N 
ATOM     20  H7  UNL     1      -5.588   2.870  14.130  1.00  0.00     0.162 HD
BRANCH  19  21
HETATM   21  C6  UNL     1      -4.884   2.632  16.146  1.00  0.00     0.094 C 
HETATM   22  C7  UNL     1      -6.244   2.826  16.728  1.00  0.00     0.036 C 
HETATM   23  C8  UNL     1      -7.074   1.601  16.549  1.00  0.00     0.076 C 
HETATM   24  S2  UNL     1      -5.826   0.312  16.951  1.00  0.00    -0.167 SA
HETATM   25  C9  UNL     1      -4.347   1.288  16.459  1.00  0.00     0.099 C 
ENDBRANCH  19  21
ENDBRANCH  16  17
ENDBRANCH  15  16
ENDBRANCH  13  15
ENDBRANCH   7   9
ENDBRANCH   3   7
TORSDOF 6
ENDMDL
MODEL 3
REMARK VINA RESULT: -7.609410000      2.053      2.394
REMARK  6 active torsions:
REMARK  status: ('A' for Active; 'I' for Inactive)
REMARK    1  A    between atoms: C2_3  and  N2_4 
REMARK    2  A    between atoms: N2_4  and  N3_6 
REMARK    3  A    between atoms: C3_11  and  S1_12 
REMARK    4  A    between atoms: S1_12  and  C4_13 
REMARK    5  A    between atoms: C4_13  and  C5_14 
REMARK       I    between atoms: C5_14  and  N7_16 
REMARK    6  A    between atoms: N7_16  and  C6_18 
ROOT
HETATM    1  N1  UNL     1      -5.496   1.959  10.853  1.00  0.00    -0.195 NA
HETATM    2  C1  UNL     1      -4.627   1.322  11.284  1.00  0.00     0.092 C 
HETATM    3  C2  UNL     1      -3.548   0.501  11.831  1.00  0.00     0.135 C 
HETATM    4  C10 UNL     1      -3.934  -0.954  11.753  1.00  0.00     0.048 C 
HETATM    5  C11 UNL     1      -2.558  -1.250  11.199  1.00  0.00     0.007 C 
HETATM    6  C12 UNL     1      -2.419   0.220  10.869  1.00  0.00     0.048 C 
ENDROOT
BRANCH   3   7
HETATM    7  N2  UNL     1      -3.131   0.901  13.155  1.00  0.00    -0.291 N 
ATOM      8  H2  UNL     1      -2.197   1.292  13.282  1.00  0.00     0.184 HD
BRANCH   7   9
HETATM    9  N3  UNL     1      -3.957   0.770  14.255  1.00  0.00    -0.160 N 
HETATM   10  N4  UNL     1      -4.291  -0.300  14.958  1.00  0.00     0.017 NA
HETATM   11  N5  UNL     1      -5.114   0.014  15.942  1.00  0.00    -0.005 NA
HETATM   12  N6  UNL     1      -5.334   1.337  15.888  1.00  0.00    -0.263 N 
HETATM   13  C3  UNL     1      -4.622   1.801  14.851  1.00  0.00     0.194 A 
ATOM     14  H6  UNL     1      -5.926   1.883  16.513  1.00  0.00     0.186 HD
BRANCH  13  15
HETATM   15  S1  UNL     1      -4.549   3.503  14.308  1.00  0.00    -0.081 SA
BRANCH  15  16
HETATM   16  C4  UNL     1      -2.846   4.113  14.276  1.00  0.00     0.185 C 
BRANCH  16  17
HETATM   17  C5  UNL     1      -2.388   4.193  12.883  1.00  0.00     0.227 C 
HETATM   18  O1  UNL     1      -1.444   3.433  12.524  1.00  0.00    -0.273 OA
HETATM   19  N7  UNL     1      -2.946   5.074  11.926  1.00  0.00    -0.355 N 
ATOM     20  H7  UNL     1      -3.713   5.689  12.199  1.00  0.00     0.162 HD
BRANCH  19  21
HETATM   21  C6  UNL     1      -2.446   5.119  10.560  1.00  0.00     0.094 C 
HETATM   22  C7  UNL     1      -3.441   4.681   9.537  1.00  0.00     0.036 C 
HETATM   23  C8  UNL     1      -4.255   5.838   9.066  1.00  0.00     0.076 C 
HETATM   24  S2  UNL     1      -2.937   7.112   8.915  1.00  0.00    -0.167 SA
HETATM   25  C9  UNL     1      -1.812   6.403  10.184  1.00  0.00     0.099 C 
ENDBRANCH  19  21
ENDBRANCH  16  17
ENDBRANCH  15  16
ENDBRANCH  13  15
ENDBRANCH   7   9
ENDBRANCH   3   7
TORSDOF 6
ENDMDL
MODEL 4
REMARK VINA RESULT: -7.595773165      2.633      2.777
REMARK  6 active torsions:
REMARK  status: ('A' for Active; 'I' for Inactive)
REMARK    1  A    between atoms: C2_3  and  N2_4 
REMARK    2  A    between atoms: N2_4  and  N3_6 
REMARK    3  A    between atoms: C3_11  and  S1_12 
REMARK    4  A    between atoms: S1_12  and  C4_13 
REMARK    5  A    between atoms: C4_13  and  C5_14 
REMARK       I    between atoms: C5_14  and  N7_16 
REMARK    6  A    between atoms: N7_16  and  C6_18 
ROOT
HETATM    1  N1  UNL     1      -5.489   1.949  10.880  1.00  0.00    -0.195 NA
HETATM    2  C1  UNL     1      -4.625   1.280  11.272  1.00  0.00     0.092 C 
HETATM    3  C2  UNL     1      -3.553   0.420  11.770  1.00  0.00     0.135 C 
HETATM    4  C10 UNL     1      -3.989  -1.021  11.697  1.00  0.00     0.048 C 
HETATM    5  C11 UNL     1      -2.647  -1.357  11.086  1.00  0.00     0.007 C 
HETATM    6  C12 UNL     1      -2.473   0.110  10.761  1.00  0.00     0.048 C 
ENDROOT
BRANCH   3   7
HETATM    7  N2  UNL     1      -3.071   0.795  13.078  1.00  0.00    -0.291 N 
ATOM      8  H2  UNL     1      -2.111   1.129  13.174  1.00  0.00     0.184 HD
BRANCH   7   9
HETATM    9  N3  UNL     1      -3.868   0.717  14.204  1.00  0.00    -0.160 N 
HETATM   10  N4  UNL     1      -4.385  -0.333  14.820  1.00  0.00     0.017 NA
HETATM   11  N5  UNL     1      -5.095   0.033  15.873  1.00  0.00    -0.005 NA
HETATM   12  N6  UNL     1      -5.047   1.372  15.955  1.00  0.00    -0.263 N 
HETATM   13  C3  UNL     1      -4.292   1.791  14.930  1.00  0.00     0.194 A 
ATOM     14  H6  UNL     1      -5.496   1.956  16.660  1.00  0.00     0.186 HD
BRANCH  13  15
HETATM   15  S1  UNL     1      -3.898   3.492  14.546  1.00  0.00    -0.081 SA
BRANCH  15  16
HETATM   16  C4  UNL     1      -5.369   4.543  14.609  1.00  0.00     0.185 C 
BRANCH  16  17
HETATM   17  C5  UNL     1      -5.530   5.226  13.318  1.00  0.00     0.227 C 
HETATM   18  O1  UNL     1      -6.663   5.709  13.039  1.00  0.00    -0.273 OA
HETATM   19  N7  UNL     1      -4.484   5.368  12.374  1.00  0.00    -0.355 N 
ATOM     20  H7  UNL     1      -3.561   4.989  12.588  1.00  0.00     0.162 HD
BRANCH  19  21
HETATM   21  C6  UNL     1      -4.702   6.047  11.105  1.00  0.00     0.094 C 
HETATM   22  C7  UNL     1      -4.355   7.498  11.128  1.00  0.00     0.036 C 
HETATM   23  C8  UNL     1      -2.924   7.704  10.765  1.00  0.00     0.076 C 
HETATM   24  S2  UNL     1      -2.775   6.509   9.375  1.00  0.00    -0.167 SA
HETATM   25  C9  UNL     1      -4.099   5.363   9.937  1.00  0.00     0.099 C 
ENDBRANCH  19  21
ENDBRANCH  16  17
ENDBRANCH  15  16
ENDBRANCH  13  15
ENDBRANCH   7   9
ENDBRANCH   3   7
TORSDOF 6
ENDMDL
MODEL 5
REMARK VINA RESULT: -7.536283697      1.130      1.525
REMARK  6 active torsions:
REMARK  status: ('A' for Active; 'I' for Inactive)
REMARK    1  A    between atoms: C2_3  and  N2_4 
REMARK    2  A    between atoms: N2_4  and  N3_6 
REMARK    3  A    between atoms: C3_11  and  S1_12 
REMARK    4  A    between atoms: S1_12  and  C4_13 
REMARK    5  A    between atoms: C4_13  and  C5_14 
REMARK       I    between atoms: C5_14  and  N7_16 
REMARK    6  A    between atoms: N7_16  and  C6_18 
ROOT
HETATM    1  N1  UNL     1      -4.551   2.711  10.143  1.00  0.00    -0.195 NA
HETATM    2  C1  UNL     1      -4.023   1.906  10.792  1.00  0.00     0.092 C 
HETATM    3  C2  UNL     1      -3.379   0.881  11.611  1.00  0.00     0.135 C 
HETATM    4  C10 UNL     1      -4.211  -0.376  11.589  1.00  0.00     0.048 C 
HETATM    5  C11 UNL     1      -2.944  -1.165  11.344  1.00  0.00     0.007 C 
HETATM    6  C12 UNL     1      -2.273   0.122  10.919  1.00  0.00     0.048 C 
ENDROOT
BRANCH   3   7
HETATM    7  N2  UNL     1      -3.066   1.322  12.950  1.00  0.00    -0.291 N 
ATOM      8  H2  UNL     1      -2.193   1.825  13.113  1.00  0.00     0.184 HD
BRANCH   7   9
HETATM    9  N3  UNL     1      -3.912   1.086  14.018  1.00  0.00    -0.160 N 
HETATM   10  N4  UNL     1      -4.072   0.007  14.765  1.00  0.00     0.017 NA
HETATM   11  N5  UNL     1      -4.994   0.202  15.692  1.00  0.00    -0.005 NA
HETATM   12  N6  UNL     1      -5.460   1.453  15.551  1.00  0.00    -0.263 N 
HETATM   13  C3  UNL     1      -4.794   1.996  14.523  1.00  0.00     0.194 A 
ATOM     14  H6  UNL     1      -6.180   1.902  16.117  1.00  0.00     0.186 HD
BRANCH  13  15
HETATM   15  S1  UNL     1      -5.017   3.652  13.886  1.00  0.00    -0.081 SA
BRANCH  15  16
HETATM   16  C4  UNL     1      -3.807   4.799  14.588  1.00  0.00     0.185 C 
BRANCH  16  17
HETATM   17  C5  UNL     1      -2.483   4.511  14.019  1.00  0.00     0.227 C 
HETATM   18  O1  UNL     1      -1.676   3.828  14.710  1.00  0.00    -0.273 OA
HETATM   19  N7  UNL     1      -2.068   4.960  12.742  1.00  0.00    -0.355 N 
ATOM     20  H7  UNL     1      -2.711   5.508  12.170  1.00  0.00     0.162 HD
BRANCH  19  21
HETATM   21  C6  UNL     1      -0.740   4.654  12.231  1.00  0.00     0.094 C 
HETATM   22  C7  UNL     1      -0.702   3.482  11.308  1.00  0.00     0.036 C 
HETATM   23  C8  UNL     1      -0.927   3.914   9.899  1.00  0.00     0.076 C 
HETATM   24  S2  UNL     1       0.104   5.436   9.866  1.00  0.00    -0.167 SA
HETATM   25  C9  UNL     1      -0.023   5.818  11.660  1.00  0.00     0.099 C 
ENDBRANCH  19  21
ENDBRANCH  16  17
ENDBRANCH  15  16
ENDBRANCH  13  15
ENDBRANCH   7   9
ENDBRANCH   3   7
TORSDOF 6
ENDMDL
