MODEL 1
REMARK VINA RESULT: -7.030736120      0.000      0.000
REMARK  10 active torsions:
REMARK  status: ('A' for Active; 'I' for Inactive)
REMARK    1  A    between atoms: N1_1  and  N2_4 
REMARK    2  A    between atoms: N2_4  and  N3_5 
REMARK    3  A    between atoms: N3_5  and  C1_7 
REMARK    4  A    between atoms: C3_9  and  O1_10 
REMARK    5  A    between atoms: O1_10  and  C4_11 
REMARK    6  A    between atoms: C4_11  and  C5_12 
REMARK    7  A    between atoms: N4_14  and  C7_15 
REMARK    8  A    between atoms: C11_19  and  O2_20 
REMARK    9  A    between atoms: C13_28  and  C14_29 
REMARK   10  A    between atoms: C14_29  and  O4_30 
ROOT
HETATM    1  C4  UNL     1      -2.991   3.451  10.958  1.00  0.00     0.230 C 
ENDROOT
BRANCH   1   2
HETATM    2  O1  UNL     1      -2.995   4.720  10.445  1.00  0.00    -0.355 OA
BRANCH   2   3
HETATM    3  C3  UNL     1      -4.078   5.501  10.750  1.00  0.00     0.262 C 
HETATM    4  C2  UNL     1      -3.722   6.948  10.773  1.00  0.00     0.091 C 
HETATM    5  C1  UNL     1      -4.439   7.515   9.587  1.00  0.00     0.150 C 
HETATM    6  C13 UNL     1      -4.807   6.296   8.798  1.00  0.00     0.173 C 
HETATM    7  O3  UNL     1      -5.059   5.337   9.765  1.00  0.00    -0.352 OA
BRANCH   5   8
HETATM    8  N3  UNL     1      -5.585   8.322   9.953  1.00  0.00    -0.245 N 
ATOM      9  H3  UNL     1      -5.781   9.157   9.401  1.00  0.00     0.197 HD
BRANCH   8  10
HETATM   10  N2  UNL     1      -6.335   8.060  10.889  1.00  0.00    -0.248 NA
BRANCH  10  11
HETATM   11  N1  UNL     1      -7.173   7.584  11.640  1.00  0.00    -0.261 N 
ATOM     12  H12 UNL     1      -7.734   8.435  11.621  1.00  0.00     0.193 HD
ATOM     13  H11 UNL     1      -7.723   6.990  12.259  1.00  0.00     0.193 HD
ENDBRANCH  10  11
ENDBRANCH   8  10
ENDBRANCH   5   8
BRANCH   6  14
HETATM   14  C14 UNL     1      -6.020   6.512   7.925  1.00  0.00     0.198 C 
BRANCH  14  15
HETATM   15  O4  UNL     1      -7.148   6.084   8.640  1.00  0.00    -0.398 OA
ATOM     16  H4  UNL     1      -7.179   5.135   8.597  1.00  0.00     0.209 HD
ENDBRANCH  14  15
ENDBRANCH   6  14
ENDBRANCH   2   3
ENDBRANCH   1   2
BRANCH   1  17
HETATM   17  C5  UNL     1      -3.062   3.392  12.418  1.00  0.00     0.068 A 
HETATM   18  C6  UNL     1      -4.071   2.874  13.221  1.00  0.00     0.140 A 
HETATM   19  N4  UNL     1      -3.732   3.018  14.511  1.00  0.00    -0.282 N 
HETATM   20  N5  UNL     1      -2.554   3.606  14.507  1.00  0.00    -0.240 N 
HETATM   21  N6  UNL     1      -2.145   3.834  13.279  1.00  0.00    -0.287 N 
ATOM     22  H5  UNL     1      -2.028   3.852  15.346  1.00  0.00     0.208 HD
ATOM     23  H6  UNL     1      -1.263   4.280  13.024  1.00  0.00     0.188 HD
BRANCH  19  24
HETATM   24  C7  UNL     1      -4.483   2.621  15.677  1.00  0.00     0.111 C 
HETATM   25  C8  UNL     1      -5.861   3.244  15.705  1.00  0.00     0.027 C 
HETATM   26  C9  UNL     1      -6.820   2.397  16.515  1.00  0.00     0.004 C 
HETATM   27  C10 UNL     1      -6.084   1.727  17.667  1.00  0.00     0.032 C 
HETATM   28  C11 UNL     1      -5.074   0.735  17.162  1.00  0.00     0.120 C 
HETATM   29  C12 UNL     1      -4.653   1.114  15.766  1.00  0.00     0.059 C 
BRANCH  28  30
HETATM   30  O2  UNL     1      -5.673  -0.515  17.120  1.00  0.00    -0.396 OA
ATOM     31  H2  UNL     1      -5.000  -1.174  17.251  1.00  0.00     0.210 HD
ENDBRANCH  28  30
ENDBRANCH  19  24
ENDBRANCH   1  17
TORSDOF 10
ENDMDL
MODEL 2
REMARK VINA RESULT: -6.956415863      1.697      1.834
REMARK  10 active torsions:
REMARK  status: ('A' for Active; 'I' for Inactive)
REMARK    1  A    between atoms: N1_1  and  N2_4 
REMARK    2  A    between atoms: N2_4  and  N3_5 
REMARK    3  A    between atoms: N3_5  and  C1_7 
REMARK    4  A    between atoms: C3_9  and  O1_10 
REMARK    5  A    between atoms: O1_10  and  C4_11 
REMARK    6  A    between atoms: C4_11  and  C5_12 
REMARK    7  A    between atoms: N4_14  and  C7_15 
REMARK    8  A    between atoms: C11_19  and  O2_20 
REMARK    9  A    between atoms: C13_28  and  C14_29 
REMARK   10  A    between atoms: C14_29  and  O4_30 
ROOT
HETATM    1  C4  UNL     1      -1.881   4.598  11.693  1.00  0.00     0.230 C 
ENDROOT
BRANCH   1   2
HETATM    2  O1  UNL     1      -2.697   5.564  11.169  1.00  0.00    -0.355 OA
BRANCH   2   3
HETATM    3  C3  UNL     1      -3.757   5.130  10.418  1.00  0.00     0.262 C 
HETATM    4  C2  UNL     1      -4.869   6.121  10.414  1.00  0.00     0.091 C 
HETATM    5  C1  UNL     1      -4.890   6.634   9.007  1.00  0.00     0.150 C 
HETATM    6  C13 UNL     1      -3.570   6.184   8.461  1.00  0.00     0.173 C 
HETATM    7  O3  UNL     1      -3.346   4.970   9.089  1.00  0.00    -0.352 OA
BRANCH   5   8
HETATM    8  N3  UNL     1      -6.018   6.140   8.243  1.00  0.00    -0.245 N 
ATOM      9  H3  UNL     1      -5.913   5.252   7.751  1.00  0.00     0.197 HD
BRANCH   8  10
HETATM   10  N2  UNL     1      -7.093   6.727   8.153  1.00  0.00    -0.248 NA
BRANCH  10  11
HETATM   11  N1  UNL     1      -7.997   7.547   8.126  1.00  0.00    -0.261 N 
ATOM     12  H12 UNL     1      -8.126   7.500   9.136  1.00  0.00     0.193 HD
ATOM     13  H11 UNL     1      -8.705   8.231   7.861  1.00  0.00     0.193 HD
ENDBRANCH  10  11
ENDBRANCH   8  10
ENDBRANCH   5   8
BRANCH   6  14
HETATM   14  C14 UNL     1      -3.586   6.019   6.961  1.00  0.00     0.198 C 
BRANCH  14  15
HETATM   15  O4  UNL     1      -3.701   4.650   6.678  1.00  0.00    -0.398 OA
ATOM     16  H4  UNL     1      -2.825   4.289   6.615  1.00  0.00     0.209 HD
ENDBRANCH  14  15
ENDBRANCH   6  14
ENDBRANCH   2   3
ENDBRANCH   1   2
BRANCH   1  17
HETATM   17  C5  UNL     1      -2.566   3.636  12.558  1.00  0.00     0.068 A 
HETATM   18  C6  UNL     1      -3.187   3.853  13.781  1.00  0.00     0.140 A 
HETATM   19  N4  UNL     1      -3.695   2.697  14.234  1.00  0.00    -0.282 N 
HETATM   20  N5  UNL     1      -3.398   1.795  13.323  1.00  0.00    -0.240 N 
HETATM   21  N6  UNL     1      -2.731   2.333  12.327  1.00  0.00    -0.287 N 
ATOM     22  H5  UNL     1      -3.652   0.809  13.382  1.00  0.00     0.208 HD
ATOM     23  H6  UNL     1      -2.392   1.832  11.505  1.00  0.00     0.188 HD
BRANCH  19  24
HETATM   24  C7  UNL     1      -4.419   2.465  15.461  1.00  0.00     0.111 C 
HETATM   25  C8  UNL     1      -5.727   3.223  15.500  1.00  0.00     0.027 C 
HETATM   26  C9  UNL     1      -6.719   2.539  16.418  1.00  0.00     0.004 C 
HETATM   27  C10 UNL     1      -5.992   1.887  17.586  1.00  0.00     0.032 C 
HETATM   28  C11 UNL     1      -5.109   0.764  17.117  1.00  0.00     0.120 C 
HETATM   29  C12 UNL     1      -4.727   0.994  15.677  1.00  0.00     0.059 C 
BRANCH  28  30
HETATM   30  O2  UNL     1      -5.827  -0.419  17.201  1.00  0.00    -0.396 OA
ATOM     31  H2  UNL     1      -6.086  -0.548  18.106  1.00  0.00     0.210 HD
ENDBRANCH  28  30
ENDBRANCH  19  24
ENDBRANCH   1  17
TORSDOF 10
ENDMDL
MODEL 3
REMARK VINA RESULT: -6.943659943      3.317      4.953
REMARK  10 active torsions:
REMARK  status: ('A' for Active; 'I' for Inactive)
REMARK    1  A    between atoms: N1_1  and  N2_4 
REMARK    2  A    between atoms: N2_4  and  N3_5 
REMARK    3  A    between atoms: N3_5  and  C1_7 
REMARK    4  A    between atoms: C3_9  and  O1_10 
REMARK    5  A    between atoms: O1_10  and  C4_11 
REMARK    6  A    between atoms: C4_11  and  C5_12 
REMARK    7  A    between atoms: N4_14  and  C7_15 
REMARK    8  A    between atoms: C11_19  and  O2_20 
REMARK    9  A    between atoms: C13_28  and  C14_29 
REMARK   10  A    between atoms: C14_29  and  O4_30 
ROOT
HETATM    1  C4  UNL     1      -2.744   4.193  11.502  1.00  0.00     0.230 C 
ENDROOT
BRANCH   1   2
HETATM    2  O1  UNL     1      -1.585   3.735  10.936  1.00  0.00    -0.355 OA
BRANCH   2   3
HETATM    3  C3  UNL     1      -1.680   2.597  10.180  1.00  0.00     0.262 C 
HETATM    4  C2  UNL     1      -0.975   1.451  10.821  1.00  0.00     0.091 C 
HETATM    5  C1  UNL     1      -2.080   0.525  11.222  1.00  0.00     0.150 C 
HETATM    6  C13 UNL     1      -3.300   1.389  11.125  1.00  0.00     0.173 C 
HETATM    7  O3  UNL     1      -3.026   2.233  10.060  1.00  0.00    -0.352 OA
BRANCH   5   8
HETATM    8  N3  UNL     1      -2.156  -0.658  10.389  1.00  0.00    -0.245 N 
ATOM      9  H3  UNL     1      -2.021  -0.547   9.384  1.00  0.00     0.197 HD
BRANCH   8  10
HETATM   10  N2  UNL     1      -2.373  -1.786  10.821  1.00  0.00    -0.248 NA
BRANCH  10  11
HETATM   11  N1  UNL     1      -2.312  -2.958  11.161  1.00  0.00    -0.261 N 
ATOM     12  H12 UNL     1      -1.782  -3.215  10.329  1.00  0.00     0.193 HD
ATOM     13  H11 UNL     1      -2.391  -3.855  11.639  1.00  0.00     0.193 HD
ENDBRANCH  10  11
ENDBRANCH   8  10
ENDBRANCH   5   8
BRANCH   6  14
HETATM   14  C14 UNL     1      -4.558   0.595  10.872  1.00  0.00     0.198 C 
BRANCH  14  15
HETATM   15  O4  UNL     1      -4.576   0.232   9.518  1.00  0.00    -0.398 OA
ATOM     16  H4  UNL     1      -4.591  -0.716   9.468  1.00  0.00     0.209 HD
ENDBRANCH  14  15
ENDBRANCH   6  14
ENDBRANCH   2   3
ENDBRANCH   1   2
BRANCH   1  17
HETATM   17  C5  UNL     1      -2.897   3.852  12.917  1.00  0.00     0.068 A 
HETATM   18  C6  UNL     1      -4.024   3.390  13.585  1.00  0.00     0.140 A 
HETATM   19  N4  UNL     1      -3.728   3.199  14.879  1.00  0.00    -0.282 N 
HETATM   20  N5  UNL     1      -2.460   3.531  15.009  1.00  0.00    -0.240 N 
HETATM   21  N6  UNL     1      -1.955   3.919  13.859  1.00  0.00    -0.287 N 
ATOM     22  H5  UNL     1      -1.939   3.492  15.885  1.00  0.00     0.208 HD
ATOM     23  H6  UNL     1      -0.993   4.225  13.711  1.00  0.00     0.188 HD
BRANCH  19  24
HETATM   24  C7  UNL     1      -4.598   2.728  15.929  1.00  0.00     0.111 C 
HETATM   25  C8  UNL     1      -6.011   3.240  15.769  1.00  0.00     0.027 C 
HETATM   26  C9  UNL     1      -7.002   2.310  16.437  1.00  0.00     0.004 C 
HETATM   27  C10 UNL     1      -6.380   1.684  17.678  1.00  0.00     0.032 C 
HETATM   28  C11 UNL     1      -5.234   0.781  17.315  1.00  0.00     0.120 C 
HETATM   29  C12 UNL     1      -4.658   1.211  15.991  1.00  0.00     0.059 C 
BRANCH  28  30
HETATM   30  O2  UNL     1      -5.720  -0.510  17.187  1.00  0.00    -0.396 OA
ATOM     31  H2  UNL     1      -5.733  -0.912  18.049  1.00  0.00     0.210 HD
ENDBRANCH  28  30
ENDBRANCH  19  24
ENDBRANCH   1  17
TORSDOF 10
ENDMDL
MODEL 4
REMARK VINA RESULT: -6.873964206      1.504      1.870
REMARK  10 active torsions:
REMARK  status: ('A' for Active; 'I' for Inactive)
REMARK    1  A    between atoms: N1_1  and  N2_4 
REMARK    2  A    between atoms: N2_4  and  N3_5 
REMARK    3  A    between atoms: N3_5  and  C1_7 
REMARK    4  A    between atoms: C3_9  and  O1_10 
REMARK    5  A    between atoms: O1_10  and  C4_11 
REMARK    6  A    between atoms: C4_11  and  C5_12 
REMARK    7  A    between atoms: N4_14  and  C7_15 
REMARK    8  A    between atoms: C11_19  and  O2_20 
REMARK    9  A    between atoms: C13_28  and  C14_29 
REMARK   10  A    between atoms: C14_29  and  O4_30 
ROOT
HETATM    1  C4  UNL     1      -3.441   3.286  10.613  1.00  0.00     0.230 C 
ENDROOT
BRANCH   1   2
HETATM    2  O1  UNL     1      -4.459   4.058  10.120  1.00  0.00    -0.355 OA
BRANCH   2   3
HETATM    3  C3  UNL     1      -4.200   5.396   9.979  1.00  0.00     0.262 C 
HETATM    4  C2  UNL     1      -3.801   5.734   8.584  1.00  0.00     0.091 C 
HETATM    5  C1  UNL     1      -4.950   6.542   8.065  1.00  0.00     0.150 C 
HETATM    6  C13 UNL     1      -6.037   6.263   9.057  1.00  0.00     0.173 C 
HETATM    7  O3  UNL     1      -5.363   6.123  10.260  1.00  0.00    -0.352 OA
BRANCH   5   8
HETATM    8  N3  UNL     1      -4.639   7.952   7.945  1.00  0.00    -0.245 N 
ATOM      9  H3  UNL     1      -4.164   8.407   8.725  1.00  0.00     0.197 HD
BRANCH   8  10
HETATM   10  N2  UNL     1      -4.915   8.632   6.961  1.00  0.00    -0.248 NA
BRANCH  10  11
HETATM   11  N1  UNL     1      -5.432   9.141   5.979  1.00  0.00    -0.261 N 
ATOM     12  H12 UNL     1      -5.363   8.277   5.443  1.00  0.00     0.193 HD
ATOM     13  H11 UNL     1      -5.873   9.766   5.305  1.00  0.00     0.193 HD
ENDBRANCH  10  11
ENDBRANCH   8  10
ENDBRANCH   5   8
BRANCH   6  14
HETATM   14  C14 UNL     1      -7.053   7.376   9.136  1.00  0.00     0.198 C 
BRANCH  14  15
HETATM   15  O4  UNL     1      -7.532   7.616   7.840  1.00  0.00    -0.398 OA
ATOM     16  H4  UNL     1      -7.994   8.446   7.847  1.00  0.00     0.209 HD
ENDBRANCH  14  15
ENDBRANCH   6  14
ENDBRANCH   2   3
ENDBRANCH   1   2
BRANCH   1  17
HETATM   17  C5  UNL     1      -3.375   3.239  12.074  1.00  0.00     0.068 A 
HETATM   18  C6  UNL     1      -4.341   2.813  12.976  1.00  0.00     0.140 A 
HETATM   19  N4  UNL     1      -3.868   2.933  14.226  1.00  0.00    -0.282 N 
HETATM   20  N5  UNL     1      -2.650   3.417  14.101  1.00  0.00    -0.240 N 
HETATM   21  N6  UNL     1      -2.344   3.604  12.837  1.00  0.00    -0.287 N 
ATOM     22  H5  UNL     1      -2.026   3.620  14.883  1.00  0.00     0.208 HD
ATOM     23  H6  UNL     1      -1.456   3.971  12.493  1.00  0.00     0.188 HD
BRANCH  19  24
HETATM   24  C7  UNL     1      -4.534   2.606  15.463  1.00  0.00     0.111 C 
HETATM   25  C8  UNL     1      -5.874   3.295  15.586  1.00  0.00     0.027 C 
HETATM   26  C9  UNL     1      -6.798   2.519  16.502  1.00  0.00     0.004 C 
HETATM   27  C10 UNL     1      -5.997   1.849  17.610  1.00  0.00     0.032 C 
HETATM   28  C11 UNL     1      -5.080   0.795  17.055  1.00  0.00     0.120 C 
HETATM   29  C12 UNL     1      -4.764   1.112  15.616  1.00  0.00     0.059 C 
BRANCH  28  30
HETATM   30  O2  UNL     1      -5.736  -0.425  17.105  1.00  0.00    -0.396 OA
ATOM     31  H2  UNL     1      -5.942  -0.690  16.216  1.00  0.00     0.210 HD
ENDBRANCH  28  30
ENDBRANCH  19  24
ENDBRANCH   1  17
TORSDOF 10
ENDMDL
MODEL 5
REMARK VINA RESULT: -6.860904366      2.433      7.968
REMARK  10 active torsions:
REMARK  status: ('A' for Active; 'I' for Inactive)
REMARK    1  A    between atoms: N1_1  and  N2_4 
REMARK    2  A    between atoms: N2_4  and  N3_5 
REMARK    3  A    between atoms: N3_5  and  C1_7 
REMARK    4  A    between atoms: C3_9  and  O1_10 
REMARK    5  A    between atoms: O1_10  and  C4_11 
REMARK    6  A    between atoms: C4_11  and  C5_12 
REMARK    7  A    between atoms: N4_14  and  C7_15 
REMARK    8  A    between atoms: C11_19  and  O2_20 
REMARK    9  A    between atoms: C13_28  and  C14_29 
REMARK   10  A    between atoms: C14_29  and  O4_30 
ROOT
HETATM    1  C4  UNL     1      -3.896   5.092  14.568  1.00  0.00     0.230 C 
ENDROOT
BRANCH   1   2
HETATM    2  O1  UNL     1      -4.983   4.424  15.065  1.00  0.00    -0.355 OA
BRANCH   2   3
HETATM    3  C3  UNL     1      -5.120   3.113  14.693  1.00  0.00     0.262 C 
HETATM    4  C2  UNL     1      -3.808   2.408  14.675  1.00  0.00     0.091 C 
HETATM    5  C1  UNL     1      -3.902   1.441  15.814  1.00  0.00     0.150 C 
HETATM    6  C13 UNL     1      -5.076   1.948  16.594  1.00  0.00     0.173 C 
HETATM    7  O3  UNL     1      -5.928   2.451  15.624  1.00  0.00    -0.352 OA
BRANCH   5   8
HETATM    8  N3  UNL     1      -4.061   0.068  15.377  1.00  0.00    -0.245 N 
ATOM      9  H3  UNL     1      -4.084  -0.663  16.088  1.00  0.00     0.197 HD
BRANCH   8  10
HETATM   10  N2  UNL     1      -4.169  -0.267  14.201  1.00  0.00    -0.248 NA
BRANCH  10  11
HETATM   11  N1  UNL     1      -4.048  -0.417  12.995  1.00  0.00    -0.261 N 
ATOM     12  H12 UNL     1      -3.837  -1.409  13.098  1.00  0.00     0.193 HD
ATOM     13  H11 UNL     1      -3.999  -0.301  11.983  1.00  0.00     0.193 HD
ENDBRANCH  10  11
ENDBRANCH   8  10
ENDBRANCH   5   8
BRANCH   6  14
HETATM   14  C14 UNL     1      -5.754   0.864  17.396  1.00  0.00     0.198 C 
BRANCH  14  15
HETATM   15  O4  UNL     1      -6.611   0.162  16.536  1.00  0.00    -0.398 OA
ATOM     16  H4  UNL     1      -6.391   0.401  15.643  1.00  0.00     0.209 HD
ENDBRANCH  14  15
ENDBRANCH   6  14
ENDBRANCH   2   3
ENDBRANCH   1   2
BRANCH   1  17
HETATM   17  C5  UNL     1      -4.158   5.828  13.330  1.00  0.00     0.068 A 
HETATM   18  C6  UNL     1      -5.331   5.898  12.589  1.00  0.00     0.140 A 
HETATM   19  N4  UNL     1      -5.139   6.689  11.524  1.00  0.00    -0.282 N 
HETATM   20  N5  UNL     1      -3.889   7.096  11.602  1.00  0.00    -0.240 N 
HETATM   21  N6  UNL     1      -3.296   6.596  12.663  1.00  0.00    -0.287 N 
ATOM     22  H5  UNL     1      -3.440   7.718  10.928  1.00  0.00     0.208 HD
ATOM     23  H6  UNL     1      -2.327   6.769  12.933  1.00  0.00     0.188 HD
BRANCH  19  24
HETATM   24  C7  UNL     1      -6.087   7.038  10.494  1.00  0.00     0.111 C 
HETATM   25  C8  UNL     1      -6.137   8.529  10.248  1.00  0.00     0.027 C 
HETATM   26  C9  UNL     1      -6.609   8.829   8.841  1.00  0.00     0.004 C 
HETATM   27  C10 UNL     1      -7.620   7.783   8.392  1.00  0.00     0.032 C 
HETATM   28  C11 UNL     1      -6.982   6.427   8.271  1.00  0.00     0.120 C 
HETATM   29  C12 UNL     1      -5.775   6.359   9.171  1.00  0.00     0.059 C 
BRANCH  28  30
HETATM   30  O2  UNL     1      -6.567   6.255   6.960  1.00  0.00    -0.396 OA
ATOM     31  H2  UNL     1      -5.617   6.274   6.942  1.00  0.00     0.210 HD
ENDBRANCH  28  30
ENDBRANCH  19  24
ENDBRANCH   1  17
TORSDOF 10
ENDMDL
