MODEL 1
REMARK VINA RESULT: -7.312570945      0.000      0.000
REMARK  8 active torsions:
REMARK  status: ('A' for Active; 'I' for Inactive)
REMARK    1  A    between atoms: C2_5  and  S1_6 
REMARK    2  A    between atoms: S1_6  and  C3_7 
REMARK    3  A    between atoms: C3_7  and  C4_8 
REMARK    4  A    between atoms: C4_8  and  O1_9 
REMARK    5  A    between atoms: O1_9  and  C5_10 
REMARK    6  A    between atoms: N3_14  and  C9_15 
REMARK    7  A    between atoms: C9_15  and  C10_16 
REMARK    8  A    between atoms: C13_19  and  O2_20 
ROOT
HETATM    1  C1  UNL     1      -1.858   0.691  10.888  1.00  0.00     0.183 C 
HETATM    2  N1  UNL     1      -2.488   1.732  11.708  1.00  0.00    -0.245 N 
HETATM    3  N2  UNL     1      -2.024   2.934  11.989  1.00  0.00    -0.274 N 
ATOM      4  H2  UNL     1      -1.138   3.329  11.673  1.00  0.00     0.189 HD
HETATM    5  C2  UNL     1      -2.951   3.553  12.785  1.00  0.00     0.165 A 
HETATM    6  N3  UNL     1      -3.960   2.698  12.962  1.00  0.00    -0.275 N 
HETATM    7  C14 UNL     1      -3.680   1.539  12.284  1.00  0.00     0.345 A 
HETATM    8  O3  UNL     1      -4.464   0.565  12.282  1.00  0.00    -0.245 OA
ENDROOT
BRANCH   6   9
HETATM    9  C9  UNL     1      -5.126   2.921  13.745  1.00  0.00     0.169 C 
BRANCH   9  10
HETATM   10  C10 UNL     1      -5.083   2.611  15.179  1.00  0.00     0.207 C 
HETATM   11  C11 UNL     1      -6.206   3.014  16.058  1.00  0.00     0.039 C 
HETATM   12  C12 UNL     1      -6.266   1.925  17.147  1.00  0.00     0.063 C 
HETATM   13  C13 UNL     1      -5.137   1.013  16.762  1.00  0.00     0.319 C 
HETATM   14  N4  UNL     1      -5.083   1.134  15.320  1.00  0.00    -0.043 N 
ATOM     15  H42 UNL     1      -5.812   0.639  14.807  1.00  0.00     0.280 HD
ATOM     16  H41 UNL     1      -4.313   0.645  14.863  1.00  0.00     0.280 HD
BRANCH  13  17
HETATM   17  O2  UNL     1      -5.402  -0.305  17.151  1.00  0.00    -0.370 OA
ATOM     18  H2  UNL     1      -4.618  -0.839  17.100  1.00  0.00     0.212 HD
ENDBRANCH  13  17
ENDBRANCH   9  10
ENDBRANCH   6   9
BRANCH   5  19
HETATM   19  S1  UNL     1      -2.714   5.236  13.364  1.00  0.00    -0.090 SA
BRANCH  19  20
HETATM   20  C3  UNL     1      -3.442   6.358  12.159  1.00  0.00     0.108 C 
BRANCH  20  21
HETATM   21  C4  UNL     1      -4.916   6.213  11.991  1.00  0.00     0.179 C 
BRANCH  21  22
HETATM   22  O1  UNL     1      -5.339   6.385  10.680  1.00  0.00    -0.381 OA
BRANCH  22  23
HETATM   23  C5  UNL     1      -6.226   7.437  10.537  1.00  0.00     0.050 C 
HETATM   24  C6  UNL     1      -7.222   7.530  11.649  1.00  0.00     0.045 C 
HETATM   25  C7  UNL     1      -5.503   8.775  10.455  1.00  0.00     0.045 C 
HETATM   26  C8  UNL     1      -6.986   7.261   9.238  1.00  0.00     0.045 C 
ENDBRANCH  22  23
ENDBRANCH  21  22
ENDBRANCH  20  21
ENDBRANCH  19  20
ENDBRANCH   5  19
TORSDOF 8
ENDMDL
MODEL 2
REMARK VINA RESULT: -6.998611821      0.686      1.111
REMARK  8 active torsions:
REMARK  status: ('A' for Active; 'I' for Inactive)
REMARK    1  A    between atoms: C2_5  and  S1_6 
REMARK    2  A    between atoms: S1_6  and  C3_7 
REMARK    3  A    between atoms: C3_7  and  C4_8 
REMARK    4  A    between atoms: C4_8  and  O1_9 
REMARK    5  A    between atoms: O1_9  and  C5_10 
REMARK    6  A    between atoms: N3_14  and  C9_15 
REMARK    7  A    between atoms: C9_15  and  C10_16 
REMARK    8  A    between atoms: C13_19  and  O2_20 
ROOT
HETATM    1  C1  UNL     1      -2.252   1.176  10.702  1.00  0.00     0.183 C 
HETATM    2  N1  UNL     1      -2.730   2.122  11.718  1.00  0.00    -0.245 N 
HETATM    3  N2  UNL     1      -2.088   3.152  12.231  1.00  0.00    -0.274 N 
ATOM      4  H2  UNL     1      -1.142   3.454  11.996  1.00  0.00     0.189 HD
HETATM    5  C2  UNL     1      -2.926   3.742  13.141  1.00  0.00     0.165 A 
HETATM    6  N3  UNL     1      -4.062   3.043  13.149  1.00  0.00    -0.275 N 
HETATM    7  C14 UNL     1      -3.952   2.012  12.250  1.00  0.00     0.345 A 
HETATM    8  O3  UNL     1      -4.882   1.198  12.057  1.00  0.00    -0.245 OA
ENDROOT
BRANCH   6   9
HETATM    9  C9  UNL     1      -5.199   3.291  13.967  1.00  0.00     0.169 C 
BRANCH   9  10
HETATM   10  C10 UNL     1      -5.187   2.812  15.354  1.00  0.00     0.207 C 
HETATM   11  C11 UNL     1      -6.341   3.088  16.242  1.00  0.00     0.039 C 
HETATM   12  C12 UNL     1      -6.407   1.876  17.191  1.00  0.00     0.063 C 
HETATM   13  C13 UNL     1      -5.250   1.036  16.733  1.00  0.00     0.319 C 
HETATM   14  N4  UNL     1      -5.160   1.329  15.318  1.00  0.00    -0.043 N 
ATOM     15  H42 UNL     1      -5.865   0.887  14.729  1.00  0.00     0.280 HD
ATOM     16  H41 UNL     1      -4.369   0.912  14.828  1.00  0.00     0.280 HD
BRANCH  13  17
HETATM   17  O2  UNL     1      -5.498  -0.323  16.954  1.00  0.00    -0.370 OA
ATOM     18  H2  UNL     1      -4.796  -0.859  16.604  1.00  0.00     0.212 HD
ENDBRANCH  13  17
ENDBRANCH   9  10
ENDBRANCH   6   9
BRANCH   5  19
HETATM   19  S1  UNL     1      -2.439   5.216  14.044  1.00  0.00    -0.090 SA
BRANCH  19  20
HETATM   20  C3  UNL     1      -2.996   6.657  13.119  1.00  0.00     0.108 C 
BRANCH  20  21
HETATM   21  C4  UNL     1      -3.562   6.349  11.776  1.00  0.00     0.179 C 
BRANCH  21  22
HETATM   22  O1  UNL     1      -4.949   6.318  11.757  1.00  0.00    -0.381 OA
BRANCH  22  23
HETATM   23  C5  UNL     1      -5.493   7.206  10.846  1.00  0.00     0.050 C 
HETATM   24  C6  UNL     1      -4.650   8.422  10.624  1.00  0.00     0.045 C 
HETATM   25  C7  UNL     1      -5.718   6.550   9.489  1.00  0.00     0.045 C 
HETATM   26  C8  UNL     1      -6.847   7.658  11.352  1.00  0.00     0.045 C 
ENDBRANCH  22  23
ENDBRANCH  21  22
ENDBRANCH  20  21
ENDBRANCH  19  20
ENDBRANCH   5  19
TORSDOF 8
ENDMDL
MODEL 3
REMARK VINA RESULT: -6.994642017      1.638      4.397
REMARK  8 active torsions:
REMARK  status: ('A' for Active; 'I' for Inactive)
REMARK    1  A    between atoms: C2_5  and  S1_6 
REMARK    2  A    between atoms: S1_6  and  C3_7 
REMARK    3  A    between atoms: C3_7  and  C4_8 
REMARK    4  A    between atoms: C4_8  and  O1_9 
REMARK    5  A    between atoms: O1_9  and  C5_10 
REMARK    6  A    between atoms: N3_14  and  C9_15 
REMARK    7  A    between atoms: C9_15  and  C10_16 
REMARK    8  A    between atoms: C13_19  and  O2_20 
ROOT
HETATM    1  C1  UNL     1      -5.650   1.161  17.837  1.00  0.00     0.183 C 
HETATM    2  N1  UNL     1      -5.348   1.896  16.602  1.00  0.00    -0.245 N 
HETATM    3  N2  UNL     1      -6.024   2.894  16.067  1.00  0.00    -0.274 N 
ATOM      4  H2  UNL     1      -6.877   3.314  16.438  1.00  0.00     0.189 HD
HETATM    5  C2  UNL     1      -5.369   3.262  14.921  1.00  0.00     0.165 A 
HETATM    6  N3  UNL     1      -4.305   2.467  14.797  1.00  0.00    -0.275 N 
HETATM    7  C14 UNL     1      -4.279   1.596  15.857  1.00  0.00     0.345 A 
HETATM    8  O3  UNL     1      -3.379   0.737  15.988  1.00  0.00    -0.245 OA
ENDROOT
BRANCH   6   9
HETATM    9  C9  UNL     1      -3.360   2.483  13.734  1.00  0.00     0.169 C 
BRANCH   9  10
HETATM   10  C10 UNL     1      -3.431   1.434  12.711  1.00  0.00     0.207 C 
HETATM   11  C11 UNL     1      -4.560   1.411  11.752  1.00  0.00     0.039 C 
HETATM   12  C12 UNL     1      -3.965   0.828  10.455  1.00  0.00     0.063 C 
HETATM   13  C13 UNL     1      -2.536   0.570  10.837  1.00  0.00     0.319 C 
HETATM   14  N4  UNL     1      -2.258   1.598  11.817  1.00  0.00    -0.043 N 
ATOM     15  H42 UNL     1      -2.111   2.536  11.446  1.00  0.00     0.280 HD
ATOM     16  H41 UNL     1      -1.345   1.544  12.270  1.00  0.00     0.280 HD
BRANCH  13  17
HETATM   17  O2  UNL     1      -1.691   0.685   9.727  1.00  0.00    -0.370 OA
ATOM     18  H2  UNL     1      -0.836   1.009   9.983  1.00  0.00     0.212 HD
ENDBRANCH  13  17
ENDBRANCH   9  10
ENDBRANCH   6   9
BRANCH   5  19
HETATM   19  S1  UNL     1      -5.952   4.623  13.905  1.00  0.00    -0.090 SA
BRANCH  19  20
HETATM   20  C3  UNL     1      -4.541   5.654  13.476  1.00  0.00     0.108 C 
BRANCH  20  21
HETATM   21  C4  UNL     1      -4.436   5.987  12.027  1.00  0.00     0.179 C 
BRANCH  21  22
HETATM   22  O1  UNL     1      -5.648   5.911  11.356  1.00  0.00    -0.381 OA
BRANCH  22  23
HETATM   23  C5  UNL     1      -5.991   7.097  10.732  1.00  0.00     0.050 C 
HETATM   24  C6  UNL     1      -6.432   6.918   9.314  1.00  0.00     0.045 C 
HETATM   25  C7  UNL     1      -7.110   7.818  11.473  1.00  0.00     0.045 C 
HETATM   26  C8  UNL     1      -4.788   8.017  10.738  1.00  0.00     0.045 C 
ENDBRANCH  22  23
ENDBRANCH  21  22
ENDBRANCH  20  21
ENDBRANCH  19  20
ENDBRANCH   5  19
TORSDOF 8
ENDMDL
MODEL 4
REMARK VINA RESULT: -6.977864890      1.254      1.575
REMARK  8 active torsions:
REMARK  status: ('A' for Active; 'I' for Inactive)
REMARK    1  A    between atoms: C2_5  and  S1_6 
REMARK    2  A    between atoms: S1_6  and  C3_7 
REMARK    3  A    between atoms: C3_7  and  C4_8 
REMARK    4  A    between atoms: C4_8  and  O1_9 
REMARK    5  A    between atoms: O1_9  and  C5_10 
REMARK    6  A    between atoms: N3_14  and  C9_15 
REMARK    7  A    between atoms: C9_15  and  C10_16 
REMARK    8  A    between atoms: C13_19  and  O2_20 
ROOT
HETATM    1  C1  UNL     1      -4.552   0.442  10.706  1.00  0.00     0.183 C 
HETATM    2  N1  UNL     1      -4.352   1.514  11.689  1.00  0.00    -0.245 N 
HETATM    3  N2  UNL     1      -4.449   2.815  11.500  1.00  0.00    -0.274 N 
ATOM      4  H2  UNL     1      -4.682   3.284  10.625  1.00  0.00     0.189 HD
HETATM    5  C2  UNL     1      -4.178   3.422  12.699  1.00  0.00     0.165 A 
HETATM    6  N3  UNL     1      -3.924   2.458  13.586  1.00  0.00    -0.275 N 
HETATM    7  C14 UNL     1      -4.031   1.243  12.959  1.00  0.00     0.345 A 
HETATM    8  O3  UNL     1      -3.842   0.165  13.565  1.00  0.00    -0.245 OA
ENDROOT
BRANCH   6   9
HETATM    9  C9  UNL     1      -3.569   2.641  14.950  1.00  0.00     0.169 C 
BRANCH   9  10
HETATM   10  C10 UNL     1      -4.550   2.300  15.987  1.00  0.00     0.207 C 
HETATM   11  C11 UNL     1      -5.995   2.515  15.738  1.00  0.00     0.039 C 
HETATM   12  C12 UNL     1      -6.702   1.398  16.530  1.00  0.00     0.063 C 
HETATM   13  C13 UNL     1      -5.554   0.667  17.163  1.00  0.00     0.319 C 
HETATM   14  N4  UNL     1      -4.480   0.835  16.209  1.00  0.00    -0.043 N 
ATOM     15  H42 UNL     1      -4.537   0.257  15.371  1.00  0.00     0.280 HD
ATOM     16  H41 UNL     1      -3.570   0.474  16.496  1.00  0.00     0.280 HD
BRANCH  13  17
HETATM   17  O2  UNL     1      -5.861  -0.685  17.349  1.00  0.00    -0.370 OA
ATOM     18  H2  UNL     1      -5.083  -1.185  17.567  1.00  0.00     0.212 HD
ENDBRANCH  13  17
ENDBRANCH   9  10
ENDBRANCH   6   9
BRANCH   5  19
HETATM   19  S1  UNL     1      -4.241   5.207  12.880  1.00  0.00    -0.090 SA
BRANCH  19  20
HETATM   20  C3  UNL     1      -3.314   5.947  11.526  1.00  0.00     0.108 C 
BRANCH  20  21
HETATM   21  C4  UNL     1      -4.156   6.480  10.418  1.00  0.00     0.179 C 
BRANCH  21  22
HETATM   22  O1  UNL     1      -5.513   6.253  10.600  1.00  0.00    -0.381 OA
BRANCH  22  23
HETATM   23  C5  UNL     1      -6.272   7.402  10.466  1.00  0.00     0.050 C 
HETATM   24  C6  UNL     1      -5.453   8.653  10.414  1.00  0.00     0.045 C 
HETATM   25  C7  UNL     1      -7.132   7.364   9.209  1.00  0.00     0.045 C 
HETATM   26  C8  UNL     1      -7.214   7.505  11.647  1.00  0.00     0.045 C 
ENDBRANCH  22  23
ENDBRANCH  21  22
ENDBRANCH  20  21
ENDBRANCH  19  20
ENDBRANCH   5  19
TORSDOF 8
ENDMDL
MODEL 5
REMARK VINA RESULT: -6.912323185      1.582      4.149
REMARK  8 active torsions:
REMARK  status: ('A' for Active; 'I' for Inactive)
REMARK    1  A    between atoms: C2_5  and  S1_6 
REMARK    2  A    between atoms: S1_6  and  C3_7 
REMARK    3  A    between atoms: C3_7  and  C4_8 
REMARK    4  A    between atoms: C4_8  and  O1_9 
REMARK    5  A    between atoms: O1_9  and  C5_10 
REMARK    6  A    between atoms: N3_14  and  C9_15 
REMARK    7  A    between atoms: C9_15  and  C10_16 
REMARK    8  A    between atoms: C13_19  and  O2_20 
ROOT
HETATM    1  C1  UNL     1      -5.701   1.252  17.648  1.00  0.00     0.183 C 
HETATM    2  N1  UNL     1      -5.337   1.979  16.426  1.00  0.00    -0.245 N 
HETATM    3  N2  UNL     1      -5.933   3.031  15.900  1.00  0.00    -0.274 N 
ATOM      4  H2  UNL     1      -6.754   3.508  16.271  1.00  0.00     0.189 HD
HETATM    5  C2  UNL     1      -5.244   3.364  14.763  1.00  0.00     0.165 A 
HETATM    6  N3  UNL     1      -4.241   2.494  14.635  1.00  0.00    -0.275 N 
HETATM    7  C14 UNL     1      -4.287   1.610  15.683  1.00  0.00     0.345 A 
HETATM    8  O3  UNL     1      -3.455   0.684  15.808  1.00  0.00    -0.245 OA
ENDROOT
BRANCH   6   9
HETATM    9  C9  UNL     1      -3.290   2.454  13.578  1.00  0.00     0.169 C 
BRANCH   9  10
HETATM   10  C10 UNL     1      -3.633   1.732  12.348  1.00  0.00     0.207 C 
HETATM   11  C11 UNL     1      -2.679   1.708  11.213  1.00  0.00     0.039 C 
HETATM   12  C12 UNL     1      -2.904   0.342  10.537  1.00  0.00     0.063 C 
HETATM   13  C13 UNL     1      -3.992  -0.264  11.375  1.00  0.00     0.319 C 
HETATM   14  N4  UNL     1      -3.756   0.293  12.689  1.00  0.00    -0.043 N 
ATOM     15  H42 UNL     1      -2.974  -0.108  13.206  1.00  0.00     0.280 HD
ATOM     16  H41 UNL     1      -4.451   0.064  13.400  1.00  0.00     0.280 HD
BRANCH  13  17
HETATM   17  O2  UNL     1      -3.895  -1.660  11.391  1.00  0.00    -0.370 OA
ATOM     18  H2  UNL     1      -3.497  -1.965  12.198  1.00  0.00     0.212 HD
ENDBRANCH  13  17
ENDBRANCH   9  10
ENDBRANCH   6   9
BRANCH   5  19
HETATM   19  S1  UNL     1      -5.717   4.778  13.762  1.00  0.00    -0.090 SA
BRANCH  19  20
HETATM   20  C3  UNL     1      -4.231   5.712  13.364  1.00  0.00     0.108 C 
BRANCH  20  21
HETATM   21  C4  UNL     1      -4.240   6.343  12.014  1.00  0.00     0.179 C 
BRANCH  21  22
HETATM   22  O1  UNL     1      -5.385   6.060  11.282  1.00  0.00    -0.381 OA
BRANCH  22  23
HETATM   23  C5  UNL     1      -5.931   7.183  10.686  1.00  0.00     0.050 C 
HETATM   24  C6  UNL     1      -4.964   8.317  10.554  1.00  0.00     0.045 C 
HETATM   25  C7  UNL     1      -6.468   6.874   9.294  1.00  0.00     0.045 C 
HETATM   26  C8  UNL     1      -7.102   7.656  11.521  1.00  0.00     0.045 C 
ENDBRANCH  22  23
ENDBRANCH  21  22
ENDBRANCH  20  21
ENDBRANCH  19  20
ENDBRANCH   5  19
TORSDOF 8
ENDMDL
