MODEL 1
REMARK VINA RESULT: -7.401835924      0.000      0.000
REMARK  10 active torsions:
REMARK  status: ('A' for Active; 'I' for Inactive)
REMARK    1  A    between atoms: C2_2  and  O2_4 
REMARK    2  A    between atoms: O2_4  and  N1_5 
REMARK    3  A    between atoms: C3_7  and  O3_8 
REMARK    4  A    between atoms: C3_7  and  C4_10 
REMARK    5  A    between atoms: C4_10  and  C5_11 
REMARK    6  A    between atoms: C5_11  and  C6_12 
REMARK    7  A    between atoms: C6_12  and  C7_13 
REMARK    8  A    between atoms: C7_13  and  C8_14 
REMARK    9  A    between atoms: C9_15  and  C10_16 
REMARK   10  A    between atoms: N3_25  and  C15_26 
ROOT
HETATM    1  C10 UNL     1      -3.711   5.020  12.375  1.00  0.00     0.050 A 
HETATM    2  C11 UNL     1      -2.789   4.084  12.709  1.00  0.00     0.033 A 
HETATM    3  C12 UNL     1      -2.250   3.957  14.077  1.00  0.00     0.056 C 
HETATM    4  C13 UNL     1      -2.227   3.248  11.749  1.00  0.00     0.257 A 
HETATM    5  O4  UNL     1      -1.386   2.387  12.054  1.00  0.00    -0.267 OA
HETATM    6  N2  UNL     1      -2.639   3.419  10.488  1.00  0.00    -0.275 N 
ATOM      7  H2  UNL     1      -2.247   2.821   9.761  1.00  0.00     0.173 HD
HETATM    8  C14 UNL     1      -3.542   4.337  10.141  1.00  0.00     0.330 A 
HETATM    9  O5  UNL     1      -3.838   4.386   8.924  1.00  0.00    -0.246 OA
HETATM   10  N3  UNL     1      -4.108   5.171  11.084  1.00  0.00    -0.292 N 
ENDROOT
BRANCH   1  11
HETATM   11  C9  UNL     1      -4.399   5.765  13.389  1.00  0.00     0.026 C 
HETATM   12  C8  UNL     1      -5.323   5.446  14.241  1.00  0.00    -0.024 C 
BRANCH  12  13
HETATM   13  C7  UNL     1      -6.040   4.203  14.507  1.00  0.00     0.027 C 
BRANCH  13  14
HETATM   14  C6  UNL     1      -6.080   3.897  15.983  1.00  0.00     0.004 C 
BRANCH  14  15
HETATM   15  C5  UNL     1      -5.985   2.429  16.220  1.00  0.00     0.008 C 
BRANCH  15  16
HETATM   16  C4  UNL     1      -4.588   1.913  16.162  1.00  0.00     0.086 C 
BRANCH  16  17
HETATM   17  C3  UNL     1      -4.546   0.813  15.136  1.00  0.00     0.136 C 
HETATM   18  N1  UNL     1      -4.304   1.052  13.903  1.00  0.00    -0.239 N 
ATOM     19  H1  UNL     1      -4.137   2.015  13.611  1.00  0.00     0.197 HD
BRANCH  18  20
HETATM   20  O2  UNL     1      -4.263   0.069  12.974  1.00  0.00    -0.198 OA
BRANCH  20  21
HETATM   21  C2  UNL     1      -4.376   0.398  11.621  1.00  0.00     0.277 C 
HETATM   22  C1  UNL     1      -3.585  -0.271  10.561  1.00  0.00     0.128 C 
HETATM   23  O1  UNL     1      -5.183   1.298  11.304  1.00  0.00    -0.264 OA
ENDBRANCH  20  21
ENDBRANCH  18  20
BRANCH  17  24
HETATM   24  O3  UNL     1      -4.780  -0.471  15.593  1.00  0.00    -0.348 OA
ATOM     25  H3  UNL     1      -4.069  -1.045  15.853  1.00  0.00     0.219 HD
ENDBRANCH  17  24
ENDBRANCH  16  17
ENDBRANCH  15  16
ENDBRANCH  14  15
ENDBRANCH  13  14
ENDBRANCH  12  13
ENDBRANCH   1  11
BRANCH  10  26
HETATM   26  C15 UNL     1      -5.068   6.057  10.581  1.00  0.00     0.122 C 
HETATM   27  C16 UNL     1      -6.171   6.651  11.359  1.00  0.00     0.102 C 
HETATM   28  S1  UNL     1      -6.543   7.662   9.831  1.00  0.00    -0.155 SA
HETATM   29  C17 UNL     1      -4.714   7.415  10.099  1.00  0.00     0.022 C 
HETATM   30  C18 UNL     1      -4.089   7.573   8.731  1.00  0.00     0.029 C 
HETATM   31  C19 UNL     1      -4.178   8.431  11.038  1.00  0.00     0.029 C 
ENDBRANCH  10  26
TORSDOF 10
ENDMDL
MODEL 2
REMARK VINA RESULT: -7.042676717      3.067      5.137
REMARK  10 active torsions:
REMARK  status: ('A' for Active; 'I' for Inactive)
REMARK    1  A    between atoms: C2_2  and  O2_4 
REMARK    2  A    between atoms: O2_4  and  N1_5 
REMARK    3  A    between atoms: C3_7  and  O3_8 
REMARK    4  A    between atoms: C3_7  and  C4_10 
REMARK    5  A    between atoms: C4_10  and  C5_11 
REMARK    6  A    between atoms: C5_11  and  C6_12 
REMARK    7  A    between atoms: C6_12  and  C7_13 
REMARK    8  A    between atoms: C7_13  and  C8_14 
REMARK    9  A    between atoms: C9_15  and  C10_16 
REMARK   10  A    between atoms: N3_25  and  C15_26 
ROOT
HETATM    1  C10 UNL     1      -2.170   4.261  11.100  1.00  0.00     0.050 A 
HETATM    2  C11 UNL     1      -3.491   4.335  11.392  1.00  0.00     0.033 A 
HETATM    3  C12 UNL     1      -4.513   3.590  10.630  1.00  0.00     0.056 C 
HETATM    4  C13 UNL     1      -3.967   5.199  12.374  1.00  0.00     0.257 A 
HETATM    5  O4  UNL     1      -5.177   5.265  12.646  1.00  0.00    -0.267 OA
HETATM    6  N2  UNL     1      -3.058   5.949  13.006  1.00  0.00    -0.275 N 
ATOM      7  H2  UNL     1      -3.374   6.593  13.731  1.00  0.00     0.173 HD
HETATM    8  C14 UNL     1      -1.755   5.892  12.728  1.00  0.00     0.330 A 
HETATM    9  O5  UNL     1      -1.015   6.650  13.398  1.00  0.00    -0.246 OA
HETATM   10  N3  UNL     1      -1.270   5.037  11.757  1.00  0.00    -0.292 N 
ENDROOT
BRANCH   1  11
HETATM   11  C9  UNL     1      -1.674   3.257  10.203  1.00  0.00     0.026 C 
HETATM   12  C8  UNL     1      -1.588   1.967  10.288  1.00  0.00    -0.024 C 
BRANCH  12  13
HETATM   13  C7  UNL     1      -1.955   1.015  11.331  1.00  0.00     0.027 C 
BRANCH  13  14
HETATM   14  C6  UNL     1      -3.162   0.202  10.934  1.00  0.00     0.004 C 
BRANCH  14  15
HETATM   15  C5  UNL     1      -4.022  -0.077  12.118  1.00  0.00     0.008 C 
BRANCH  15  16
HETATM   16  C4  UNL     1      -4.167   1.093  13.030  1.00  0.00     0.086 C 
BRANCH  16  17
HETATM   17  C3  UNL     1      -4.286   0.569  14.436  1.00  0.00     0.136 C 
HETATM   18  N1  UNL     1      -4.129   1.330  15.452  1.00  0.00    -0.239 N 
ATOM     19  H1  UNL     1      -3.918   2.316  15.302  1.00  0.00     0.197 HD
BRANCH  18  20
HETATM   20  O2  UNL     1      -4.236   0.868  16.720  1.00  0.00    -0.198 OA
BRANCH  20  21
HETATM   21  C2  UNL     1      -5.498   0.748  17.303  1.00  0.00     0.277 C 
HETATM   22  C1  UNL     1      -6.270   1.911  17.801  1.00  0.00     0.128 C 
HETATM   23  O1  UNL     1      -5.990  -0.397  17.404  1.00  0.00    -0.264 OA
ENDBRANCH  20  21
ENDBRANCH  18  20
BRANCH  17  24
HETATM   24  O3  UNL     1      -4.574  -0.777  14.575  1.00  0.00    -0.348 OA
ATOM     25  H3  UNL     1      -3.890  -1.421  14.710  1.00  0.00     0.219 HD
ENDBRANCH  17  24
ENDBRANCH  16  17
ENDBRANCH  15  16
ENDBRANCH  14  15
ENDBRANCH  13  14
ENDBRANCH  12  13
ENDBRANCH   1  11
BRANCH  10  26
HETATM   26  C15 UNL     1       0.121   5.056  11.603  1.00  0.00     0.122 C 
HETATM   27  C16 UNL     1       0.950   3.905  11.203  1.00  0.00     0.102 C 
HETATM   28  S1  UNL     1       2.382   5.106  11.155  1.00  0.00    -0.155 SA
HETATM   29  C17 UNL     1       0.788   5.865  10.553  1.00  0.00     0.022 C 
HETATM   30  C18 UNL     1       0.956   7.354  10.763  1.00  0.00     0.029 C 
HETATM   31  C19 UNL     1       0.570   5.562   9.117  1.00  0.00     0.029 C 
ENDBRANCH  10  26
TORSDOF 10
ENDMDL
MODEL 3
REMARK VINA RESULT: -7.003410688      2.281      4.041
REMARK  10 active torsions:
REMARK  status: ('A' for Active; 'I' for Inactive)
REMARK    1  A    between atoms: C2_2  and  O2_4 
REMARK    2  A    between atoms: O2_4  and  N1_5 
REMARK    3  A    between atoms: C3_7  and  O3_8 
REMARK    4  A    between atoms: C3_7  and  C4_10 
REMARK    5  A    between atoms: C4_10  and  C5_11 
REMARK    6  A    between atoms: C5_11  and  C6_12 
REMARK    7  A    between atoms: C6_12  and  C7_13 
REMARK    8  A    between atoms: C7_13  and  C8_14 
REMARK    9  A    between atoms: C9_15  and  C10_16 
REMARK   10  A    between atoms: N3_25  and  C15_26 
ROOT
HETATM    1  C10 UNL     1      -3.201   3.132  10.840  1.00  0.00     0.050 A 
HETATM    2  C11 UNL     1      -3.499   1.852  11.172  1.00  0.00     0.033 A 
HETATM    3  C12 UNL     1      -4.816   1.461  11.712  1.00  0.00     0.056 C 
HETATM    4  C13 UNL     1      -2.539   0.847  11.109  1.00  0.00     0.257 A 
HETATM    5  O4  UNL     1      -2.812  -0.327  11.409  1.00  0.00    -0.267 OA
HETATM    6  N2  UNL     1      -1.315   1.209  10.711  1.00  0.00    -0.275 N 
ATOM      7  H2  UNL     1      -0.588   0.495  10.655  1.00  0.00     0.173 HD
HETATM    8  C14 UNL     1      -1.003   2.464  10.385  1.00  0.00     0.330 A 
HETATM    9  O5  UNL     1       0.182   2.661  10.027  1.00  0.00    -0.246 OA
HETATM   10  N3  UNL     1      -1.947   3.470  10.441  1.00  0.00    -0.292 N 
ENDROOT
BRANCH   1  11
HETATM   11  C9  UNL     1      -4.232   4.125  10.754  1.00  0.00     0.026 C 
HETATM   12  C8  UNL     1      -4.554   5.127  11.511  1.00  0.00    -0.024 C 
BRANCH  12  13
HETATM   13  C7  UNL     1      -4.001   5.645  12.759  1.00  0.00     0.027 C 
BRANCH  13  14
HETATM   14  C6  UNL     1      -5.018   5.599  13.871  1.00  0.00     0.004 C 
BRANCH  14  15
HETATM   15  C5  UNL     1      -5.120   4.225  14.436  1.00  0.00     0.008 C 
BRANCH  15  16
HETATM   16  C4  UNL     1      -3.813   3.681  14.902  1.00  0.00     0.086 C 
BRANCH  16  17
HETATM   17  C3  UNL     1      -4.070   2.336  15.527  1.00  0.00     0.136 C 
HETATM   18  N1  UNL     1      -5.100   1.640  15.225  1.00  0.00    -0.239 N 
ATOM     19  H1  UNL     1      -5.763   2.010  14.544  1.00  0.00     0.197 HD
BRANCH  18  20
HETATM   20  O2  UNL     1      -5.339   0.430  15.782  1.00  0.00    -0.198 OA
BRANCH  20  21
HETATM   21  C2  UNL     1      -6.097   0.349  16.951  1.00  0.00     0.277 C 
HETATM   22  C1  UNL     1      -7.107   1.366  17.328  1.00  0.00     0.128 C 
HETATM   23  O1  UNL     1      -5.906  -0.629  17.706  1.00  0.00    -0.264 OA
ENDBRANCH  20  21
ENDBRANCH  18  20
BRANCH  17  24
HETATM   24  O3  UNL     1      -3.136   1.889  16.444  1.00  0.00    -0.348 OA
ATOM     25  H3  UNL     1      -3.360   1.754  17.357  1.00  0.00     0.219 HD
ENDBRANCH  17  24
ENDBRANCH  16  17
ENDBRANCH  15  16
ENDBRANCH  14  15
ENDBRANCH  13  14
ENDBRANCH  12  13
ENDBRANCH   1  11
BRANCH  10  26
HETATM   26  C15 UNL     1      -1.487   4.727  10.032  1.00  0.00     0.122 C 
HETATM   27  C16 UNL     1      -0.089   5.191  10.111  1.00  0.00     0.102 C 
HETATM   28  S1  UNL     1      -0.669   6.712   9.192  1.00  0.00    -0.155 SA
HETATM   29  C17 UNL     1      -1.520   5.156   8.613  1.00  0.00     0.022 C 
HETATM   30  C18 UNL     1      -2.827   5.622   8.011  1.00  0.00     0.029 C 
HETATM   31  C19 UNL     1      -0.698   4.455   7.594  1.00  0.00     0.029 C 
ENDBRANCH  10  26
TORSDOF 10
ENDMDL
MODEL 4
REMARK VINA RESULT: -6.997664958      2.301      2.838
REMARK  10 active torsions:
REMARK  status: ('A' for Active; 'I' for Inactive)
REMARK    1  A    between atoms: C2_2  and  O2_4 
REMARK    2  A    between atoms: O2_4  and  N1_5 
REMARK    3  A    between atoms: C3_7  and  O3_8 
REMARK    4  A    between atoms: C3_7  and  C4_10 
REMARK    5  A    between atoms: C4_10  and  C5_11 
REMARK    6  A    between atoms: C5_11  and  C6_12 
REMARK    7  A    between atoms: C6_12  and  C7_13 
REMARK    8  A    between atoms: C7_13  and  C8_14 
REMARK    9  A    between atoms: C9_15  and  C10_16 
REMARK   10  A    between atoms: N3_25  and  C15_26 
ROOT
HETATM    1  C10 UNL     1      -3.217   6.778  12.373  1.00  0.00     0.050 A 
HETATM    2  C11 UNL     1      -2.208   6.973  13.256  1.00  0.00     0.033 A 
HETATM    3  C12 UNL     1      -1.891   6.001  14.322  1.00  0.00     0.056 C 
HETATM    4  C13 UNL     1      -1.473   8.155  13.266  1.00  0.00     0.257 A 
HETATM    5  O4  UNL     1      -0.546   8.332  14.072  1.00  0.00    -0.267 OA
HETATM    6  N2  UNL     1      -1.816   9.082  12.365  1.00  0.00    -0.275 N 
ATOM      7  H2  UNL     1      -1.296   9.959  12.346  1.00  0.00     0.173 HD
HETATM    8  C14 UNL     1      -2.808   8.908  11.491  1.00  0.00     0.330 A 
HETATM    9  O5  UNL     1      -3.019   9.860  10.702  1.00  0.00    -0.246 OA
HETATM   10  N3  UNL     1      -3.543   7.740  11.470  1.00  0.00    -0.292 N 
ENDROOT
BRANCH   1  11
HETATM   11  C9  UNL     1      -3.860   5.500  12.266  1.00  0.00     0.026 C 
HETATM   12  C8  UNL     1      -4.705   4.874  13.024  1.00  0.00    -0.024 C 
BRANCH  12  13
HETATM   13  C7  UNL     1      -5.337   5.214  14.294  1.00  0.00     0.027 C 
BRANCH  13  14
HETATM   14  C6  UNL     1      -5.521   3.993  15.160  1.00  0.00     0.004 C 
BRANCH  14  15
HETATM   15  C5  UNL     1      -4.272   3.180  15.198  1.00  0.00     0.008 C 
BRANCH  15  16
HETATM   16  C4  UNL     1      -4.397   1.947  16.025  1.00  0.00     0.086 C 
BRANCH  16  17
HETATM   17  C3  UNL     1      -4.456   0.769  15.089  1.00  0.00     0.136 C 
HETATM   18  N1  UNL     1      -4.193   0.888  13.842  1.00  0.00    -0.239 N 
ATOM     19  H1  UNL     1      -3.938   1.805  13.477  1.00  0.00     0.197 HD
BRANCH  18  20
HETATM   20  O2  UNL     1      -4.242  -0.166  12.993  1.00  0.00    -0.198 OA
BRANCH  20  21
HETATM   21  C2  UNL     1      -4.252   0.063  11.616  1.00  0.00     0.277 C 
HETATM   22  C1  UNL     1      -3.279  -0.562  10.689  1.00  0.00     0.128 C 
HETATM   23  O1  UNL     1      -5.125   0.830  11.157  1.00  0.00    -0.264 OA
ENDBRANCH  20  21
ENDBRANCH  18  20
BRANCH  17  24
HETATM   24  O3  UNL     1      -4.807  -0.448  15.643  1.00  0.00    -0.348 OA
ATOM     25  H3  UNL     1      -5.403  -0.506  16.381  1.00  0.00     0.219 HD
ENDBRANCH  17  24
ENDBRANCH  16  17
ENDBRANCH  15  16
ENDBRANCH  14  15
ENDBRANCH  13  14
ENDBRANCH  12  13
ENDBRANCH   1  11
BRANCH  10  26
HETATM   26  C15 UNL     1      -4.525   7.684  10.474  1.00  0.00     0.122 C 
HETATM   27  C16 UNL     1      -5.102   6.448   9.914  1.00  0.00     0.102 C 
HETATM   28  S1  UNL     1      -6.273   7.563   8.977  1.00  0.00    -0.155 SA
HETATM   29  C17 UNL     1      -5.900   8.194  10.692  1.00  0.00     0.022 C 
HETATM   30  C18 UNL     1      -6.155   9.684  10.628  1.00  0.00     0.029 C 
HETATM   31  C19 UNL     1      -6.791   7.556  11.692  1.00  0.00     0.029 C 
ENDBRANCH  10  26
TORSDOF 10
ENDMDL
MODEL 5
REMARK VINA RESULT: -6.937398998      2.055      3.457
REMARK  10 active torsions:
REMARK  status: ('A' for Active; 'I' for Inactive)
REMARK    1  A    between atoms: C2_2  and  O2_4 
REMARK    2  A    between atoms: O2_4  and  N1_5 
REMARK    3  A    between atoms: C3_7  and  O3_8 
REMARK    4  A    between atoms: C3_7  and  C4_10 
REMARK    5  A    between atoms: C4_10  and  C5_11 
REMARK    6  A    between atoms: C5_11  and  C6_12 
REMARK    7  A    between atoms: C6_12  and  C7_13 
REMARK    8  A    between atoms: C7_13  and  C8_14 
REMARK    9  A    between atoms: C9_15  and  C10_16 
REMARK   10  A    between atoms: N3_25  and  C15_26 
ROOT
HETATM    1  C10 UNL     1      -4.358   5.976  11.478  1.00  0.00     0.050 A 
HETATM    2  C11 UNL     1      -5.334   6.723  10.907  1.00  0.00     0.033 A 
HETATM    3  C12 UNL     1      -6.336   7.458  11.704  1.00  0.00     0.056 C 
HETATM    4  C13 UNL     1      -5.501   6.760   9.526  1.00  0.00     0.257 A 
HETATM    5  O4  UNL     1      -6.392   7.447   9.001  1.00  0.00    -0.267 OA
HETATM    6  N2  UNL     1      -4.656   6.021   8.799  1.00  0.00    -0.275 N 
ATOM      7  H2  UNL     1      -4.753   6.027   7.783  1.00  0.00     0.173 HD
HETATM    8  C14 UNL     1      -3.693   5.277   9.345  1.00  0.00     0.330 A 
HETATM    9  O5  UNL     1      -2.972   4.636   8.544  1.00  0.00    -0.246 OA
HETATM   10  N3  UNL     1      -3.516   5.234  10.713  1.00  0.00    -0.292 N 
ENDROOT
BRANCH   1  11
HETATM   11  C9  UNL     1      -4.093   6.069  12.885  1.00  0.00     0.026 C 
HETATM   12  C8  UNL     1      -4.479   5.365  13.902  1.00  0.00    -0.024 C 
BRANCH  12  13
HETATM   13  C7  UNL     1      -5.345   4.197  14.027  1.00  0.00     0.027 C 
BRANCH  13  14
HETATM   14  C6  UNL     1      -5.857   4.041  15.437  1.00  0.00     0.004 C 
BRANCH  14  15
HETATM   15  C5  UNL     1      -5.897   2.603  15.828  1.00  0.00     0.008 C 
BRANCH  15  16
HETATM   16  C4  UNL     1      -4.545   1.985  15.935  1.00  0.00     0.086 C 
BRANCH  16  17
HETATM   17  C3  UNL     1      -4.513   0.787  15.024  1.00  0.00     0.136 C 
HETATM   18  N1  UNL     1      -4.231   0.895  13.781  1.00  0.00    -0.239 N 
ATOM     19  H1  UNL     1      -4.023   1.819  13.401  1.00  0.00     0.197 HD
BRANCH  18  20
HETATM   20  O2  UNL     1      -4.198  -0.176  12.954  1.00  0.00    -0.198 OA
BRANCH  20  21
HETATM   21  C2  UNL     1      -4.206   0.023  11.573  1.00  0.00     0.277 C 
HETATM   22  C1  UNL     1      -3.150  -0.507  10.677  1.00  0.00     0.128 C 
HETATM   23  O1  UNL     1      -5.151   0.677  11.081  1.00  0.00    -0.264 OA
ENDBRANCH  20  21
ENDBRANCH  18  20
BRANCH  17  24
HETATM   24  O3  UNL     1      -4.804  -0.437  15.597  1.00  0.00    -0.348 OA
ATOM     25  H3  UNL     1      -5.684  -0.659  15.878  1.00  0.00     0.219 HD
ENDBRANCH  17  24
ENDBRANCH  16  17
ENDBRANCH  15  16
ENDBRANCH  14  15
ENDBRANCH  13  14
ENDBRANCH  12  13
ENDBRANCH   1  11
BRANCH  10  26
HETATM   26  C15 UNL     1      -2.442   4.443  11.139  1.00  0.00     0.122 C 
HETATM   27  C16 UNL     1      -1.874   3.304  10.394  1.00  0.00     0.102 C 
HETATM   28  S1  UNL     1      -0.558   3.249  11.721  1.00  0.00    -0.155 SA
HETATM   29  C17 UNL     1      -1.072   4.990  11.293  1.00  0.00     0.022 C 
HETATM   30  C18 UNL     1      -0.738   5.813  12.518  1.00  0.00     0.029 C 
HETATM   31  C19 UNL     1      -0.320   5.485  10.112  1.00  0.00     0.029 C 
ENDBRANCH  10  26
TORSDOF 10
ENDMDL
