MODEL 1
REMARK VINA RESULT: -7.729978897      0.000      0.000
REMARK  11 active torsions:
REMARK  status: ('A' for Active; 'I' for Inactive)
REMARK    1  A    between atoms: C2_2  and  C3_3 
REMARK    2  A    between atoms: C3_3  and  C4_5 
REMARK    3  A    between atoms: C6_9  and  N2_10 
REMARK    4  A    between atoms: N2_10  and  C7_11 
REMARK    5  A    between atoms: N2_10  and  C9_13 
REMARK    6  A    between atoms: C12_16  and  C13_17 
REMARK    7  A    between atoms: C13_17  and  C14_18 
REMARK    8  A    between atoms: C17_21  and  N3_22 
REMARK    9  A    between atoms: C20_28  and  C21_29 
REMARK   10  A    between atoms: C21_29  and  O2_30 
REMARK   11  A    between atoms: C22_34  and  N4_35 
ROOT
HETATM    1  C9  UNL     1      -5.310   6.354  11.116  1.00  0.00     0.226 C 
HETATM    2  C10 UNL     1      -6.403   7.062  11.775  1.00  0.00     0.054 C 
HETATM    3  C11 UNL     1      -6.868   8.313  11.026  1.00  0.00     0.011 C 
HETATM    4  C12 UNL     1      -7.122   7.993   9.563  1.00  0.00     0.017 C 
HETATM    5  C20 UNL     1      -6.178   6.896   9.130  1.00  0.00     0.151 C 
HETATM    6  O3  UNL     1      -4.994   7.030   9.898  1.00  0.00    -0.359 OA
ENDROOT
BRANCH   1   7
HETATM    7  N2  UNL     1      -4.138   5.969  11.810  1.00  0.00    -0.321 N 
BRANCH   7   8
HETATM    8  C6  UNL     1      -4.241   4.972  12.866  1.00  0.00     0.230 A 
HETATM    9  N1  UNL     1      -4.538   5.307  14.111  1.00  0.00    -0.331 N 
HETATM   10  C5  UNL     1      -4.635   4.381  15.100  1.00  0.00     0.111 A 
ATOM     11  H1  UNL     1      -4.698   6.290  14.335  1.00  0.00     0.168 HD
HETATM   12  C4  UNL     1      -4.417   3.063  14.795  1.00  0.00     0.076 A 
HETATM   13  C22 UNL     1      -4.106   2.760  13.465  1.00  0.00     0.160 A 
HETATM   14  O4  UNL     1      -4.034   3.714  12.583  1.00  0.00    -0.261 OA
BRANCH  12  15
HETATM   15  C3  UNL     1      -4.501   2.001  15.793  1.00  0.00     0.164 C 
HETATM   16  O1  UNL     1      -3.438   1.513  16.246  1.00  0.00    -0.292 OA
BRANCH  15  17
HETATM   17  C2  UNL     1      -5.789   1.493  16.273  1.00  0.00     0.079 C 
HETATM   18  C1  UNL     1      -5.921   1.681  17.785  1.00  0.00     0.013 C 
ENDBRANCH  15  17
ENDBRANCH  12  15
BRANCH  13  19
HETATM   19  N4  UNL     1      -3.897   1.525  13.168  1.00  0.00    -0.379 N 
ATOM     20  H42 UNL     1      -4.332   0.757  13.679  1.00  0.00     0.158 HD
ATOM     21  H41 UNL     1      -3.272   1.327  12.388  1.00  0.00     0.158 HD
ENDBRANCH  13  19
ENDBRANCH   7   8
BRANCH   7  22
HETATM   22  C7  UNL     1      -2.796   6.440  11.576  1.00  0.00     0.124 C 
HETATM   23  C8  UNL     1      -2.479   7.703  12.295  1.00  0.00     0.026 C 
ENDBRANCH   7  22
ENDBRANCH   1   7
BRANCH   5  24
HETATM   24  C21 UNL     1      -5.853   6.862   7.684  1.00  0.00     0.196 C 
BRANCH  24  25
HETATM   25  O2  UNL     1      -6.851   6.221   6.939  1.00  0.00    -0.398 OA
ATOM     26  H2  UNL     1      -7.138   6.748   6.202  1.00  0.00     0.209 HD
ENDBRANCH  24  25
ENDBRANCH   5  24
BRANCH   4  27
HETATM   27  C13 UNL     1      -6.928   9.225   8.753  1.00  0.00     0.012 C 
BRANCH  27  28
HETATM   28  C14 UNL     1      -8.188   9.905   8.349  1.00  0.00    -0.014 C 
HETATM   29  C15 UNL     1      -7.840  11.337   7.972  1.00  0.00     0.007 C 
HETATM   30  C16 UNL     1      -9.083  12.136   7.759  1.00  0.00     0.033 C 
HETATM   31  C17 UNL     1     -10.152  11.456   6.979  1.00  0.00     0.183 C 
HETATM   32  C18 UNL     1     -10.266   9.982   7.152  1.00  0.00     0.033 C 
HETATM   33  C19 UNL     1      -8.883   9.329   7.153  1.00  0.00     0.007 C 
BRANCH  31  34
HETATM   34  N3  UNL     1     -11.413  12.097   7.330  1.00  0.00    -0.075 N 
ATOM     35  H33 UNL     1     -11.997  11.524   7.939  1.00  0.00     0.274 HD
ATOM     36  H32 UNL     1     -11.297  12.888   7.964  1.00  0.00     0.274 HD
ATOM     37  H31 UNL     1     -11.875  12.349   6.455  1.00  0.00     0.274 HD
ENDBRANCH  31  34
ENDBRANCH  27  28
ENDBRANCH   4  27
TORSDOF 11
ENDMDL
MODEL 2
REMARK VINA RESULT: -7.634937734      2.466      9.111
REMARK  11 active torsions:
REMARK  status: ('A' for Active; 'I' for Inactive)
REMARK    1  A    between atoms: C2_2  and  C3_3 
REMARK    2  A    between atoms: C3_3  and  C4_5 
REMARK    3  A    between atoms: C6_9  and  N2_10 
REMARK    4  A    between atoms: N2_10  and  C7_11 
REMARK    5  A    between atoms: N2_10  and  C9_13 
REMARK    6  A    between atoms: C12_16  and  C13_17 
REMARK    7  A    between atoms: C13_17  and  C14_18 
REMARK    8  A    between atoms: C17_21  and  N3_22 
REMARK    9  A    between atoms: C20_28  and  C21_29 
REMARK   10  A    between atoms: C21_29  and  O2_30 
REMARK   11  A    between atoms: C22_34  and  N4_35 
ROOT
HETATM    1  C9  UNL     1      -3.445   5.198  11.196  1.00  0.00     0.226 C 
HETATM    2  C10 UNL     1      -3.031   5.872  12.423  1.00  0.00     0.054 C 
HETATM    3  C11 UNL     1      -3.995   5.669  13.593  1.00  0.00     0.011 C 
HETATM    4  C12 UNL     1      -4.318   4.195  13.768  1.00  0.00     0.017 C 
HETATM    5  C20 UNL     1      -4.275   3.522  12.416  1.00  0.00     0.151 C 
HETATM    6  O3  UNL     1      -4.657   4.486  11.451  1.00  0.00    -0.359 OA
ENDROOT
BRANCH   1   7
HETATM    7  N2  UNL     1      -3.495   5.870   9.951  1.00  0.00    -0.321 N 
BRANCH   7   8
HETATM    8  C6  UNL     1      -4.732   6.529   9.556  1.00  0.00     0.230 A 
HETATM    9  N1  UNL     1      -5.419   7.281  10.401  1.00  0.00    -0.331 N 
HETATM   10  C5  UNL     1      -6.573   7.897  10.038  1.00  0.00     0.111 A 
ATOM     11  H1  UNL     1      -5.071   7.401  11.353  1.00  0.00     0.168 HD
HETATM   12  C4  UNL     1      -7.037   7.731   8.759  1.00  0.00     0.076 A 
HETATM   13  C22 UNL     1      -6.275   6.927   7.904  1.00  0.00     0.160 A 
HETATM   14  O4  UNL     1      -5.180   6.376   8.339  1.00  0.00    -0.261 OA
BRANCH  12  15
HETATM   15  C3  UNL     1      -8.267   8.357   8.282  1.00  0.00     0.164 C 
HETATM   16  O1  UNL     1      -9.322   7.678   8.266  1.00  0.00    -0.292 OA
BRANCH  15  17
HETATM   17  C2  UNL     1      -8.298   9.747   7.822  1.00  0.00     0.079 C 
HETATM   18  C1  UNL     1      -9.464   9.979   6.861  1.00  0.00     0.013 C 
ENDBRANCH  15  17
ENDBRANCH  12  15
BRANCH  13  19
HETATM   19  N4  UNL     1      -6.703   6.764   6.702  1.00  0.00    -0.379 N 
ATOM     20  H42 UNL     1      -7.658   6.989   6.423  1.00  0.00     0.158 HD
ATOM     21  H41 UNL     1      -6.047   6.396   6.014  1.00  0.00     0.158 HD
ENDBRANCH  13  19
ENDBRANCH   7   8
BRANCH   7  22
HETATM   22  C7  UNL     1      -2.423   6.012   8.998  1.00  0.00     0.124 C 
HETATM   23  C8  UNL     1      -1.656   4.756   8.781  1.00  0.00     0.026 C 
ENDBRANCH   7  22
ENDBRANCH   1   7
BRANCH   5  24
HETATM   24  C21 UNL     1      -5.105   2.300  12.281  1.00  0.00     0.196 C 
BRANCH  24  25
HETATM   25  O2  UNL     1      -5.719   2.221  11.024  1.00  0.00    -0.398 OA
ATOM     26  H2  UNL     1      -5.602   3.019  10.521  1.00  0.00     0.209 HD
ENDBRANCH  24  25
ENDBRANCH   5  24
BRANCH   4  27
HETATM   27  C13 UNL     1      -5.658   4.060  14.398  1.00  0.00     0.012 C 
BRANCH  27  28
HETATM   28  C14 UNL     1      -5.793   2.902  15.322  1.00  0.00    -0.014 C 
HETATM   29  C15 UNL     1      -4.398   2.526  15.797  1.00  0.00     0.007 C 
HETATM   30  C16 UNL     1      -4.436   1.243  16.560  1.00  0.00     0.033 C 
HETATM   31  C17 UNL     1      -5.556   1.111  17.530  1.00  0.00     0.183 C 
HETATM   32  C18 UNL     1      -6.841   1.762  17.154  1.00  0.00     0.033 C 
HETATM   33  C19 UNL     1      -6.591   3.151  16.565  1.00  0.00     0.007 C 
BRANCH  31  34
HETATM   34  N3  UNL     1      -5.767  -0.314  17.751  1.00  0.00    -0.075 N 
ATOM     35  H33 UNL     1      -4.984  -0.887  17.436  1.00  0.00     0.274 HD
ATOM     36  H32 UNL     1      -5.734  -0.575  18.737  1.00  0.00     0.274 HD
ATOM     37  H31 UNL     1      -6.649  -0.560  17.301  1.00  0.00     0.274 HD
ENDBRANCH  31  34
ENDBRANCH  27  28
ENDBRANCH   4  27
TORSDOF 11
ENDMDL
MODEL 3
REMARK VINA RESULT: -7.595182536      1.733      2.704
REMARK  11 active torsions:
REMARK  status: ('A' for Active; 'I' for Inactive)
REMARK    1  A    between atoms: C2_2  and  C3_3 
REMARK    2  A    between atoms: C3_3  and  C4_5 
REMARK    3  A    between atoms: C6_9  and  N2_10 
REMARK    4  A    between atoms: N2_10  and  C7_11 
REMARK    5  A    between atoms: N2_10  and  C9_13 
REMARK    6  A    between atoms: C12_16  and  C13_17 
REMARK    7  A    between atoms: C13_17  and  C14_18 
REMARK    8  A    between atoms: C17_21  and  N3_22 
REMARK    9  A    between atoms: C20_28  and  C21_29 
REMARK   10  A    between atoms: C21_29  and  O2_30 
REMARK   11  A    between atoms: C22_34  and  N4_35 
ROOT
HETATM    1  C9  UNL     1      -3.593   5.180  10.784  1.00  0.00     0.226 C 
HETATM    2  C10 UNL     1      -3.223   5.642   9.450  1.00  0.00     0.054 C 
HETATM    3  C11 UNL     1      -4.413   6.107   8.607  1.00  0.00     0.011 C 
HETATM    4  C12 UNL     1      -5.271   7.084   9.392  1.00  0.00     0.017 C 
HETATM    5  C20 UNL     1      -5.199   6.730  10.858  1.00  0.00     0.151 C 
HETATM    6  O3  UNL     1      -5.005   5.329  10.946  1.00  0.00    -0.359 OA
ENDROOT
BRANCH   1   7
HETATM    7  N2  UNL     1      -3.144   3.940  11.301  1.00  0.00    -0.321 N 
BRANCH   7   8
HETATM    8  C6  UNL     1      -3.672   3.477  12.576  1.00  0.00     0.230 A 
HETATM    9  N1  UNL     1      -4.101   4.323  13.499  1.00  0.00    -0.331 N 
HETATM   10  C5  UNL     1      -4.594   3.896  14.690  1.00  0.00     0.111 A 
ATOM     11  H1  UNL     1      -4.060   5.325  13.310  1.00  0.00     0.168 HD
HETATM   12  C4  UNL     1      -4.645   2.549  14.940  1.00  0.00     0.076 A 
HETATM   13  C22 UNL     1      -4.179   1.697  13.934  1.00  0.00     0.160 A 
HETATM   14  O4  UNL     1      -3.723   2.195  12.822  1.00  0.00    -0.261 OA
BRANCH  12  15
HETATM   15  C3  UNL     1      -5.160   2.002  16.192  1.00  0.00     0.164 C 
HETATM   16  O1  UNL     1      -4.405   1.285  16.892  1.00  0.00    -0.292 OA
BRANCH  15  17
HETATM   17  C2  UNL     1      -6.528   2.265  16.645  1.00  0.00     0.079 C 
HETATM   18  C1  UNL     1      -7.176   0.994  17.193  1.00  0.00     0.013 C 
ENDBRANCH  15  17
ENDBRANCH  12  15
BRANCH  13  19
HETATM   19  N4  UNL     1      -4.221   0.430  14.160  1.00  0.00    -0.379 N 
ATOM     20  H42 UNL     1      -4.039   0.030  15.080  1.00  0.00     0.158 HD
ATOM     21  H41 UNL     1      -4.449  -0.181  13.376  1.00  0.00     0.158 HD
ENDBRANCH  13  19
ENDBRANCH   7   8
BRANCH   7  22
HETATM   22  C7  UNL     1      -2.212   3.030  10.685  1.00  0.00     0.124 C 
HETATM   23  C8  UNL     1      -0.823   3.168  11.200  1.00  0.00     0.026 C 
ENDBRANCH   7  22
ENDBRANCH   1   7
BRANCH   5  24
HETATM   24  C21 UNL     1      -6.366   7.140  11.677  1.00  0.00     0.196 C 
BRANCH  24  25
HETATM   25  O2  UNL     1      -6.504   6.351  12.825  1.00  0.00    -0.398 OA
ATOM     26  H2  UNL     1      -6.485   6.873  13.619  1.00  0.00     0.209 HD
ENDBRANCH  24  25
ENDBRANCH   5  24
BRANCH   4  27
HETATM   27  C13 UNL     1      -6.669   7.020   8.887  1.00  0.00     0.012 C 
BRANCH  27  28
HETATM   28  C14 UNL     1      -7.140   8.258   8.212  1.00  0.00    -0.014 C 
HETATM   29  C15 UNL     1      -8.659   8.204   8.156  1.00  0.00     0.007 C 
HETATM   30  C16 UNL     1      -9.189   9.311   7.306  1.00  0.00     0.033 C 
HETATM   31  C17 UNL     1      -8.551  10.639   7.519  1.00  0.00     0.183 C 
HETATM   32  C18 UNL     1      -7.105  10.633   7.873  1.00  0.00     0.033 C 
HETATM   33  C19 UNL     1      -6.806   9.544   8.904  1.00  0.00     0.007 C 
BRANCH  31  34
HETATM   34  N3  UNL     1      -8.762  11.416   6.304  1.00  0.00    -0.075 N 
ATOM     35  H33 UNL     1      -9.055  10.846   5.511  1.00  0.00     0.274 HD
ATOM     36  H32 UNL     1      -9.590  12.012   6.350  1.00  0.00     0.274 HD
ATOM     37  H31 UNL     1      -7.903  11.937   6.128  1.00  0.00     0.274 HD
ENDBRANCH  31  34
ENDBRANCH  27  28
ENDBRANCH   4  27
TORSDOF 11
ENDMDL
MODEL 4
REMARK VINA RESULT: -7.564441019      2.841      4.553
REMARK  11 active torsions:
REMARK  status: ('A' for Active; 'I' for Inactive)
REMARK    1  A    between atoms: C2_2  and  C3_3 
REMARK    2  A    between atoms: C3_3  and  C4_5 
REMARK    3  A    between atoms: C6_9  and  N2_10 
REMARK    4  A    between atoms: N2_10  and  C7_11 
REMARK    5  A    between atoms: N2_10  and  C9_13 
REMARK    6  A    between atoms: C12_16  and  C13_17 
REMARK    7  A    between atoms: C13_17  and  C14_18 
REMARK    8  A    between atoms: C17_21  and  N3_22 
REMARK    9  A    between atoms: C20_28  and  C21_29 
REMARK   10  A    between atoms: C21_29  and  O2_30 
REMARK   11  A    between atoms: C22_34  and  N4_35 
ROOT
HETATM    1  C9  UNL     1      -2.697   3.869  11.861  1.00  0.00     0.226 C 
HETATM    2  C10 UNL     1      -2.319   4.403  10.557  1.00  0.00     0.054 C 
HETATM    3  C11 UNL     1      -2.815   5.829  10.307  1.00  0.00     0.011 C 
HETATM    4  C12 UNL     1      -2.461   6.728  11.478  1.00  0.00     0.017 C 
HETATM    5  C20 UNL     1      -2.464   5.907  12.745  1.00  0.00     0.151 C 
HETATM    6  O3  UNL     1      -3.419   4.873  12.576  1.00  0.00    -0.359 OA
ENDROOT
BRANCH   1   7
HETATM    7  N2  UNL     1      -3.304   2.598  12.005  1.00  0.00    -0.321 N 
BRANCH   7   8
HETATM    8  C6  UNL     1      -4.098   2.329  13.196  1.00  0.00     0.230 A 
HETATM    9  N1  UNL     1      -5.099   3.115  13.556  1.00  0.00    -0.331 N 
HETATM   10  C5  UNL     1      -5.842   2.868  14.666  1.00  0.00     0.111 A 
ATOM     11  H1  UNL     1      -5.320   3.930  12.983  1.00  0.00     0.168 HD
HETATM   12  C4  UNL     1      -5.541   1.773  15.433  1.00  0.00     0.076 A 
HETATM   13  C22 UNL     1      -4.473   0.974  15.010  1.00  0.00     0.160 A 
HETATM   14  O4  UNL     1      -3.817   1.287  13.932  1.00  0.00    -0.261 OA
BRANCH  12  15
HETATM   15  C3  UNL     1      -6.286   1.430  16.641  1.00  0.00     0.164 C 
HETATM   16  O1  UNL     1      -6.756   0.273  16.751  1.00  0.00    -0.292 OA
BRANCH  15  17
HETATM   17  C2  UNL     1      -6.500   2.400  17.718  1.00  0.00     0.079 C 
HETATM   18  C1  UNL     1      -6.059   1.827  19.065  1.00  0.00     0.013 C 
ENDBRANCH  15  17
ENDBRANCH  12  15
BRANCH  13  19
HETATM   19  N4  UNL     1      -4.182  -0.056  15.725  1.00  0.00    -0.379 N 
ATOM     20  H42 UNL     1      -3.874   0.017  16.694  1.00  0.00     0.158 HD
ATOM     21  H41 UNL     1      -4.270  -0.973  15.288  1.00  0.00     0.158 HD
ENDBRANCH  13  19
ENDBRANCH   7   8
BRANCH   7  22
HETATM   22  C7  UNL     1      -3.256   1.502  11.071  1.00  0.00     0.124 C 
HETATM   23  C8  UNL     1      -1.919   0.854  10.989  1.00  0.00     0.026 C 
ENDBRANCH   7  22
ENDBRANCH   1   7
BRANCH   5  24
HETATM   24  C21 UNL     1      -2.732   6.657  13.996  1.00  0.00     0.196 C 
BRANCH  24  25
HETATM   25  O2  UNL     1      -3.616   5.971  14.839  1.00  0.00    -0.398 OA
ATOM     26  H2  UNL     1      -3.297   5.934  15.733  1.00  0.00     0.209 HD
ENDBRANCH  24  25
ENDBRANCH   5  24
BRANCH   4  27
HETATM   27  C13 UNL     1      -3.443   7.843  11.552  1.00  0.00     0.012 C 
BRANCH  27  28
HETATM   28  C14 UNL     1      -4.575   7.735  10.593  1.00  0.00    -0.014 C 
HETATM   29  C15 UNL     1      -5.866   7.783  11.396  1.00  0.00     0.007 C 
HETATM   30  C16 UNL     1      -7.035   7.469  10.523  1.00  0.00     0.033 C 
HETATM   31  C17 UNL     1      -7.026   8.124   9.187  1.00  0.00     0.183 C 
HETATM   32  C18 UNL     1      -5.694   8.333   8.557  1.00  0.00     0.033 C 
HETATM   33  C19 UNL     1      -4.683   8.839   9.586  1.00  0.00     0.007 C 
BRANCH  31  34
HETATM   34  N3  UNL     1      -7.870   7.322   8.310  1.00  0.00    -0.075 N 
ATOM     35  H33 UNL     1      -7.753   6.319   8.450  1.00  0.00     0.274 HD
ATOM     36  H32 UNL     1      -8.861   7.373   8.552  1.00  0.00     0.274 HD
ATOM     37  H31 UNL     1      -7.676   7.618   7.353  1.00  0.00     0.274 HD
ENDBRANCH  31  34
ENDBRANCH  27  28
ENDBRANCH   4  27
TORSDOF 11
ENDMDL
MODEL 5
REMARK VINA RESULT: -7.554720127      2.584      3.731
REMARK  11 active torsions:
REMARK  status: ('A' for Active; 'I' for Inactive)
REMARK    1  A    between atoms: C2_2  and  C3_3 
REMARK    2  A    between atoms: C3_3  and  C4_5 
REMARK    3  A    between atoms: C6_9  and  N2_10 
REMARK    4  A    between atoms: N2_10  and  C7_11 
REMARK    5  A    between atoms: N2_10  and  C9_13 
REMARK    6  A    between atoms: C12_16  and  C13_17 
REMARK    7  A    between atoms: C13_17  and  C14_18 
REMARK    8  A    between atoms: C17_21  and  N3_22 
REMARK    9  A    between atoms: C20_28  and  C21_29 
REMARK   10  A    between atoms: C21_29  and  O2_30 
REMARK   11  A    between atoms: C22_34  and  N4_35 
ROOT
HETATM    1  C9  UNL     1      -4.024   6.221  11.344  1.00  0.00     0.226 C 
HETATM    2  C10 UNL     1      -3.577   6.354   9.961  1.00  0.00     0.054 C 
HETATM    3  C11 UNL     1      -4.720   6.403   8.946  1.00  0.00     0.011 C 
HETATM    4  C12 UNL     1      -5.762   7.425   9.368  1.00  0.00     0.017 C 
HETATM    5  C20 UNL     1      -5.799   7.492  10.876  1.00  0.00     0.151 C 
HETATM    6  O3  UNL     1      -5.452   6.208  11.365  1.00  0.00    -0.359 OA
ENDROOT
BRANCH   1   7
HETATM    7  N2  UNL     1      -3.487   5.242  12.216  1.00  0.00    -0.321 N 
BRANCH   7   8
HETATM    8  C6  UNL     1      -3.546   3.841  11.821  1.00  0.00     0.230 A 
HETATM    9  N1  UNL     1      -4.693   3.250  11.527  1.00  0.00    -0.331 N 
HETATM   10  C5  UNL     1      -4.753   1.944  11.159  1.00  0.00     0.111 A 
ATOM     11  H1  UNL     1      -5.557   3.790  11.578  1.00  0.00     0.168 HD
HETATM   12  C4  UNL     1      -3.590   1.221  11.093  1.00  0.00     0.076 A 
HETATM   13  C22 UNL     1      -2.405   1.892  11.414  1.00  0.00     0.160 A 
HETATM   14  O4  UNL     1      -2.442   3.146  11.756  1.00  0.00    -0.261 OA
BRANCH  12  15
HETATM   15  C3  UNL     1      -3.560  -0.186  10.706  1.00  0.00     0.164 C 
HETATM   16  O1  UNL     1      -3.213  -0.483   9.538  1.00  0.00    -0.292 OA
BRANCH  15  17
HETATM   17  C2  UNL     1      -3.925  -1.253  11.642  1.00  0.00     0.079 C 
HETATM   18  C1  UNL     1      -2.924  -2.406  11.574  1.00  0.00     0.013 C 
ENDBRANCH  15  17
ENDBRANCH  12  15
BRANCH  13  19
HETATM   19  N4  UNL     1      -1.307   1.221  11.357  1.00  0.00    -0.379 N 
ATOM     20  H42 UNL     1      -0.985   0.630  12.123  1.00  0.00     0.158 HD
ATOM     21  H41 UNL     1      -0.754   1.295  10.505  1.00  0.00     0.158 HD
ENDBRANCH  13  19
ENDBRANCH   7   8
BRANCH   7  22
HETATM   22  C7  UNL     1      -2.841   5.468  13.483  1.00  0.00     0.124 C 
HETATM   23  C8  UNL     1      -3.665   5.053  14.650  1.00  0.00     0.026 C 
ENDBRANCH   7  22
ENDBRANCH   1   7
BRANCH   5  24
HETATM   24  C21 UNL     1      -7.083   7.940  11.468  1.00  0.00     0.196 C 
BRANCH  24  25
HETATM   25  O2  UNL     1      -7.534   7.063  12.463  1.00  0.00    -0.398 OA
ATOM     26  H2  UNL     1      -7.093   7.210  13.292  1.00  0.00     0.209 HD
ENDBRANCH  24  25
ENDBRANCH   5  24
BRANCH   4  27
HETATM   27  C13 UNL     1      -7.084   7.032   8.811  1.00  0.00     0.012 C 
BRANCH  27  28
HETATM   28  C14 UNL     1      -7.567   7.892   7.697  1.00  0.00    -0.014 C 
HETATM   29  C15 UNL     1      -8.831   8.594   8.172  1.00  0.00     0.007 C 
HETATM   30  C16 UNL     1      -9.486   9.309   7.037  1.00  0.00     0.033 C 
HETATM   31  C17 UNL     1      -8.566  10.068   6.146  1.00  0.00     0.183 C 
HETATM   32  C18 UNL     1      -7.209   9.490   5.944  1.00  0.00     0.033 C 
HETATM   33  C19 UNL     1      -6.635   8.984   7.268  1.00  0.00     0.007 C 
BRANCH  31  34
HETATM   34  N3  UNL     1      -9.239  10.217   4.862  1.00  0.00    -0.075 N 
ATOM     35  H33 UNL     1      -9.454  11.187   4.633  1.00  0.00     0.274 HD
ATOM     36  H32 UNL     1      -8.629  10.027   4.066  1.00  0.00     0.274 HD
ATOM     37  H31 UNL     1     -10.065   9.619   4.885  1.00  0.00     0.274 HD
ENDBRANCH  31  34
ENDBRANCH  27  28
ENDBRANCH   4  27
TORSDOF 11
ENDMDL
