MODEL 1
REMARK VINA RESULT: -7.316794262      0.000      0.000
REMARK  12 active torsions:
REMARK  status: ('A' for Active; 'I' for Inactive)
REMARK    1  A    between atoms: C4_4  and  C5_5 
REMARK    2  A    between atoms: C4_4  and  O5_30 
REMARK    3  A    between atoms: C5_5  and  N1_6 
REMARK    4  A    between atoms: N1_6  and  C6_8 
REMARK    5  A    between atoms: C6_8  and  O1_9 
REMARK    6  A    between atoms: C6_8  and  C7_11 
REMARK    7  A    between atoms: N2_14  and  C10_15 
REMARK    8  A    between atoms: C10_15  and  C11_16 
REMARK    9  A    between atoms: C11_16  and  O2_17 
REMARK   10  A    between atoms: O2_17  and  C12_18 
REMARK   11  A    between atoms: C12_18  and  C13_20 
REMARK   12  A    between atoms: O5_30  and  C18_31 
ROOT
HETATM    1  C7  UNL     1      -2.098   3.401  10.342  1.00  0.00     0.037 C 
HETATM    2  C8  UNL     1      -3.603   3.340  10.198  1.00  0.00     0.039 C 
HETATM    3  C9  UNL     1      -4.281   2.509  11.243  1.00  0.00     0.273 C 
HETATM    4  N2  UNL     1      -3.755   1.178  11.389  1.00  0.00     0.090 N 
HETATM    5  C16 UNL     1      -2.287   1.172  11.289  1.00  0.00     0.273 C 
HETATM    6  C17 UNL     1      -1.797   2.576  11.611  1.00  0.00     0.039 C 
ENDROOT
BRANCH   1   7
HETATM    7  C6  UNL     1      -1.582   4.763  10.610  1.00  0.00     0.221 C 
BRANCH   7   8
HETATM    8  N1  UNL     1      -2.367   5.876  10.355  1.00  0.00    -0.370 N 
ATOM      9  H1  UNL     1      -2.620   6.064   9.385  1.00  0.00     0.161 HD
BRANCH   8  10
HETATM   10  C5  UNL     1      -2.837   6.758  11.329  1.00  0.00     0.122 C 
BRANCH  10  11
HETATM   11  C4  UNL     1      -4.047   6.300  12.061  1.00  0.00     0.086 C 
HETATM   12  C2  UNL     1      -3.954   5.913  13.294  1.00  0.00    -0.053 C 
HETATM   13  C1  UNL     1      -2.661   5.920  13.996  1.00  0.00     0.046 C 
HETATM   14  C3  UNL     1      -5.142   5.439  14.035  1.00  0.00     0.046 C 
BRANCH  11  15
HETATM   15  O5  UNL     1      -5.298   6.270  11.468  1.00  0.00    -0.340 OA
BRANCH  15  16
HETATM   16  C18 UNL     1      -6.036   7.326  10.967  1.00  0.00     0.057 C 
HETATM   17  C19 UNL     1      -7.297   7.571  11.809  1.00  0.00     0.045 C 
HETATM   18  C20 UNL     1      -5.313   8.658  10.938  1.00  0.00     0.045 C 
HETATM   19  C21 UNL     1      -6.481   7.061   9.544  1.00  0.00     0.045 C 
ENDBRANCH  15  16
ENDBRANCH  11  15
ENDBRANCH  10  11
ENDBRANCH   8  10
ENDBRANCH   7   8
BRANCH   7  20
HETATM   20  O1  UNL     1      -0.328   4.851   9.955  1.00  0.00    -0.377 OA
ATOM     21  H1  UNL     1       0.300   4.241  10.324  1.00  0.00     0.212 HD
ENDBRANCH   7  20
ENDBRANCH   1   7
BRANCH   4  22
HETATM   22  C10 UNL     1      -4.022   0.788  12.779  1.00  0.00     0.299 C 
BRANCH  22  23
HETATM   23  C11 UNL     1      -4.728   1.856  13.541  1.00  0.00     0.209 C 
BRANCH  23  24
HETATM   24  O2  UNL     1      -4.024   2.347  14.650  1.00  0.00    -0.315 OA
BRANCH  24  25
HETATM   25  C12 UNL     1      -4.061   1.777  15.909  1.00  0.00     0.314 C 
HETATM   26  O3  UNL     1      -2.989   1.734  16.557  1.00  0.00    -0.257 OA
BRANCH  25  27
HETATM   27  C13 UNL     1      -5.269   1.236  16.506  1.00  0.00     0.155 A 
HETATM   28  N3  UNL     1      -5.523  -0.031  16.902  1.00  0.00    -0.234 N 
HETATM   29  O4  UNL     1      -6.733  -0.092  17.387  1.00  0.00    -0.156 OA
ATOM     30  H3  UNL     1      -4.873  -0.814  16.833  1.00  0.00     0.197 HD
HETATM   31  N4  UNL     1      -7.315   1.068  17.341  1.00  0.00    -0.244 N 
HETATM   32  C14 UNL     1      -6.415   1.932  16.789  1.00  0.00     0.065 A 
ATOM     33  H4  UNL     1      -8.259   1.289  17.656  1.00  0.00     0.196 HD
HETATM   34  C15 UNL     1      -6.724   3.366  16.572  1.00  0.00     0.073 C 
ENDBRANCH  25  27
ENDBRANCH  24  25
ENDBRANCH  23  24
ENDBRANCH  22  23
ENDBRANCH   4  22
TORSDOF 12
ENDMDL
MODEL 2
REMARK VINA RESULT: -7.316005645      1.804      3.122
REMARK  12 active torsions:
REMARK  status: ('A' for Active; 'I' for Inactive)
REMARK    1  A    between atoms: C4_4  and  C5_5 
REMARK    2  A    between atoms: C4_4  and  O5_30 
REMARK    3  A    between atoms: C5_5  and  N1_6 
REMARK    4  A    between atoms: N1_6  and  C6_8 
REMARK    5  A    between atoms: C6_8  and  O1_9 
REMARK    6  A    between atoms: C6_8  and  C7_11 
REMARK    7  A    between atoms: N2_14  and  C10_15 
REMARK    8  A    between atoms: C10_15  and  C11_16 
REMARK    9  A    between atoms: C11_16  and  O2_17 
REMARK   10  A    between atoms: O2_17  and  C12_18 
REMARK   11  A    between atoms: C12_18  and  C13_20 
REMARK   12  A    between atoms: O5_30  and  C18_31 
ROOT
HETATM    1  C7  UNL     1      -1.847   4.127  10.264  1.00  0.00     0.037 C 
HETATM    2  C8  UNL     1      -0.975   2.898  10.143  1.00  0.00     0.039 C 
HETATM    3  C9  UNL     1      -1.660   1.624  10.533  1.00  0.00     0.273 C 
HETATM    4  N2  UNL     1      -2.284   1.648  11.829  1.00  0.00     0.090 N 
HETATM    5  C16 UNL     1      -2.943   2.939  12.078  1.00  0.00     0.273 C 
HETATM    6  C17 UNL     1      -3.216   3.587  10.728  1.00  0.00     0.039 C 
ENDROOT
BRANCH   1   7
HETATM    7  C6  UNL     1      -2.095   4.809   8.973  1.00  0.00     0.221 C 
BRANCH   7   8
HETATM    8  N1  UNL     1      -3.382   5.156   8.597  1.00  0.00    -0.370 N 
ATOM      9  H1  UNL     1      -4.049   4.400   8.438  1.00  0.00     0.161 HD
BRANCH   8  10
HETATM   10  C5  UNL     1      -3.833   6.465   8.419  1.00  0.00     0.122 C 
BRANCH  10  11
HETATM   11  C4  UNL     1      -5.292   6.660   8.620  1.00  0.00     0.086 C 
HETATM   12  C2  UNL     1      -6.050   6.984   7.620  1.00  0.00    -0.053 C 
HETATM   13  C1  UNL     1      -5.490   7.162   6.271  1.00  0.00     0.046 C 
HETATM   14  C3  UNL     1      -7.501   7.198   7.801  1.00  0.00     0.046 C 
BRANCH  11  15
HETATM   15  O5  UNL     1      -5.892   6.505   9.859  1.00  0.00    -0.340 OA
BRANCH  15  16
HETATM   16  C18 UNL     1      -5.760   7.301  10.982  1.00  0.00     0.057 C 
HETATM   17  C19 UNL     1      -4.914   6.605  12.059  1.00  0.00     0.045 C 
HETATM   18  C20 UNL     1      -5.082   8.636  10.746  1.00  0.00     0.045 C 
HETATM   19  C21 UNL     1      -7.108   7.619  11.594  1.00  0.00     0.045 C 
ENDBRANCH  15  16
ENDBRANCH  11  15
ENDBRANCH  10  11
ENDBRANCH   8  10
ENDBRANCH   7   8
BRANCH   7  20
HETATM   20  O1  UNL     1      -1.456   4.025   7.979  1.00  0.00    -0.377 OA
ATOM     21  H1  UNL     1      -0.559   3.825   8.217  1.00  0.00     0.212 HD
ENDBRANCH   7  20
ENDBRANCH   1   7
BRANCH   4  22
HETATM   22  C10 UNL     1      -3.391   0.686  11.762  1.00  0.00     0.299 C 
BRANCH  22  23
HETATM   23  C11 UNL     1      -4.433   0.949  12.794  1.00  0.00     0.209 C 
BRANCH  23  24
HETATM   24  O2  UNL     1      -4.257   0.249  13.996  1.00  0.00    -0.315 OA
BRANCH  24  25
HETATM   25  C12 UNL     1      -4.342   0.824  15.251  1.00  0.00     0.314 C 
HETATM   26  O3  UNL     1      -3.654   0.316  16.168  1.00  0.00    -0.257 OA
BRANCH  25  27
HETATM   27  C13 UNL     1      -5.177   1.973  15.548  1.00  0.00     0.155 A 
HETATM   28  N3  UNL     1      -5.092   3.230  15.058  1.00  0.00    -0.234 N 
HETATM   29  O4  UNL     1      -6.037   3.958  15.587  1.00  0.00    -0.156 OA
ATOM     30  H3  UNL     1      -4.401   3.556  14.383  1.00  0.00     0.197 HD
HETATM   31  N4  UNL     1      -6.760   3.262  16.411  1.00  0.00    -0.244 N 
HETATM   32  C14 UNL     1      -6.243   2.000  16.410  1.00  0.00     0.065 A 
ATOM     33  H4  UNL     1      -7.558   3.594  16.953  1.00  0.00     0.196 HD
HETATM   34  C15 UNL     1      -6.810   0.910  17.240  1.00  0.00     0.073 C 
ENDBRANCH  25  27
ENDBRANCH  24  25
ENDBRANCH  23  24
ENDBRANCH  22  23
ENDBRANCH   4  22
TORSDOF 12
ENDMDL
MODEL 3
REMARK VINA RESULT: -7.171516466      2.134      3.171
REMARK  12 active torsions:
REMARK  status: ('A' for Active; 'I' for Inactive)
REMARK    1  A    between atoms: C4_4  and  C5_5 
REMARK    2  A    between atoms: C4_4  and  O5_30 
REMARK    3  A    between atoms: C5_5  and  N1_6 
REMARK    4  A    between atoms: N1_6  and  C6_8 
REMARK    5  A    between atoms: C6_8  and  O1_9 
REMARK    6  A    between atoms: C6_8  and  C7_11 
REMARK    7  A    between atoms: N2_14  and  C10_15 
REMARK    8  A    between atoms: C10_15  and  C11_16 
REMARK    9  A    between atoms: C11_16  and  O2_17 
REMARK   10  A    between atoms: O2_17  and  C12_18 
REMARK   11  A    between atoms: C12_18  and  C13_20 
REMARK   12  A    between atoms: O5_30  and  C18_31 
ROOT
HETATM    1  C7  UNL     1      -1.349   3.367  10.631  1.00  0.00     0.037 C 
HETATM    2  C8  UNL     1      -2.844   3.352  10.404  1.00  0.00     0.039 C 
HETATM    3  C9  UNL     1      -3.548   2.209  11.068  1.00  0.00     0.273 C 
HETATM    4  N2  UNL     1      -3.001   0.911  10.772  1.00  0.00     0.090 N 
HETATM    5  C16 UNL     1      -1.531   0.947  10.745  1.00  0.00     0.273 C 
HETATM    6  C17 UNL     1      -1.084   2.158  11.552  1.00  0.00     0.039 C 
ENDROOT
BRANCH   1   7
HETATM    7  C6  UNL     1      -0.873   4.557  11.374  1.00  0.00     0.221 C 
BRANCH   7   8
HETATM    8  N1  UNL     1      -1.043   5.828  10.851  1.00  0.00    -0.370 N 
ATOM      9  H1  UNL     1      -0.450   6.101  10.068  1.00  0.00     0.161 HD
BRANCH   8  10
HETATM   10  C5  UNL     1      -1.968   6.763  11.320  1.00  0.00     0.122 C 
BRANCH  10  11
HETATM   11  C4  UNL     1      -2.141   6.792  12.795  1.00  0.00     0.086 C 
HETATM   12  C2  UNL     1      -3.228   6.336  13.332  1.00  0.00    -0.053 C 
HETATM   13  C1  UNL     1      -4.309   5.780  12.503  1.00  0.00     0.046 C 
HETATM   14  C3  UNL     1      -3.426   6.370  14.797  1.00  0.00     0.046 C 
BRANCH  11  15
HETATM   15  O5  UNL     1      -1.166   7.295  13.641  1.00  0.00    -0.340 OA
BRANCH  15  16
HETATM   16  C18 UNL     1      -0.822   8.615  13.864  1.00  0.00     0.057 C 
HETATM   17  C19 UNL     1       0.641   8.880  13.476  1.00  0.00     0.045 C 
HETATM   18  C20 UNL     1      -1.631   9.630  13.081  1.00  0.00     0.045 C 
HETATM   19  C21 UNL     1      -0.982   8.988  15.323  1.00  0.00     0.045 C 
ENDBRANCH  15  16
ENDBRANCH  11  15
ENDBRANCH  10  11
ENDBRANCH   8  10
ENDBRANCH   7   8
BRANCH   7  20
HETATM   20  O1  UNL     1       0.484   4.306  11.701  1.00  0.00    -0.377 OA
ATOM     21  H1  UNL     1       0.579   3.506  12.203  1.00  0.00     0.212 HD
ENDBRANCH   7  20
ENDBRANCH   1   7
BRANCH   4  22
HETATM   22  C10 UNL     1      -3.318   0.066  11.929  1.00  0.00     0.299 C 
BRANCH  22  23
HETATM   23  C11 UNL     1      -4.286   0.716  12.857  1.00  0.00     0.209 C 
BRANCH  23  24
HETATM   24  O2  UNL     1      -4.412   0.089  14.105  1.00  0.00    -0.315 OA
BRANCH  24  25
HETATM   25  C12 UNL     1      -4.400   0.757  15.316  1.00  0.00     0.314 C 
HETATM   26  O3  UNL     1      -3.637   0.321  16.210  1.00  0.00    -0.257 OA
BRANCH  25  27
HETATM   27  C13 UNL     1      -5.218   1.924  15.592  1.00  0.00     0.155 A 
HETATM   28  N3  UNL     1      -5.131   3.163  15.059  1.00  0.00    -0.234 N 
HETATM   29  O4  UNL     1      -6.058   3.918  15.583  1.00  0.00    -0.156 OA
ATOM     30  H3  UNL     1      -4.451   3.460  14.360  1.00  0.00     0.197 HD
HETATM   31  N4  UNL     1      -6.770   3.257  16.444  1.00  0.00    -0.244 N 
HETATM   32  C14 UNL     1      -6.265   1.990  16.474  1.00  0.00     0.065 A 
ATOM     33  H4  UNL     1      -7.553   3.615  16.991  1.00  0.00     0.196 HD
HETATM   34  C15 UNL     1      -6.826   0.934  17.351  1.00  0.00     0.073 C 
ENDBRANCH  25  27
ENDBRANCH  24  25
ENDBRANCH  23  24
ENDBRANCH  22  23
ENDBRANCH   4  22
TORSDOF 12
ENDMDL
MODEL 4
REMARK VINA RESULT: -7.136701074      1.725      2.204
REMARK  12 active torsions:
REMARK  status: ('A' for Active; 'I' for Inactive)
REMARK    1  A    between atoms: C4_4  and  C5_5 
REMARK    2  A    between atoms: C4_4  and  O5_30 
REMARK    3  A    between atoms: C5_5  and  N1_6 
REMARK    4  A    between atoms: N1_6  and  C6_8 
REMARK    5  A    between atoms: C6_8  and  O1_9 
REMARK    6  A    between atoms: C6_8  and  C7_11 
REMARK    7  A    between atoms: N2_14  and  C10_15 
REMARK    8  A    between atoms: C10_15  and  C11_16 
REMARK    9  A    between atoms: C11_16  and  O2_17 
REMARK   10  A    between atoms: O2_17  and  C12_18 
REMARK   11  A    between atoms: C12_18  and  C13_20 
REMARK   12  A    between atoms: O5_30  and  C18_31 
ROOT
HETATM    1  C7  UNL     1      -1.446   2.503  10.493  1.00  0.00     0.037 C 
HETATM    2  C8  UNL     1      -2.880   2.965  10.615  1.00  0.00     0.039 C 
HETATM    3  C9  UNL     1      -3.755   2.034  11.398  1.00  0.00     0.273 C 
HETATM    4  N2  UNL     1      -3.724   0.665  10.957  1.00  0.00     0.090 N 
HETATM    5  C16 UNL     1      -2.359   0.254  10.594  1.00  0.00     0.273 C 
HETATM    6  C17 UNL     1      -1.391   1.190  11.303  1.00  0.00     0.039 C 
ENDROOT
BRANCH   1   7
HETATM    7  C6  UNL     1      -0.471   3.416  11.133  1.00  0.00     0.221 C 
BRANCH   7   8
HETATM    8  N1  UNL     1      -0.615   3.779  12.462  1.00  0.00    -0.370 N 
ATOM      9  H1  UNL     1      -0.570   3.040  13.163  1.00  0.00     0.161 HD
BRANCH   8  10
HETATM   10  C5  UNL     1      -0.818   5.085  12.912  1.00  0.00     0.122 C 
BRANCH  10  11
HETATM   11  C4  UNL     1      -2.186   5.622  12.686  1.00  0.00     0.086 C 
HETATM   12  C2  UNL     1      -3.152   5.299  13.486  1.00  0.00    -0.053 C 
HETATM   13  C1  UNL     1      -2.922   4.403  14.631  1.00  0.00     0.046 C 
HETATM   14  C3  UNL     1      -4.523   5.809  13.270  1.00  0.00     0.046 C 
BRANCH  11  15
HETATM   15  O5  UNL     1      -2.478   6.473  11.633  1.00  0.00    -0.340 OA
BRANCH  15  16
HETATM   16  C18 UNL     1      -2.178   7.817  11.507  1.00  0.00     0.057 C 
HETATM   17  C19 UNL     1      -3.376   8.603  10.953  1.00  0.00     0.045 C 
HETATM   18  C20 UNL     1      -1.807   8.516  12.800  1.00  0.00     0.045 C 
HETATM   19  C21 UNL     1      -1.013   8.035  10.564  1.00  0.00     0.045 C 
ENDBRANCH  15  16
ENDBRANCH  11  15
ENDBRANCH  10  11
ENDBRANCH   8  10
ENDBRANCH   7   8
BRANCH   7  20
HETATM   20  O1  UNL     1      -0.377   4.553  10.291  1.00  0.00    -0.377 OA
ATOM     21  H1  UNL     1       0.155   4.375   9.524  1.00  0.00     0.212 HD
ENDBRANCH   7  20
ENDBRANCH   1   7
BRANCH   4  22
HETATM   22  C10 UNL     1      -4.042  -0.147  12.138  1.00  0.00     0.299 C 
BRANCH  22  23
HETATM   23  C11 UNL     1      -4.392   0.687  13.322  1.00  0.00     0.209 C 
BRANCH  23  24
HETATM   24  O2  UNL     1      -4.421  -0.007  14.539  1.00  0.00    -0.315 OA
BRANCH  24  25
HETATM   25  C12 UNL     1      -4.428   0.602  15.781  1.00  0.00     0.314 C 
HETATM   26  O3  UNL     1      -3.318   0.849  16.310  1.00  0.00    -0.257 OA
BRANCH  25  27
HETATM   27  C13 UNL     1      -5.643   0.963  16.488  1.00  0.00     0.155 A 
HETATM   28  N3  UNL     1      -6.334   0.249  17.403  1.00  0.00    -0.234 N 
HETATM   29  O4  UNL     1      -7.370   0.941  17.790  1.00  0.00    -0.156 OA
ATOM     30  H3  UNL     1      -6.086  -0.682  17.737  1.00  0.00     0.197 HD
HETATM   31  N4  UNL     1      -7.420   2.089  17.187  1.00  0.00    -0.244 N 
HETATM   32  C14 UNL     1      -6.340   2.137  16.354  1.00  0.00     0.065 A 
ATOM     33  H4  UNL     1      -8.127   2.813  17.310  1.00  0.00     0.196 HD
HETATM   34  C15 UNL     1      -6.057   3.306  15.489  1.00  0.00     0.073 C 
ENDBRANCH  25  27
ENDBRANCH  24  25
ENDBRANCH  23  24
ENDBRANCH  22  23
ENDBRANCH   4  22
TORSDOF 12
ENDMDL
MODEL 5
REMARK VINA RESULT: -7.125836033      1.838      2.472
REMARK  12 active torsions:
REMARK  status: ('A' for Active; 'I' for Inactive)
REMARK    1  A    between atoms: C4_4  and  C5_5 
REMARK    2  A    between atoms: C4_4  and  O5_30 
REMARK    3  A    between atoms: C5_5  and  N1_6 
REMARK    4  A    between atoms: N1_6  and  C6_8 
REMARK    5  A    between atoms: C6_8  and  O1_9 
REMARK    6  A    between atoms: C6_8  and  C7_11 
REMARK    7  A    between atoms: N2_14  and  C10_15 
REMARK    8  A    between atoms: C10_15  and  C11_16 
REMARK    9  A    between atoms: C11_16  and  O2_17 
REMARK   10  A    between atoms: O2_17  and  C12_18 
REMARK   11  A    between atoms: C12_18  and  C13_20 
REMARK   12  A    between atoms: O5_30  and  C18_31 
ROOT
HETATM    1  C7  UNL     1      -1.738   4.102  10.344  1.00  0.00     0.037 C 
HETATM    2  C8  UNL     1      -0.924   2.840  10.174  1.00  0.00     0.039 C 
HETATM    3  C9  UNL     1      -1.664   1.586  10.524  1.00  0.00     0.273 C 
HETATM    4  N2  UNL     1      -2.278   1.593  11.825  1.00  0.00     0.090 N 
HETATM    5  C16 UNL     1      -2.877   2.903  12.124  1.00  0.00     0.273 C 
HETATM    6  C17 UNL     1      -3.128   3.609  10.799  1.00  0.00     0.039 C 
ENDROOT
BRANCH   1   7
HETATM    7  C6  UNL     1      -1.963   4.840   9.080  1.00  0.00     0.221 C 
BRANCH   7   8
HETATM    8  N1  UNL     1      -3.211   5.360   8.781  1.00  0.00    -0.370 N 
ATOM      9  H1  UNL     1      -3.892   4.738   8.345  1.00  0.00     0.161 HD
BRANCH   8  10
HETATM   10  C5  UNL     1      -3.605   6.676   9.034  1.00  0.00     0.122 C 
BRANCH  10  11
HETATM   11  C4  UNL     1      -4.921   6.818   9.710  1.00  0.00     0.086 C 
HETATM   12  C2  UNL     1      -4.976   7.103  10.973  1.00  0.00    -0.053 C 
HETATM   13  C1  UNL     1      -3.749   7.293  11.762  1.00  0.00     0.046 C 
HETATM   14  C3  UNL     1      -6.274   7.233  11.668  1.00  0.00     0.046 C 
BRANCH  11  15
HETATM   15  O5  UNL     1      -6.119   6.658   9.032  1.00  0.00    -0.340 OA
BRANCH  15  16
HETATM   16  C18 UNL     1      -6.686   7.489   8.084  1.00  0.00     0.057 C 
HETATM   17  C19 UNL     1      -8.220   7.454   8.163  1.00  0.00     0.045 C 
HETATM   18  C20 UNL     1      -6.314   8.953   8.209  1.00  0.00     0.045 C 
HETATM   19  C21 UNL     1      -6.291   7.075   6.682  1.00  0.00     0.045 C 
ENDBRANCH  15  16
ENDBRANCH  11  15
ENDBRANCH  10  11
ENDBRANCH   8  10
ENDBRANCH   7   8
BRANCH   7  20
HETATM   20  O1  UNL     1      -1.487   4.002   8.039  1.00  0.00    -0.377 OA
ATOM     21  H1  UNL     1      -1.834   3.121   8.116  1.00  0.00     0.212 HD
ENDBRANCH   7  20
ENDBRANCH   1   7
BRANCH   4  22
HETATM   22  C10 UNL     1      -3.428   0.685  11.734  1.00  0.00     0.299 C 
BRANCH  22  23
HETATM   23  C11 UNL     1      -4.447   0.953  12.787  1.00  0.00     0.209 C 
BRANCH  23  24
HETATM   24  O2  UNL     1      -4.249   0.253  13.985  1.00  0.00    -0.315 OA
BRANCH  24  25
HETATM   25  C12 UNL     1      -4.334   0.823  15.242  1.00  0.00     0.314 C 
HETATM   26  O3  UNL     1      -3.646   0.312  16.157  1.00  0.00    -0.257 OA
BRANCH  25  27
HETATM   27  C13 UNL     1      -5.169   1.972  15.544  1.00  0.00     0.155 A 
HETATM   28  N3  UNL     1      -5.081   3.232  15.062  1.00  0.00    -0.234 N 
HETATM   29  O4  UNL     1      -6.026   3.958  15.592  1.00  0.00    -0.156 OA
ATOM     30  H3  UNL     1      -4.386   3.562  14.392  1.00  0.00     0.197 HD
HETATM   31  N4  UNL     1      -6.753   3.258  16.409  1.00  0.00    -0.244 N 
HETATM   32  C14 UNL     1      -6.238   1.995  16.402  1.00  0.00     0.065 A 
ATOM     33  H4  UNL     1      -7.552   3.587  16.950  1.00  0.00     0.196 HD
HETATM   34  C15 UNL     1      -6.809   0.901  17.223  1.00  0.00     0.073 C 
ENDBRANCH  25  27
ENDBRANCH  24  25
ENDBRANCH  23  24
ENDBRANCH  22  23
ENDBRANCH   4  22
TORSDOF 12
ENDMDL
