MODEL 1
REMARK VINA RESULT: -7.191334484      0.000      0.000
REMARK  11 active torsions:
REMARK  status: ('A' for Active; 'I' for Inactive)
REMARK    1  A    between atoms: C2_2  and  C3_3 
REMARK    2  A    between atoms: C3_3  and  N1_4 
REMARK    3  A    between atoms: C4_5  and  C5_6 
REMARK    4  A    between atoms: C5_6  and  S1_7 
REMARK    5  A    between atoms: S1_7  and  C6_8 
REMARK    6  A    between atoms: C7_11  and  C8_12 
REMARK    7  A    between atoms: C12_18  and  N5_19 
REMARK    8  A    between atoms: N5_19  and  C13_21 
REMARK    9  A    between atoms: C18_28  and  C19_29 
REMARK   10  A    between atoms: C19_29  and  O1_30 
REMARK   11  A    between atoms: N7_32  and  O2_34 
ROOT
HETATM    1  C8  UNL     1      -3.634   0.950  12.224  1.00  0.00     0.182 C 
HETATM    2  C9  UNL     1      -2.851   1.599  11.188  1.00  0.00     0.065 C 
HETATM    3  N3  UNL     1      -2.221   2.101  10.364  1.00  0.00    -0.197 NA
ENDROOT
BRANCH   1   4
HETATM    4  C7  UNL     1      -4.076   2.022  13.191  1.00  0.00     0.049 A 
HETATM    5  N2  UNL     1      -4.077   3.309  12.845  1.00  0.00    -0.338 N 
HETATM    6  C6  UNL     1      -4.459   4.305  13.664  1.00  0.00     0.146 A 
ATOM      7  H2  UNL     1      -3.770   3.553  11.904  1.00  0.00     0.168 HD
HETATM    8  N6  UNL     1      -4.864   3.934  14.916  1.00  0.00    -0.322 N 
HETATM    9  C12 UNL     1      -4.909   2.689  15.381  1.00  0.00     0.126 A 
ATOM     10  H6  UNL     1      -5.158   4.677  15.549  1.00  0.00     0.169 HD
HETATM   11  C10 UNL     1      -4.491   1.705  14.457  1.00  0.00     0.111 A 
HETATM   12  C11 UNL     1      -4.490   0.327  14.829  1.00  0.00     0.105 C 
HETATM   13  N4  UNL     1      -4.482  -0.803  15.117  1.00  0.00    -0.191 NA
BRANCH   6  14
HETATM   14  S1  UNL     1      -4.495   6.000  13.169  1.00  0.00    -0.092 SA
BRANCH  14  15
HETATM   15  C5  UNL     1      -3.427   6.488  11.826  1.00  0.00     0.118 C 
BRANCH  15  16
HETATM   16  C4  UNL     1      -3.856   6.072  10.443  1.00  0.00     0.233 C 
HETATM   17  N1  UNL     1      -4.480   7.082   9.653  1.00  0.00     0.106 N 
HETATM   18  C18 UNL     1      -3.944   7.025   8.303  1.00  0.00     0.299 C 
HETATM   19  C17 UNL     1      -2.515   6.579   8.475  1.00  0.00     0.047 C 
HETATM   20  C16 UNL     1      -2.558   5.705   9.717  1.00  0.00     0.039 C 
BRANCH  17  21
HETATM   21  C3  UNL     1      -5.898   7.041   9.658  1.00  0.00     0.273 C 
BRANCH  21  22
HETATM   22  C2  UNL     1      -6.622   8.184  10.297  1.00  0.00     0.026 C 
HETATM   23  C1  UNL     1      -7.234   7.811  11.632  1.00  0.00     0.007 C 
ENDBRANCH  21  22
ENDBRANCH  17  21
BRANCH  18  24
HETATM   24  C19 UNL     1      -4.647   6.115   7.395  1.00  0.00     0.169 C 
HETATM   25  N7  UNL     1      -5.760   6.513   6.838  1.00  0.00    -0.249 N 
ATOM     26  H7  UNL     1      -6.125   7.444   7.040  1.00  0.00     0.196 HD
BRANCH  24  27
HETATM   27  O1  UNL     1      -4.213   4.843   7.076  1.00  0.00    -0.346 OA
ATOM     28  H1  UNL     1      -3.327   4.631   6.804  1.00  0.00     0.219 HD
ENDBRANCH  24  27
BRANCH  25  29
HETATM   29  O2  UNL     1      -6.437   5.684   5.987  1.00  0.00    -0.288 OA
ATOM     30  H2  UNL     1      -6.991   4.995   6.333  1.00  0.00     0.244 HD
ENDBRANCH  25  29
ENDBRANCH  18  24
ENDBRANCH  15  16
ENDBRANCH  14  15
ENDBRANCH   6  14
BRANCH   9  31
HETATM   31  N5  UNL     1      -5.259   2.272  16.491  1.00  0.00    -0.371 N 
ATOM     32  H5  UNL     1      -4.433   1.928  16.981  1.00  0.00     0.161 HD
BRANCH  31  33
HETATM   33  C13 UNL     1      -6.353   2.102  17.306  1.00  0.00     0.075 C 
HETATM   34  C14 UNL     1      -6.030   1.889  18.781  1.00  0.00     0.031 C 
HETATM   35  C15 UNL     1      -7.373   1.063  16.945  1.00  0.00     0.031 C 
ENDBRANCH  31  33
ENDBRANCH   9  31
ENDBRANCH   1   4
TORSDOF 11
ENDMDL
MODEL 2
REMARK VINA RESULT: -6.963079488      1.789      2.797
REMARK  11 active torsions:
REMARK  status: ('A' for Active; 'I' for Inactive)
REMARK    1  A    between atoms: C2_2  and  C3_3 
REMARK    2  A    between atoms: C3_3  and  N1_4 
REMARK    3  A    between atoms: C4_5  and  C5_6 
REMARK    4  A    between atoms: C5_6  and  S1_7 
REMARK    5  A    between atoms: S1_7  and  C6_8 
REMARK    6  A    between atoms: C7_11  and  C8_12 
REMARK    7  A    between atoms: C12_18  and  N5_19 
REMARK    8  A    between atoms: N5_19  and  C13_21 
REMARK    9  A    between atoms: C18_28  and  C19_29 
REMARK   10  A    between atoms: C19_29  and  O1_30 
REMARK   11  A    between atoms: N7_32  and  O2_34 
ROOT
HETATM    1  C8  UNL     1      -3.665   0.701  12.195  1.00  0.00     0.182 C 
HETATM    2  C9  UNL     1      -2.811   1.258  11.160  1.00  0.00     0.065 C 
HETATM    3  N3  UNL     1      -2.126   1.687  10.340  1.00  0.00    -0.197 NA
ENDROOT
BRANCH   1   4
HETATM    4  C7  UNL     1      -4.124   1.846  13.064  1.00  0.00     0.049 A 
HETATM    5  N2  UNL     1      -4.147   3.097  12.606  1.00  0.00    -0.338 N 
HETATM    6  C6  UNL     1      -4.546   4.156  13.333  1.00  0.00     0.146 A 
ATOM      7  H2  UNL     1      -3.845   3.262  11.646  1.00  0.00     0.168 HD
HETATM    8  N6  UNL     1      -4.944   3.890  14.614  1.00  0.00    -0.322 N 
HETATM    9  C12 UNL     1      -4.968   2.690  15.188  1.00  0.00     0.126 A 
ATOM     10  H6  UNL     1      -5.250   4.682  15.179  1.00  0.00     0.169 HD
HETATM   11  C10 UNL     1      -4.533   1.635  14.354  1.00  0.00     0.111 A 
HETATM   12  C11 UNL     1      -4.508   0.297  14.846  1.00  0.00     0.105 C 
HETATM   13  N4  UNL     1      -4.481  -0.804  15.233  1.00  0.00    -0.191 NA
BRANCH   6  14
HETATM   14  S1  UNL     1      -4.611   5.799  12.691  1.00  0.00    -0.092 SA
BRANCH  14  15
HETATM   15  C5  UNL     1      -4.461   5.999  10.925  1.00  0.00     0.118 C 
BRANCH  15  16
HETATM   16  C4  UNL     1      -5.100   7.226  10.331  1.00  0.00     0.233 C 
HETATM   17  N1  UNL     1      -5.830   7.027   9.123  1.00  0.00     0.106 N 
HETATM   18  C18 UNL     1      -7.080   7.766   9.199  1.00  0.00     0.299 C 
HETATM   19  C17 UNL     1      -7.459   7.733  10.656  1.00  0.00     0.047 C 
HETATM   20  C16 UNL     1      -6.121   7.689  11.375  1.00  0.00     0.039 C 
BRANCH  17  21
HETATM   21  C3  UNL     1      -5.109   7.334   7.941  1.00  0.00     0.273 C 
BRANCH  21  22
HETATM   22  C2  UNL     1      -4.991   6.262   6.902  1.00  0.00     0.026 C 
HETATM   23  C1  UNL     1      -3.696   5.482   7.018  1.00  0.00     0.007 C 
ENDBRANCH  21  22
ENDBRANCH  17  21
BRANCH  18  24
HETATM   24  C19 UNL     1      -7.009   9.153   8.730  1.00  0.00     0.169 C 
HETATM   25  N7  UNL     1      -7.766   9.522   7.731  1.00  0.00    -0.249 N 
ATOM     26  H7  UNL     1      -8.393   8.848   7.292  1.00  0.00     0.196 HD
BRANCH  24  27
HETATM   27  O1  UNL     1      -6.186  10.119   9.276  1.00  0.00    -0.346 OA
ATOM     28  H1  UNL     1      -5.264  10.217   9.068  1.00  0.00     0.219 HD
ENDBRANCH  24  27
BRANCH  25  29
HETATM   29  O2  UNL     1      -7.719  10.810   7.274  1.00  0.00    -0.288 OA
ATOM     30  H2  UNL     1      -8.134  11.507   7.769  1.00  0.00     0.244 HD
ENDBRANCH  25  29
ENDBRANCH  18  24
ENDBRANCH  15  16
ENDBRANCH  14  15
ENDBRANCH   6  14
BRANCH   9  31
HETATM   31  N5  UNL     1      -5.310   2.368  16.331  1.00  0.00    -0.371 N 
ATOM     32  H5  UNL     1      -4.472   2.134  16.865  1.00  0.00     0.161 HD
BRANCH  31  33
HETATM   33  C13 UNL     1      -6.405   2.208  17.147  1.00  0.00     0.075 C 
HETATM   34  C14 UNL     1      -6.097   2.171  18.640  1.00  0.00     0.031 C 
HETATM   35  C15 UNL     1      -7.346   1.069  16.884  1.00  0.00     0.031 C 
ENDBRANCH  31  33
ENDBRANCH   9  31
ENDBRANCH   1   4
TORSDOF 11
ENDMDL
MODEL 3
REMARK VINA RESULT: -6.923219235      0.898      3.597
REMARK  11 active torsions:
REMARK  status: ('A' for Active; 'I' for Inactive)
REMARK    1  A    between atoms: C2_2  and  C3_3 
REMARK    2  A    between atoms: C3_3  and  N1_4 
REMARK    3  A    between atoms: C4_5  and  C5_6 
REMARK    4  A    between atoms: C5_6  and  S1_7 
REMARK    5  A    between atoms: S1_7  and  C6_8 
REMARK    6  A    between atoms: C7_11  and  C8_12 
REMARK    7  A    between atoms: C12_18  and  N5_19 
REMARK    8  A    between atoms: N5_19  and  C13_21 
REMARK    9  A    between atoms: C18_28  and  C19_29 
REMARK   10  A    between atoms: C19_29  and  O1_30 
REMARK   11  A    between atoms: N7_32  and  O2_34 
ROOT
HETATM    1  C8  UNL     1      -5.238   2.146  16.885  1.00  0.00     0.182 C 
HETATM    2  C9  UNL     1      -6.534   1.494  16.807  1.00  0.00     0.065 C 
HETATM    3  N3  UNL     1      -7.558   0.969  16.758  1.00  0.00    -0.197 NA
ENDROOT
BRANCH   1   4
HETATM    4  C7  UNL     1      -4.841   2.527  15.480  1.00  0.00     0.049 A 
HETATM    5  N2  UNL     1      -4.859   3.796  15.075  1.00  0.00    -0.338 N 
HETATM    6  C6  UNL     1      -4.516   4.194  13.837  1.00  0.00     0.146 A 
ATOM      7  H2  UNL     1      -5.149   4.509  15.744  1.00  0.00     0.168 HD
HETATM    8  N6  UNL     1      -4.133   3.206  12.972  1.00  0.00    -0.322 N 
HETATM    9  C12 UNL     1      -4.073   1.907  13.253  1.00  0.00     0.126 A 
ATOM     10  H6  UNL     1      -3.869   3.491  12.029  1.00  0.00     0.169 HD
HETATM   11  C10 UNL     1      -4.449   1.577  14.574  1.00  0.00     0.111 A 
HETATM   12  C11 UNL     1      -4.431   0.218  15.006  1.00  0.00     0.105 C 
HETATM   13  N4  UNL     1      -4.422  -0.889  15.375  1.00  0.00    -0.191 NA
BRANCH   6  14
HETATM   14  S1  UNL     1      -4.504   5.887  13.335  1.00  0.00    -0.092 SA
BRANCH  14  15
HETATM   15  C5  UNL     1      -3.405   6.344  12.006  1.00  0.00     0.118 C 
BRANCH  15  16
HETATM   16  C4  UNL     1      -3.851   5.986  10.614  1.00  0.00     0.233 C 
HETATM   17  N1  UNL     1      -4.393   7.052   9.838  1.00  0.00     0.106 N 
HETATM   18  C18 UNL     1      -3.851   6.981   8.491  1.00  0.00     0.299 C 
HETATM   19  C17 UNL     1      -2.460   6.429   8.664  1.00  0.00     0.047 C 
HETATM   20  C16 UNL     1      -2.577   5.538   9.889  1.00  0.00     0.039 C 
BRANCH  17  21
HETATM   21  C3  UNL     1      -5.811   7.115   9.832  1.00  0.00     0.273 C 
BRANCH  21  22
HETATM   22  C2  UNL     1      -6.459   8.227  10.596  1.00  0.00     0.026 C 
HETATM   23  C1  UNL     1      -7.306   7.724  11.748  1.00  0.00     0.007 C 
ENDBRANCH  21  22
ENDBRANCH  17  21
BRANCH  18  24
HETATM   24  C19 UNL     1      -4.612   6.142   7.561  1.00  0.00     0.169 C 
HETATM   25  N7  UNL     1      -5.682   6.634   6.995  1.00  0.00    -0.249 N 
ATOM     26  H7  UNL     1      -5.975   7.588   7.205  1.00  0.00     0.196 HD
BRANCH  24  27
HETATM   27  O1  UNL     1      -4.276   4.843   7.230  1.00  0.00    -0.346 OA
ATOM     28  H1  UNL     1      -4.636   4.368   6.490  1.00  0.00     0.219 HD
ENDBRANCH  24  27
BRANCH  25  29
HETATM   29  O2  UNL     1      -6.409   5.872   6.124  1.00  0.00    -0.288 OA
ATOM     30  H2  UNL     1      -7.041   5.244   6.453  1.00  0.00     0.244 HD
ENDBRANCH  25  29
ENDBRANCH  18  24
ENDBRANCH  15  16
ENDBRANCH  14  15
ENDBRANCH   6  14
BRANCH   9  31
HETATM   31  N5  UNL     1      -3.740   0.959  12.534  1.00  0.00    -0.371 N 
ATOM     32  H5  UNL     1      -4.034   0.092  12.986  1.00  0.00     0.161 HD
BRANCH  31  33
HETATM   33  C13 UNL     1      -3.120   0.642  11.349  1.00  0.00     0.075 C 
HETATM   34  C14 UNL     1      -3.122  -0.842  10.996  1.00  0.00     0.031 C 
HETATM   35  C15 UNL     1      -1.720   1.128  11.110  1.00  0.00     0.031 C 
ENDBRANCH  31  33
ENDBRANCH   9  31
ENDBRANCH   1   4
TORSDOF 11
ENDMDL
MODEL 4
REMARK VINA RESULT: -6.917620597      3.007      4.313
REMARK  11 active torsions:
REMARK  status: ('A' for Active; 'I' for Inactive)
REMARK    1  A    between atoms: C2_2  and  C3_3 
REMARK    2  A    between atoms: C3_3  and  N1_4 
REMARK    3  A    between atoms: C4_5  and  C5_6 
REMARK    4  A    between atoms: C5_6  and  S1_7 
REMARK    5  A    between atoms: S1_7  and  C6_8 
REMARK    6  A    between atoms: C7_11  and  C8_12 
REMARK    7  A    between atoms: C12_18  and  N5_19 
REMARK    8  A    between atoms: N5_19  and  C13_21 
REMARK    9  A    between atoms: C18_28  and  C19_29 
REMARK   10  A    between atoms: C19_29  and  O1_30 
REMARK   11  A    between atoms: N7_32  and  O2_34 
ROOT
HETATM    1  C8  UNL     1      -3.746   0.847  12.088  1.00  0.00     0.182 C 
HETATM    2  C9  UNL     1      -2.395   1.184  11.676  1.00  0.00     0.065 C 
HETATM    3  N3  UNL     1      -1.319   1.435  11.348  1.00  0.00    -0.197 NA
ENDROOT
BRANCH   1   4
HETATM    4  C7  UNL     1      -4.226   1.951  12.998  1.00  0.00     0.049 A 
HETATM    5  N2  UNL     1      -4.307   3.212  12.575  1.00  0.00    -0.338 N 
HETATM    6  C6  UNL     1      -4.726   4.235  13.340  1.00  0.00     0.146 A 
ATOM      7  H2  UNL     1      -4.034   3.413  11.614  1.00  0.00     0.168 HD
HETATM    8  N6  UNL     1      -5.083   3.921  14.622  1.00  0.00    -0.322 N 
HETATM    9  C12 UNL     1      -5.049   2.706  15.163  1.00  0.00     0.126 A 
ATOM     10  H6  UNL     1      -5.404   4.685  15.216  1.00  0.00     0.169 HD
HETATM   11  C10 UNL     1      -4.596   1.691  14.291  1.00  0.00     0.111 A 
HETATM   12  C11 UNL     1      -4.510   0.341  14.746  1.00  0.00     0.105 C 
HETATM   13  N4  UNL     1      -4.433  -0.767  15.102  1.00  0.00    -0.191 NA
BRANCH   6  14
HETATM   14  S1  UNL     1      -4.867   5.892  12.745  1.00  0.00    -0.092 SA
BRANCH  14  15
HETATM   15  C5  UNL     1      -3.520   6.531  11.766  1.00  0.00     0.118 C 
BRANCH  15  16
HETATM   16  C4  UNL     1      -2.183   5.862  11.945  1.00  0.00     0.233 C 
HETATM   17  N1  UNL     1      -1.333   5.849  10.801  1.00  0.00     0.106 N 
HETATM   18  C18 UNL     1       0.021   6.183  11.213  1.00  0.00     0.299 C 
HETATM   19  C17 UNL     1      -0.152   7.139  12.364  1.00  0.00     0.047 C 
HETATM   20  C16 UNL     1      -1.457   6.697  13.005  1.00  0.00     0.039 C 
BRANCH  17  21
HETATM   21  C3  UNL     1      -1.373   4.646  10.050  1.00  0.00     0.273 C 
BRANCH  21  22
HETATM   22  C2  UNL     1      -1.173   4.745   8.570  1.00  0.00     0.026 C 
HETATM   23  C1  UNL     1      -0.289   3.639   8.028  1.00  0.00     0.007 C 
ENDBRANCH  21  22
ENDBRANCH  17  21
BRANCH  18  24
HETATM   24  C19 UNL     1       0.842   5.041  11.626  1.00  0.00     0.169 C 
HETATM   25  N7  UNL     1       2.142   5.167  11.635  1.00  0.00    -0.249 N 
ATOM     26  H7  UNL     1       2.569   6.051  11.356  1.00  0.00     0.196 HD
BRANCH  24  27
HETATM   27  O1  UNL     1       0.333   3.817  12.016  1.00  0.00    -0.346 OA
ATOM     28  H1  UNL     1       0.151   3.575  12.917  1.00  0.00     0.219 HD
ENDBRANCH  24  27
BRANCH  25  29
HETATM   29  O2  UNL     1       2.931   4.118  12.016  1.00  0.00    -0.288 OA
ATOM     30  H2  UNL     1       3.425   4.163  12.826  1.00  0.00     0.244 HD
ENDBRANCH  25  29
ENDBRANCH  18  24
ENDBRANCH  15  16
ENDBRANCH  14  15
ENDBRANCH   6  14
BRANCH   9  31
HETATM   31  N5  UNL     1      -5.351   2.341  16.304  1.00  0.00    -0.371 N 
ATOM     32  H5  UNL     1      -4.500   2.051  16.787  1.00  0.00     0.161 HD
BRANCH  31  33
HETATM   33  C13 UNL     1      -6.413   2.182  17.163  1.00  0.00     0.075 C 
HETATM   34  C14 UNL     1      -6.046   2.139  18.642  1.00  0.00     0.031 C 
HETATM   35  C15 UNL     1      -7.367   1.046  16.934  1.00  0.00     0.031 C 
ENDBRANCH  31  33
ENDBRANCH   9  31
ENDBRANCH   1   4
TORSDOF 11
ENDMDL
MODEL 5
REMARK VINA RESULT: -6.867431223      3.136      4.327
REMARK  11 active torsions:
REMARK  status: ('A' for Active; 'I' for Inactive)
REMARK    1  A    between atoms: C2_2  and  C3_3 
REMARK    2  A    between atoms: C3_3  and  N1_4 
REMARK    3  A    between atoms: C4_5  and  C5_6 
REMARK    4  A    between atoms: C5_6  and  S1_7 
REMARK    5  A    between atoms: S1_7  and  C6_8 
REMARK    6  A    between atoms: C7_11  and  C8_12 
REMARK    7  A    between atoms: C12_18  and  N5_19 
REMARK    8  A    between atoms: N5_19  and  C13_21 
REMARK    9  A    between atoms: C18_28  and  C19_29 
REMARK   10  A    between atoms: C19_29  and  O1_30 
REMARK   11  A    between atoms: N7_32  and  O2_34 
ROOT
HETATM    1  C8  UNL     1      -3.658  -0.383  12.008  1.00  0.00     0.182 C 
HETATM    2  C9  UNL     1      -3.367  -0.435  10.586  1.00  0.00     0.065 C 
HETATM    3  N3  UNL     1      -3.127  -0.487   9.461  1.00  0.00    -0.197 NA
ENDROOT
BRANCH   1   4
HETATM    4  C7  UNL     1      -4.074   1.032  12.331  1.00  0.00     0.049 A 
HETATM    5  N2  UNL     1      -4.061   1.986  11.401  1.00  0.00    -0.338 N 
HETATM    6  C6  UNL     1      -4.421   3.262  11.631  1.00  0.00     0.146 A 
ATOM      7  H2  UNL     1      -3.762   1.735  10.460  1.00  0.00     0.168 HD
HETATM    8  N6  UNL     1      -4.816   3.556  12.906  1.00  0.00    -0.322 N 
HETATM    9  C12 UNL     1      -4.873   2.697  13.920  1.00  0.00     0.126 A 
ATOM     10  H6  UNL     1      -5.092   4.519  13.097  1.00  0.00     0.169 HD
HETATM   11  C10 UNL     1      -4.479   1.380  13.592  1.00  0.00     0.111 A 
HETATM   12  C11 UNL     1      -4.492   0.359  14.589  1.00  0.00     0.105 C 
HETATM   13  N4  UNL     1      -4.496  -0.487  15.392  1.00  0.00    -0.191 NA
BRANCH   6  14
HETATM   14  S1  UNL     1      -4.439   4.500  10.372  1.00  0.00    -0.092 SA
BRANCH  14  15
HETATM   15  C5  UNL     1      -3.496   5.986  10.665  1.00  0.00     0.118 C 
BRANCH  15  16
HETATM   16  C4  UNL     1      -1.998   5.836  10.691  1.00  0.00     0.233 C 
HETATM   17  N1  UNL     1      -1.483   4.869  11.604  1.00  0.00     0.106 N 
HETATM   18  C18 UNL     1      -0.440   4.102  10.943  1.00  0.00     0.299 C 
HETATM   19  C17 UNL     1      -0.864   4.040   9.498  1.00  0.00     0.047 C 
HETATM   20  C16 UNL     1      -1.622   5.341   9.291  1.00  0.00     0.039 C 
BRANCH  17  21
HETATM   21  C3  UNL     1      -1.039   5.403  12.840  1.00  0.00     0.273 C 
BRANCH  21  22
HETATM   22  C2  UNL     1      -1.860   5.111  14.058  1.00  0.00     0.026 C 
HETATM   23  C1  UNL     1      -2.889   6.189  14.336  1.00  0.00     0.007 C 
ENDBRANCH  21  22
ENDBRANCH  17  21
BRANCH  18  24
HETATM   24  C19 UNL     1       0.907   4.669  11.047  1.00  0.00     0.169 C 
HETATM   25  N7  UNL     1       1.820   4.013  11.710  1.00  0.00    -0.249 N 
ATOM     26  H7  UNL     1       1.589   3.120  12.146  1.00  0.00     0.196 HD
BRANCH  24  27
HETATM   27  O1  UNL     1       1.291   5.871  10.484  1.00  0.00    -0.346 OA
ATOM     28  H1  UNL     1       1.898   5.953   9.757  1.00  0.00     0.219 HD
ENDBRANCH  24  27
BRANCH  25  29
HETATM   29  O2  UNL     1       3.085   4.520  11.823  1.00  0.00    -0.288 OA
ATOM     30  H2  UNL     1       3.228   5.351  12.260  1.00  0.00     0.244 HD
ENDBRANCH  25  29
ENDBRANCH  18  24
ENDBRANCH  15  16
ENDBRANCH  14  15
ENDBRANCH   6  14
BRANCH   9  31
HETATM   31  N5  UNL     1      -5.215   2.881  15.093  1.00  0.00    -0.371 N 
ATOM     32  H5  UNL     1      -4.413   2.698  15.696  1.00  0.00     0.161 HD
BRANCH  31  33
HETATM   33  C13 UNL     1      -6.281   3.241  15.883  1.00  0.00     0.075 C 
HETATM   34  C14 UNL     1      -6.367   4.728  16.210  1.00  0.00     0.031 C 
HETATM   35  C15 UNL     1      -6.505   2.513  17.176  1.00  0.00     0.031 C 
ENDBRANCH  31  33
ENDBRANCH   9  31
ENDBRANCH   1   4
TORSDOF 11
ENDMDL
