MODEL 1
REMARK VINA RESULT: -7.064086307      0.000      0.000
REMARK  10 active torsions:
REMARK  status: ('A' for Active; 'I' for Inactive)
REMARK    1  A    between atoms: O1_2  and  C2_3 
REMARK    2  A    between atoms: C6_7  and  C7_8 
REMARK    3  A    between atoms: C7_8  and  C8_9 
REMARK    4  A    between atoms: C8_9  and  C9_10 
REMARK    5  A    between atoms: C9_10  and  O2_11 
REMARK    6  A    between atoms: O2_11  and  N1_12 
REMARK    7  A    between atoms: C13_17  and  O3_18 
REMARK    8  A    between atoms: C15_22  and  C16_23 
REMARK    9  A    between atoms: C16_23  and  O5_24 
REMARK   10  A    between atoms: N2_26  and  C17_27 
ROOT
HETATM    1  C2  UNL     1      -2.107   5.312  13.010  1.00  0.00     0.104 A 
HETATM    2  C3  UNL     1      -3.036   4.401  13.476  1.00  0.00     0.072 A 
HETATM    3  C4  UNL     1      -3.666   3.566  12.569  1.00  0.00     0.071 A 
HETATM    4  C5  UNL     1      -3.372   3.641  11.201  1.00  0.00     0.104 A 
HETATM    5  C6  UNL     1      -2.452   4.542  10.732  1.00  0.00     0.014 A 
HETATM    6  C13 UNL     1      -1.818   5.380  11.644  1.00  0.00     0.108 A 
HETATM    7  O4  UNL     1      -4.038   2.782  10.368  1.00  0.00    -0.346 OA
HETATM    8  C14 UNL     1      -5.018   1.857  10.796  1.00  0.00     0.203 C 
HETATM    9  C15 UNL     1      -4.776   1.427  12.264  1.00  0.00     0.137 C 
HETATM   10  N2  UNL     1      -4.657   2.619  13.056  1.00  0.00    -0.345 N 
ENDROOT
BRANCH   5  11
HETATM   11  C7  UNL     1      -2.123   4.641   9.308  1.00  0.00     0.046 C 
BRANCH  11  12
HETATM   12  C8  UNL     1      -3.340   4.957   8.456  1.00  0.00     0.033 C 
BRANCH  12  13
HETATM   13  C9  UNL     1      -3.800   6.369   8.819  1.00  0.00     0.201 C 
BRANCH  13  14
HETATM   14  O2  UNL     1      -5.204   6.398   9.000  1.00  0.00    -0.281 OA
BRANCH  14  15
HETATM   15  N1  UNL     1      -5.698   6.716  10.222  1.00  0.00    -0.276 N 
HETATM   16  C10 UNL     1      -6.782   7.415  10.351  1.00  0.00     0.002 C 
HETATM   17  C11 UNL     1      -7.525   7.897   9.171  1.00  0.00     0.065 C 
HETATM   18  C12 UNL     1      -7.270   7.728  11.732  1.00  0.00     0.065 C 
ATOM     19  H1  UNL     1      -5.207   6.398  11.057  1.00  0.00     0.193 HD
ENDBRANCH  14  15
ENDBRANCH  13  14
ENDBRANCH  12  13
ENDBRANCH  11  12
ENDBRANCH   5  11
BRANCH   6  20
HETATM   20  O3  UNL     1      -0.901   6.278  11.167  1.00  0.00    -0.357 OA
ATOM     21  H3  UNL     1      -0.774   6.392  10.233  1.00  0.00     0.217 HD
ENDBRANCH   6  20
BRANCH   1  22
HETATM   22  O1  UNL     1      -1.486   6.136  13.924  1.00  0.00    -0.353 OA
HETATM   23  C1  UNL     1      -2.103   7.324  14.378  1.00  0.00     0.210 C 
ENDBRANCH   1  22
BRANCH  10  24
HETATM   24  C17 UNL     1      -5.384   2.979  14.199  1.00  0.00     0.095 C 
HETATM   25  C18 UNL     1      -5.271   2.659  15.448  1.00  0.00    -0.058 C 
HETATM   26  C19 UNL     1      -4.324   1.788  16.138  1.00  0.00     0.055 C 
HETATM   27  C22 UNL     1      -6.301   3.254  16.414  1.00  0.00     0.079 C 
HETATM   28  C20 UNL     1      -5.100   0.557  16.600  1.00  0.00     0.123 C 
HETATM   29  N3  UNL     1      -6.483   0.807  16.755  1.00  0.00    -0.402 N 
HETATM   30  C21 UNL     1      -6.909   2.082  17.118  1.00  0.00     0.060 C 
ATOM     31  H3  UNL     1      -7.161   0.061  16.602  1.00  0.00     0.158 HD
ENDBRANCH  10  24
BRANCH   9  32
HETATM   32  C16 UNL     1      -3.471   0.671  12.274  1.00  0.00     0.192 C 
BRANCH  32  33
HETATM   33  O5  UNL     1      -3.263   0.017  11.074  1.00  0.00    -0.399 OA
ATOM     34  H5  UNL     1      -3.604  -0.869  11.103  1.00  0.00     0.209 HD
ENDBRANCH  32  33
ENDBRANCH   9  32
TORSDOF 10
ENDMDL
MODEL 2
REMARK VINA RESULT: -6.919888393      2.370      4.133
REMARK  10 active torsions:
REMARK  status: ('A' for Active; 'I' for Inactive)
REMARK    1  A    between atoms: O1_2  and  C2_3 
REMARK    2  A    between atoms: C6_7  and  C7_8 
REMARK    3  A    between atoms: C7_8  and  C8_9 
REMARK    4  A    between atoms: C8_9  and  C9_10 
REMARK    5  A    between atoms: C9_10  and  O2_11 
REMARK    6  A    between atoms: O2_11  and  N1_12 
REMARK    7  A    between atoms: C13_17  and  O3_18 
REMARK    8  A    between atoms: C15_22  and  C16_23 
REMARK    9  A    between atoms: C16_23  and  O5_24 
REMARK   10  A    between atoms: N2_26  and  C17_27 
ROOT
HETATM    1  C2  UNL     1      -1.894   5.076  13.066  1.00  0.00     0.104 A 
HETATM    2  C3  UNL     1      -2.885   4.223  13.513  1.00  0.00     0.072 A 
HETATM    3  C4  UNL     1      -3.504   3.381  12.604  1.00  0.00     0.071 A 
HETATM    4  C5  UNL     1      -3.135   3.392  11.253  1.00  0.00     0.104 A 
HETATM    5  C6  UNL     1      -2.154   4.234  10.802  1.00  0.00     0.014 A 
HETATM    6  C13 UNL     1      -1.533   5.080  11.715  1.00  0.00     0.108 A 
HETATM    7  O4  UNL     1      -3.795   2.529  10.417  1.00  0.00    -0.346 OA
HETATM    8  C14 UNL     1      -4.835   1.663  10.825  1.00  0.00     0.203 C 
HETATM    9  C15 UNL     1      -4.688   1.280  12.318  1.00  0.00     0.137 C 
HETATM   10  N2  UNL     1      -4.559   2.495  13.071  1.00  0.00    -0.345 N 
ENDROOT
BRANCH   5  11
HETATM   11  C7  UNL     1      -1.747   4.265   9.395  1.00  0.00     0.046 C 
BRANCH  11  12
HETATM   12  C8  UNL     1      -0.710   3.204   9.072  1.00  0.00     0.033 C 
BRANCH  12  13
HETATM   13  C9  UNL     1       0.568   3.926   8.645  1.00  0.00     0.201 C 
BRANCH  13  14
HETATM   14  O2  UNL     1       1.655   3.525   9.460  1.00  0.00    -0.281 OA
BRANCH  14  15
HETATM   15  N1  UNL     1       1.881   4.189  10.620  1.00  0.00    -0.276 N 
HETATM   16  C10 UNL     1       2.957   4.890  10.799  1.00  0.00     0.002 C 
HETATM   17  C11 UNL     1       3.984   4.992   9.745  1.00  0.00     0.065 C 
HETATM   18  C12 UNL     1       3.138   5.598  12.105  1.00  0.00     0.065 C 
ATOM     19  H1  UNL     1       1.189   4.137  11.368  1.00  0.00     0.193 HD
ENDBRANCH  14  15
ENDBRANCH  13  14
ENDBRANCH  12  13
ENDBRANCH  11  12
ENDBRANCH   5  11
BRANCH   6  20
HETATM   20  O3  UNL     1      -0.553   5.919  11.256  1.00  0.00    -0.357 OA
ATOM     21  H3  UNL     1      -0.195   5.815  10.383  1.00  0.00     0.217 HD
ENDBRANCH   6  20
BRANCH   1  22
HETATM   22  O1  UNL     1      -1.287   5.908  13.981  1.00  0.00    -0.353 OA
HETATM   23  C1  UNL     1      -1.874   7.137  14.358  1.00  0.00     0.210 C 
ENDBRANCH   1  22
BRANCH  10  24
HETATM   24  C17 UNL     1      -5.328   2.929  14.161  1.00  0.00     0.095 C 
HETATM   25  C18 UNL     1      -5.290   2.658  15.425  1.00  0.00    -0.058 C 
HETATM   26  C19 UNL     1      -4.411   1.784  16.198  1.00  0.00     0.055 C 
HETATM   27  C22 UNL     1      -6.343   3.330  16.313  1.00  0.00     0.079 C 
HETATM   28  C20 UNL     1      -5.256   0.602  16.668  1.00  0.00     0.123 C 
HETATM   29  N3  UNL     1      -6.634   0.907  16.742  1.00  0.00    -0.402 N 
HETATM   30  C21 UNL     1      -7.029   2.211  17.031  1.00  0.00     0.060 C 
ATOM     31  H3  UNL     1      -7.332   0.180  16.585  1.00  0.00     0.158 HD
ENDBRANCH  10  24
BRANCH   9  32
HETATM   32  C16 UNL     1      -3.419   0.471  12.426  1.00  0.00     0.192 C 
BRANCH  32  33
HETATM   33  O5  UNL     1      -3.152  -0.197  11.245  1.00  0.00    -0.399 OA
ATOM     34  H5  UNL     1      -2.434   0.211  10.775  1.00  0.00     0.209 HD
ENDBRANCH  32  33
ENDBRANCH   9  32
TORSDOF 10
ENDMDL
MODEL 3
REMARK VINA RESULT: -6.825418838      1.404      1.671
REMARK  10 active torsions:
REMARK  status: ('A' for Active; 'I' for Inactive)
REMARK    1  A    between atoms: O1_2  and  C2_3 
REMARK    2  A    between atoms: C6_7  and  C7_8 
REMARK    3  A    between atoms: C7_8  and  C8_9 
REMARK    4  A    between atoms: C8_9  and  C9_10 
REMARK    5  A    between atoms: C9_10  and  O2_11 
REMARK    6  A    between atoms: O2_11  and  N1_12 
REMARK    7  A    between atoms: C13_17  and  O3_18 
REMARK    8  A    between atoms: C15_22  and  C16_23 
REMARK    9  A    between atoms: C16_23  and  O5_24 
REMARK   10  A    between atoms: N2_26  and  C17_27 
ROOT
HETATM    1  C2  UNL     1      -3.208   6.116  12.671  1.00  0.00     0.104 A 
HETATM    2  C3  UNL     1      -3.793   5.014  13.265  1.00  0.00     0.072 A 
HETATM    3  C4  UNL     1      -4.196   3.958  12.466  1.00  0.00     0.071 A 
HETATM    4  C5  UNL     1      -4.017   4.002  11.077  1.00  0.00     0.104 A 
HETATM    5  C6  UNL     1      -3.438   5.090  10.481  1.00  0.00     0.014 A 
HETATM    6  C13 UNL     1      -3.033   6.152  11.284  1.00  0.00     0.108 A 
HETATM    7  O4  UNL     1      -4.442   2.917  10.355  1.00  0.00    -0.346 OA
HETATM    8  C14 UNL     1      -5.073   1.784  10.918  1.00  0.00     0.203 C 
HETATM    9  C15 UNL     1      -4.628   1.568  12.385  1.00  0.00     0.137 C 
HETATM   10  N2  UNL     1      -4.827   2.805  13.089  1.00  0.00    -0.345 N 
ENDROOT
BRANCH   5  11
HETATM   11  C7  UNL     1      -3.236   5.163   9.031  1.00  0.00     0.046 C 
BRANCH  11  12
HETATM   12  C8  UNL     1      -4.049   6.276   8.392  1.00  0.00     0.033 C 
BRANCH  12  13
HETATM   13  C9  UNL     1      -4.359   5.851   6.957  1.00  0.00     0.201 C 
BRANCH  13  14
HETATM   14  O2  UNL     1      -5.743   5.994   6.690  1.00  0.00    -0.281 OA
BRANCH  14  15
HETATM   15  N1  UNL     1      -6.230   7.230   6.416  1.00  0.00    -0.276 N 
HETATM   16  C10 UNL     1      -7.191   7.747   7.115  1.00  0.00     0.002 C 
HETATM   17  C11 UNL     1      -7.799   7.011   8.240  1.00  0.00     0.065 C 
HETATM   18  C12 UNL     1      -7.678   9.117   6.756  1.00  0.00     0.065 C 
ATOM     19  H1  UNL     1      -5.831   7.763   5.644  1.00  0.00     0.193 HD
ENDBRANCH  14  15
ENDBRANCH  13  14
ENDBRANCH  12  13
ENDBRANCH  11  12
ENDBRANCH   5  11
BRANCH   6  20
HETATM   20  O3  UNL     1      -2.456   7.237  10.680  1.00  0.00    -0.357 OA
ATOM     21  H3  UNL     1      -2.462   7.326   9.735  1.00  0.00     0.217 HD
ENDBRANCH   6  20
BRANCH   1  22
HETATM   22  O1  UNL     1      -2.812   7.160  13.478  1.00  0.00    -0.353 OA
HETATM   23  C1  UNL     1      -1.684   7.047  14.323  1.00  0.00     0.210 C 
ENDBRANCH   1  22
BRANCH  10  24
HETATM   24  C17 UNL     1      -5.561   3.029  14.262  1.00  0.00     0.095 C 
HETATM   25  C18 UNL     1      -5.378   2.675  15.493  1.00  0.00    -0.058 C 
HETATM   26  C19 UNL     1      -4.316   1.897  16.125  1.00  0.00     0.055 C 
HETATM   27  C22 UNL     1      -6.446   3.103  16.506  1.00  0.00     0.079 C 
HETATM   28  C20 UNL     1      -4.928   0.564  16.549  1.00  0.00     0.123 C 
HETATM   29  N3  UNL     1      -6.327   0.640  16.745  1.00  0.00    -0.402 N 
HETATM   30  C21 UNL     1      -6.891   1.839  17.172  1.00  0.00     0.060 C 
ATOM     31  H3  UNL     1      -6.915  -0.175  16.575  1.00  0.00     0.158 HD
ENDBRANCH  10  24
BRANCH   9  32
HETATM   32  C16 UNL     1      -3.158   1.235  12.339  1.00  0.00     0.192 C 
BRANCH  32  33
HETATM   33  O5  UNL     1      -2.859   0.452  11.239  1.00  0.00    -0.399 OA
ATOM     34  H5  UNL     1      -3.649   0.146  10.810  1.00  0.00     0.209 HD
ENDBRANCH  32  33
ENDBRANCH   9  32
TORSDOF 10
ENDMDL
MODEL 4
REMARK VINA RESULT: -6.791214371      3.210      7.631
REMARK  10 active torsions:
REMARK  status: ('A' for Active; 'I' for Inactive)
REMARK    1  A    between atoms: O1_2  and  C2_3 
REMARK    2  A    between atoms: C6_7  and  C7_8 
REMARK    3  A    between atoms: C7_8  and  C8_9 
REMARK    4  A    between atoms: C8_9  and  C9_10 
REMARK    5  A    between atoms: C9_10  and  O2_11 
REMARK    6  A    between atoms: O2_11  and  N1_12 
REMARK    7  A    between atoms: C13_17  and  O3_18 
REMARK    8  A    between atoms: C15_22  and  C16_23 
REMARK    9  A    between atoms: C16_23  and  O5_24 
REMARK   10  A    between atoms: N2_26  and  C17_27 
ROOT
HETATM    1  C2  UNL     1      -3.196   2.604  10.861  1.00  0.00     0.104 A 
HETATM    2  C3  UNL     1      -2.059   3.188  10.336  1.00  0.00     0.072 A 
HETATM    3  C4  UNL     1      -1.813   4.525  10.597  1.00  0.00     0.071 A 
HETATM    4  C5  UNL     1      -2.700   5.278  11.378  1.00  0.00     0.104 A 
HETATM    5  C6  UNL     1      -3.829   4.706  11.902  1.00  0.00     0.014 A 
HETATM    6  C13 UNL     1      -4.076   3.362  11.639  1.00  0.00     0.108 A 
HETATM    7  O4  UNL     1      -2.386   6.594  11.591  1.00  0.00    -0.346 OA
HETATM    8  C14 UNL     1      -1.251   7.240  11.049  1.00  0.00     0.203 C 
HETATM    9  C15 UNL     1      -0.099   6.234  10.806  1.00  0.00     0.137 C 
HETATM   10  N2  UNL     1      -0.625   5.145  10.031  1.00  0.00    -0.345 N 
ENDROOT
BRANCH   5  11
HETATM   11  C7  UNL     1      -4.773   5.467  12.723  1.00  0.00     0.046 C 
BRANCH  11  12
HETATM   12  C8  UNL     1      -4.510   5.297  14.209  1.00  0.00     0.033 C 
BRANCH  12  13
HETATM   13  C9  UNL     1      -5.860   5.079  14.892  1.00  0.00     0.201 C 
BRANCH  13  14
HETATM   14  O2  UNL     1      -6.273   3.732  14.747  1.00  0.00    -0.281 OA
BRANCH  14  15
HETATM   15  N1  UNL     1      -5.379   2.745  15.003  1.00  0.00    -0.276 N 
HETATM   16  C10 UNL     1      -5.520   1.954  16.020  1.00  0.00     0.002 C 
HETATM   17  C11 UNL     1      -6.661   2.095  16.945  1.00  0.00     0.065 C 
HETATM   18  C12 UNL     1      -4.495   0.885  16.241  1.00  0.00     0.065 C 
ATOM     19  H1  UNL     1      -4.579   2.622  14.382  1.00  0.00     0.193 HD
ENDBRANCH  14  15
ENDBRANCH  13  14
ENDBRANCH  12  13
ENDBRANCH  11  12
ENDBRANCH   5  11
BRANCH   6  20
HETATM   20  O3  UNL     1      -5.207   2.798  12.166  1.00  0.00    -0.357 OA
ATOM     21  H3  UNL     1      -5.677   3.223  12.873  1.00  0.00     0.217 HD
ENDBRANCH   6  20
BRANCH   1  22
HETATM   22  O1  UNL     1      -3.429   1.272  10.594  1.00  0.00    -0.353 OA
HETATM   23  C1  UNL     1      -2.467   0.283  10.902  1.00  0.00     0.210 C 
ENDBRANCH   1  22
BRANCH  10  24
HETATM   24  C17 UNL     1      -0.154   4.639   8.811  1.00  0.00     0.095 C 
HETATM   25  C18 UNL     1       0.915   3.988   8.485  1.00  0.00    -0.058 C 
HETATM   26  C19 UNL     1       2.047   3.531   9.286  1.00  0.00     0.055 C 
HETATM   27  C22 UNL     1       1.085   3.626   7.006  1.00  0.00     0.079 C 
HETATM   28  C20 UNL     1       3.256   4.368   8.874  1.00  0.00     0.123 C 
HETATM   29  N3  UNL     1       3.139   4.894   7.567  1.00  0.00    -0.402 N 
HETATM   30  C21 UNL     1       2.415   4.187   6.610  1.00  0.00     0.060 C 
ATOM     31  H3  UNL     1       3.580   5.782   7.328  1.00  0.00     0.158 HD
ENDBRANCH  10  24
BRANCH   9  32
HETATM   32  C16 UNL     1       0.326   5.739  12.166  1.00  0.00     0.192 C 
BRANCH  32  33
HETATM   33  O5  UNL     1       1.653   5.351  12.163  1.00  0.00    -0.399 OA
ATOM     34  H5  UNL     1       1.856   4.818  12.923  1.00  0.00     0.209 HD
ENDBRANCH  32  33
ENDBRANCH   9  32
TORSDOF 10
ENDMDL
MODEL 5
REMARK VINA RESULT: -6.740527016      2.087      6.540
REMARK  10 active torsions:
REMARK  status: ('A' for Active; 'I' for Inactive)
REMARK    1  A    between atoms: O1_2  and  C2_3 
REMARK    2  A    between atoms: C6_7  and  C7_8 
REMARK    3  A    between atoms: C7_8  and  C8_9 
REMARK    4  A    between atoms: C8_9  and  C9_10 
REMARK    5  A    between atoms: C9_10  and  O2_11 
REMARK    6  A    between atoms: O2_11  and  N1_12 
REMARK    7  A    between atoms: C13_17  and  O3_18 
REMARK    8  A    between atoms: C15_22  and  C16_23 
REMARK    9  A    between atoms: C16_23  and  O5_24 
REMARK   10  A    between atoms: N2_26  and  C17_27 
ROOT
HETATM    1  C2  UNL     1      -1.400   3.765   9.636  1.00  0.00     0.104 A 
HETATM    2  C3  UNL     1      -1.724   4.866  10.408  1.00  0.00     0.072 A 
HETATM    3  C4  UNL     1      -2.334   4.666  11.634  1.00  0.00     0.071 A 
HETATM    4  C5  UNL     1      -2.621   3.373  12.090  1.00  0.00     0.104 A 
HETATM    5  C6  UNL     1      -2.303   2.278  11.332  1.00  0.00     0.014 A 
HETATM    6  C13 UNL     1      -1.690   2.478  10.099  1.00  0.00     0.108 A 
HETATM    7  O4  UNL     1      -3.226   3.260  13.314  1.00  0.00    -0.346 OA
HETATM    8  C14 UNL     1      -3.603   4.357  14.121  1.00  0.00     0.203 C 
HETATM    9  C15 UNL     1      -2.695   5.584  13.855  1.00  0.00     0.137 C 
HETATM   10  N2  UNL     1      -2.690   5.825  12.439  1.00  0.00    -0.345 N 
ENDROOT
BRANCH   5  11
HETATM   11  C7  UNL     1      -2.590   0.914  11.783  1.00  0.00     0.046 C 
BRANCH  11  12
HETATM   12  C8  UNL     1      -4.064   0.706  12.087  1.00  0.00     0.033 C 
BRANCH  12  13
HETATM   13  C9  UNL     1      -4.155  -0.135  13.360  1.00  0.00     0.201 C 
BRANCH  13  14
HETATM   14  O2  UNL     1      -4.108   0.699  14.504  1.00  0.00    -0.281 OA
BRANCH  14  15
HETATM   15  N1  UNL     1      -4.595   0.225  15.677  1.00  0.00    -0.276 N 
HETATM   16  C10 UNL     1      -5.422   0.919  16.395  1.00  0.00     0.002 C 
HETATM   17  C11 UNL     1      -5.867   2.258  15.966  1.00  0.00     0.065 C 
HETATM   18  C12 UNL     1      -5.920   0.331  17.679  1.00  0.00     0.065 C 
ATOM     19  H1  UNL     1      -4.306  -0.698  16.002  1.00  0.00     0.193 HD
ENDBRANCH  14  15
ENDBRANCH  13  14
ENDBRANCH  12  13
ENDBRANCH  11  12
ENDBRANCH   5  11
BRANCH   6  20
HETATM   20  O3  UNL     1      -1.376   1.378   9.346  1.00  0.00    -0.357 OA
ATOM     21  H3  UNL     1      -1.819   0.550   9.490  1.00  0.00     0.217 HD
ENDBRANCH   6  20
BRANCH   1  22
HETATM   22  O1  UNL     1      -0.793   3.978   8.418  1.00  0.00    -0.353 OA
HETATM   23  C1  UNL     1      -1.326   4.893   7.482  1.00  0.00     0.210 C 
ENDBRANCH   1  22
BRANCH  10  24
HETATM   24  C17 UNL     1      -3.006   7.009  11.758  1.00  0.00     0.095 C 
HETATM   25  C18 UNL     1      -4.129   7.535  11.387  1.00  0.00    -0.058 C 
HETATM   26  C19 UNL     1      -5.507   7.079  11.548  1.00  0.00     0.055 C 
HETATM   27  C22 UNL     1      -4.056   8.861  10.622  1.00  0.00     0.079 C 
HETATM   28  C20 UNL     1      -6.016   6.694  10.161  1.00  0.00     0.123 C 
HETATM   29  N3  UNL     1      -5.325   7.354   9.119  1.00  0.00    -0.402 N 
HETATM   30  C21 UNL     1      -4.802   8.625   9.346  1.00  0.00     0.060 C 
ATOM     31  H3  UNL     1      -5.211   6.905   8.211  1.00  0.00     0.158 HD
ENDBRANCH  10  24
BRANCH   9  32
HETATM   32  C16 UNL     1      -1.312   5.196  14.314  1.00  0.00     0.192 C 
BRANCH  32  33
HETATM   33  O5  UNL     1      -1.350   4.069  15.114  1.00  0.00    -0.399 OA
ATOM     34  H5  UNL     1      -1.081   3.296  14.631  1.00  0.00     0.209 HD
ENDBRANCH  32  33
ENDBRANCH   9  32
TORSDOF 10
ENDMDL
