MODEL 1
REMARK VINA RESULT: -7.606200718      0.000      0.000
REMARK  6 active torsions:
REMARK  status: ('A' for Active; 'I' for Inactive)
REMARK    1  A    between atoms: C2_2  and  C3_4 
REMARK    2  A    between atoms: C3_4  and  C4_5 
REMARK    3  A    between atoms: C3_4  and  C14_21 
REMARK    4  A    between atoms: N2_11  and  C8_12 
REMARK    5  A    between atoms: C10_14  and  O2_15 
REMARK    6  A    between atoms: C14_21  and  C16_24 
ROOT
HETATM    1  C14 UNL     1      -4.705   1.594  14.217  1.00  0.00     0.210 C 
HETATM    2  C15 UNL     1      -3.676   1.458  13.168  1.00  0.00     0.076 C 
HETATM    3  N3  UNL     1      -2.875   1.335  12.338  1.00  0.00    -0.196 NA
ENDROOT
BRANCH   1   4
HETATM    4  C3  UNL     1      -4.570   2.973  14.781  1.00  0.00     0.130 C 
BRANCH   4   5
HETATM    5  C2  UNL     1      -5.901   3.463  15.192  1.00  0.00     0.134 C 
HETATM    6  C1  UNL     1      -6.535   3.190  16.506  1.00  0.00     0.091 C 
HETATM    7  O1  UNL     1      -6.588   4.158  14.426  1.00  0.00    -0.298 OA
ENDBRANCH   4   5
BRANCH   4   8
HETATM    8  C4  UNL     1      -3.965   3.927  13.808  1.00  0.00     0.015 C 
HETATM    9  N1  UNL     1      -4.419   4.265  12.660  1.00  0.00    -0.369 N 
HETATM   10  C5  UNL     1      -3.547   5.220  12.005  1.00  0.00     0.099 C 
ATOM     11  H1  UNL     1      -5.285   3.908  12.258  1.00  0.00     0.161 HD
HETATM   12  C6  UNL     1      -3.439   4.789  10.562  1.00  0.00     0.062 C 
HETATM   13  C7  UNL     1      -4.060   6.615  12.164  1.00  0.00     0.062 C 
HETATM   14  N2  UNL     1      -2.318   5.080  12.725  1.00  0.00    -0.344 N 
HETATM   15  C13 UNL     1      -2.702   4.658  14.049  1.00  0.00     0.179 C 
BRANCH  14  16
HETATM   16  C8  UNL     1      -0.974   5.298  12.276  1.00  0.00     0.077 A 
HETATM   17  C9  UNL     1      -0.074   4.376  11.801  1.00  0.00     0.074 A 
HETATM   18  C10 UNL     1       1.136   4.832  11.439  1.00  0.00     0.081 A 
HETATM   19  C11 UNL     1       1.372   6.174  11.573  1.00  0.00     0.014 A 
HETATM   20  C12 UNL     1       2.620   6.936  11.247  1.00  0.00     0.059 C 
HETATM   21  S1  UNL     1      -0.098   6.757  12.198  1.00  0.00    -0.075 SA
BRANCH  18  22
HETATM   22  O2  UNL     1       2.169   3.994  10.930  1.00  0.00    -0.360 OA
ATOM     23  H2  UNL     1       2.990   3.844  11.383  1.00  0.00     0.217 HD
ENDBRANCH  18  22
ENDBRANCH  14  16
ENDBRANCH   4   8
ENDBRANCH   1   4
BRANCH   1  24
HETATM   24  C16 UNL     1      -4.329   0.630  15.312  1.00  0.00     0.192 C 
HETATM   25  O3  UNL     1      -4.837  -0.493  15.444  1.00  0.00    -0.647 OA
HETATM   26  O4  UNL     1      -3.342   1.078  16.205  1.00  0.00    -0.647 OA
ENDBRANCH   1  24
TORSDOF 6
ENDMDL
MODEL 2
REMARK VINA RESULT: -7.466086951      1.068      1.252
REMARK  6 active torsions:
REMARK  status: ('A' for Active; 'I' for Inactive)
REMARK    1  A    between atoms: C2_2  and  C3_4 
REMARK    2  A    between atoms: C3_4  and  C4_5 
REMARK    3  A    between atoms: C3_4  and  C14_21 
REMARK    4  A    between atoms: N2_11  and  C8_12 
REMARK    5  A    between atoms: C10_14  and  O2_15 
REMARK    6  A    between atoms: C14_21  and  C16_24 
ROOT
HETATM    1  C14 UNL     1      -4.783   1.618  14.535  1.00  0.00     0.210 C 
HETATM    2  C15 UNL     1      -3.902   1.434  13.366  1.00  0.00     0.076 C 
HETATM    3  N3  UNL     1      -3.220   1.273  12.442  1.00  0.00    -0.196 NA
ENDROOT
BRANCH   1   4
HETATM    4  C3  UNL     1      -4.474   2.967  15.103  1.00  0.00     0.130 C 
BRANCH   4   5
HETATM    5  C2  UNL     1      -5.712   3.560  15.645  1.00  0.00     0.134 C 
HETATM    6  C1  UNL     1      -6.616   2.893  16.615  1.00  0.00     0.091 C 
HETATM    7  O1  UNL     1      -6.077   4.698  15.304  1.00  0.00    -0.298 OA
ENDBRANCH   4   5
BRANCH   4   8
HETATM    8  C4  UNL     1      -3.881   3.886  14.089  1.00  0.00     0.015 C 
HETATM    9  N1  UNL     1      -4.446   4.368  13.047  1.00  0.00    -0.369 N 
HETATM   10  C5  UNL     1      -3.545   5.226  12.304  1.00  0.00     0.099 C 
ATOM     11  H1  UNL     1      -5.410   4.174  12.774  1.00  0.00     0.161 HD
HETATM   12  C6  UNL     1      -3.728   4.887  10.844  1.00  0.00     0.062 C 
HETATM   13  C7  UNL     1      -3.800   6.668  12.608  1.00  0.00     0.062 C 
HETATM   14  N2  UNL     1      -2.259   4.854  12.808  1.00  0.00    -0.344 N 
HETATM   15  C13 UNL     1      -2.497   4.402  14.156  1.00  0.00     0.179 C 
BRANCH  14  16
HETATM   16  C8  UNL     1      -0.982   4.900  12.158  1.00  0.00     0.077 A 
HETATM   17  C9  UNL     1      -0.049   5.908  12.183  1.00  0.00     0.074 A 
HETATM   18  C10 UNL     1       1.082   5.712  11.486  1.00  0.00     0.081 A 
HETATM   19  C11 UNL     1       1.211   4.530  10.809  1.00  0.00     0.014 A 
HETATM   20  C12 UNL     1       2.356   4.062   9.963  1.00  0.00     0.059 C 
HETATM   21  S1  UNL     1      -0.245   3.728  11.165  1.00  0.00    -0.075 SA
BRANCH  18  22
HETATM   22  O2  UNL     1       2.137   6.667  11.420  1.00  0.00    -0.360 OA
ATOM     23  H2  UNL     1       2.487   7.003  10.604  1.00  0.00     0.217 HD
ENDBRANCH  18  22
ENDBRANCH  14  16
ENDBRANCH   4   8
ENDBRANCH   1   4
BRANCH   1  24
HETATM   24  C16 UNL     1      -4.352   0.599  15.558  1.00  0.00     0.192 C 
HETATM   25  O3  UNL     1      -4.861  -0.527  15.665  1.00  0.00    -0.647 OA
HETATM   26  O4  UNL     1      -3.311   0.998  16.413  1.00  0.00    -0.647 OA
ENDBRANCH   1  24
TORSDOF 6
ENDMDL
MODEL 3
REMARK VINA RESULT: -7.078467064      3.002      4.778
REMARK  6 active torsions:
REMARK  status: ('A' for Active; 'I' for Inactive)
REMARK    1  A    between atoms: C2_2  and  C3_4 
REMARK    2  A    between atoms: C3_4  and  C4_5 
REMARK    3  A    between atoms: C3_4  and  C14_21 
REMARK    4  A    between atoms: N2_11  and  C8_12 
REMARK    5  A    between atoms: C10_14  and  O2_15 
REMARK    6  A    between atoms: C14_21  and  C16_24 
ROOT
HETATM    1  C14 UNL     1      -5.417   2.086  16.680  1.00  0.00     0.210 C 
HETATM    2  C15 UNL     1      -6.374   3.207  16.737  1.00  0.00     0.076 C 
HETATM    3  N3  UNL     1      -7.125   4.088  16.801  1.00  0.00    -0.196 NA
ENDROOT
BRANCH   1   4
HETATM    4  C3  UNL     1      -5.082   1.874  15.237  1.00  0.00     0.130 C 
BRANCH   4   5
HETATM    5  C2  UNL     1      -4.209   0.691  15.109  1.00  0.00     0.134 C 
HETATM    6  C1  UNL     1      -4.219  -0.249  13.961  1.00  0.00     0.091 C 
HETATM    7  O1  UNL     1      -3.384   0.409  15.995  1.00  0.00    -0.298 OA
ENDBRANCH   4   5
BRANCH   4   8
HETATM    8  C4  UNL     1      -4.411   3.060  14.630  1.00  0.00     0.015 C 
HETATM    9  N1  UNL     1      -3.655   3.912  15.213  1.00  0.00    -0.369 N 
HETATM   10  C5  UNL     1      -3.189   4.927  14.290  1.00  0.00     0.099 C 
ATOM     11  H1  UNL     1      -3.411   3.880  16.203  1.00  0.00     0.161 HD
HETATM   12  C6  UNL     1      -3.302   6.251  15.007  1.00  0.00     0.062 C 
HETATM   13  C7  UNL     1      -1.801   4.631  13.818  1.00  0.00     0.062 C 
HETATM   14  N2  UNL     1      -4.100   4.806  13.193  1.00  0.00    -0.344 N 
HETATM   15  C13 UNL     1      -4.522   3.427  13.202  1.00  0.00     0.179 C 
BRANCH  14  16
HETATM   16  C8  UNL     1      -4.533   5.804  12.259  1.00  0.00     0.077 A 
HETATM   17  C9  UNL     1      -5.683   6.554  12.286  1.00  0.00     0.074 A 
HETATM   18  C10 UNL     1      -5.863   7.433  11.286  1.00  0.00     0.081 A 
HETATM   19  C11 UNL     1      -4.891   7.507  10.326  1.00  0.00     0.014 A 
HETATM   20  C12 UNL     1      -4.843   8.391   9.117  1.00  0.00     0.059 C 
HETATM   21  S1  UNL     1      -3.756   6.352  10.845  1.00  0.00    -0.075 SA
BRANCH  18  22
HETATM   22  O2  UNL     1      -7.006   8.277  11.183  1.00  0.00    -0.360 OA
ATOM     23  H2  UNL     1      -7.307   8.651  10.364  1.00  0.00     0.217 HD
ENDBRANCH  18  22
ENDBRANCH  14  16
ENDBRANCH   4   8
ENDBRANCH   1   4
BRANCH   1  24
HETATM   24  C16 UNL     1      -6.163   0.862  17.145  1.00  0.00     0.192 C 
HETATM   25  O3  UNL     1      -7.234   0.480  16.649  1.00  0.00    -0.647 OA
HETATM   26  O4  UNL     1      -5.568   0.151  18.199  1.00  0.00    -0.647 OA
ENDBRANCH   1  24
TORSDOF 6
ENDMDL
MODEL 4
REMARK VINA RESULT: -7.028629254      2.094      3.248
REMARK  6 active torsions:
REMARK  status: ('A' for Active; 'I' for Inactive)
REMARK    1  A    between atoms: C2_2  and  C3_4 
REMARK    2  A    between atoms: C3_4  and  C4_5 
REMARK    3  A    between atoms: C3_4  and  C14_21 
REMARK    4  A    between atoms: N2_11  and  C8_12 
REMARK    5  A    between atoms: C10_14  and  O2_15 
REMARK    6  A    between atoms: C14_21  and  C16_24 
ROOT
HETATM    1  C14 UNL     1      -5.638   1.877  16.835  1.00  0.00     0.210 C 
HETATM    2  C15 UNL     1      -6.436   3.107  16.999  1.00  0.00     0.076 C 
HETATM    3  N3  UNL     1      -7.064   4.071  17.147  1.00  0.00    -0.196 NA
ENDROOT
BRANCH   1   4
HETATM    4  C3  UNL     1      -5.243   1.805  15.394  1.00  0.00     0.130 C 
BRANCH   4   5
HETATM    5  C2  UNL     1      -4.279   0.703  15.209  1.00  0.00     0.134 C 
HETATM    6  C1  UNL     1      -4.192  -0.153  14.000  1.00  0.00     0.091 C 
HETATM    7  O1  UNL     1      -3.454   0.423  16.095  1.00  0.00    -0.298 OA
ENDBRANCH   4   5
BRANCH   4   8
HETATM    8  C4  UNL     1      -4.645   3.080  14.905  1.00  0.00     0.015 C 
HETATM    9  N1  UNL     1      -5.259   4.102  14.439  1.00  0.00    -0.369 N 
HETATM   10  C5  UNL     1      -4.332   5.152  14.065  1.00  0.00     0.099 C 
ATOM     11  H1  UNL     1      -6.272   4.169  14.344  1.00  0.00     0.161 HD
HETATM   12  C6  UNL     1      -4.804   5.694  12.737  1.00  0.00     0.062 C 
HETATM   13  C7  UNL     1      -4.247   6.199  15.130  1.00  0.00     0.062 C 
HETATM   14  N2  UNL     1      -3.082   4.461  13.976  1.00  0.00    -0.344 N 
HETATM   15  C13 UNL     1      -3.193   3.359  14.899  1.00  0.00     0.179 C 
BRANCH  14  16
HETATM   16  C8  UNL     1      -1.938   4.757  13.164  1.00  0.00     0.077 A 
HETATM   17  C9  UNL     1      -1.179   5.901  13.146  1.00  0.00     0.074 A 
HETATM   18  C10 UNL     1      -0.147   5.937  12.287  1.00  0.00     0.081 A 
HETATM   19  C11 UNL     1       0.061   4.836  11.503  1.00  0.00     0.014 A 
HETATM   20  C12 UNL     1       1.127   4.615  10.472  1.00  0.00     0.059 C 
HETATM   21  S1  UNL     1      -1.185   3.784  11.985  1.00  0.00    -0.075 SA
BRANCH  18  22
HETATM   22  O2  UNL     1       0.725   7.056  12.159  1.00  0.00    -0.360 OA
ATOM     23  H2  UNL     1       1.466   7.075  11.565  1.00  0.00     0.217 HD
ENDBRANCH  18  22
ENDBRANCH  14  16
ENDBRANCH   4   8
ENDBRANCH   1   4
BRANCH   1  24
HETATM   24  C16 UNL     1      -6.571   0.724  17.096  1.00  0.00     0.192 C 
HETATM   25  O3  UNL     1      -7.793   0.767  16.889  1.00  0.00    -0.647 OA
HETATM   26  O4  UNL     1      -5.972  -0.442  17.601  1.00  0.00    -0.647 OA
ENDBRANCH   1  24
TORSDOF 6
ENDMDL
MODEL 5
REMARK VINA RESULT: -6.935375735      3.367      6.756
REMARK  6 active torsions:
REMARK  status: ('A' for Active; 'I' for Inactive)
REMARK    1  A    between atoms: C2_2  and  C3_4 
REMARK    2  A    between atoms: C3_4  and  C4_5 
REMARK    3  A    between atoms: C3_4  and  C14_21 
REMARK    4  A    between atoms: N2_11  and  C8_12 
REMARK    5  A    between atoms: C10_14  and  O2_15 
REMARK    6  A    between atoms: C14_21  and  C16_24 
ROOT
HETATM    1  C14 UNL     1      -4.023   6.317   9.841  1.00  0.00     0.210 C 
HETATM    2  C15 UNL     1      -4.042   4.844   9.922  1.00  0.00     0.076 C 
HETATM    3  N3  UNL     1      -4.045   3.685   9.972  1.00  0.00    -0.196 NA
ENDROOT
BRANCH   1   4
HETATM    4  C3  UNL     1      -4.854   6.825  10.977  1.00  0.00     0.130 C 
BRANCH   4   5
HETATM    5  C2  UNL     1      -4.841   8.301  10.966  1.00  0.00     0.134 C 
HETATM    6  C1  UNL     1      -6.039   9.157  10.785  1.00  0.00     0.091 C 
HETATM    7  O1  UNL     1      -3.780   8.930  11.115  1.00  0.00    -0.298 OA
ENDBRANCH   4   5
BRANCH   4   8
HETATM    8  C4  UNL     1      -4.371   6.330  12.298  1.00  0.00     0.015 C 
HETATM    9  N1  UNL     1      -3.177   6.368  12.758  1.00  0.00    -0.369 N 
HETATM   10  C5  UNL     1      -3.100   5.788  14.084  1.00  0.00     0.099 C 
ATOM     11  H1  UNL     1      -2.380   6.759  12.255  1.00  0.00     0.161 HD
HETATM   12  C6  UNL     1      -1.859   4.929  14.110  1.00  0.00     0.062 C 
HETATM   13  C7  UNL     1      -3.103   6.849  15.137  1.00  0.00     0.062 C 
HETATM   14  N2  UNL     1      -4.309   5.027  14.172  1.00  0.00    -0.344 N 
HETATM   15  C13 UNL     1      -5.247   5.707  13.313  1.00  0.00     0.179 C 
BRANCH  14  16
HETATM   16  C8  UNL     1      -4.581   3.842  14.932  1.00  0.00     0.077 A 
HETATM   17  C9  UNL     1      -3.717   2.831  15.273  1.00  0.00     0.074 A 
HETATM   18  C10 UNL     1      -4.217   1.817  15.998  1.00  0.00     0.081 A 
HETATM   19  C11 UNL     1      -5.541   1.874  16.335  1.00  0.00     0.014 A 
HETATM   20  C12 UNL     1      -6.343   0.887  17.128  1.00  0.00     0.059 C 
HETATM   21  S1  UNL     1      -6.050   3.337  15.633  1.00  0.00    -0.075 SA
BRANCH  18  22
HETATM   22  O2  UNL     1      -3.439   0.702  16.423  1.00  0.00    -0.360 OA
ATOM     23  H2  UNL     1      -2.538   0.774  16.714  1.00  0.00     0.217 HD
ENDBRANCH  18  22
ENDBRANCH  14  16
ENDBRANCH   4   8
ENDBRANCH   1   4
BRANCH   1  24
HETATM   24  C16 UNL     1      -4.741   6.685   8.569  1.00  0.00     0.192 C 
HETATM   25  O3  UNL     1      -4.205   7.286   7.626  1.00  0.00    -0.647 OA
HETATM   26  O4  UNL     1      -6.090   6.302   8.499  1.00  0.00    -0.647 OA
ENDBRANCH   1  24
TORSDOF 6
ENDMDL
