MODEL 1
REMARK VINA RESULT: -7.422407676      0.000      0.000
REMARK  5 active torsions:
REMARK  status: ('A' for Active; 'I' for Inactive)
REMARK    1  A    between atoms: N1_4  and  C4_5 
REMARK    2  A    between atoms: C4_5  and  C5_6 
REMARK    3  A    between atoms: C5_6  and  O1_7 
REMARK    4  A    between atoms: O1_7  and  N2_8 
REMARK    5  A    between atoms: C12_22  and  C14_24 
ROOT
HETATM    1  C5  UNL     1      -4.494   1.013  12.532  1.00  0.00     0.221 C 
ENDROOT
BRANCH   1   2
HETATM    2  C4  UNL     1      -4.047   1.718  11.293  1.00  0.00     0.148 C 
BRANCH   2   3
HETATM    3  N1  UNL     1      -3.198   2.842  11.455  1.00  0.00    -0.381 N 
HETATM    4  C3  UNL     1      -3.754   4.124  11.236  1.00  0.00     0.124 C 
HETATM    5  C2  UNL     1      -3.317   4.593   9.858  1.00  0.00     0.000 C 
HETATM    6  C1  UNL     1      -4.016   5.879   9.453  1.00  0.00     0.011 C 
HETATM    7  C17 UNL     1      -1.830   4.877   9.961  1.00  0.00     0.020 C 
HETATM    8  C12 UNL     1      -1.073   3.838  10.709  1.00  0.00     0.008 C 
HETATM    9  C11 UNL     1      -1.921   2.615  10.862  1.00  0.00     0.275 C 
HETATM   10  C13 UNL     1      -0.700   4.305  12.123  1.00  0.00     0.020 C 
HETATM   11  F1  UNL     1      -1.202   1.711  11.628  1.00  0.00    -0.226 F 
BRANCH   8  12
HETATM   12  C14 UNL     1       0.233   3.460  10.049  1.00  0.00    -0.010 C 
HETATM   13  C15 UNL     1       1.376   4.162  10.745  1.00  0.00     0.010 C 
HETATM   14  C16 UNL     1       0.295   3.775   8.593  1.00  0.00     0.010 C 
ENDBRANCH   8  12
ENDBRANCH   2   3
ENDBRANCH   1   2
BRANCH   1  15
HETATM   15  O1  UNL     1      -3.623   1.303  13.576  1.00  0.00    -0.272 OA
BRANCH  15  16
HETATM   16  N2  UNL     1      -4.268   1.543  14.760  1.00  0.00    -0.200 N 
HETATM   17  C6  UNL     1      -4.637   0.397  15.503  1.00  0.00     0.219 A 
HETATM   18  N3  UNL     1      -4.331  -0.907  14.972  1.00  0.00    -0.061 NA
HETATM   19  N4  UNL     1      -5.247   0.496  16.638  1.00  0.00    -0.303 N 
HETATM   20  C7  UNL     1      -5.536   1.802  17.114  1.00  0.00     0.192 A 
ATOM     21  H4  UNL     1      -5.510  -0.332  17.172  1.00  0.00     0.171 HD
HETATM   22  N5  UNL     1      -6.212   2.010  18.365  1.00  0.00    -0.063 NA
HETATM   23  N6  UNL     1      -5.225   2.861  16.475  1.00  0.00    -0.336 N 
HETATM   24  C8  UNL     1      -4.558   2.850  15.221  1.00  0.00     0.128 A 
ATOM     25  H6  UNL     1      -5.469   3.763  16.886  1.00  0.00     0.164 HD
HETATM   26  C9  UNL     1      -3.342   3.769  15.211  1.00  0.00     0.065 C 
HETATM   27  C10 UNL     1      -5.556   3.529  14.242  1.00  0.00     0.065 C 
ENDBRANCH  15  16
ENDBRANCH   1  15
TORSDOF 5
ENDMDL
MODEL 2
REMARK VINA RESULT: -7.203890415      2.805      4.658
REMARK  5 active torsions:
REMARK  status: ('A' for Active; 'I' for Inactive)
REMARK    1  A    between atoms: N1_4  and  C4_5 
REMARK    2  A    between atoms: C4_5  and  C5_6 
REMARK    3  A    between atoms: C5_6  and  O1_7 
REMARK    4  A    between atoms: O1_7  and  N2_8 
REMARK    5  A    between atoms: C12_22  and  C14_24 
ROOT
HETATM    1  C5  UNL     1      -3.479   3.905  11.414  1.00  0.00     0.221 C 
ENDROOT
BRANCH   1   2
HETATM    2  C4  UNL     1      -3.799   4.518  10.091  1.00  0.00     0.148 C 
BRANCH   2   3
HETATM    3  N1  UNL     1      -3.656   5.924   9.974  1.00  0.00    -0.381 N 
HETATM    4  C3  UNL     1      -2.597   6.538  10.683  1.00  0.00     0.124 C 
HETATM    5  C2  UNL     1      -3.180   7.182  11.929  1.00  0.00     0.000 C 
HETATM    6  C1  UNL     1      -2.096   7.707  12.853  1.00  0.00     0.011 C 
HETATM    7  C17 UNL     1      -4.003   8.363  11.449  1.00  0.00     0.020 C 
HETATM    8  C12 UNL     1      -4.842   8.062  10.258  1.00  0.00     0.008 C 
HETATM    9  C11 UNL     1      -4.918   6.582  10.061  1.00  0.00     0.275 C 
HETATM   10  C13 UNL     1      -4.251   8.657   8.973  1.00  0.00     0.020 C 
HETATM   11  F1  UNL     1      -5.644   6.359   8.901  1.00  0.00    -0.226 F 
BRANCH   8  12
HETATM   12  C14 UNL     1      -6.242   8.624  10.359  1.00  0.00    -0.010 C 
HETATM   13  C15 UNL     1      -6.176  10.118  10.577  1.00  0.00     0.010 C 
HETATM   14  C16 UNL     1      -7.067   8.020  11.444  1.00  0.00     0.010 C 
ENDBRANCH   8  12
ENDBRANCH   2   3
ENDBRANCH   1   2
BRANCH   1  15
HETATM   15  O1  UNL     1      -4.647   3.738  12.148  1.00  0.00    -0.272 OA
BRANCH  15  16
HETATM   16  N2  UNL     1      -4.472   2.963  13.263  1.00  0.00    -0.200 N 
HETATM   17  C6  UNL     1      -4.499   1.564  13.051  1.00  0.00     0.219 A 
HETATM   18  N3  UNL     1      -4.717   1.066  11.717  1.00  0.00    -0.061 NA
HETATM   19  N4  UNL     1      -4.341   0.731  14.026  1.00  0.00    -0.303 N 
HETATM   20  C7  UNL     1      -4.142   1.271  15.324  1.00  0.00     0.192 A 
ATOM     21  H4  UNL     1      -4.360  -0.277  13.869  1.00  0.00     0.171 HD
HETATM   22  N5  UNL     1      -3.958   0.422  16.468  1.00  0.00    -0.063 NA
HETATM   23  N6  UNL     1      -4.114   2.524  15.560  1.00  0.00    -0.336 N 
HETATM   24  C8  UNL     1      -4.281   3.513  14.555  1.00  0.00     0.128 A 
ATOM     25  H6  UNL     1      -3.965   2.832  16.522  1.00  0.00     0.164 HD
HETATM   26  C9  UNL     1      -3.179   4.566  14.597  1.00  0.00     0.065 C 
HETATM   27  C10 UNL     1      -5.561   4.286  14.976  1.00  0.00     0.065 C 
ENDBRANCH  15  16
ENDBRANCH   1  15
TORSDOF 5
ENDMDL
MODEL 3
REMARK VINA RESULT: -7.072726633      3.210      5.077
REMARK  5 active torsions:
REMARK  status: ('A' for Active; 'I' for Inactive)
REMARK    1  A    between atoms: N1_4  and  C4_5 
REMARK    2  A    between atoms: C4_5  and  C5_6 
REMARK    3  A    between atoms: C5_6  and  O1_7 
REMARK    4  A    between atoms: O1_7  and  N2_8 
REMARK    5  A    between atoms: C12_22  and  C14_24 
ROOT
HETATM    1  C5  UNL     1      -3.914   4.246  10.929  1.00  0.00     0.221 C 
ENDROOT
BRANCH   1   2
HETATM    2  C4  UNL     1      -3.945   5.488  10.101  1.00  0.00     0.148 C 
BRANCH   2   3
HETATM    3  N1  UNL     1      -5.081   6.326  10.228  1.00  0.00    -0.381 N 
HETATM    4  C3  UNL     1      -6.108   6.195   9.264  1.00  0.00     0.124 C 
HETATM    5  C2  UNL     1      -5.969   7.339   8.274  1.00  0.00     0.000 C 
HETATM    6  C1  UNL     1      -6.910   7.181   7.094  1.00  0.00     0.011 C 
HETATM    7  C17 UNL     1      -6.363   8.597   9.026  1.00  0.00     0.020 C 
HETATM    8  C12 UNL     1      -5.795   8.677  10.398  1.00  0.00     0.008 C 
HETATM    9  C11 UNL     1      -4.705   7.664  10.547  1.00  0.00     0.275 C 
HETATM   10  C13 UNL     1      -6.845   8.367  11.474  1.00  0.00     0.020 C 
HETATM   11  F1  UNL     1      -4.263   7.727  11.860  1.00  0.00    -0.226 F 
BRANCH   8  12
HETATM   12  C14 UNL     1      -5.254  10.046  10.741  1.00  0.00    -0.010 C 
HETATM   13  C15 UNL     1      -6.258  11.103  10.343  1.00  0.00     0.010 C 
HETATM   14  C16 UNL     1      -3.946  10.365  10.101  1.00  0.00     0.010 C 
ENDBRANCH   8  12
ENDBRANCH   2   3
ENDBRANCH   1   2
BRANCH   1  15
HETATM   15  O1  UNL     1      -4.796   4.372  11.996  1.00  0.00    -0.272 OA
BRANCH  15  16
HETATM   16  N2  UNL     1      -4.431   3.623  13.083  1.00  0.00    -0.200 N 
HETATM   17  C6  UNL     1      -4.757   2.248  13.021  1.00  0.00     0.219 A 
HETATM   18  N3  UNL     1      -5.443   1.746  11.858  1.00  0.00    -0.061 NA
HETATM   19  N4  UNL     1      -4.459   1.439  13.984  1.00  0.00    -0.303 N 
HETATM   20  C7  UNL     1      -3.793   1.983  15.113  1.00  0.00     0.192 A 
ATOM     21  H4  UNL     1      -4.694   0.448  13.935  1.00  0.00     0.171 HD
HETATM   22  N5  UNL     1      -3.423   1.161  16.232  1.00  0.00    -0.063 NA
HETATM   23  N6  UNL     1      -3.484   3.217  15.213  1.00  0.00    -0.336 N 
HETATM   24  C8  UNL     1      -3.772   4.178  14.208  1.00  0.00     0.128 A 
ATOM     25  H6  UNL     1      -3.005   3.529  16.058  1.00  0.00     0.164 HD
HETATM   26  C9  UNL     1      -2.546   5.003  13.834  1.00  0.00     0.065 C 
HETATM   27  C10 UNL     1      -4.718   5.197  14.903  1.00  0.00     0.065 C 
ENDBRANCH  15  16
ENDBRANCH   1  15
TORSDOF 5
ENDMDL
MODEL 4
REMARK VINA RESULT: -7.032681609      3.110      5.090
REMARK  5 active torsions:
REMARK  status: ('A' for Active; 'I' for Inactive)
REMARK    1  A    between atoms: N1_4  and  C4_5 
REMARK    2  A    between atoms: C4_5  and  C5_6 
REMARK    3  A    between atoms: C5_6  and  O1_7 
REMARK    4  A    between atoms: O1_7  and  N2_8 
REMARK    5  A    between atoms: C12_22  and  C14_24 
ROOT
HETATM    1  C5  UNL     1      -3.848   4.788  11.651  1.00  0.00     0.221 C 
ENDROOT
BRANCH   1   2
HETATM    2  C4  UNL     1      -4.163   5.214  10.255  1.00  0.00     0.148 C 
BRANCH   2   3
HETATM    3  N1  UNL     1      -4.536   6.567  10.057  1.00  0.00    -0.381 N 
HETATM    4  C3  UNL     1      -5.205   7.227  11.114  1.00  0.00     0.124 C 
HETATM    5  C2  UNL     1      -6.686   7.268  10.777  1.00  0.00     0.000 C 
HETATM    6  C1  UNL     1      -7.514   7.791  11.938  1.00  0.00     0.011 C 
HETATM    7  C17 UNL     1      -6.829   8.240   9.621  1.00  0.00     0.020 C 
HETATM    8  C12 UNL     1      -5.792   8.073   8.568  1.00  0.00     0.008 C 
HETATM    9  C11 UNL     1      -5.092   6.765   8.758  1.00  0.00     0.275 C 
HETATM   10  C13 UNL     1      -4.720   9.170   8.637  1.00  0.00     0.020 C 
HETATM   11  F1  UNL     1      -4.090   6.694   7.803  1.00  0.00    -0.226 F 
BRANCH   8  12
HETATM   12  C14 UNL     1      -6.351   8.140   7.165  1.00  0.00    -0.010 C 
HETATM   13  C15 UNL     1      -5.685   9.264   6.406  1.00  0.00     0.010 C 
HETATM   14  C16 UNL     1      -7.828   8.332   7.103  1.00  0.00     0.010 C 
ENDBRANCH   8  12
ENDBRANCH   2   3
ENDBRANCH   1   2
BRANCH   1  15
HETATM   15  O1  UNL     1      -4.941   4.125  12.197  1.00  0.00    -0.272 OA
BRANCH  15  16
HETATM   16  N2  UNL     1      -4.613   3.352  13.278  1.00  0.00    -0.200 N 
HETATM   17  C6  UNL     1      -4.265   2.010  12.993  1.00  0.00     0.219 A 
HETATM   18  N3  UNL     1      -4.293   1.559  11.625  1.00  0.00    -0.061 NA
HETATM   19  N4  UNL     1      -3.932   1.185  13.930  1.00  0.00    -0.303 N 
HETATM   20  C7  UNL     1      -3.931   1.674  15.262  1.00  0.00     0.192 A 
ATOM     21  H4  UNL     1      -3.680   0.220  13.720  1.00  0.00     0.171 HD
HETATM   22  N5  UNL     1      -3.575   0.830  16.370  1.00  0.00    -0.063 NA
HETATM   23  N6  UNL     1      -4.241   2.874  15.565  1.00  0.00    -0.336 N 
HETATM   24  C8  UNL     1      -4.622   3.849  14.605  1.00  0.00     0.128 A 
ATOM     25  H6  UNL     1      -4.215   3.147  16.548  1.00  0.00     0.164 HD
HETATM   26  C9  UNL     1      -3.836   5.145  14.761  1.00  0.00     0.065 C 
HETATM   27  C10 UNL     1      -6.075   4.235  14.996  1.00  0.00     0.065 C 
ENDBRANCH  15  16
ENDBRANCH   1  15
TORSDOF 5
ENDMDL
MODEL 5
REMARK VINA RESULT: -7.022022396      3.412      5.607
REMARK  5 active torsions:
REMARK  status: ('A' for Active; 'I' for Inactive)
REMARK    1  A    between atoms: N1_4  and  C4_5 
REMARK    2  A    between atoms: C4_5  and  C5_6 
REMARK    3  A    between atoms: C5_6  and  O1_7 
REMARK    4  A    between atoms: O1_7  and  N2_8 
REMARK    5  A    between atoms: C12_22  and  C14_24 
ROOT
HETATM    1  C5  UNL     1      -4.113   5.320  11.906  1.00  0.00     0.221 C 
ENDROOT
BRANCH   1   2
HETATM    2  C4  UNL     1      -4.604   6.617  11.353  1.00  0.00     0.148 C 
BRANCH   2   3
HETATM    3  N1  UNL     1      -5.322   6.572  10.131  1.00  0.00    -0.381 N 
HETATM    4  C3  UNL     1      -4.591   6.314   8.947  1.00  0.00     0.124 C 
HETATM    5  C2  UNL     1      -4.387   7.635   8.226  1.00  0.00     0.000 C 
HETATM    6  C1  UNL     1      -3.452   7.492   7.039  1.00  0.00     0.011 C 
HETATM    7  C17 UNL     1      -5.751   8.047   7.705  1.00  0.00     0.020 C 
HETATM    8  C12 UNL     1      -6.851   7.854   8.687  1.00  0.00     0.008 C 
HETATM    9  C11 UNL     1      -6.271   7.633  10.048  1.00  0.00     0.275 C 
HETATM   10  C13 UNL     1      -7.707   6.622   8.359  1.00  0.00     0.020 C 
HETATM   11  F1  UNL     1      -7.329   7.384  10.910  1.00  0.00    -0.226 F 
BRANCH   8  12
HETATM   12  C14 UNL     1      -7.815   9.016   8.739  1.00  0.00    -0.010 C 
HETATM   13  C15 UNL     1      -8.905   8.818   7.711  1.00  0.00     0.010 C 
HETATM   14  C16 UNL     1      -7.182  10.347   8.512  1.00  0.00     0.010 C 
ENDBRANCH   8  12
ENDBRANCH   2   3
ENDBRANCH   1   2
BRANCH   1  15
HETATM   15  O1  UNL     1      -5.177   4.607  12.446  1.00  0.00    -0.272 OA
BRANCH  15  16
HETATM   16  N2  UNL     1      -4.791   3.722  13.416  1.00  0.00    -0.200 N 
HETATM   17  C6  UNL     1      -4.691   2.369  13.011  1.00  0.00     0.219 A 
HETATM   18  N3  UNL     1      -5.008   2.025  11.648  1.00  0.00    -0.061 NA
HETATM   19  N4  UNL     1      -4.332   1.442  13.836  1.00  0.00    -0.303 N 
HETATM   20  C7  UNL     1      -4.042   1.830  15.170  1.00  0.00     0.192 A 
ATOM     21  H4  UNL     1      -4.260   0.469  13.540  1.00  0.00     0.171 HD
HETATM   22  N5  UNL     1      -3.636   0.869  16.158  1.00  0.00    -0.063 NA
HETATM   23  N6  UNL     1      -4.123   3.036  15.579  1.00  0.00    -0.336 N 
HETATM   24  C8  UNL     1      -4.511   4.119  14.747  1.00  0.00     0.128 A 
ATOM     25  H6  UNL     1      -3.897   3.232  16.555  1.00  0.00     0.164 HD
HETATM   26  C9  UNL     1      -3.532   5.284  14.827  1.00  0.00     0.065 C 
HETATM   27  C10 UNL     1      -5.810   4.667  15.400  1.00  0.00     0.065 C 
ENDBRANCH  15  16
ENDBRANCH   1  15
TORSDOF 5
ENDMDL
