MODEL 1
REMARK VINA RESULT: -6.653447106      0.000      0.000
REMARK  6 active torsions:
REMARK  status: ('A' for Active; 'I' for Inactive)
REMARK    1  A    between atoms: C2_2  and  C3_3 
REMARK    2  A    between atoms: C2_2  and  C12_22 
REMARK    3  A    between atoms: C3_3  and  C4_4 
REMARK    4  A    between atoms: C4_4  and  O1_5 
REMARK    5  A    between atoms: C4_4  and  C5_7 
REMARK    6  A    between atoms: C7_11  and  N2_12 
ROOT
HETATM    1  N2  UNL     1       0.114   3.663  10.514  1.00  0.00    -0.301 N 
HETATM    2  C8  UNL     1       1.078   4.101  11.499  1.00  0.00     0.162 C 
HETATM    3  C9  UNL     1       2.361   4.491  10.810  1.00  0.00     0.221 C 
HETATM    4  O2  UNL     1       2.495   3.681   9.657  1.00  0.00    -0.277 OA
HETATM    5  N3  UNL     1       1.546   3.919   8.662  1.00  0.00    -0.241 N 
ATOM      6  H3  UNL     1       1.786   4.083   7.685  1.00  0.00     0.196 HD
HETATM    7  C10 UNL     1       0.324   3.908   9.107  1.00  0.00     0.212 C 
HETATM    8  C11 UNL     1      -0.819   4.129   8.274  1.00  0.00     0.139 C 
HETATM    9  N4  UNL     1      -1.739   4.326   7.590  1.00  0.00    -0.188 NA
ENDROOT
BRANCH   1  10
HETATM   10  C7  UNL     1      -1.062   2.979  10.933  1.00  0.00     0.153 A 
HETATM   11  N1  UNL     1      -1.203   1.666  10.960  1.00  0.00    -0.345 N 
HETATM   12  C6  UNL     1      -2.316   1.142  11.358  1.00  0.00     0.107 A 
ATOM     13  H1  UNL     1      -0.433   1.065  10.666  1.00  0.00     0.167 HD
HETATM   14  C5  UNL     1      -3.329   1.975  11.745  1.00  0.00     0.030 A 
HETATM   15  S1  UNL     1      -2.577   3.517  11.498  1.00  0.00    -0.054 SA
BRANCH  14  16
HETATM   16  C4  UNL     1      -4.706   1.698  12.256  1.00  0.00     0.160 C 
BRANCH  16  17
HETATM   17  C3  UNL     1      -5.059   2.405  13.504  1.00  0.00     0.048 C 
BRANCH  17  18
HETATM   18  C2  UNL     1      -4.067   2.112  14.604  1.00  0.00     0.041 C 
HETATM   19  C1  UNL     1      -3.636   3.404  15.235  1.00  0.00     0.017 C 
BRANCH  18  20
HETATM   20  C12 UNL     1      -4.744   1.179  15.541  1.00  0.00     0.054 C 
HETATM   21  N5  UNL     1      -4.382  -0.015  15.650  1.00  0.00    -0.396 N 
ATOM     22  H52 UNL     1      -3.615  -0.357  15.071  1.00  0.00     0.156 HD
ATOM     23  H51 UNL     1      -4.847  -0.655  16.293  1.00  0.00     0.156 HD
HETATM   24 BR1  UNL     1      -6.180   1.818  16.623  1.00  0.00    -0.036 Br
ENDBRANCH  18  20
ENDBRANCH  17  18
ENDBRANCH  16  17
BRANCH  16  25
HETATM   25  O1  UNL     1      -5.591   1.834  11.212  1.00  0.00    -0.390 OA
ATOM     26  H1  UNL     1      -5.993   1.033  10.897  1.00  0.00     0.210 HD
ENDBRANCH  16  25
ENDBRANCH  14  16
ENDBRANCH   1  10
TORSDOF 6
ENDMDL
MODEL 2
REMARK VINA RESULT: -6.464029109      1.155      1.192
REMARK  6 active torsions:
REMARK  status: ('A' for Active; 'I' for Inactive)
REMARK    1  A    between atoms: C2_2  and  C3_3 
REMARK    2  A    between atoms: C2_2  and  C12_22 
REMARK    3  A    between atoms: C3_3  and  C4_4 
REMARK    4  A    between atoms: C4_4  and  O1_5 
REMARK    5  A    between atoms: C4_4  and  C5_7 
REMARK    6  A    between atoms: C7_11  and  N2_12 
ROOT
HETATM    1  N2  UNL     1       0.057   3.605  10.300  1.00  0.00    -0.301 N 
HETATM    2  C8  UNL     1       1.201   3.920  11.127  1.00  0.00     0.162 C 
HETATM    3  C9  UNL     1       2.378   4.260  10.248  1.00  0.00     0.221 C 
HETATM    4  O2  UNL     1       2.258   3.509   9.054  1.00  0.00    -0.277 OA
HETATM    5  N3  UNL     1       1.177   3.867   8.246  1.00  0.00    -0.241 N 
ATOM      6  H3  UNL     1       1.264   4.070   7.251  1.00  0.00     0.196 HD
HETATM    7  C10 UNL     1       0.048   3.914   8.890  1.00  0.00     0.212 C 
HETATM    8  C11 UNL     1      -1.196   4.259   8.273  1.00  0.00     0.139 C 
HETATM    9  N4  UNL     1      -2.199   4.557   7.765  1.00  0.00    -0.188 NA
ENDROOT
BRANCH   1  10
HETATM   10  C7  UNL     1      -1.082   2.979  10.882  1.00  0.00     0.153 A 
HETATM   11  N1  UNL     1      -1.327   1.682  10.856  1.00  0.00    -0.345 N 
HETATM   12  C6  UNL     1      -2.395   1.213  11.415  1.00  0.00     0.107 A 
ATOM     13  H1  UNL     1      -0.674   1.049  10.395  1.00  0.00     0.167 HD
HETATM   14  C5  UNL     1      -3.250   2.087  12.026  1.00  0.00     0.030 A 
HETATM   15  S1  UNL     1      -2.425   3.584  11.739  1.00  0.00    -0.054 SA
BRANCH  14  16
HETATM   16  C4  UNL     1      -4.537   1.875  12.757  1.00  0.00     0.160 C 
BRANCH  16  17
HETATM   17  C3  UNL     1      -4.708   2.705  13.967  1.00  0.00     0.048 C 
BRANCH  17  18
HETATM   18  C2  UNL     1      -4.918   1.854  15.195  1.00  0.00     0.041 C 
HETATM   19  C1  UNL     1      -3.646   1.815  15.992  1.00  0.00     0.017 C 
BRANCH  18  20
HETATM   20  C12 UNL     1      -6.068   2.448  15.925  1.00  0.00     0.054 C 
HETATM   21  N5  UNL     1      -6.372   3.655  15.793  1.00  0.00    -0.396 N 
ATOM     22  H52 UNL     1      -5.808   4.246  15.182  1.00  0.00     0.156 HD
ATOM     23  H51 UNL     1      -7.161   4.063  16.294  1.00  0.00     0.156 HD
HETATM   24 BR1  UNL     1      -7.123   1.343  17.068  1.00  0.00    -0.036 Br
ENDBRANCH  18  20
ENDBRANCH  17  18
ENDBRANCH  16  17
BRANCH  16  25
HETATM   25  O1  UNL     1      -5.566   1.915  11.845  1.00  0.00    -0.390 OA
ATOM     26  H1  UNL     1      -5.551   1.248  11.168  1.00  0.00     0.210 HD
ENDBRANCH  16  25
ENDBRANCH  14  16
ENDBRANCH   1  10
TORSDOF 6
ENDMDL
MODEL 3
REMARK VINA RESULT: -6.354503774      1.498      1.664
REMARK  6 active torsions:
REMARK  status: ('A' for Active; 'I' for Inactive)
REMARK    1  A    between atoms: C2_2  and  C3_3 
REMARK    2  A    between atoms: C2_2  and  C12_22 
REMARK    3  A    between atoms: C3_3  and  C4_4 
REMARK    4  A    between atoms: C4_4  and  O1_5 
REMARK    5  A    between atoms: C4_4  and  C5_7 
REMARK    6  A    between atoms: C7_11  and  N2_12 
ROOT
HETATM    1  N2  UNL     1      -0.010   3.467  10.145  1.00  0.00    -0.301 N 
HETATM    2  C8  UNL     1       1.182   3.729  10.920  1.00  0.00     0.162 C 
HETATM    3  C9  UNL     1       2.293   4.170  10.002  1.00  0.00     0.221 C 
HETATM    4  O2  UNL     1       2.104   3.528   8.755  1.00  0.00    -0.277 OA
HETATM    5  N3  UNL     1       0.967   3.935   8.055  1.00  0.00    -0.241 N 
ATOM      6  H3  UNL     1       0.984   4.228   7.078  1.00  0.00     0.196 HD
HETATM    7  C10 UNL     1      -0.117   3.902   8.773  1.00  0.00     0.212 C 
HETATM    8  C11 UNL     1      -1.404   4.275   8.272  1.00  0.00     0.139 C 
HETATM    9  N4  UNL     1      -2.443   4.597   7.859  1.00  0.00    -0.188 NA
ENDROOT
BRANCH   1  10
HETATM   10  C7  UNL     1      -1.099   2.769  10.740  1.00  0.00     0.153 A 
HETATM   11  N1  UNL     1      -1.223   1.454  10.779  1.00  0.00    -0.345 N 
HETATM   12  C6  UNL     1      -2.254   0.917  11.344  1.00  0.00     0.107 A 
ATOM     13  H1  UNL     1      -0.505   0.862  10.362  1.00  0.00     0.167 HD
HETATM   14  C5  UNL     1      -3.200   1.738  11.894  1.00  0.00     0.030 A 
HETATM   15  S1  UNL     1      -2.509   3.288  11.542  1.00  0.00    -0.054 SA
BRANCH  14  16
HETATM   16  C4  UNL     1      -4.476   1.445  12.615  1.00  0.00     0.160 C 
BRANCH  16  17
HETATM   17  C3  UNL     1      -4.391   1.528  14.087  1.00  0.00     0.048 C 
BRANCH  17  18
HETATM   18  C2  UNL     1      -4.964   2.827  14.599  1.00  0.00     0.041 C 
HETATM   19  C1  UNL     1      -5.894   2.539  15.742  1.00  0.00     0.017 C 
BRANCH  18  20
HETATM   20  C12 UNL     1      -3.804   3.681  14.966  1.00  0.00     0.054 C 
HETATM   21  N5  UNL     1      -2.752   3.188  15.433  1.00  0.00    -0.396 N 
ATOM     22  H52 UNL     1      -2.697   2.180  15.577  1.00  0.00     0.156 HD
ATOM     23  H51 UNL     1      -1.956   3.773  15.684  1.00  0.00     0.156 HD
HETATM   24 BR1  UNL     1      -3.908   5.567  14.697  1.00  0.00    -0.036 Br
ENDBRANCH  18  20
ENDBRANCH  17  18
ENDBRANCH  16  17
BRANCH  16  25
HETATM   25  O1  UNL     1      -5.484   2.172  12.024  1.00  0.00    -0.390 OA
ATOM     26  H1  UNL     1      -5.312   3.097  11.894  1.00  0.00     0.210 HD
ENDBRANCH  16  25
ENDBRANCH  14  16
ENDBRANCH   1  10
TORSDOF 6
ENDMDL
MODEL 4
REMARK VINA RESULT: -6.353253583      3.346      7.533
REMARK  6 active torsions:
REMARK  status: ('A' for Active; 'I' for Inactive)
REMARK    1  A    between atoms: C2_2  and  C3_3 
REMARK    2  A    between atoms: C2_2  and  C12_22 
REMARK    3  A    between atoms: C3_3  and  C4_4 
REMARK    4  A    between atoms: C4_4  and  O1_5 
REMARK    5  A    between atoms: C4_4  and  C5_7 
REMARK    6  A    between atoms: C7_11  and  N2_12 
ROOT
HETATM    1  N2  UNL     1      -5.954   2.363  15.864  1.00  0.00    -0.301 N 
HETATM    2  C8  UNL     1      -7.295   2.437  16.400  1.00  0.00     0.162 C 
HETATM    3  C9  UNL     1      -7.565   1.224  17.252  1.00  0.00     0.221 C 
HETATM    4  O2  UNL     1      -6.825   0.144  16.714  1.00  0.00    -0.277 OA
HETATM    5  N3  UNL     1      -5.439   0.275  16.821  1.00  0.00    -0.241 N 
ATOM      6  H3  UNL     1      -4.835  -0.452  17.204  1.00  0.00     0.196 HD
HETATM    7  C10 UNL     1      -4.996   1.416  16.383  1.00  0.00     0.212 C 
HETATM    8  C11 UNL     1      -3.612   1.779  16.392  1.00  0.00     0.139 C 
HETATM    9  N4  UNL     1      -2.485   2.070  16.420  1.00  0.00    -0.188 NA
ENDROOT
BRANCH   1  10
HETATM   10  C7  UNL     1      -5.567   3.237  14.809  1.00  0.00     0.153 A 
HETATM   11  N1  UNL     1      -5.763   4.543  14.799  1.00  0.00    -0.345 N 
HETATM   12  C6  UNL     1      -5.374   5.249  13.788  1.00  0.00     0.107 A 
ATOM     13  H1  UNL     1      -6.223   4.995  15.589  1.00  0.00     0.167 HD
HETATM   14  C5  UNL     1      -4.761   4.612  12.744  1.00  0.00     0.030 A 
HETATM   15  S1  UNL     1      -4.791   2.976  13.314  1.00  0.00    -0.054 SA
BRANCH  14  16
HETATM   16  C4  UNL     1      -4.195   5.125  11.459  1.00  0.00     0.160 C 
BRANCH  16  17
HETATM   17  C3  UNL     1      -2.720   5.100  11.376  1.00  0.00     0.048 C 
BRANCH  17  18
HETATM   18  C2  UNL     1      -2.237   3.968  10.501  1.00  0.00     0.041 C 
HETATM   19  C1  UNL     1      -1.382   4.526   9.401  1.00  0.00     0.017 C 
BRANCH  18  20
HETATM   20  C12 UNL     1      -1.524   3.021  11.398  1.00  0.00     0.054 C 
HETATM   21  N5  UNL     1      -0.784   3.429  12.322  1.00  0.00    -0.396 N 
ATOM     22  H52 UNL     1      -0.657   4.432  12.453  1.00  0.00     0.156 HD
ATOM     23  H51 UNL     1      -0.295   2.779  12.938  1.00  0.00     0.156 HD
HETATM   24 BR1  UNL     1      -1.760   1.144  11.155  1.00  0.00    -0.036 Br
ENDBRANCH  18  20
ENDBRANCH  17  18
ENDBRANCH  16  17
BRANCH  16  25
HETATM   25  O1  UNL     1      -4.870   4.529  10.419  1.00  0.00    -0.390 OA
ATOM     26  H1  UNL     1      -5.141   3.629  10.557  1.00  0.00     0.210 HD
ENDBRANCH  16  25
ENDBRANCH  14  16
ENDBRANCH   1  10
TORSDOF 6
ENDMDL
MODEL 5
REMARK VINA RESULT: -6.352658584      3.015      3.857
REMARK  6 active torsions:
REMARK  status: ('A' for Active; 'I' for Inactive)
REMARK    1  A    between atoms: C2_2  and  C3_3 
REMARK    2  A    between atoms: C2_2  and  C12_22 
REMARK    3  A    between atoms: C3_3  and  C4_4 
REMARK    4  A    between atoms: C4_4  and  O1_5 
REMARK    5  A    between atoms: C4_4  and  C5_7 
REMARK    6  A    between atoms: C7_11  and  N2_12 
ROOT
HETATM    1  N2  UNL     1      -2.823   3.767  10.887  1.00  0.00    -0.301 N 
HETATM    2  C8  UNL     1      -1.479   3.614  10.375  1.00  0.00     0.162 C 
HETATM    3  C9  UNL     1      -1.336   4.396   9.094  1.00  0.00     0.221 C 
HETATM    4  O2  UNL     1      -2.595   4.398   8.447  1.00  0.00    -0.277 OA
HETATM    5  N3  UNL     1      -3.594   5.110   9.114  1.00  0.00    -0.241 N 
ATOM      6  H3  UNL     1      -4.176   5.816   8.663  1.00  0.00     0.196 HD
HETATM    7  C10 UNL     1      -3.707   4.783  10.367  1.00  0.00     0.212 C 
HETATM    8  C11 UNL     1      -4.661   5.378  11.253  1.00  0.00     0.139 C 
HETATM    9  N4  UNL     1      -5.428   5.881  11.968  1.00  0.00    -0.188 NA
ENDROOT
BRANCH   1  10
HETATM   10  C7  UNL     1      -3.286   2.904  11.920  1.00  0.00     0.153 A 
HETATM   11  N1  UNL     1      -4.090   1.871  11.738  1.00  0.00    -0.345 N 
HETATM   12  C6  UNL     1      -4.454   1.149  12.747  1.00  0.00     0.107 A 
ATOM     13  H1  UNL     1      -4.423   1.644  10.802  1.00  0.00     0.167 HD
HETATM   14  C5  UNL     1      -3.989   1.480  13.989  1.00  0.00     0.030 A 
HETATM   15  S1  UNL     1      -3.022   2.865  13.603  1.00  0.00    -0.054 SA
BRANCH  14  16
HETATM   16  C4  UNL     1      -4.206   0.858  15.332  1.00  0.00     0.160 C 
BRANCH  16  17
HETATM   17  C3  UNL     1      -4.781   1.762  16.349  1.00  0.00     0.048 C 
BRANCH  17  18
HETATM   18  C2  UNL     1      -6.267   1.937  16.154  1.00  0.00     0.041 C 
HETATM   19  C1  UNL     1      -6.999   1.009  17.079  1.00  0.00     0.017 C 
BRANCH  18  20
HETATM   20  C12 UNL     1      -6.554   3.376  16.392  1.00  0.00     0.054 C 
HETATM   21  N5  UNL     1      -7.141   3.762  17.428  1.00  0.00    -0.396 N 
ATOM     22  H52 UNL     1      -7.441   3.072  18.116  1.00  0.00     0.156 HD
ATOM     23  H51 UNL     1      -7.338   4.750  17.592  1.00  0.00     0.156 HD
HETATM   24 BR1  UNL     1      -5.993   4.667  15.105  1.00  0.00    -0.036 Br
ENDBRANCH  18  20
ENDBRANCH  17  18
ENDBRANCH  16  17
BRANCH  16  25
HETATM   25  O1  UNL     1      -4.853  -0.343  15.154  1.00  0.00    -0.390 OA
ATOM     26  H1  UNL     1      -5.537  -0.355  14.495  1.00  0.00     0.210 HD
ENDBRANCH  16  25
ENDBRANCH  14  16
ENDBRANCH   1  10
TORSDOF 6
ENDMDL
