MODEL 1
REMARK VINA RESULT: -7.028387895      0.000      0.000
REMARK  7 active torsions:
REMARK  status: ('A' for Active; 'I' for Inactive)
REMARK    1  A    between atoms: C2_2  and  O1_4 
REMARK    2  A    between atoms: C2_2  and  C4_6 
REMARK    3  A    between atoms: C4_6  and  N1_7 
REMARK    4  A    between atoms: N1_7  and  C5_9 
REMARK    5  A    between atoms: C6_14  and  C7_15 
REMARK    6  A    between atoms: C8_18  and  C9_19 
REMARK    7  A    between atoms: C14_25  and  C15_26 
ROOT
HETATM    1  C5  UNL     1      -4.353   0.665  14.144  1.00  0.00     0.161 A 
HETATM    2  N2  UNL     1      -4.111   0.027  12.997  1.00  0.00    -0.279 N 
ATOM      3  H2  UNL     1      -4.005  -0.982  12.884  1.00  0.00     0.189 HD
HETATM    4  N3  UNL     1      -4.036   0.882  12.081  1.00  0.00    -0.288 N 
ATOM      5  H3  UNL     1      -3.839   0.325  11.249  1.00  0.00     0.188 HD
HETATM    6  C6  UNL     1      -4.071   1.916  11.697  1.00  0.00     0.144 A 
HETATM    7  S1  UNL     1      -4.416   2.293  13.671  1.00  0.00    -0.029 SA
ENDROOT
BRANCH   6   8
HETATM    8  C7  UNL     1      -4.122   3.346  11.191  1.00  0.00     0.184 A 
HETATM    9  N4  UNL     1      -2.988   4.101  11.461  1.00  0.00    -0.335 N 
HETATM   10  C8  UNL     1      -3.244   5.355  10.976  1.00  0.00     0.048 A 
ATOM     11  H4  UNL     1      -2.137   3.785  11.926  1.00  0.00     0.168 HD
HETATM   12  C14 UNL     1      -4.515   5.290  10.412  1.00  0.00     0.106 A 
HETATM   13  O3  UNL     1      -4.924   4.065  10.605  1.00  0.00    -0.291 OA
BRANCH  10  14
HETATM   14  C9  UNL     1      -2.486   6.518  11.348  1.00  0.00     0.042 C 
HETATM   15  C10 UNL     1      -1.064   6.354  11.754  1.00  0.00     0.037 C 
HETATM   16  C11 UNL     1      -0.548   7.525  12.583  1.00  0.00     0.168 C 
HETATM   17  O2  UNL     1      -1.159   7.571  13.817  1.00  0.00    -0.391 OA
HETATM   18  C12 UNL     1      -2.274   6.725  13.853  1.00  0.00     0.168 C 
HETATM   19  C13 UNL     1      -3.153   7.053  12.703  1.00  0.00     0.037 C 
ENDBRANCH  10  14
BRANCH  12  20
HETATM   20  C15 UNL     1      -5.203   6.382   9.743  1.00  0.00     0.289 C 
HETATM   21  F1  UNL     1      -6.564   6.413   9.871  1.00  0.00    -0.248 F 
ENDBRANCH  12  20
ENDBRANCH   6   8
BRANCH   1  22
HETATM   22  N1  UNL     1      -4.445   0.167  15.376  1.00  0.00    -0.366 N 
ATOM     23  H1  UNL     1      -4.347  -0.831  15.562  1.00  0.00     0.161 HD
BRANCH  22  24
HETATM   24  C4  UNL     1      -4.686   1.100  16.411  1.00  0.00     0.158 C 
BRANCH  24  25
HETATM   25  C2  UNL     1      -6.045   1.309  16.921  1.00  0.00     0.066 C 
HETATM   26  C1  UNL     1      -6.751   2.580  16.467  1.00  0.00     0.047 C 
HETATM   27  C3  UNL     1      -5.988   1.447  18.463  1.00  0.00     0.047 C 
BRANCH  25  28
HETATM   28  O1  UNL     1      -6.878   0.226  16.754  1.00  0.00    -0.389 OA
ATOM     29  H1  UNL     1      -6.406  -0.483  16.333  1.00  0.00     0.210 HD
ENDBRANCH  25  28
ENDBRANCH  24  25
ENDBRANCH  22  24
ENDBRANCH   1  22
TORSDOF 7
ENDMDL
MODEL 2
REMARK VINA RESULT: -7.019657431      1.064      1.283
REMARK  7 active torsions:
REMARK  status: ('A' for Active; 'I' for Inactive)
REMARK    1  A    between atoms: C2_2  and  O1_4 
REMARK    2  A    between atoms: C2_2  and  C4_6 
REMARK    3  A    between atoms: C4_6  and  N1_7 
REMARK    4  A    between atoms: N1_7  and  C5_9 
REMARK    5  A    between atoms: C6_14  and  C7_15 
REMARK    6  A    between atoms: C8_18  and  C9_19 
REMARK    7  A    between atoms: C14_25  and  C15_26 
ROOT
HETATM    1  C5  UNL     1      -4.308   0.588  14.342  1.00  0.00     0.161 A 
HETATM    2  N2  UNL     1      -4.277  -0.175  13.246  1.00  0.00    -0.279 N 
ATOM      3  H2  UNL     1      -4.321  -1.194  13.225  1.00  0.00     0.189 HD
HETATM    4  N3  UNL     1      -4.183   0.579  12.247  1.00  0.00    -0.288 N 
ATOM      5  H3  UNL     1      -4.152  -0.070  11.460  1.00  0.00     0.188 HD
HETATM    6  C6  UNL     1      -4.118   1.571  11.767  1.00  0.00     0.144 A 
HETATM    7  S1  UNL     1      -4.199   2.161  13.717  1.00  0.00    -0.029 SA
ENDROOT
BRANCH   6   8
HETATM    8  C7  UNL     1      -4.027   2.944  11.128  1.00  0.00     0.184 A 
HETATM    9  N4  UNL     1      -2.736   3.376  10.856  1.00  0.00    -0.335 N 
HETATM   10  C8  UNL     1      -2.860   4.637  10.336  1.00  0.00     0.048 A 
ATOM     11  H4  UNL     1      -1.870   2.861  11.013  1.00  0.00     0.168 HD
HETATM   12  C14 UNL     1      -4.227   4.895  10.295  1.00  0.00     0.106 A 
HETATM   13  O3  UNL     1      -4.802   3.831  10.788  1.00  0.00    -0.291 OA
BRANCH  10  14
HETATM   14  C9  UNL     1      -1.768   5.566  10.243  1.00  0.00     0.042 C 
HETATM   15  C10 UNL     1      -0.391   5.044  10.030  1.00  0.00     0.037 C 
HETATM   16  C11 UNL     1       0.687   6.037  10.449  1.00  0.00     0.168 C 
HETATM   17  O2  UNL     1       0.694   6.219  11.815  1.00  0.00    -0.391 OA
HETATM   18  C12 UNL     1      -0.460   5.680  12.396  1.00  0.00     0.168 C 
HETATM   19  C13 UNL     1      -1.644   6.234  11.693  1.00  0.00     0.037 C 
ENDBRANCH  10  14
BRANCH  12  20
HETATM   20  C15 UNL     1      -4.847   6.107   9.786  1.00  0.00     0.289 C 
HETATM   21  F1  UNL     1      -6.202   6.207   9.934  1.00  0.00    -0.248 F 
ENDBRANCH  12  20
ENDBRANCH   6   8
BRANCH   1  22
HETATM   22  N1  UNL     1      -4.337   0.215  15.621  1.00  0.00    -0.366 N 
ATOM     23  H1  UNL     1      -4.131  -0.741  15.908  1.00  0.00     0.161 HD
BRANCH  22  24
HETATM   24  C4  UNL     1      -4.669   1.222  16.557  1.00  0.00     0.158 C 
BRANCH  24  25
HETATM   25  C2  UNL     1      -6.065   1.433  16.957  1.00  0.00     0.066 C 
HETATM   26  C1  UNL     1      -6.745   2.680  16.409  1.00  0.00     0.047 C 
HETATM   27  C3  UNL     1      -6.124   1.622  18.494  1.00  0.00     0.047 C 
BRANCH  25  28
HETATM   28  O1  UNL     1      -6.873   0.335  16.765  1.00  0.00    -0.389 OA
ATOM     29  H1  UNL     1      -6.347  -0.414  16.514  1.00  0.00     0.210 HD
ENDBRANCH  25  28
ENDBRANCH  24  25
ENDBRANCH  22  24
ENDBRANCH   1  22
TORSDOF 7
ENDMDL
MODEL 3
REMARK VINA RESULT: -6.931975173      1.024      1.139
REMARK  7 active torsions:
REMARK  status: ('A' for Active; 'I' for Inactive)
REMARK    1  A    between atoms: C2_2  and  O1_4 
REMARK    2  A    between atoms: C2_2  and  C4_6 
REMARK    3  A    between atoms: C4_6  and  N1_7 
REMARK    4  A    between atoms: N1_7  and  C5_9 
REMARK    5  A    between atoms: C6_14  and  C7_15 
REMARK    6  A    between atoms: C8_18  and  C9_19 
REMARK    7  A    between atoms: C14_25  and  C15_26 
ROOT
HETATM    1  C5  UNL     1      -4.293   1.143  14.130  1.00  0.00     0.161 A 
HETATM    2  N2  UNL     1      -3.632   0.672  13.069  1.00  0.00    -0.279 N 
ATOM      3  H2  UNL     1      -3.228  -0.261  12.981  1.00  0.00     0.189 HD
HETATM    4  N3  UNL     1      -3.595   1.575  12.198  1.00  0.00    -0.288 N 
ATOM      5  H3  UNL     1      -3.070   1.149  11.434  1.00  0.00     0.188 HD
HETATM    6  C6  UNL     1      -3.829   2.586  11.820  1.00  0.00     0.144 A 
HETATM    7  S1  UNL     1      -4.697   2.722  13.661  1.00  0.00    -0.029 SA
ENDROOT
BRANCH   6   8
HETATM    8  C7  UNL     1      -4.161   3.980  11.321  1.00  0.00     0.184 A 
HETATM    9  N4  UNL     1      -3.389   4.995  11.871  1.00  0.00    -0.335 N 
HETATM   10  C8  UNL     1      -3.866   6.163  11.339  1.00  0.00     0.048 A 
ATOM     11  H4  UNL     1      -2.623   4.892  12.536  1.00  0.00     0.168 HD
HETATM   12  C14 UNL     1      -4.889   5.793  10.471  1.00  0.00     0.106 A 
HETATM   13  O3  UNL     1      -4.966   4.492  10.551  1.00  0.00    -0.291 OA
BRANCH  10  14
HETATM   14  C9  UNL     1      -3.584   7.459  11.894  1.00  0.00     0.042 C 
HETATM   15  C10 UNL     1      -2.611   8.346  11.201  1.00  0.00     0.037 C 
HETATM   16  C11 UNL     1      -2.035   9.419  12.118  1.00  0.00     0.168 C 
HETATM   17  O2  UNL     1      -1.227   8.866  13.087  1.00  0.00    -0.391 OA
HETATM   18  C12 UNL     1      -1.392   7.477  13.142  1.00  0.00     0.168 C 
HETATM   19  C13 UNL     1      -2.839   7.180  13.285  1.00  0.00     0.037 C 
ENDBRANCH  10  14
BRANCH  12  20
HETATM   20  C15 UNL     1      -5.675   6.700   9.651  1.00  0.00     0.289 C 
HETATM   21  F1  UNL     1      -7.032   6.534   9.689  1.00  0.00    -0.248 F 
ENDBRANCH  12  20
ENDBRANCH   6   8
BRANCH   1  22
HETATM   22  N1  UNL     1      -4.515   0.556  15.305  1.00  0.00    -0.366 N 
ATOM     23  H1  UNL     1      -4.329  -0.435  15.456  1.00  0.00     0.161 HD
BRANCH  22  24
HETATM   24  C4  UNL     1      -5.024   1.386  16.331  1.00  0.00     0.158 C 
BRANCH  24  25
HETATM   25  C2  UNL     1      -6.091   0.904  17.215  1.00  0.00     0.066 C 
HETATM   26  C1  UNL     1      -7.520   1.174  16.762  1.00  0.00     0.047 C 
HETATM   27  C3  UNL     1      -5.988   1.640  18.575  1.00  0.00     0.047 C 
BRANCH  25  28
HETATM   28  O1  UNL     1      -5.959  -0.415  17.584  1.00  0.00    -0.389 OA
ATOM     29  H1  UNL     1      -5.327  -0.847  17.021  1.00  0.00     0.210 HD
ENDBRANCH  25  28
ENDBRANCH  24  25
ENDBRANCH  22  24
ENDBRANCH   1  22
TORSDOF 7
ENDMDL
MODEL 4
REMARK VINA RESULT: -6.892287088      2.806      3.161
REMARK  7 active torsions:
REMARK  status: ('A' for Active; 'I' for Inactive)
REMARK    1  A    between atoms: C2_2  and  O1_4 
REMARK    2  A    between atoms: C2_2  and  C4_6 
REMARK    3  A    between atoms: C4_6  and  N1_7 
REMARK    4  A    between atoms: N1_7  and  C5_9 
REMARK    5  A    between atoms: C6_14  and  C7_15 
REMARK    6  A    between atoms: C8_18  and  C9_19 
REMARK    7  A    between atoms: C14_25  and  C15_26 
ROOT
HETATM    1  C5  UNL     1      -4.474   2.182  14.232  1.00  0.00     0.161 A 
HETATM    2  N2  UNL     1      -3.893   1.060  13.799  1.00  0.00    -0.279 N 
ATOM      3  H2  UNL     1      -3.959   0.143  14.241  1.00  0.00     0.189 HD
HETATM    4  N3  UNL     1      -3.252   1.328  12.753  1.00  0.00    -0.288 N 
ATOM      5  H3  UNL     1      -2.832   0.435  12.495  1.00  0.00     0.188 HD
HETATM    6  C6  UNL     1      -2.903   2.017  11.966  1.00  0.00     0.144 A 
HETATM    7  S1  UNL     1      -3.987   3.333  13.084  1.00  0.00    -0.029 SA
ENDROOT
BRANCH   6   8
HETATM    8  C7  UNL     1      -2.432   2.982  10.893  1.00  0.00     0.184 A 
HETATM    9  N4  UNL     1      -1.056   3.024  10.709  1.00  0.00    -0.335 N 
HETATM   10  C8  UNL     1      -0.831   3.973   9.749  1.00  0.00     0.048 A 
ATOM     11  H4  UNL     1      -0.355   2.462  11.192  1.00  0.00     0.168 HD
HETATM   12  C14 UNL     1      -2.088   4.442   9.380  1.00  0.00     0.106 A 
HETATM   13  O3  UNL     1      -2.940   3.788  10.121  1.00  0.00    -0.291 OA
BRANCH  10  14
HETATM   14  C9  UNL     1       0.456   4.570   9.512  1.00  0.00     0.042 C 
HETATM   15  C10 UNL     1       1.622   3.687   9.239  1.00  0.00     0.037 C 
HETATM   16  C11 UNL     1       2.956   4.373   9.508  1.00  0.00     0.168 C 
HETATM   17  O2  UNL     1       3.131   4.615  10.853  1.00  0.00    -0.391 OA
HETATM   18  C12 UNL     1       1.932   4.435  11.552  1.00  0.00     0.168 C 
HETATM   19  C13 UNL     1       0.878   5.251  10.898  1.00  0.00     0.037 C 
ENDBRANCH  10  14
BRANCH  12  20
HETATM   20  C15 UNL     1      -2.354   5.446   8.362  1.00  0.00     0.289 C 
HETATM   21  F1  UNL     1      -2.559   4.984   7.091  1.00  0.00    -0.248 F 
ENDBRANCH  12  20
ENDBRANCH   6   8
BRANCH   1  22
HETATM   22  N1  UNL     1      -5.194   2.380  15.334  1.00  0.00    -0.366 N 
ATOM     23  H1  UNL     1      -5.891   3.122  15.397  1.00  0.00     0.161 HD
BRANCH  22  24
HETATM   24  C4  UNL     1      -4.937   1.503  16.414  1.00  0.00     0.158 C 
BRANCH  24  25
HETATM   25  C2  UNL     1      -6.042   0.984  17.228  1.00  0.00     0.066 C 
HETATM   26  C1  UNL     1      -7.449   1.310  16.747  1.00  0.00     0.047 C 
HETATM   27  C3  UNL     1      -5.972   1.627  18.637  1.00  0.00     0.047 C 
BRANCH  25  28
HETATM   28  O1  UNL     1      -5.944  -0.359  17.513  1.00  0.00    -0.389 OA
ATOM     29  H1  UNL     1      -5.319  -0.769  16.927  1.00  0.00     0.210 HD
ENDBRANCH  25  28
ENDBRANCH  24  25
ENDBRANCH  22  24
ENDBRANCH   1  22
TORSDOF 7
ENDMDL
MODEL 5
REMARK VINA RESULT: -6.879555730      2.577      3.669
REMARK  7 active torsions:
REMARK  status: ('A' for Active; 'I' for Inactive)
REMARK    1  A    between atoms: C2_2  and  O1_4 
REMARK    2  A    between atoms: C2_2  and  C4_6 
REMARK    3  A    between atoms: C4_6  and  N1_7 
REMARK    4  A    between atoms: N1_7  and  C5_9 
REMARK    5  A    between atoms: C6_14  and  C7_15 
REMARK    6  A    between atoms: C8_18  and  C9_19 
REMARK    7  A    between atoms: C14_25  and  C15_26 
ROOT
HETATM    1  C5  UNL     1      -3.769   2.917  15.393  1.00  0.00     0.161 A 
HETATM    2  N2  UNL     1      -2.613   3.561  15.212  1.00  0.00    -0.279 N 
ATOM      3  H2  UNL     1      -1.734   3.359  15.690  1.00  0.00     0.189 HD
HETATM    4  N3  UNL     1      -2.793   4.457  14.351  1.00  0.00    -0.288 N 
ATOM      5  H3  UNL     1      -1.881   4.906  14.279  1.00  0.00     0.188 HD
HETATM    6  C6  UNL     1      -3.416   5.016  13.632  1.00  0.00     0.144 A 
HETATM    7  S1  UNL     1      -4.822   3.714  14.328  1.00  0.00    -0.029 SA
ENDROOT
BRANCH   6   8
HETATM    8  C7  UNL     1      -4.289   5.773  12.648  1.00  0.00     0.184 A 
HETATM    9  N4  UNL     1      -3.829   5.770  11.338  1.00  0.00    -0.335 N 
HETATM   10  C8  UNL     1      -4.713   6.534  10.624  1.00  0.00     0.048 A 
ATOM     11  H4  UNL     1      -3.001   5.295  10.979  1.00  0.00     0.168 HD
HETATM   12  C14 UNL     1      -5.681   6.942  11.537  1.00  0.00     0.106 A 
HETATM   13  O3  UNL     1      -5.320   6.436  12.685  1.00  0.00    -0.291 OA
BRANCH  10  14
HETATM   14  C9  UNL     1      -4.426   7.067   9.321  1.00  0.00     0.042 C 
HETATM   15  C10 UNL     1      -5.326   6.727   8.186  1.00  0.00     0.037 C 
HETATM   16  C11 UNL     1      -4.660   6.914   6.828  1.00  0.00     0.168 C 
HETATM   17  O2  UNL     1      -3.652   5.995   6.636  1.00  0.00    -0.391 OA
HETATM   18  C12 UNL     1      -3.330   5.349   7.835  1.00  0.00     0.168 C 
HETATM   19  C13 UNL     1      -3.052   6.380   8.866  1.00  0.00     0.037 C 
ENDBRANCH  10  14
BRANCH  12  20
HETATM   20  C15 UNL     1      -6.848   7.754  11.230  1.00  0.00     0.289 C 
HETATM   21  F1  UNL     1      -7.831   7.790  12.179  1.00  0.00    -0.248 F 
ENDBRANCH  12  20
ENDBRANCH   6   8
BRANCH   1  22
HETATM   22  N1  UNL     1      -4.058   1.942  16.253  1.00  0.00    -0.366 N 
ATOM     23  H1  UNL     1      -3.469   1.745  17.062  1.00  0.00     0.161 HD
BRANCH  22  24
HETATM   24  C4  UNL     1      -5.229   1.197  15.982  1.00  0.00     0.158 C 
BRANCH  24  25
HETATM   25  C2  UNL     1      -6.137   0.818  17.069  1.00  0.00     0.066 C 
HETATM   26  C1  UNL     1      -7.617   1.097  16.844  1.00  0.00     0.047 C 
HETATM   27  C3  UNL     1      -5.789   1.652  18.328  1.00  0.00     0.047 C 
BRANCH  25  28
HETATM   28  O1  UNL     1      -5.966  -0.473  17.516  1.00  0.00    -0.389 OA
ATOM     29  H1  UNL     1      -5.051  -0.719  17.452  1.00  0.00     0.210 HD
ENDBRANCH  25  28
ENDBRANCH  24  25
ENDBRANCH  22  24
ENDBRANCH   1  22
TORSDOF 7
ENDMDL
