MODEL 1
REMARK VINA RESULT: -7.115427271      0.000      0.000
REMARK  8 active torsions:
REMARK  status: ('A' for Active; 'I' for Inactive)
REMARK    1  A    between atoms: N1_1  and  N2_4 
REMARK    2  A    between atoms: N3_6  and  C1_8 
REMARK    3  A    between atoms: C1_8  and  C2_9 
REMARK    4  A    between atoms: C6_14  and  O2_15 
REMARK    5  A    between atoms: O2_15  and  C7_16 
REMARK    6  A    between atoms: C7_16  and  C8_17 
REMARK    7  A    between atoms: C8_17  and  O3_18 
REMARK    8  A    between atoms: N4_20  and  O4_22 
ROOT
HETATM    1  C2  UNL     1       0.078   4.070  10.021  1.00  0.00     0.172 C 
HETATM    2  C3  UNL     1      -0.668   5.191  10.668  1.00  0.00     0.210 C 
HETATM    3  O1  UNL     1      -1.354   4.757  11.854  1.00  0.00    -0.346 OA
HETATM    4  C4  UNL     1      -1.980   3.525  11.919  1.00  0.00     0.104 A 
HETATM    5  C5  UNL     1      -3.018   3.226  12.784  1.00  0.00     0.077 A 
HETATM    6  C6  UNL     1      -3.647   1.999  12.855  1.00  0.00     0.089 A 
HETATM    7  C9  UNL     1      -3.199   0.985  11.984  1.00  0.00     0.047 A 
HETATM    8 BR1  UNL     1      -4.009  -0.751  12.007  1.00  0.00    -0.048 Br
HETATM    9  C10 UNL     1      -2.175   1.284  11.132  1.00  0.00     0.061 A 
HETATM   10  C11 UNL     1      -1.548   2.533  11.074  1.00  0.00     0.104 A 
HETATM   11  O5  UNL     1      -0.521   2.801  10.205  1.00  0.00    -0.339 OA
ENDROOT
BRANCH   6  12
HETATM   12  O2  UNL     1      -4.661   1.651  13.678  1.00  0.00    -0.342 OA
BRANCH  12  13
HETATM   13  C7  UNL     1      -4.861   2.070  14.976  1.00  0.00     0.261 C 
BRANCH  13  14
HETATM   14  C8  UNL     1      -4.888   1.018  16.005  1.00  0.00     0.160 C 
HETATM   15  N4  UNL     1      -5.951   0.604  16.554  1.00  0.00    -0.249 N 
ATOM     16  H4  UNL     1      -6.845   1.011  16.281  1.00  0.00     0.196 HD
BRANCH  14  17
HETATM   17  O3  UNL     1      -3.660   0.472  16.374  1.00  0.00    -0.346 OA
ATOM     18  H3  UNL     1      -3.677  -0.398  16.755  1.00  0.00     0.219 HD
ENDBRANCH  14  17
BRANCH  15  19
HETATM   19  O4  UNL     1      -5.927  -0.367  17.496  1.00  0.00    -0.288 OA
ATOM     20  H4  UNL     1      -6.716  -0.832  17.750  1.00  0.00     0.244 HD
ENDBRANCH  15  19
ENDBRANCH  13  14
ENDBRANCH  12  13
ENDBRANCH   6  12
BRANCH   1  21
HETATM   21  C1  UNL     1       1.525   4.004  10.448  1.00  0.00     0.175 C 
BRANCH  21  22
HETATM   22  N3  UNL     1       1.624   4.392  11.853  1.00  0.00    -0.320 N 
HETATM   23  N2  UNL     1       2.706   4.894  12.188  1.00  0.00    -0.254 N 
ATOM     24  H2  UNL     1       2.989   5.366  11.329  1.00  0.00     0.207 HD
ATOM     25  H3  UNL     1       0.857   4.259  12.512  1.00  0.00     0.181 HD
BRANCH  23  26
HETATM   26  N1  UNL     1       3.650   5.165  12.945  1.00  0.00    -0.331 N 
ATOM     27  H12 UNL     1       3.772   4.250  13.377  1.00  0.00     0.178 HD
ATOM     28  H11 UNL     1       4.361   5.750  13.383  1.00  0.00     0.178 HD
ENDBRANCH  23  26
ENDBRANCH  21  22
ENDBRANCH   1  21
TORSDOF 8
ENDMDL
MODEL 2
REMARK VINA RESULT: -6.945435127      2.216      2.600
REMARK  8 active torsions:
REMARK  status: ('A' for Active; 'I' for Inactive)
REMARK    1  A    between atoms: N1_1  and  N2_4 
REMARK    2  A    between atoms: N3_6  and  C1_8 
REMARK    3  A    between atoms: C1_8  and  C2_9 
REMARK    4  A    between atoms: C6_14  and  O2_15 
REMARK    5  A    between atoms: O2_15  and  C7_16 
REMARK    6  A    between atoms: C7_16  and  C8_17 
REMARK    7  A    between atoms: C8_17  and  O3_18 
REMARK    8  A    between atoms: N4_20  and  O4_22 
ROOT
HETATM    1  C2  UNL     1      -3.500   4.959  10.206  1.00  0.00     0.172 C 
HETATM    2  C3  UNL     1      -4.167   5.497  11.430  1.00  0.00     0.210 C 
HETATM    3  O1  UNL     1      -3.955   4.645  12.567  1.00  0.00    -0.346 OA
HETATM    4  C4  UNL     1      -3.971   3.267  12.453  1.00  0.00     0.104 A 
HETATM    5  C5  UNL     1      -4.245   2.403  13.499  1.00  0.00     0.077 A 
HETATM    6  C6  UNL     1      -4.262   1.027  13.392  1.00  0.00     0.089 A 
HETATM    7  C9  UNL     1      -3.980   0.467  12.128  1.00  0.00     0.047 A 
HETATM    8 BR1  UNL     1      -3.980  -1.432  11.880  1.00  0.00    -0.048 Br
HETATM    9  C10 UNL     1      -3.710   1.323  11.099  1.00  0.00     0.061 A 
HETATM   10  C11 UNL     1      -3.697   2.716  11.226  1.00  0.00     0.104 A 
HETATM   11  O5  UNL     1      -3.421   3.547  10.170  1.00  0.00    -0.339 OA
ENDROOT
BRANCH   6  12
HETATM   12  O2  UNL     1      -4.521   0.138  14.376  1.00  0.00    -0.342 OA
BRANCH  12  13
HETATM   13  C7  UNL     1      -4.363   0.327  15.732  1.00  0.00     0.261 C 
BRANCH  13  14
HETATM   14  C8  UNL     1      -5.587   0.604  16.500  1.00  0.00     0.160 C 
HETATM   15  N4  UNL     1      -6.240   1.685  16.411  1.00  0.00    -0.249 N 
ATOM     16  H4  UNL     1      -5.912   2.414  15.777  1.00  0.00     0.196 HD
BRANCH  14  17
HETATM   17  O3  UNL     1      -6.022  -0.398  17.366  1.00  0.00    -0.346 OA
ATOM     18  H3  UNL     1      -6.184  -0.143  18.267  1.00  0.00     0.219 HD
ENDBRANCH  14  17
BRANCH  15  19
HETATM   19  O4  UNL     1      -7.362   1.895  17.137  1.00  0.00    -0.288 OA
ATOM     20  H4  UNL     1      -7.962   2.601  16.929  1.00  0.00     0.244 HD
ENDBRANCH  15  19
ENDBRANCH  13  14
ENDBRANCH  12  13
ENDBRANCH   6  12
BRANCH   1  21
HETATM   21  C1  UNL     1      -2.124   5.541   9.982  1.00  0.00     0.175 C 
BRANCH  21  22
HETATM   22  N3  UNL     1      -1.426   5.615  11.264  1.00  0.00    -0.320 N 
HETATM   23  N2  UNL     1      -0.841   4.579  11.608  1.00  0.00    -0.254 N 
ATOM     24  H2  UNL     1      -0.570   4.187  10.707  1.00  0.00     0.207 HD
ATOM     25  H3  UNL     1      -1.422   6.460  11.835  1.00  0.00     0.181 HD
BRANCH  23  26
HETATM   26  N1  UNL     1      -0.388   3.736  12.395  1.00  0.00    -0.331 N 
ATOM     27  H12 UNL     1      -0.237   4.339  13.203  1.00  0.00     0.178 HD
ATOM     28  H11 UNL     1      -0.083   2.813  12.706  1.00  0.00     0.178 HD
ENDBRANCH  23  26
ENDBRANCH  21  22
ENDBRANCH   1  21
TORSDOF 8
ENDMDL
MODEL 3
REMARK VINA RESULT: -6.685876350      3.510      7.203
REMARK  8 active torsions:
REMARK  status: ('A' for Active; 'I' for Inactive)
REMARK    1  A    between atoms: N1_1  and  N2_4 
REMARK    2  A    between atoms: N3_6  and  C1_8 
REMARK    3  A    between atoms: C1_8  and  C2_9 
REMARK    4  A    between atoms: C6_14  and  O2_15 
REMARK    5  A    between atoms: O2_15  and  C7_16 
REMARK    6  A    between atoms: C7_16  and  C8_17 
REMARK    7  A    between atoms: C8_17  and  O3_18 
REMARK    8  A    between atoms: N4_20  and  O4_22 
ROOT
HETATM    1  C2  UNL     1      -4.302   0.056  11.489  1.00  0.00     0.172 C 
HETATM    2  C3  UNL     1      -3.391   0.091  10.306  1.00  0.00     0.210 C 
HETATM    3  O1  UNL     1      -2.168   0.786  10.599  1.00  0.00    -0.346 OA
HETATM    4  C4  UNL     1      -2.153   1.927  11.381  1.00  0.00     0.104 A 
HETATM    5  C5  UNL     1      -1.161   2.892  11.329  1.00  0.00     0.077 A 
HETATM    6  C6  UNL     1      -1.139   4.032  12.106  1.00  0.00     0.089 A 
HETATM    7  C9  UNL     1      -2.202   4.224  13.014  1.00  0.00     0.047 A 
HETATM    8 BR1  UNL     1      -2.259   5.775  14.136  1.00  0.00    -0.048 Br
HETATM    9  C10 UNL     1      -3.177   3.270  13.062  1.00  0.00     0.061 A 
HETATM   10  C11 UNL     1      -3.184   2.120  12.266  1.00  0.00     0.104 A 
HETATM   11  O5  UNL     1      -4.181   1.180  12.340  1.00  0.00    -0.339 OA
ENDROOT
BRANCH   6  12
HETATM   12  O2  UNL     1      -0.200   5.004  12.099  1.00  0.00    -0.342 OA
BRANCH  12  13
HETATM   13  C7  UNL     1       0.620   5.362  11.050  1.00  0.00     0.261 C 
BRANCH  13  14
HETATM   14  C8  UNL     1       1.762   4.474  10.780  1.00  0.00     0.160 C 
HETATM   15  N4  UNL     1       2.013   3.984   9.641  1.00  0.00    -0.249 N 
ATOM     16  H4  UNL     1       1.400   4.206   8.857  1.00  0.00     0.196 HD
BRANCH  14  17
HETATM   17  O3  UNL     1       2.590   4.174  11.861  1.00  0.00    -0.346 OA
ATOM     18  H3  UNL     1       3.466   3.871  11.655  1.00  0.00     0.219 HD
ENDBRANCH  14  17
BRANCH  15  19
HETATM   19  O4  UNL     1       3.076   3.171   9.440  1.00  0.00    -0.288 OA
ATOM     20  H4  UNL     1       3.022   2.418   8.863  1.00  0.00     0.244 HD
ENDBRANCH  15  19
ENDBRANCH  13  14
ENDBRANCH  12  13
ENDBRANCH   6  12
BRANCH   1  21
HETATM   21  C1  UNL     1      -4.156  -1.205  12.307  1.00  0.00     0.175 C 
BRANCH  21  22
HETATM   22  N3  UNL     1      -2.964  -1.924  11.860  1.00  0.00    -0.320 N 
HETATM   23  N2  UNL     1      -3.168  -3.063  11.417  1.00  0.00    -0.254 N 
ATOM     24  H2  UNL     1      -4.096  -2.960  11.006  1.00  0.00     0.207 HD
ATOM     25  H3  UNL     1      -2.030  -1.518  11.911  1.00  0.00     0.181 HD
BRANCH  23  26
HETATM   26  N1  UNL     1      -2.917  -4.252  11.175  1.00  0.00    -0.331 N 
ATOM     27  H12 UNL     1      -2.827  -4.592  12.132  1.00  0.00     0.178 HD
ATOM     28  H11 UNL     1      -2.750  -5.075  10.596  1.00  0.00     0.178 HD
ENDBRANCH  23  26
ENDBRANCH  21  22
ENDBRANCH   1  21
TORSDOF 8
ENDMDL
MODEL 4
REMARK VINA RESULT: -6.584200120      3.565      7.141
REMARK  8 active torsions:
REMARK  status: ('A' for Active; 'I' for Inactive)
REMARK    1  A    between atoms: N1_1  and  N2_4 
REMARK    2  A    between atoms: N3_6  and  C1_8 
REMARK    3  A    between atoms: C1_8  and  C2_9 
REMARK    4  A    between atoms: C6_14  and  O2_15 
REMARK    5  A    between atoms: O2_15  and  C7_16 
REMARK    6  A    between atoms: C7_16  and  C8_17 
REMARK    7  A    between atoms: C8_17  and  O3_18 
REMARK    8  A    between atoms: N4_20  and  O4_22 
ROOT
HETATM    1  C2  UNL     1      -4.211   0.043  11.493  1.00  0.00     0.172 C 
HETATM    2  C3  UNL     1      -3.243   0.101  10.358  1.00  0.00     0.210 C 
HETATM    3  O1  UNL     1      -2.067   0.852  10.702  1.00  0.00    -0.346 OA
HETATM    4  C4  UNL     1      -2.140   2.003  11.466  1.00  0.00     0.104 A 
HETATM    5  C5  UNL     1      -1.188   3.008  11.450  1.00  0.00     0.077 A 
HETATM    6  C6  UNL     1      -1.254   4.158  12.210  1.00  0.00     0.089 A 
HETATM    7  C9  UNL     1      -2.369   4.316  13.059  1.00  0.00     0.047 A 
HETATM    8 BR1  UNL     1      -2.550   5.879  14.152  1.00  0.00    -0.048 Br
HETATM    9  C10 UNL     1      -3.305   3.323  13.071  1.00  0.00     0.061 A 
HETATM   10  C11 UNL     1      -3.222   2.163  12.295  1.00  0.00     0.104 A 
HETATM   11  O5  UNL     1      -4.182   1.183  12.331  1.00  0.00    -0.339 OA
ENDROOT
BRANCH   6  12
HETATM   12  O2  UNL     1      -0.357   5.169  12.236  1.00  0.00    -0.342 OA
BRANCH  12  13
HETATM   13  C7  UNL     1       0.587   5.470  11.277  1.00  0.00     0.261 C 
BRANCH  13  14
HETATM   14  C8  UNL     1       1.934   4.919  11.491  1.00  0.00     0.160 C 
HETATM   15  N4  UNL     1       2.678   5.247  12.461  1.00  0.00    -0.249 N 
ATOM     16  H4  UNL     1       2.340   5.929  13.140  1.00  0.00     0.196 HD
BRANCH  14  17
HETATM   17  O3  UNL     1       2.387   3.992  10.554  1.00  0.00    -0.346 OA
ATOM     18  H3  UNL     1       3.163   4.228  10.060  1.00  0.00     0.219 HD
ENDBRANCH  14  17
BRANCH  15  19
HETATM   19  O4  UNL     1       3.912   4.713  12.618  1.00  0.00    -0.288 OA
ATOM     20  H4  UNL     1       4.077   4.024  13.250  1.00  0.00     0.244 HD
ENDBRANCH  15  19
ENDBRANCH  13  14
ENDBRANCH  12  13
ENDBRANCH   6  12
BRANCH   1  21
HETATM   21  C1  UNL     1      -4.055  -1.200  12.337  1.00  0.00     0.175 C 
BRANCH  21  22
HETATM   22  N3  UNL     1      -2.892  -1.949  11.866  1.00  0.00    -0.320 N 
HETATM   23  N2  UNL     1      -3.139  -3.067  11.391  1.00  0.00    -0.254 N 
ATOM     24  H2  UNL     1      -4.063  -2.919  10.987  1.00  0.00     0.207 HD
ATOM     25  H3  UNL     1      -1.943  -1.579  11.924  1.00  0.00     0.181 HD
BRANCH  23  26
HETATM   26  N1  UNL     1      -2.932  -4.257  11.115  1.00  0.00    -0.331 N 
ATOM     27  H12 UNL     1      -3.164  -4.671  12.018  1.00  0.00     0.178 HD
ATOM     28  H11 UNL     1      -2.672  -5.052  10.531  1.00  0.00     0.178 HD
ENDBRANCH  23  26
ENDBRANCH  21  22
ENDBRANCH   1  21
TORSDOF 8
ENDMDL
MODEL 5
REMARK VINA RESULT: -6.527211842      3.033      3.506
REMARK  8 active torsions:
REMARK  status: ('A' for Active; 'I' for Inactive)
REMARK    1  A    between atoms: N1_1  and  N2_4 
REMARK    2  A    between atoms: N3_6  and  C1_8 
REMARK    3  A    between atoms: C1_8  and  C2_9 
REMARK    4  A    between atoms: C6_14  and  O2_15 
REMARK    5  A    between atoms: O2_15  and  C7_16 
REMARK    6  A    between atoms: C7_16  and  C8_17 
REMARK    7  A    between atoms: C8_17  and  O3_18 
REMARK    8  A    between atoms: N4_20  and  O4_22 
ROOT
HETATM    1  C2  UNL     1      -5.049   6.382  10.108  1.00  0.00     0.172 C 
HETATM    2  C3  UNL     1      -5.233   6.891  11.501  1.00  0.00     0.210 C 
HETATM    3  O1  UNL     1      -4.441   6.151  12.444  1.00  0.00    -0.346 OA
HETATM    4  C4  UNL     1      -4.282   4.781  12.340  1.00  0.00     0.104 A 
HETATM    5  C5  UNL     1      -3.963   3.953  13.403  1.00  0.00     0.077 A 
HETATM    6  C6  UNL     1      -3.803   2.585  13.305  1.00  0.00     0.089 A 
HETATM    7  C9  UNL     1      -3.977   1.996  12.036  1.00  0.00     0.047 A 
HETATM    8 BR1  UNL     1      -3.775   0.105  11.802  1.00  0.00    -0.048 Br
HETATM    9  C10 UNL     1      -4.292   2.816  10.992  1.00  0.00     0.061 A 
HETATM   10  C11 UNL     1      -4.451   4.201  11.108  1.00  0.00     0.104 A 
HETATM   11  O5  UNL     1      -4.768   4.997  10.036  1.00  0.00    -0.339 OA
ENDROOT
BRANCH   6  12
HETATM   12  O2  UNL     1      -3.490   1.730  14.305  1.00  0.00    -0.342 OA
BRANCH  12  13
HETATM   13  C7  UNL     1      -3.952   1.762  15.603  1.00  0.00     0.261 C 
BRANCH  13  14
HETATM   14  C8  UNL     1      -4.729   0.595  16.049  1.00  0.00     0.160 C 
HETATM   15  N4  UNL     1      -5.379   0.560  17.135  1.00  0.00    -0.249 N 
ATOM     16  H4  UNL     1      -5.374   1.377  17.745  1.00  0.00     0.196 HD
BRANCH  14  17
HETATM   17  O3  UNL     1      -4.726  -0.517  15.209  1.00  0.00    -0.346 OA
ATOM     18  H3  UNL     1      -3.899  -0.975  15.110  1.00  0.00     0.219 HD
ENDBRANCH  14  17
BRANCH  15  19
HETATM   19  O4  UNL     1      -6.081  -0.536  17.504  1.00  0.00    -0.288 OA
ATOM     20  H4  UNL     1      -5.831  -1.406  17.215  1.00  0.00     0.244 HD
ENDBRANCH  15  19
ENDBRANCH  13  14
ENDBRANCH  12  13
ENDBRANCH   6  12
BRANCH   1  21
HETATM   21  C1  UNL     1      -3.998   7.144   9.338  1.00  0.00     0.175 C 
BRANCH  21  22
HETATM   22  N3  UNL     1      -2.856   7.397  10.215  1.00  0.00    -0.320 N 
HETATM   23  N2  UNL     1      -1.999   6.503  10.239  1.00  0.00    -0.254 N 
ATOM     24  H2  UNL     1      -2.061   6.133   9.290  1.00  0.00     0.207 HD
ATOM     25  H3  UNL     1      -2.772   8.249  10.769  1.00  0.00     0.181 HD
BRANCH  23  26
HETATM   26  N1  UNL     1      -1.112   5.790  10.729  1.00  0.00    -0.331 N 
ATOM     27  H12 UNL     1      -0.312   6.158  10.214  1.00  0.00     0.178 HD
ATOM     28  H11 UNL     1      -0.716   5.067  11.330  1.00  0.00     0.178 HD
ENDBRANCH  23  26
ENDBRANCH  21  22
ENDBRANCH   1  21
TORSDOF 8
ENDMDL
