MODEL 1
REMARK VINA RESULT: -4.312171947      0.000      0.000
REMARK  1 active torsions:
REMARK  status: ('A' for Active; 'I' for Inactive)
REMARK    1  A    between atoms: C5_7  and  O1_8 
ROOT
HETATM    1  C1  UNL     1     -29.031 -15.261  12.175  1.00  0.00     0.025 C 
HETATM    2  C2  UNL     1     -28.709 -16.489  11.397  1.00  0.00     0.083 C 
HETATM    3  S1  UNL     1     -29.468 -17.900  12.290  1.00  0.00    -0.091 SA
HETATM    4  S2  UNL     1     -30.377 -19.108  10.791  1.00  0.00    -0.097 SA
HETATM    5  C3  UNL     1     -29.409 -18.903   9.269  1.00  0.00     0.088 C 
HETATM    6  C4  UNL     1     -28.531 -17.693   9.300  1.00  0.00     0.044 C 
HETATM    7  C5  UNL     1     -29.207 -16.506   9.997  1.00  0.00     0.133 C 
ENDROOT
BRANCH   7   8
HETATM    8  O1  UNL     1     -28.711 -15.363   9.332  1.00  0.00    -0.394 OA
ATOM      9  H1  UNL     1     -29.432 -14.941   8.879  1.00  0.00     0.210 HD
ENDBRANCH   7   8
TORSDOF 1
ENDMDL
MODEL 2
REMARK VINA RESULT: -4.028666713      1.388      3.033
REMARK  1 active torsions:
REMARK  status: ('A' for Active; 'I' for Inactive)
REMARK    1  A    between atoms: C5_7  and  O1_8 
ROOT
HETATM    1  C1  UNL     1     -29.837 -18.971   9.852  1.00  0.00     0.025 C 
HETATM    2  C2  UNL     1     -29.627 -17.693  10.587  1.00  0.00     0.083 C 
HETATM    3  S1  UNL     1     -28.781 -18.117  12.159  1.00  0.00    -0.091 SA
HETATM    4  S2  UNL     1     -27.247 -16.660  12.397  1.00  0.00    -0.097 SA
HETATM    5  C3  UNL     1     -27.820 -15.133  11.601  1.00  0.00     0.088 C 
HETATM    6  C4  UNL     1     -28.958 -15.364  10.659  1.00  0.00     0.044 C 
HETATM    7  C5  UNL     1     -28.806 -16.677   9.880  1.00  0.00     0.133 C 
ENDROOT
BRANCH   7   8
HETATM    8  O1  UNL     1     -29.396 -16.423   8.621  1.00  0.00    -0.394 OA
ATOM      9  H1  UNL     1     -28.722 -16.106   8.031  1.00  0.00     0.210 HD
ENDBRANCH   7   8
TORSDOF 1
ENDMDL
MODEL 3
REMARK VINA RESULT: -3.989863325      2.541      2.701
REMARK  1 active torsions:
REMARK  status: ('A' for Active; 'I' for Inactive)
REMARK    1  A    between atoms: C5_7  and  O1_8 
ROOT
HETATM    1  C1  UNL     1     -28.508 -15.437  12.858  1.00  0.00     0.025 C 
HETATM    2  C2  UNL     1     -29.346 -16.313  11.994  1.00  0.00     0.083 C 
HETATM    3  S1  UNL     1     -28.854 -15.977  10.259  1.00  0.00    -0.091 SA
HETATM    4  S2  UNL     1     -28.709 -17.885   9.323  1.00  0.00    -0.097 SA
HETATM    5  C3  UNL     1     -29.894 -18.985  10.149  1.00  0.00     0.088 C 
HETATM    6  C4  UNL     1     -30.346 -18.459  11.474  1.00  0.00     0.044 C 
HETATM    7  C5  UNL     1     -29.209 -17.771  12.240  1.00  0.00     0.133 C 
ENDROOT
BRANCH   7   8
HETATM    8  O1  UNL     1     -29.485 -18.023  13.603  1.00  0.00    -0.394 OA
ATOM      9  H1  UNL     1     -28.679 -18.289  14.029  1.00  0.00     0.210 HD
ENDBRANCH   7   8
TORSDOF 1
ENDMDL
MODEL 4
REMARK VINA RESULT: -3.978100590      1.289      1.422
REMARK  1 active torsions:
REMARK  status: ('A' for Active; 'I' for Inactive)
REMARK    1  A    between atoms: C5_7  and  O1_8 
ROOT
HETATM    1  C1  UNL     1     -27.879 -15.066  10.353  1.00  0.00     0.025 C 
HETATM    2  C2  UNL     1     -28.113 -16.532  10.242  1.00  0.00     0.083 C 
HETATM    3  S1  UNL     1     -28.196 -17.189  11.953  1.00  0.00    -0.091 SA
HETATM    4  S2  UNL     1     -29.845 -18.536  11.972  1.00  0.00    -0.097 SA
HETATM    5  C3  UNL     1     -29.994 -19.234  10.303  1.00  0.00     0.088 C 
HETATM    6  C4  UNL     1     -29.258 -18.437   9.274  1.00  0.00     0.044 C 
HETATM    7  C5  UNL     1     -29.357 -16.928   9.534  1.00  0.00     0.133 C 
ENDROOT
BRANCH   7   8
HETATM    8  O1  UNL     1     -29.348 -16.337   8.250  1.00  0.00    -0.394 OA
ATOM      9  H1  UNL     1     -29.482 -15.401   8.349  1.00  0.00     0.210 HD
ENDBRANCH   7   8
TORSDOF 1
ENDMDL
MODEL 5
REMARK VINA RESULT: -3.942684118      2.621      3.513
REMARK  1 active torsions:
REMARK  status: ('A' for Active; 'I' for Inactive)
REMARK    1  A    between atoms: C5_7  and  O1_8 
ROOT
HETATM    1  C1  UNL     1     -31.383 -19.551  11.237  1.00  0.00     0.025 C 
HETATM    2  C2  UNL     1     -30.005 -19.015  11.063  1.00  0.00     0.083 C 
HETATM    3  S1  UNL     1     -29.815 -18.602   9.286  1.00  0.00    -0.091 SA
HETATM    4  S2  UNL     1     -28.848 -16.705   9.237  1.00  0.00    -0.097 SA
HETATM    5  C3  UNL     1     -27.803 -16.591  10.717  1.00  0.00     0.088 C 
HETATM    6  C4  UNL     1     -28.171 -17.593  11.764  1.00  0.00     0.044 C 
HETATM    7  C5  UNL     1     -29.688 -17.800  11.857  1.00  0.00     0.133 C 
ENDROOT
BRANCH   7   8
HETATM    8  O1  UNL     1     -29.933 -18.080  13.220  1.00  0.00    -0.394 OA
ATOM      9  H1  UNL     1     -30.794 -17.747  13.445  1.00  0.00     0.210 HD
ENDBRANCH   7   8
TORSDOF 1
ENDMDL
