MODEL 1
REMARK VINA RESULT: -4.692835129      0.000      0.000
REMARK  2 active torsions:
REMARK  status: ('A' for Active; 'I' for Inactive)
REMARK    1  A    between atoms: C2_2  and  N2_9 
REMARK    2  A    between atoms: N1_3  and  C3_5 
ROOT
HETATM    1  C1  UNL     1     -29.368 -18.372  12.149  1.00  0.00     0.095 C 
HETATM    2  C2  UNL     1     -29.471 -17.903  10.748  1.00  0.00     0.143 C 
HETATM    3  N1  UNL     1     -29.061 -16.761  10.348  1.00  0.00    -0.367 N 
ATOM      4  H1  UNL     1     -29.191 -16.560   9.356  1.00  0.00     0.161 HD
ENDROOT
BRANCH   3   5
HETATM    5  C3  UNL     1     -28.446 -15.740  11.116  1.00  0.00     0.020 C 
HETATM    6  C4  UNL     1     -27.122 -16.134  11.721  1.00  0.00     0.037 C 
HETATM    7  C5  UNL     1     -28.155 -14.569  10.169  1.00  0.00     0.037 C 
HETATM    8  C6  UNL     1     -29.330 -15.222  12.208  1.00  0.00     0.037 C 
ENDBRANCH   3   5
BRANCH   2   9
HETATM    9  N2  UNL     1     -30.056 -18.763   9.791  1.00  0.00    -0.103 N 
HETATM   10  O1  UNL     1     -29.329 -19.333   8.968  1.00  0.00    -0.531 OA
HETATM   11  O2  UNL     1     -31.403 -18.976   9.756  1.00  0.00    -0.531 OA
ENDBRANCH   2   9
TORSDOF 2
ENDMDL
MODEL 2
REMARK VINA RESULT: -4.644118372      0.161      1.017
REMARK  2 active torsions:
REMARK  status: ('A' for Active; 'I' for Inactive)
REMARK    1  A    between atoms: C2_2  and  N2_9 
REMARK    2  A    between atoms: N1_3  and  C3_5 
ROOT
HETATM    1  C1  UNL     1     -29.619 -18.194  12.229  1.00  0.00     0.095 C 
HETATM    2  C2  UNL     1     -29.577 -17.804  10.801  1.00  0.00     0.143 C 
HETATM    3  N1  UNL     1     -29.085 -16.704  10.377  1.00  0.00    -0.367 N 
ATOM      4  H1  UNL     1     -29.118 -16.556   9.369  1.00  0.00     0.161 HD
ENDROOT
BRANCH   3   5
HETATM    5  C3  UNL     1     -28.497 -15.664  11.141  1.00  0.00     0.020 C 
HETATM    6  C4  UNL     1     -27.241 -16.067  11.872  1.00  0.00     0.037 C 
HETATM    7  C5  UNL     1     -28.089 -14.554  10.164  1.00  0.00     0.037 C 
HETATM    8  C6  UNL     1     -29.446 -15.060  12.129  1.00  0.00     0.037 C 
ENDBRANCH   3   5
BRANCH   2   9
HETATM    9  N2  UNL     1     -30.112 -18.696   9.843  1.00  0.00    -0.103 N 
HETATM   10  O1  UNL     1     -31.333 -18.893   9.818  1.00  0.00    -0.531 OA
HETATM   11  O2  UNL     1     -29.311 -19.341   8.946  1.00  0.00    -0.531 OA
ENDBRANCH   2   9
TORSDOF 2
ENDMDL
MODEL 3
REMARK VINA RESULT: -4.593215291      3.557      4.459
REMARK  2 active torsions:
REMARK  status: ('A' for Active; 'I' for Inactive)
REMARK    1  A    between atoms: C2_2  and  N2_9 
REMARK    2  A    between atoms: N1_3  and  C3_5 
ROOT
HETATM    1  C1  UNL     1     -28.346 -14.979  12.596  1.00  0.00     0.095 C 
HETATM    2  C2  UNL     1     -28.875 -14.508  11.295  1.00  0.00     0.143 C 
HETATM    3  N1  UNL     1     -29.111 -15.276  10.302  1.00  0.00    -0.367 N 
ATOM      4  H1  UNL     1     -29.474 -14.825   9.462  1.00  0.00     0.161 HD
ENDROOT
BRANCH   3   5
HETATM    5  C3  UNL     1     -28.929 -16.680  10.228  1.00  0.00     0.020 C 
HETATM    6  C4  UNL     1     -29.622 -17.452  11.322  1.00  0.00     0.037 C 
HETATM    7  C5  UNL     1     -29.552 -17.152   8.908  1.00  0.00     0.037 C 
HETATM    8  C6  UNL     1     -27.486 -17.080  10.207  1.00  0.00     0.037 C 
ENDBRANCH   3   5
BRANCH   2   9
HETATM    9  N2  UNL     1     -29.137 -13.128  11.134  1.00  0.00    -0.103 N 
HETATM   10  O1  UNL     1     -29.883 -12.558  11.939  1.00  0.00    -0.531 OA
HETATM   11  O2  UNL     1     -28.583 -12.413  10.112  1.00  0.00    -0.531 OA
ENDBRANCH   2   9
TORSDOF 2
ENDMDL
MODEL 4
REMARK VINA RESULT: -4.573467157      0.153      1.347
REMARK  2 active torsions:
REMARK  status: ('A' for Active; 'I' for Inactive)
REMARK    1  A    between atoms: C2_2  and  N2_9 
REMARK    2  A    between atoms: N1_3  and  C3_5 
ROOT
HETATM    1  C1  UNL     1     -29.668 -18.183  12.122  1.00  0.00     0.095 C 
HETATM    2  C2  UNL     1     -29.588 -17.821  10.688  1.00  0.00     0.143 C 
HETATM    3  N1  UNL     1     -29.074 -16.734  10.256  1.00  0.00    -0.367 N 
ATOM      4  H1  UNL     1     -29.081 -16.605   9.244  1.00  0.00     0.161 HD
ENDROOT
BRANCH   3   5
HETATM    5  C3  UNL     1     -28.494 -15.685  11.014  1.00  0.00     0.020 C 
HETATM    6  C4  UNL     1     -29.348 -15.208  12.162  1.00  0.00     0.037 C 
HETATM    7  C5  UNL     1     -27.203 -16.232  11.637  1.00  0.00     0.037 C 
HETATM    8  C6  UNL     1     -28.120 -14.501  10.178  1.00  0.00     0.037 C 
ENDBRANCH   3   5
BRANCH   2   9
HETATM    9  N2  UNL     1     -30.109 -18.726   9.734  1.00  0.00    -0.103 N 
HETATM   10  O1  UNL     1     -29.330 -19.324   8.983  1.00  0.00    -0.531 OA
HETATM   11  O2  UNL     1     -31.450 -18.951   9.627  1.00  0.00    -0.531 OA
ENDBRANCH   2   9
TORSDOF 2
ENDMDL
MODEL 5
REMARK VINA RESULT: -4.572111632      3.569      4.381
REMARK  2 active torsions:
REMARK  status: ('A' for Active; 'I' for Inactive)
REMARK    1  A    between atoms: C2_2  and  N2_9 
REMARK    2  A    between atoms: N1_3  and  C3_5 
ROOT
HETATM    1  C1  UNL     1     -28.197 -14.948  12.524  1.00  0.00     0.095 C 
HETATM    2  C2  UNL     1     -28.811 -14.493  11.255  1.00  0.00     0.143 C 
HETATM    3  N1  UNL     1     -29.108 -15.272  10.288  1.00  0.00    -0.367 N 
ATOM      4  H1  UNL     1     -29.527 -14.831   9.469  1.00  0.00     0.161 HD
ENDROOT
BRANCH   3   5
HETATM    5  C3  UNL     1     -28.927 -16.676  10.216  1.00  0.00     0.020 C 
HETATM    6  C4  UNL     1     -29.607 -17.444  11.321  1.00  0.00     0.037 C 
HETATM    7  C5  UNL     1     -29.565 -17.152   8.905  1.00  0.00     0.037 C 
HETATM    8  C6  UNL     1     -27.484 -17.075  10.180  1.00  0.00     0.037 C 
ENDBRANCH   3   5
BRANCH   2   9
HETATM    9  N2  UNL     1     -29.088 -13.115  11.098  1.00  0.00    -0.103 N 
HETATM   10  O1  UNL     1     -28.583 -12.504  10.148  1.00  0.00    -0.531 OA
HETATM   11  O2  UNL     1     -29.898 -12.448  11.970  1.00  0.00    -0.531 OA
ENDBRANCH   2   9
TORSDOF 2
ENDMDL
