MODEL 1
REMARK VINA RESULT: -4.852951340      0.000      0.000
REMARK  1 active torsions:
REMARK  status: ('A' for Active; 'I' for Inactive)
REMARK    1  A    between atoms: C6_8  and  O3_10 
ROOT
HETATM    1  C1  UNL     1     -27.392 -16.691  11.081  1.00  0.00     0.019 C 
HETATM    2  C2  UNL     1     -28.404 -17.775  11.205  1.00  0.00     0.083 C 
HETATM    3  C3  UNL     1     -29.415 -17.804  10.098  1.00  0.00     0.097 C 
HETATM    4  C4  UNL     1     -29.399 -16.545   9.255  1.00  0.00     0.049 C 
HETATM    5  C5  UNL     1     -29.219 -19.009   9.229  1.00  0.00     0.049 C 
HETATM    6  O1  UNL     1     -30.636 -17.867  10.730  1.00  0.00    -0.227 OA
HETATM    7  O2  UNL     1     -30.456 -18.171  11.975  1.00  0.00    -0.200 OA
HETATM    8  C6  UNL     1     -29.340 -17.437  12.377  1.00  0.00     0.197 C 
HETATM    9  C7  UNL     1     -28.781 -17.854  13.687  1.00  0.00     0.082 C 
ENDROOT
BRANCH   8  10
HETATM   10  O3  UNL     1     -29.638 -16.100  12.265  1.00  0.00    -0.363 OA
ATOM     11  H3  UNL     1     -29.224 -15.669  13.004  1.00  0.00     0.213 HD
ENDBRANCH   8  10
TORSDOF 1
ENDMDL
MODEL 2
REMARK VINA RESULT: -4.772956003      1.633      3.020
REMARK  1 active torsions:
REMARK  status: ('A' for Active; 'I' for Inactive)
REMARK    1  A    between atoms: C6_8  and  O3_10 
ROOT
HETATM    1  C1  UNL     1     -29.704 -16.967   8.889  1.00  0.00     0.019 C 
HETATM    2  C2  UNL     1     -29.742 -17.334  10.331  1.00  0.00     0.083 C 
HETATM    3  C3  UNL     1     -28.411 -17.268  11.020  1.00  0.00     0.097 C 
HETATM    4  C4  UNL     1     -27.254 -17.153  10.049  1.00  0.00     0.049 C 
HETATM    5  C5  UNL     1     -28.376 -16.138  12.003  1.00  0.00     0.049 C 
HETATM    6  O1  UNL     1     -28.287 -18.472  11.675  1.00  0.00    -0.227 OA
HETATM    7  O2  UNL     1     -29.439 -19.062  11.703  1.00  0.00    -0.200 OA
HETATM    8  C6  UNL     1     -29.996 -18.847  10.443  1.00  0.00     0.197 C 
HETATM    9  C7  UNL     1     -31.438 -19.187  10.352  1.00  0.00     0.082 C 
ENDROOT
BRANCH   8  10
HETATM   10  O3  UNL     1     -29.190 -19.448   9.505  1.00  0.00    -0.363 OA
ATOM     11  H3  UNL     1     -28.300 -19.373   9.827  1.00  0.00     0.213 HD
ENDBRANCH   8  10
TORSDOF 1
ENDMDL
MODEL 3
REMARK VINA RESULT: -4.724666877      2.997      4.230
REMARK  1 active torsions:
REMARK  status: ('A' for Active; 'I' for Inactive)
REMARK    1  A    between atoms: C6_8  and  O3_10 
ROOT
HETATM    1  C1  UNL     1     -27.024 -16.645  12.166  1.00  0.00     0.019 C 
HETATM    2  C2  UNL     1     -27.080 -15.275  11.588  1.00  0.00     0.083 C 
HETATM    3  C3  UNL     1     -28.309 -14.999  10.774  1.00  0.00     0.097 C 
HETATM    4  C4  UNL     1     -29.086 -16.258  10.441  1.00  0.00     0.049 C 
HETATM    5  C5  UNL     1     -29.198 -14.012  11.468  1.00  0.00     0.049 C 
HETATM    6  O1  UNL     1     -27.845 -14.471   9.591  1.00  0.00    -0.227 OA
HETATM    7  O2  UNL     1     -26.602 -14.141   9.731  1.00  0.00    -0.200 OA
HETATM    8  C6  UNL     1     -26.026 -15.172  10.472  1.00  0.00     0.197 C 
HETATM    9  C7  UNL     1     -24.674 -14.858  10.999  1.00  0.00     0.082 C 
ENDROOT
BRANCH   8  10
HETATM   10  O3  UNL     1     -26.116 -16.333   9.742  1.00  0.00    -0.363 OA
ATOM     11  H3  UNL     1     -25.965 -17.046  10.350  1.00  0.00     0.213 HD
ENDBRANCH   8  10
TORSDOF 1
ENDMDL
MODEL 4
REMARK VINA RESULT: -4.721534510      2.468      3.673
REMARK  1 active torsions:
REMARK  status: ('A' for Active; 'I' for Inactive)
REMARK    1  A    between atoms: C6_8  and  O3_10 
ROOT
HETATM    1  C1  UNL     1     -29.243 -15.473  11.716  1.00  0.00     0.019 C 
HETATM    2  C2  UNL     1     -28.058 -16.281  11.318  1.00  0.00     0.083 C 
HETATM    3  C3  UNL     1     -26.867 -15.466  10.909  1.00  0.00     0.097 C 
HETATM    4  C4  UNL     1     -27.205 -14.007  10.678  1.00  0.00     0.049 C 
HETATM    5  C5  UNL     1     -25.766 -15.588  11.918  1.00  0.00     0.049 C 
HETATM    6  O1  UNL     1     -26.467 -15.998   9.704  1.00  0.00    -0.227 OA
HETATM    7  O2  UNL     1     -27.050 -17.139   9.528  1.00  0.00    -0.200 OA
HETATM    8  C6  UNL     1     -28.360 -16.959   9.971  1.00  0.00     0.197 C 
HETATM    9  C7  UNL     1     -29.124 -18.221  10.132  1.00  0.00     0.082 C 
ENDROOT
BRANCH   8  10
HETATM   10  O3  UNL     1     -28.958 -16.007   9.180  1.00  0.00    -0.363 OA
ATOM     11  H3  UNL     1     -28.791 -15.170   9.595  1.00  0.00     0.213 HD
ENDBRANCH   8  10
TORSDOF 1
ENDMDL
MODEL 5
REMARK VINA RESULT: -4.706592342      1.691      3.107
REMARK  1 active torsions:
REMARK  status: ('A' for Active; 'I' for Inactive)
REMARK    1  A    between atoms: C6_8  and  O3_10 
ROOT
HETATM    1  C1  UNL     1     -27.901 -17.730  12.408  1.00  0.00     0.019 C 
HETATM    2  C2  UNL     1     -27.713 -17.305  10.995  1.00  0.00     0.083 C 
HETATM    3  C3  UNL     1     -27.396 -15.849  10.825  1.00  0.00     0.097 C 
HETATM    4  C4  UNL     1     -27.643 -15.044  12.086  1.00  0.00     0.049 C 
HETATM    5  C5  UNL     1     -25.983 -15.661  10.362  1.00  0.00     0.049 C 
HETATM    6  O1  UNL     1     -28.274 -15.400   9.866  1.00  0.00    -0.227 OA
HETATM    7  O2  UNL     1     -28.815 -16.417   9.275  1.00  0.00    -0.200 OA
HETATM    8  C6  UNL     1     -29.079 -17.337  10.289  1.00  0.00     0.197 C 
HETATM    9  C7  UNL     1     -29.431 -18.693   9.800  1.00  0.00     0.082 C 
ENDROOT
BRANCH   8  10
HETATM   10  O3  UNL     1     -29.981 -16.774  11.161  1.00  0.00    -0.363 OA
ATOM     11  H3  UNL     1     -30.395 -16.058  10.694  1.00  0.00     0.213 HD
ENDBRANCH   8  10
TORSDOF 1
ENDMDL
