MODEL 1
REMARK VINA RESULT: -6.879958608      0.000      0.000
REMARK  8 active torsions:
REMARK  status: ('A' for Active; 'I' for Inactive)
REMARK    1  A    between atoms: N1_1  and  C1_4 
REMARK    2  A    between atoms: C2_7  and  C3_8 
REMARK    3  A    between atoms: C3_8  and  N3_9 
REMARK    4  A    between atoms: C4_11  and  C5_12 
REMARK    5  A    between atoms: C5_12  and  O1_13 
REMARK    6  A    between atoms: O1_13  and  C6_14 
REMARK    7  A    between atoms: C7_17  and  N5_18 
REMARK    8  A    between atoms: C8_23  and  N7_24 
ROOT
HETATM    1  N3  UNL     1      23.826 -10.768  15.732  1.00  0.00    -0.354 N 
ATOM      2  H3  UNL     1      23.075 -11.392  15.439  1.00  0.00     0.162 HD
HETATM    3  C4  UNL     1      23.618  -9.516  15.884  1.00  0.00     0.085 C 
ENDROOT
BRANCH   1   4
HETATM    4  C3  UNL     1      25.125 -11.264  15.980  1.00  0.00     0.307 C 
HETATM    5  N9  UNL     1      25.607 -12.166  14.966  1.00  0.00    -0.031 N 
HETATM    6  C9  UNL     1      26.021 -11.408  13.834  1.00  0.00     0.247 C 
ATOM      7  H92 UNL     1      26.343 -12.783  15.311  1.00  0.00     0.281 HD
ATOM      8  H91 UNL     1      24.923 -12.883  14.725  1.00  0.00     0.281 HD
HETATM    9  C10 UNL     1      27.153 -10.480  14.302  1.00  0.00     0.106 C 
HETATM   10  S1  UNL     1      26.393  -9.936  15.887  1.00  0.00    -0.099 SA
BRANCH   4  11
HETATM   11  C2  UNL     1      25.274 -11.918  17.290  1.00  0.00     0.180 A 
HETATM   12  N2  UNL     1      26.174 -12.855  17.594  1.00  0.00    -0.173 N 
HETATM   13  C1  UNL     1      26.025 -13.227  18.876  1.00  0.00     0.692 A 
ATOM     14  H2  UNL     1      26.869 -13.231  16.950  1.00  0.00     0.185 HD
HETATM   15  N11 UNL     1      25.000 -12.477  19.331  1.00  0.00    -0.131 N 
HETATM   16  N10 UNL     1      24.547 -11.689  18.379  1.00  0.00    -0.270 N 
ATOM     17  H11 UNL     1      24.629 -12.515  20.280  1.00  0.00     0.205 HD
ATOM     18  H10 UNL     1      23.777 -11.024  18.462  1.00  0.00     0.189 HD
BRANCH  13  19
HETATM   19  N1  UNL     1      26.710 -14.112  19.539  1.00  0.00    -0.233 N 
ATOM     20  H12 UNL     1      27.677 -14.392  19.379  1.00  0.00     0.174 HD
ATOM     21  H11 UNL     1      26.405 -14.679  20.331  1.00  0.00     0.174 HD
ENDBRANCH  13  19
ENDBRANCH   4  11
ENDBRANCH   1   4
BRANCH   3  22
HETATM   22  C5  UNL     1      22.247  -9.002  15.623  1.00  0.00     0.223 C 
BRANCH  22  23
HETATM   23  O1  UNL     1      22.235  -8.362  14.343  1.00  0.00    -0.316 OA
BRANCH  23  24
HETATM   24  C6  UNL     1      21.998  -7.001  14.298  1.00  0.00     0.252 A 
HETATM   25  N4  UNL     1      20.835  -6.497  13.850  1.00  0.00    -0.154 N 
HETATM   26  C7  UNL     1      20.605  -5.178  13.808  1.00  0.00     0.693 A 
ATOM     27  H4  UNL     1      20.107  -7.138  13.532  1.00  0.00     0.188 HD
HETATM   28  N6  UNL     1      21.544  -4.325  14.218  1.00  0.00    -0.023 N 
HETATM   29  C8  UNL     1      22.723  -4.793  14.675  1.00  0.00     0.693 A 
ATOM     30  H6  UNL     1      21.371  -3.320  14.187  1.00  0.00     0.203 HD
HETATM   31  N8  UNL     1      22.930  -6.122  14.707  1.00  0.00    -0.154 N 
ATOM     32  H8  UNL     1      23.823  -6.474  15.053  1.00  0.00     0.188 HD
BRANCH  26  33
HETATM   33  N5  UNL     1      19.474  -4.744  13.368  1.00  0.00    -0.234 N 
ATOM     34  H52 UNL     1      18.953  -5.272  12.668  1.00  0.00     0.174 HD
ATOM     35  H51 UNL     1      19.099  -3.866  13.726  1.00  0.00     0.174 HD
ENDBRANCH  26  33
BRANCH  29  36
HETATM   36  N7  UNL     1      23.608  -3.936  15.064  1.00  0.00    -0.234 N 
ATOM     37  H72 UNL     1      23.556  -2.943  14.834  1.00  0.00     0.174 HD
ATOM     38  H71 UNL     1      24.390  -4.274  15.625  1.00  0.00     0.174 HD
ENDBRANCH  29  36
ENDBRANCH  23  24
ENDBRANCH  22  23
ENDBRANCH   3  22
TORSDOF 8
ENDMDL
MODEL 2
REMARK VINA RESULT: -6.838073064      0.039      1.650
REMARK  8 active torsions:
REMARK  status: ('A' for Active; 'I' for Inactive)
REMARK    1  A    between atoms: N1_1  and  C1_4 
REMARK    2  A    between atoms: C2_7  and  C3_8 
REMARK    3  A    between atoms: C3_8  and  N3_9 
REMARK    4  A    between atoms: C4_11  and  C5_12 
REMARK    5  A    between atoms: C5_12  and  O1_13 
REMARK    6  A    between atoms: O1_13  and  C6_14 
REMARK    7  A    between atoms: C7_17  and  N5_18 
REMARK    8  A    between atoms: C8_23  and  N7_24 
ROOT
HETATM    1  N3  UNL     1      23.833 -10.790  15.729  1.00  0.00    -0.354 N 
ATOM      2  H3  UNL     1      23.084 -11.417  15.438  1.00  0.00     0.162 HD
HETATM    3  C4  UNL     1      23.622  -9.537  15.875  1.00  0.00     0.085 C 
ENDROOT
BRANCH   1   4
HETATM    4  C3  UNL     1      25.132 -11.281  15.985  1.00  0.00     0.307 C 
HETATM    5  N9  UNL     1      25.624 -12.181  14.973  1.00  0.00    -0.031 N 
HETATM    6  C9  UNL     1      26.042 -11.420  13.845  1.00  0.00     0.247 C 
ATOM      7  H92 UNL     1      26.359 -12.796  15.322  1.00  0.00     0.281 HD
ATOM      8  H91 UNL     1      24.943 -12.900  14.727  1.00  0.00     0.281 HD
HETATM    9  C10 UNL     1      27.168 -10.489  14.321  1.00  0.00     0.106 C 
HETATM   10  S1  UNL     1      26.396  -9.949  15.902  1.00  0.00    -0.099 SA
BRANCH   4  11
HETATM   11  C2  UNL     1      25.275 -11.936  17.295  1.00  0.00     0.180 A 
HETATM   12  N2  UNL     1      26.184 -12.861  17.607  1.00  0.00    -0.173 N 
HETATM   13  C1  UNL     1      26.025 -13.238  18.887  1.00  0.00     0.692 A 
ATOM     14  H2  UNL     1      26.891 -13.227  16.971  1.00  0.00     0.185 HD
HETATM   15  N11 UNL     1      24.986 -12.503  19.332  1.00  0.00    -0.131 N 
HETATM   16  N10 UNL     1      24.532 -11.720  18.377  1.00  0.00    -0.270 N 
ATOM     17  H11 UNL     1      24.604 -12.549  20.277  1.00  0.00     0.205 HD
ATOM     18  H10 UNL     1      23.753 -11.066  18.453  1.00  0.00     0.189 HD
BRANCH  13  19
HETATM   19  N1  UNL     1      26.715 -14.116  19.556  1.00  0.00    -0.233 N 
ATOM     20  H12 UNL     1      27.455 -13.934  20.234  1.00  0.00     0.174 HD
ATOM     21  H11 UNL     1      26.638 -15.133  19.525  1.00  0.00     0.174 HD
ENDBRANCH  13  19
ENDBRANCH   4  11
ENDBRANCH   1   4
BRANCH   3  22
HETATM   22  C5  UNL     1      22.251  -9.028  15.605  1.00  0.00     0.223 C 
BRANCH  22  23
HETATM   23  O1  UNL     1      22.246  -8.381  14.328  1.00  0.00    -0.316 OA
BRANCH  23  24
HETATM   24  C6  UNL     1      21.995  -7.022  14.288  1.00  0.00     0.252 A 
HETATM   25  N4  UNL     1      22.903  -6.119  14.696  1.00  0.00    -0.154 N 
HETATM   26  C7  UNL     1      22.658  -4.802  14.656  1.00  0.00     0.693 A 
ATOM     27  H4  UNL     1      23.804  -6.445  15.046  1.00  0.00     0.188 HD
HETATM   28  N6  UNL     1      21.486  -4.356  14.201  1.00  0.00    -0.023 N 
HETATM   29  C8  UNL     1      20.551  -5.232  13.784  1.00  0.00     0.693 A 
ATOM     30  H6  UNL     1      21.298  -3.354  14.170  1.00  0.00     0.203 HD
HETATM   31  N8  UNL     1      20.820  -6.550  13.834  1.00  0.00    -0.154 N 
ATOM     32  H8  UNL     1      20.111  -7.211  13.518  1.00  0.00     0.188 HD
BRANCH  26  33
HETATM   33  N5  UNL     1      23.562  -3.976  15.059  1.00  0.00    -0.234 N 
ATOM     34  H52 UNL     1      23.788  -3.899  16.050  1.00  0.00     0.174 HD
ATOM     35  H51 UNL     1      24.052  -3.396  14.378  1.00  0.00     0.174 HD
ENDBRANCH  26  33
BRANCH  29  36
HETATM   36  N7  UNL     1      19.428  -4.762  13.351  1.00  0.00    -0.234 N 
ATOM     37  H72 UNL     1      18.699  -4.410  13.972  1.00  0.00     0.174 HD
ATOM     38  H71 UNL     1      19.271  -4.746  12.343  1.00  0.00     0.174 HD
ENDBRANCH  29  36
ENDBRANCH  23  24
ENDBRANCH  22  23
ENDBRANCH   3  22
TORSDOF 8
ENDMDL
MODEL 3
REMARK VINA RESULT: -6.473090894      1.938      3.334
REMARK  8 active torsions:
REMARK  status: ('A' for Active; 'I' for Inactive)
REMARK    1  A    between atoms: N1_1  and  C1_4 
REMARK    2  A    between atoms: C2_7  and  C3_8 
REMARK    3  A    between atoms: C3_8  and  N3_9 
REMARK    4  A    between atoms: C4_11  and  C5_12 
REMARK    5  A    between atoms: C5_12  and  O1_13 
REMARK    6  A    between atoms: O1_13  and  C6_14 
REMARK    7  A    between atoms: C7_17  and  N5_18 
REMARK    8  A    between atoms: C8_23  and  N7_24 
ROOT
HETATM    1  N3  UNL     1      24.655  -9.990  14.591  1.00  0.00    -0.354 N 
ATOM      2  H3  UNL     1      24.971  -9.079  14.262  1.00  0.00     0.162 HD
HETATM    3  C4  UNL     1      23.418 -10.313  14.541  1.00  0.00     0.085 C 
ENDROOT
BRANCH   1   4
HETATM    4  C3  UNL     1      25.570 -10.930  15.116  1.00  0.00     0.307 C 
HETATM    5  N9  UNL     1      26.380 -10.416  16.190  1.00  0.00    -0.031 N 
HETATM    6  C9  UNL     1      25.600 -10.385  17.381  1.00  0.00     0.247 C 
ATOM      7  H92 UNL     1      27.248 -10.939  16.307  1.00  0.00     0.281 HD
ATOM      8  H91 UNL     1      26.790  -9.508  15.969  1.00  0.00     0.281 HD
HETATM    9  C10 UNL     1      25.175 -11.831  17.679  1.00  0.00     0.106 C 
HETATM   10  S1  UNL     1      24.714 -12.316  15.965  1.00  0.00    -0.099 SA
BRANCH   4  11
HETATM   11  C2  UNL     1      26.461 -11.521  14.105  1.00  0.00     0.180 A 
HETATM   12  N2  UNL     1      27.000 -12.740  14.161  1.00  0.00    -0.173 N 
HETATM   13  C1  UNL     1      27.758 -12.951  13.073  1.00  0.00     0.692 A 
ATOM     14  H2  UNL     1      26.858 -13.410  14.917  1.00  0.00     0.185 HD
HETATM   15  N11 UNL     1      27.654 -11.811  12.359  1.00  0.00    -0.131 N 
HETATM   16  N10 UNL     1      26.875 -10.949  12.978  1.00  0.00    -0.270 N 
ATOM     17  H11 UNL     1      28.115 -11.641  11.466  1.00  0.00     0.205 HD
ATOM     18  H10 UNL     1      26.633 -10.013  12.652  1.00  0.00     0.189 HD
BRANCH  13  19
HETATM   19  N1  UNL     1      28.444 -14.013  12.767  1.00  0.00    -0.233 N 
ATOM     20  H12 UNL     1      28.802 -14.724  13.405  1.00  0.00     0.174 HD
ATOM     21  H11 UNL     1      28.745 -14.323  11.842  1.00  0.00     0.174 HD
ENDBRANCH  13  19
ENDBRANCH   4  11
ENDBRANCH   1   4
BRANCH   3  22
HETATM   22  C5  UNL     1      22.462  -9.318  13.987  1.00  0.00     0.223 C 
BRANCH  22  23
HETATM   23  O1  UNL     1      22.089  -8.412  15.030  1.00  0.00    -0.316 OA
BRANCH  23  24
HETATM   24  C6  UNL     1      21.971  -7.071  14.715  1.00  0.00     0.252 A 
HETATM   25  N4  UNL     1      20.879  -6.577  14.107  1.00  0.00    -0.154 N 
HETATM   26  C7  UNL     1      20.766  -5.277  13.804  1.00  0.00     0.693 A 
ATOM     27  H4  UNL     1      20.115  -7.211  13.870  1.00  0.00     0.188 HD
HETATM   28  N6  UNL     1      21.754  -4.434  14.106  1.00  0.00    -0.023 N 
HETATM   29  C8  UNL     1      22.864  -4.893  14.716  1.00  0.00     0.693 A 
ATOM     30  H6  UNL     1      21.669  -3.444  13.876  1.00  0.00     0.203 HD
HETATM   31  N8  UNL     1      22.955  -6.203  15.011  1.00  0.00    -0.154 N 
ATOM     32  H8  UNL     1      23.796  -6.548  15.472  1.00  0.00     0.188 HD
BRANCH  26  33
HETATM   33  N5  UNL     1      19.698  -4.852  13.220  1.00  0.00    -0.234 N 
ATOM     34  H52 UNL     1      19.127  -4.124  13.650  1.00  0.00     0.174 HD
ATOM     35  H51 UNL     1      19.425  -5.249  12.321  1.00  0.00     0.174 HD
ENDBRANCH  26  33
BRANCH  29  36
HETATM   36  N7  UNL     1      23.800  -4.046  14.993  1.00  0.00    -0.234 N 
ATOM     37  H72 UNL     1      23.622  -3.160  15.468  1.00  0.00     0.174 HD
ATOM     38  H71 UNL     1      24.755  -4.280  14.722  1.00  0.00     0.174 HD
ENDBRANCH  29  36
ENDBRANCH  23  24
ENDBRANCH  22  23
ENDBRANCH   3  22
TORSDOF 8
ENDMDL
MODEL 4
REMARK VINA RESULT: -6.456373177      1.934      3.720
REMARK  8 active torsions:
REMARK  status: ('A' for Active; 'I' for Inactive)
REMARK    1  A    between atoms: N1_1  and  C1_4 
REMARK    2  A    between atoms: C2_7  and  C3_8 
REMARK    3  A    between atoms: C3_8  and  N3_9 
REMARK    4  A    between atoms: C4_11  and  C5_12 
REMARK    5  A    between atoms: C5_12  and  O1_13 
REMARK    6  A    between atoms: O1_13  and  C6_14 
REMARK    7  A    between atoms: C7_17  and  N5_18 
REMARK    8  A    between atoms: C8_23  and  N7_24 
ROOT
HETATM    1  N3  UNL     1      24.692 -10.028  14.590  1.00  0.00    -0.354 N 
ATOM      2  H3  UNL     1      25.017  -9.121  14.254  1.00  0.00     0.162 HD
HETATM    3  C4  UNL     1      23.452 -10.338  14.549  1.00  0.00     0.085 C 
ENDROOT
BRANCH   1   4
HETATM    4  C3  UNL     1      25.600 -10.974  15.114  1.00  0.00     0.307 C 
HETATM    5  N9  UNL     1      26.417 -10.466  16.185  1.00  0.00    -0.031 N 
HETATM    6  C9  UNL     1      25.640 -10.425  17.378  1.00  0.00     0.247 C 
ATOM      7  H92 UNL     1      27.281 -10.996  16.302  1.00  0.00     0.281 HD
ATOM      8  H91 UNL     1      26.834  -9.562  15.962  1.00  0.00     0.281 HD
HETATM    9  C10 UNL     1      25.203 -11.867  17.680  1.00  0.00     0.106 C 
HETATM   10  S1  UNL     1      24.734 -12.352  15.968  1.00  0.00    -0.099 SA
BRANCH   4  11
HETATM   11  C2  UNL     1      26.484 -11.575  14.103  1.00  0.00     0.180 A 
HETATM   12  N2  UNL     1      27.025 -12.793  14.168  1.00  0.00    -0.173 N 
HETATM   13  C1  UNL     1      27.775 -13.015  13.076  1.00  0.00     0.692 A 
ATOM     14  H2  UNL     1      26.891 -13.455  14.932  1.00  0.00     0.185 HD
HETATM   15  N11 UNL     1      27.663 -11.883  12.350  1.00  0.00    -0.131 N 
HETATM   16  N10 UNL     1      26.887 -11.016  12.966  1.00  0.00    -0.270 N 
ATOM     17  H11 UNL     1      28.116 -11.722  11.451  1.00  0.00     0.205 HD
ATOM     18  H10 UNL     1      26.641 -10.084  12.632  1.00  0.00     0.189 HD
BRANCH  13  19
HETATM   19  N1  UNL     1      28.461 -14.079  12.776  1.00  0.00    -0.233 N 
ATOM     20  H12 UNL     1      28.643 -14.886  13.373  1.00  0.00     0.174 HD
ATOM     21  H11 UNL     1      28.933 -14.296  11.898  1.00  0.00     0.174 HD
ENDBRANCH  13  19
ENDBRANCH   4  11
ENDBRANCH   1   4
BRANCH   3  22
HETATM   22  C5  UNL     1      22.503  -9.336  13.994  1.00  0.00     0.223 C 
BRANCH  22  23
HETATM   23  O1  UNL     1      22.128  -8.434  15.040  1.00  0.00    -0.316 OA
BRANCH  23  24
HETATM   24  C6  UNL     1      21.989  -7.095  14.727  1.00  0.00     0.252 A 
HETATM   25  N4  UNL     1      22.947  -6.196  15.013  1.00  0.00    -0.154 N 
HETATM   26  C7  UNL     1      22.812  -4.898  14.707  1.00  0.00     0.693 A 
ATOM     27  H4  UNL     1      23.800  -6.511  15.475  1.00  0.00     0.188 HD
HETATM   28  N6  UNL     1      21.704  -4.468  14.103  1.00  0.00    -0.023 N 
HETATM   29  C8  UNL     1      20.722  -5.341  13.801  1.00  0.00     0.693 A 
ATOM     30  H6  UNL     1      21.599  -3.480  13.870  1.00  0.00     0.203 HD
HETATM   31  N8  UNL     1      20.880  -6.639  14.117  1.00  0.00    -0.154 N 
ATOM     32  H8  UNL     1      20.137  -7.297  13.888  1.00  0.00     0.188 HD
BRANCH  26  33
HETATM   33  N5  UNL     1      23.759  -4.075  15.003  1.00  0.00    -0.234 N 
ATOM     34  H52 UNL     1      24.714  -4.249  14.689  1.00  0.00     0.174 HD
ATOM     35  H51 UNL     1      23.548  -3.244  15.554  1.00  0.00     0.174 HD
ENDBRANCH  26  33
BRANCH  29  36
HETATM   36  N7  UNL     1      19.663  -4.886  13.216  1.00  0.00    -0.234 N 
ATOM     37  H72 UNL     1      19.463  -3.889  13.129  1.00  0.00     0.174 HD
ATOM     38  H71 UNL     1      19.004  -5.559  12.826  1.00  0.00     0.174 HD
ENDBRANCH  29  36
ENDBRANCH  23  24
ENDBRANCH  22  23
ENDBRANCH   3  22
TORSDOF 8
ENDMDL
MODEL 5
REMARK VINA RESULT: -6.360501027      1.081      1.909
REMARK  8 active torsions:
REMARK  status: ('A' for Active; 'I' for Inactive)
REMARK    1  A    between atoms: N1_1  and  C1_4 
REMARK    2  A    between atoms: C2_7  and  C3_8 
REMARK    3  A    between atoms: C3_8  and  N3_9 
REMARK    4  A    between atoms: C4_11  and  C5_12 
REMARK    5  A    between atoms: C5_12  and  O1_13 
REMARK    6  A    between atoms: O1_13  and  C6_14 
REMARK    7  A    between atoms: C7_17  and  N5_18 
REMARK    8  A    between atoms: C8_23  and  N7_24 
ROOT
HETATM    1  N3  UNL     1      24.138 -10.238  16.093  1.00  0.00    -0.354 N 
ATOM      2  H3  UNL     1      23.188 -10.480  15.813  1.00  0.00     0.162 HD
HETATM    3  C4  UNL     1      24.436  -9.044  16.439  1.00  0.00     0.085 C 
ENDROOT
BRANCH   1   4
HETATM    4  C3  UNL     1      25.159 -11.213  16.111  1.00  0.00     0.307 C 
HETATM    5  N9  UNL     1      25.049 -12.191  15.059  1.00  0.00    -0.031 N 
HETATM    6  C9  UNL     1      25.506 -11.611  13.841  1.00  0.00     0.247 C 
ATOM      7  H92 UNL     1      25.534 -13.060  15.282  1.00  0.00     0.281 HD
ATOM      8  H91 UNL     1      24.106 -12.572  14.978  1.00  0.00     0.281 HD
HETATM    9  C10 UNL     1      26.978 -11.221  14.052  1.00  0.00     0.106 C 
HETATM   10  S1  UNL     1      26.804 -10.486  15.731  1.00  0.00    -0.099 SA
BRANCH   4  11
HETATM   11  C2  UNL     1      25.283 -11.924  17.393  1.00  0.00     0.180 A 
HETATM   12  N2  UNL     1      26.210 -12.836  17.690  1.00  0.00    -0.173 N 
HETATM   13  C1  UNL     1      26.025 -13.278  18.946  1.00  0.00     0.692 A 
ATOM     14  H2  UNL     1      26.947 -13.151  17.060  1.00  0.00     0.185 HD
HETATM   15  N11 UNL     1      24.951 -12.595  19.392  1.00  0.00    -0.131 N 
HETATM   16  N10 UNL     1      24.502 -11.781  18.460  1.00  0.00    -0.270 N 
ATOM     17  H11 UNL     1      24.543 -12.696  20.321  1.00  0.00     0.205 HD
ATOM     18  H10 UNL     1      23.701 -11.154  18.542  1.00  0.00     0.189 HD
BRANCH  13  19
HETATM   19  N1  UNL     1      26.721 -14.165  19.595  1.00  0.00    -0.233 N 
ATOM     20  H12 UNL     1      27.184 -14.989  19.211  1.00  0.00     0.174 HD
ATOM     21  H11 UNL     1      26.926 -14.195  20.594  1.00  0.00     0.174 HD
ENDBRANCH  13  19
ENDBRANCH   4  11
ENDBRANCH   1   4
BRANCH   3  22
HETATM   22  C5  UNL     1      23.354  -8.024  16.419  1.00  0.00     0.223 C 
BRANCH  22  23
HETATM   23  O1  UNL     1      23.452  -7.277  15.202  1.00  0.00    -0.316 OA
BRANCH  23  24
HETATM   24  C6  UNL     1      22.281  -6.953  14.542  1.00  0.00     0.252 A 
HETATM   25  N4  UNL     1      21.859  -5.682  14.426  1.00  0.00    -0.154 N 
HETATM   26  C7  UNL     1      20.725  -5.369  13.785  1.00  0.00     0.693 A 
ATOM     27  H4  UNL     1      22.418  -4.935  14.839  1.00  0.00     0.188 HD
HETATM   28  N6  UNL     1      19.982  -6.332  13.239  1.00  0.00    -0.023 N 
HETATM   29  C8  UNL     1      20.373  -7.618  13.335  1.00  0.00     0.693 A 
ATOM     30  H6  UNL     1      19.118  -6.095  12.750  1.00  0.00     0.203 HD
HETATM   31  N8  UNL     1      21.515  -7.908  13.983  1.00  0.00    -0.154 N 
ATOM     32  H8  UNL     1      21.810  -8.881  14.054  1.00  0.00     0.188 HD
BRANCH  26  33
HETATM   33  N5  UNL     1      20.363  -4.135  13.702  1.00  0.00    -0.234 N 
ATOM     34  H52 UNL     1      21.051  -3.404  13.516  1.00  0.00     0.174 HD
ATOM     35  H51 UNL     1      19.381  -3.890  13.823  1.00  0.00     0.174 HD
ENDBRANCH  26  33
BRANCH  29  36
HETATM   36  N7  UNL     1      19.626  -8.523  12.793  1.00  0.00    -0.234 N 
ATOM     37  H72 UNL     1      19.548  -9.471  13.163  1.00  0.00     0.174 HD
ATOM     38  H71 UNL     1      19.094  -8.270  11.961  1.00  0.00     0.174 HD
ENDBRANCH  29  36
ENDBRANCH  23  24
ENDBRANCH  22  23
ENDBRANCH   3  22
TORSDOF 8
ENDMDL
