MODEL 1
REMARK VINA RESULT: -7.791350017      0.000      0.000
REMARK  9 active torsions:
REMARK  status: ('A' for Active; 'I' for Inactive)
REMARK    1  A    between atoms: N1_1  and  C1_4 
REMARK    2  A    between atoms: C2_9  and  S1_10 
REMARK    3  A    between atoms: S1_10  and  C3_11 
REMARK    4  A    between atoms: C3_11  and  C4_12 
REMARK    5  A    between atoms: C4_12  and  C5_13 
REMARK    6  A    between atoms: C5_13  and  N4_14 
REMARK    7  A    between atoms: C7_19  and  N6_20 
REMARK    8  A    between atoms: C10_30  and  N10_31 
REMARK    9  A    between atoms: N11_34  and  N12_35 
ROOT
HETATM    1  N4  UNL     1      23.882  -9.706  16.784  1.00  0.00    -0.224 N 
ATOM      2  H4  UNL     1      23.443 -10.096  17.618  1.00  0.00     0.177 HD
HETATM    3  C6  UNL     1      24.921 -10.308  16.403  1.00  0.00     0.702 C 
HETATM    4  N5  UNL     1      25.236 -11.374  17.208  1.00  0.00    -0.173 N 
ATOM      5  H5  UNL     1      24.853 -11.350  18.153  1.00  0.00     0.186 HD
HETATM    6  C7  UNL     1      25.987 -12.446  16.903  1.00  0.00     0.145 C 
HETATM    7  C8  UNL     1      26.518 -12.823  15.678  1.00  0.00     0.122 A 
HETATM    8  N7  UNL     1      27.022 -14.009  15.372  1.00  0.00    -0.278 N 
ATOM      9  H7  UNL     1      27.084 -14.806  16.005  1.00  0.00     0.184 HD
HETATM   10  N8  UNL     1      27.437 -13.993  14.096  1.00  0.00    -0.021 NA
HETATM   11  N9  UNL     1      27.190 -12.790  13.606  1.00  0.00    -0.278 N 
ATOM     12  H9  UNL     1      27.400 -12.486  12.655  1.00  0.00     0.184 HD
HETATM   13  C9  UNL     1      26.620 -12.031  14.555  1.00  0.00     0.123 A 
HETATM   14  C10 UNL     1      26.212 -10.702  14.424  1.00  0.00     0.169 C 
HETATM   15  N11 UNL     1      25.608  -9.897  15.313  1.00  0.00    -0.074 N 
ENDROOT
BRANCH   1  16
HETATM   16  C5  UNL     1      23.226  -8.577  16.242  1.00  0.00     0.139 C 
BRANCH  16  17
HETATM   17  C4  UNL     1      21.923  -9.085  15.586  1.00  0.00     0.031 C 
BRANCH  17  18
HETATM   18  C3  UNL     1      22.008  -8.849  14.094  1.00  0.00     0.084 C 
BRANCH  18  19
HETATM   19  S1  UNL     1      20.814  -7.593  13.562  1.00  0.00    -0.092 SA
BRANCH  19  20
HETATM   20  C2  UNL     1      21.453  -5.980  14.009  1.00  0.00     0.174 A 
HETATM   21  N3  UNL     1      20.793  -4.799  13.993  1.00  0.00    -0.265 N 
HETATM   22  N2  UNL     1      21.610  -3.826  14.394  1.00  0.00    -0.130 N 
ATOM     23  H3  UNL     1      19.819  -4.673  13.717  1.00  0.00     0.189 HD
HETATM   24  C1  UNL     1      22.812  -4.359  14.675  1.00  0.00     0.692 A 
ATOM     25  H2  UNL     1      21.364  -2.840  14.474  1.00  0.00     0.205 HD
HETATM   26  N13 UNL     1      22.697  -5.676  14.433  1.00  0.00    -0.168 N 
ATOM     27  H13 UNL     1      23.449  -6.355  14.554  1.00  0.00     0.186 HD
BRANCH  24  28
HETATM   28  N1  UNL     1      23.844  -3.686  15.094  1.00  0.00    -0.233 N 
ATOM     29  H12 UNL     1      23.903  -2.711  15.388  1.00  0.00     0.174 HD
ATOM     30  H11 UNL     1      24.786  -4.064  15.189  1.00  0.00     0.174 HD
ENDBRANCH  24  28
ENDBRANCH  19  20
ENDBRANCH  18  19
ENDBRANCH  17  18
ENDBRANCH  16  17
ENDBRANCH   1  16
BRANCH  15  31
HETATM   31  N12 UNL     1      25.669  -8.519  15.147  1.00  0.00    -0.322 N 
ATOM     32 2H12 UNL     1      25.095  -7.913  15.734  1.00  0.00     0.178 HD
ATOM     33 1H12 UNL     1      26.306  -8.204  14.416  1.00  0.00     0.178 HD
ENDBRANCH  15  31
BRANCH   6  34
HETATM   34  N6  UNL     1      26.261 -13.247  17.870  1.00  0.00    -0.383 N 
ATOM     35  H62 UNL     1      26.500 -14.194  17.577  1.00  0.00     0.157 HD
ATOM     36  H61 UNL     1      26.210 -12.858  18.812  1.00  0.00     0.157 HD
ENDBRANCH   6  34
BRANCH  14  37
HETATM   37  N10 UNL     1      26.450 -10.175  13.296  1.00  0.00    -0.382 N 
ATOM     38 2H10 UNL     1      26.191 -10.744  12.490  1.00  0.00     0.157 HD
ATOM     39 1H10 UNL     1      26.870  -9.246  13.332  1.00  0.00     0.157 HD
ENDBRANCH  14  37
TORSDOF 9
ENDMDL
MODEL 2
REMARK VINA RESULT: -7.491518782      2.210      7.973
REMARK  9 active torsions:
REMARK  status: ('A' for Active; 'I' for Inactive)
REMARK    1  A    between atoms: N1_1  and  C1_4 
REMARK    2  A    between atoms: C2_9  and  S1_10 
REMARK    3  A    between atoms: S1_10  and  C3_11 
REMARK    4  A    between atoms: C3_11  and  C4_12 
REMARK    5  A    between atoms: C4_12  and  C5_13 
REMARK    6  A    between atoms: C5_13  and  N4_14 
REMARK    7  A    between atoms: C7_19  and  N6_20 
REMARK    8  A    between atoms: C10_30  and  N10_31 
REMARK    9  A    between atoms: N11_34  and  N12_35 
ROOT
HETATM    1  N4  UNL     1      22.849  -8.837  16.117  1.00  0.00    -0.224 N 
ATOM      2  H4  UNL     1      22.320  -9.709  16.114  1.00  0.00     0.177 HD
HETATM    3  C6  UNL     1      22.528  -8.021  15.211  1.00  0.00     0.702 C 
HETATM    4  N5  UNL     1      21.520  -8.495  14.410  1.00  0.00    -0.173 N 
ATOM      5  H5  UNL     1      21.400  -9.508  14.394  1.00  0.00     0.186 HD
HETATM    6  C7  UNL     1      20.673  -7.788  13.644  1.00  0.00     0.145 C 
HETATM    7  C8  UNL     1      20.501  -6.413  13.567  1.00  0.00     0.122 A 
HETATM    8  N7  UNL     1      19.485  -5.779  13.002  1.00  0.00    -0.278 N 
ATOM      9  H7  UNL     1      18.689  -6.225  12.547  1.00  0.00     0.184 HD
HETATM   10  N8  UNL     1      19.671  -4.455  13.126  1.00  0.00    -0.021 NA
HETATM   11  N9  UNL     1      20.810  -4.266  13.770  1.00  0.00    -0.278 N 
ATOM     12  H9  UNL     1      21.209  -3.358  14.008  1.00  0.00     0.184 HD
HETATM   13  C9  UNL     1      21.359  -5.456  14.063  1.00  0.00     0.123 A 
HETATM   14  C10 UNL     1      22.562  -5.673  14.738  1.00  0.00     0.169 C 
HETATM   15  N11 UNL     1      23.151  -6.826  15.094  1.00  0.00    -0.074 N 
ENDROOT
BRANCH   1  16
HETATM   16  C5  UNL     1      23.823  -8.739  17.136  1.00  0.00     0.139 C 
BRANCH  16  17
HETATM   17  C4  UNL     1      24.421 -10.151  17.326  1.00  0.00     0.031 C 
BRANCH  17  18
HETATM   18  C3  UNL     1      25.281 -10.478  16.125  1.00  0.00     0.084 C 
BRANCH  18  19
HETATM   19  S1  UNL     1      25.303 -12.262  15.803  1.00  0.00    -0.092 SA
BRANCH  19  20
HETATM   20  C2  UNL     1      26.416 -12.576  14.434  1.00  0.00     0.174 A 
HETATM   21  N3  UNL     1      26.626 -11.798  13.348  1.00  0.00    -0.265 N 
HETATM   22  N2  UNL     1      27.528 -12.375  12.554  1.00  0.00    -0.130 N 
ATOM     23  H3  UNL     1      26.165 -10.907  13.164  1.00  0.00     0.189 HD
HETATM   24  C1  UNL     1      27.916 -13.535  13.112  1.00  0.00     0.692 A 
ATOM     25  H2  UNL     1      27.867 -11.998  11.669  1.00  0.00     0.205 HD
HETATM   26  N13 UNL     1      27.225 -13.641  14.260  1.00  0.00    -0.168 N 
ATOM     27  H13 UNL     1      27.302 -14.422  14.912  1.00  0.00     0.186 HD
BRANCH  24  28
HETATM   28  N1  UNL     1      28.789 -14.351  12.598  1.00  0.00    -0.233 N 
ATOM     29  H12 UNL     1      29.322 -14.265  11.731  1.00  0.00     0.174 HD
ATOM     30  H11 UNL     1      29.076 -15.236  13.015  1.00  0.00     0.174 HD
ENDBRANCH  24  28
ENDBRANCH  19  20
ENDBRANCH  18  19
ENDBRANCH  17  18
ENDBRANCH  16  17
ENDBRANCH   1  16
BRANCH  15  31
HETATM   31  N12 UNL     1      24.512  -6.848  15.370  1.00  0.00    -0.322 N 
ATOM     32 2H12 UNL     1      24.994  -5.982  15.611  1.00  0.00     0.178 HD
ATOM     33 1H12 UNL     1      24.947  -7.768  15.303  1.00  0.00     0.178 HD
ENDBRANCH  15  31
BRANCH   6  34
HETATM   34  N6  UNL     1      19.902  -8.463  12.867  1.00  0.00    -0.383 N 
ATOM     35  H62 UNL     1      18.946  -8.562  13.206  1.00  0.00     0.157 HD
ATOM     36  H61 UNL     1      20.323  -8.824  12.011  1.00  0.00     0.157 HD
ENDBRANCH   6  34
BRANCH  14  37
HETATM   37  N10 UNL     1      23.194  -4.624  15.062  1.00  0.00    -0.382 N 
ATOM     38 2H10 UNL     1      22.713  -3.748  14.856  1.00  0.00     0.157 HD
ATOM     39 1H10 UNL     1      24.106  -4.782  15.491  1.00  0.00     0.157 HD
ENDBRANCH  14  37
TORSDOF 9
ENDMDL
MODEL 3
REMARK VINA RESULT: -7.306288261      2.283      7.828
REMARK  9 active torsions:
REMARK  status: ('A' for Active; 'I' for Inactive)
REMARK    1  A    between atoms: N1_1  and  C1_4 
REMARK    2  A    between atoms: C2_9  and  S1_10 
REMARK    3  A    between atoms: S1_10  and  C3_11 
REMARK    4  A    between atoms: C3_11  and  C4_12 
REMARK    5  A    between atoms: C4_12  and  C5_13 
REMARK    6  A    between atoms: C5_13  and  N4_14 
REMARK    7  A    between atoms: C7_19  and  N6_20 
REMARK    8  A    between atoms: C10_30  and  N10_31 
REMARK    9  A    between atoms: N11_34  and  N12_35 
ROOT
HETATM    1  N4  UNL     1      25.028  -8.040  15.421  1.00  0.00    -0.224 N 
ATOM      2  H4  UNL     1      25.836  -7.447  15.234  1.00  0.00     0.177 HD
HETATM    3  C6  UNL     1      23.918  -7.443  15.403  1.00  0.00     0.702 C 
HETATM    4  N5  UNL     1      24.046  -6.104  15.130  1.00  0.00    -0.173 N 
ATOM      5  H5  UNL     1      24.960  -5.693  15.320  1.00  0.00     0.186 HD
HETATM    6  C7  UNL     1      23.114  -5.268  14.642  1.00  0.00     0.145 C 
HETATM    7  C8  UNL     1      21.844  -5.555  14.164  1.00  0.00     0.122 A 
HETATM    8  N7  UNL     1      21.070  -4.747  13.456  1.00  0.00    -0.278 N 
ATOM      9  H7  UNL     1      21.311  -3.799  13.168  1.00  0.00     0.184 HD
HETATM   10  N8  UNL     1      19.917  -5.376  13.178  1.00  0.00    -0.021 NA
HETATM   11  N9  UNL     1      19.975  -6.582  13.716  1.00  0.00    -0.278 N 
ATOM     12  H9  UNL     1      19.239  -7.286  13.667  1.00  0.00     0.184 HD
HETATM   13  C9  UNL     1      21.155  -6.736  14.339  1.00  0.00     0.123 A 
HETATM   14  C10 UNL     1      21.591  -7.870  15.026  1.00  0.00     0.169 C 
HETATM   15  N11 UNL     1      22.763  -8.106  15.638  1.00  0.00    -0.074 N 
ENDROOT
BRANCH   1  16
HETATM   16  C5  UNL     1      25.333  -9.400  15.658  1.00  0.00     0.139 C 
BRANCH  16  17
HETATM   17  C4  UNL     1      25.484 -10.075  14.277  1.00  0.00     0.031 C 
BRANCH  17  18
HETATM   18  C3  UNL     1      26.761 -10.886  14.270  1.00  0.00     0.084 C 
BRANCH  18  19
HETATM   19  S1  UNL     1      26.428 -12.633  14.619  1.00  0.00    -0.092 SA
BRANCH  19  20
HETATM   20  C2  UNL     1      26.133 -12.814  16.377  1.00  0.00     0.174 A 
HETATM   21  N3  UNL     1      27.038 -13.108  17.338  1.00  0.00    -0.265 N 
HETATM   22  N2  UNL     1      26.430 -13.156  18.523  1.00  0.00    -0.130 N 
ATOM     23  H3  UNL     1      28.033 -13.268  17.181  1.00  0.00     0.189 HD
HETATM   24  C1  UNL     1      25.123 -12.896  18.349  1.00  0.00     0.692 A 
ATOM     25  H2  UNL     1      26.882 -13.358  19.414  1.00  0.00     0.205 HD
HETATM   26  N13 UNL     1      24.960 -12.690  17.031  1.00  0.00    -0.168 N 
ATOM     27  H13 UNL     1      24.070 -12.469  16.585  1.00  0.00     0.186 HD
BRANCH  24  28
HETATM   28  N1  UNL     1      24.239 -12.863  19.303  1.00  0.00    -0.233 N 
ATOM     29  H12 UNL     1      24.377 -12.761  20.309  1.00  0.00     0.174 HD
ATOM     30  H11 UNL     1      23.231 -12.938  19.166  1.00  0.00     0.174 HD
ENDBRANCH  24  28
ENDBRANCH  19  20
ENDBRANCH  18  19
ENDBRANCH  17  18
ENDBRANCH  16  17
ENDBRANCH   1  16
BRANCH  15  31
HETATM   31  N12 UNL     1      22.847  -9.099  16.606  1.00  0.00    -0.322 N 
ATOM     32 2H12 UNL     1      22.006  -9.398  17.099  1.00  0.00     0.178 HD
ATOM     33 1H12 UNL     1      23.786  -9.466  16.761  1.00  0.00     0.178 HD
ENDBRANCH  15  31
BRANCH   6  34
HETATM   34  N6  UNL     1      23.426  -4.021  14.605  1.00  0.00    -0.383 N 
ATOM     35  H62 UNL     1      22.839  -3.423  15.186  1.00  0.00     0.157 HD
ATOM     36  H61 UNL     1      24.212  -3.767  14.006  1.00  0.00     0.157 HD
ENDBRANCH   6  34
BRANCH  14  37
HETATM   37  N10 UNL     1      20.755  -8.820  15.082  1.00  0.00    -0.382 N 
ATOM     38 2H10 UNL     1      19.892  -8.668  14.560  1.00  0.00     0.157 HD
ATOM     39 1H10 UNL     1      21.046  -9.622  15.641  1.00  0.00     0.157 HD
ENDBRANCH  14  37
TORSDOF 9
ENDMDL
MODEL 4
REMARK VINA RESULT: -7.126483963      1.227      1.500
REMARK  9 active torsions:
REMARK  status: ('A' for Active; 'I' for Inactive)
REMARK    1  A    between atoms: N1_1  and  C1_4 
REMARK    2  A    between atoms: C2_9  and  S1_10 
REMARK    3  A    between atoms: S1_10  and  C3_11 
REMARK    4  A    between atoms: C3_11  and  C4_12 
REMARK    5  A    between atoms: C4_12  and  C5_13 
REMARK    6  A    between atoms: C5_13  and  N4_14 
REMARK    7  A    between atoms: C7_19  and  N6_20 
REMARK    8  A    between atoms: C10_30  and  N10_31 
REMARK    9  A    between atoms: N11_34  and  N12_35 
ROOT
HETATM    1  N4  UNL     1      24.062  -9.609  17.101  1.00  0.00    -0.224 N 
ATOM      2  H4  UNL     1      23.612 -10.007  17.926  1.00  0.00     0.177 HD
HETATM    3  C6  UNL     1      25.050 -10.263  16.671  1.00  0.00     0.702 C 
HETATM    4  N5  UNL     1      25.304 -11.384  17.419  1.00  0.00    -0.173 N 
ATOM      5  H5  UNL     1      24.941 -11.379  18.373  1.00  0.00     0.186 HD
HETATM    6  C7  UNL     1      25.974 -12.489  17.050  1.00  0.00     0.145 C 
HETATM    7  C8  UNL     1      26.456 -12.843  15.798  1.00  0.00     0.122 A 
HETATM    8  N7  UNL     1      26.870 -14.045  15.427  1.00  0.00    -0.278 N 
ATOM      9  H7  UNL     1      26.889 -14.874  16.021  1.00  0.00     0.184 HD
HETATM   10  N8  UNL     1      27.262 -13.997  14.144  1.00  0.00    -0.021 NA
HETATM   11  N9  UNL     1      27.091 -12.758  13.715  1.00  0.00    -0.278 N 
ATOM     12  H9  UNL     1      27.304 -12.425  12.775  1.00  0.00     0.184 HD
HETATM   13  C9  UNL     1      26.591 -12.008  14.710  1.00  0.00     0.123 A 
HETATM   14  C10 UNL     1      26.275 -10.650  14.649  1.00  0.00     0.169 C 
HETATM   15  N11 UNL     1      25.744  -9.848  15.586  1.00  0.00    -0.074 N 
ENDROOT
BRANCH   1  16
HETATM   16  C5  UNL     1      23.475  -8.414  16.626  1.00  0.00     0.139 C 
BRANCH  16  17
HETATM   17  C4  UNL     1      22.203  -8.815  15.846  1.00  0.00     0.031 C 
BRANCH  17  18
HETATM   18  C3  UNL     1      22.579  -9.063  14.402  1.00  0.00     0.084 C 
BRANCH  18  19
HETATM   19  S1  UNL     1      21.114  -9.052  13.334  1.00  0.00    -0.092 SA
BRANCH  19  20
HETATM   20  C2  UNL     1      20.563  -7.358  13.145  1.00  0.00     0.174 A 
HETATM   21  N3  UNL     1      19.789  -6.848  12.159  1.00  0.00    -0.265 N 
HETATM   22  N2  UNL     1      19.600  -5.546  12.369  1.00  0.00    -0.130 N 
ATOM     23  H3  UNL     1      19.408  -7.379  11.376  1.00  0.00     0.189 HD
HETATM   24  C1  UNL     1      20.249  -5.190  13.492  1.00  0.00     0.692 A 
ATOM     25  H2  UNL     1      19.054  -4.922  11.775  1.00  0.00     0.205 HD
HETATM   26  N13 UNL     1      20.832  -6.310  13.951  1.00  0.00    -0.168 N 
ATOM     27  H13 UNL     1      21.401  -6.362  14.796  1.00  0.00     0.186 HD
BRANCH  24  28
HETATM   28  N1  UNL     1      20.272  -3.987  13.986  1.00  0.00    -0.233 N 
ATOM     29  H12 UNL     1      20.031  -3.101  13.542  1.00  0.00     0.174 HD
ATOM     30  H11 UNL     1      20.550  -3.755  14.939  1.00  0.00     0.174 HD
ENDBRANCH  24  28
ENDBRANCH  19  20
ENDBRANCH  18  19
ENDBRANCH  17  18
ENDBRANCH  16  17
ENDBRANCH   1  16
BRANCH  15  31
HETATM   31  N12 UNL     1      25.896  -8.471  15.483  1.00  0.00    -0.322 N 
ATOM     32 2H12 UNL     1      25.343  -7.855  16.078  1.00  0.00     0.178 HD
ATOM     33 1H12 UNL     1      26.576  -8.167  14.786  1.00  0.00     0.178 HD
ENDBRANCH  15  31
BRANCH   6  34
HETATM   34  N6  UNL     1      26.209 -13.352  17.973  1.00  0.00    -0.383 N 
ATOM     35  H62 UNL     1      26.619 -12.960  18.821  1.00  0.00     0.157 HD
ATOM     36  H61 UNL     1      25.968 -14.321  17.762  1.00  0.00     0.157 HD
ENDBRANCH   6  34
BRANCH  14  37
HETATM   37  N10 UNL     1      26.528 -10.087  13.542  1.00  0.00    -0.382 N 
ATOM     38 2H10 UNL     1      26.839 -10.714  12.800  1.00  0.00     0.157 HD
ATOM     39 1H10 UNL     1      26.390  -9.077  13.527  1.00  0.00     0.157 HD
ENDBRANCH  14  37
TORSDOF 9
ENDMDL
MODEL 5
REMARK VINA RESULT: -7.027759338      0.942      1.068
REMARK  9 active torsions:
REMARK  status: ('A' for Active; 'I' for Inactive)
REMARK    1  A    between atoms: N1_1  and  C1_4 
REMARK    2  A    between atoms: C2_9  and  S1_10 
REMARK    3  A    between atoms: S1_10  and  C3_11 
REMARK    4  A    between atoms: C3_11  and  C4_12 
REMARK    5  A    between atoms: C4_12  and  C5_13 
REMARK    6  A    between atoms: C5_13  and  N4_14 
REMARK    7  A    between atoms: C7_19  and  N6_20 
REMARK    8  A    between atoms: C10_30  and  N10_31 
REMARK    9  A    between atoms: N11_34  and  N12_35 
ROOT
HETATM    1  N4  UNL     1      22.954  -9.090  16.665  1.00  0.00    -0.224 N 
ATOM      2  H4  UNL     1      22.370  -9.315  17.470  1.00  0.00     0.177 HD
HETATM    3  C6  UNL     1      24.043  -9.722  16.609  1.00  0.00     0.702 C 
HETATM    4  N5  UNL     1      24.202 -10.589  17.661  1.00  0.00    -0.173 N 
ATOM      5  H5  UNL     1      23.654 -10.384  18.497  1.00  0.00     0.186 HD
HETATM    6  C7  UNL     1      24.991 -11.674  17.724  1.00  0.00     0.145 C 
HETATM    7  C8  UNL     1      25.734 -12.277  16.719  1.00  0.00     0.122 A 
HETATM    8  N7  UNL     1      26.280 -13.483  16.761  1.00  0.00    -0.278 N 
ATOM      9  H7  UNL     1      26.224 -14.131  17.547  1.00  0.00     0.184 HD
HETATM   10  N8  UNL     1      26.920 -13.715  15.604  1.00  0.00    -0.021 NA
HETATM   11  N9  UNL     1      26.770 -12.648  14.838  1.00  0.00    -0.278 N 
ATOM     12  H9  UNL     1      27.150 -12.538  13.898  1.00  0.00     0.184 HD
HETATM   13  C9  UNL     1      26.041 -11.730  15.492  1.00  0.00     0.123 A 
HETATM   14  C10 UNL     1      25.669 -10.470  15.017  1.00  0.00     0.169 C 
HETATM   15  N11 UNL     1      24.917  -9.521  15.596  1.00  0.00    -0.074 N 
ENDROOT
BRANCH   1  16
HETATM   16  C5  UNL     1      22.411  -8.119  15.792  1.00  0.00     0.139 C 
BRANCH  16  17
HETATM   17  C4  UNL     1      21.218  -8.781  15.068  1.00  0.00     0.031 C 
BRANCH  17  18
HETATM   18  C3  UNL     1      21.337  -8.504  13.585  1.00  0.00     0.084 C 
BRANCH  18  19
HETATM   19  S1  UNL     1      20.319  -7.084  13.102  1.00  0.00    -0.092 SA
BRANCH  19  20
HETATM   20  C2  UNL     1      21.064  -5.599  13.774  1.00  0.00     0.174 A 
HETATM   21  N3  UNL     1      20.472  -4.399  13.974  1.00  0.00    -0.265 N 
HETATM   22  N2  UNL     1      21.357  -3.546  14.489  1.00  0.00    -0.130 N 
ATOM     23  H3  UNL     1      19.499  -4.180  13.762  1.00  0.00     0.189 HD
HETATM   24  C1  UNL     1      22.535  -4.179  14.631  1.00  0.00     0.692 A 
ATOM     25  H2  UNL     1      21.172  -2.574  14.735  1.00  0.00     0.205 HD
HETATM   26  N13 UNL     1      22.337  -5.432  14.188  1.00  0.00    -0.168 N 
ATOM     27  H13 UNL     1      23.051  -6.159  14.168  1.00  0.00     0.186 HD
BRANCH  24  28
HETATM   28  N1  UNL     1      23.617  -3.636  15.109  1.00  0.00    -0.233 N 
ATOM     29  H12 UNL     1      23.784  -2.670  15.393  1.00  0.00     0.174 HD
ATOM     30  H11 UNL     1      24.493  -4.131  15.272  1.00  0.00     0.174 HD
ENDBRANCH  24  28
ENDBRANCH  19  20
ENDBRANCH  18  19
ENDBRANCH  17  18
ENDBRANCH  16  17
ENDBRANCH   1  16
BRANCH  15  31
HETATM   31  N12 UNL     1      25.012  -8.205  15.161  1.00  0.00    -0.322 N 
ATOM     32 2H12 UNL     1      24.700  -7.958  14.222  1.00  0.00     0.178 HD
ATOM     33 1H12 UNL     1      25.409  -7.557  15.842  1.00  0.00     0.178 HD
ENDBRANCH  15  31
BRANCH   6  34
HETATM   34  N6  UNL     1      25.083 -12.250  18.870  1.00  0.00    -0.383 N 
ATOM     35  H62 UNL     1      25.688 -11.770  19.535  1.00  0.00     0.157 HD
ATOM     36  H61 UNL     1      24.551 -13.113  18.989  1.00  0.00     0.157 HD
ENDBRANCH   6  34
BRANCH  14  37
HETATM   37  N10 UNL     1      26.109 -10.178  13.865  1.00  0.00    -0.382 N 
ATOM     38 2H10 UNL     1      26.283 -10.976  13.254  1.00  0.00     0.157 HD
ATOM     39 1H10 UNL     1      26.235  -9.182  13.689  1.00  0.00     0.157 HD
ENDBRANCH  14  37
TORSDOF 9
ENDMDL
