MODEL 1
REMARK VINA RESULT: -6.014409116      0.000      0.000
REMARK  9 active torsions:
REMARK  status: ('A' for Active; 'I' for Inactive)
REMARK    1  A    between atoms: C5_11  and  N4_12 
REMARK    2  A    between atoms: C5_11  and  C6_16 
REMARK    3  A    between atoms: C6_16  and  N5_17 
REMARK    4  A    between atoms: C7_24  and  C8_25 
REMARK    5  A    between atoms: C8_25  and  S1_26 
REMARK    6  A    between atoms: S1_26  and  C9_27 
REMARK    7  A    between atoms: C10_32  and  C11_33 
REMARK    8  A    between atoms: C11_33  and  N9_34 
REMARK    9  A    between atoms: C11_33  and  N10_38 
ROOT
HETATM    1  C1  UNL     1      26.814 -11.695  12.558  1.00  0.00     0.175 C 
HETATM    2  N1  UNL     1      26.637 -12.222  13.890  1.00  0.00    -0.187 N 
HETATM    3  C2  UNL     1      25.971 -11.624  14.892  1.00  0.00     0.087 A 
HETATM    4  C3  UNL     1      26.018 -12.433  16.008  1.00  0.00     0.117 A 
HETATM    5  N2  UNL     1      26.721 -13.525  15.656  1.00  0.00    -0.189 N 
ATOM      6  H2  UNL     1      26.938 -14.321  16.257  1.00  0.00     0.184 HD
HETATM    7  C4  UNL     1      27.091 -13.377  14.358  1.00  0.00     0.678 A 
HETATM    8  N3  UNL     1      27.783 -14.260  13.720  1.00  0.00    -0.234 N 
ATOM      9  H31 UNL     1      28.132 -15.148  14.080  1.00  0.00     0.174 HD
ATOM     10  H32 UNL     1      28.061 -14.149  12.745  1.00  0.00     0.174 HD
HETATM   11  C5  UNL     1      25.277 -11.749  17.095  1.00  0.00     0.352 C 
HETATM   12  N6  UNL     1      24.322 -10.952  16.310  1.00  0.00    -0.023 N 
ATOM     13  H61 UNL     1      23.792 -10.255  16.834  1.00  0.00     0.281 HD
ATOM     14  H62 UNL     1      23.498 -11.452  15.976  1.00  0.00     0.281 HD
HETATM   15  C7  UNL     1      25.201 -10.429  15.280  1.00  0.00     0.251 C 
ENDROOT
BRANCH  15  16
HETATM   16  C8  UNL     1      24.432  -9.819  14.138  1.00  0.00     0.122 C 
BRANCH  16  17
HETATM   17  S1  UNL     1      22.704  -9.668  14.674  1.00  0.00    -0.090 SA
BRANCH  17  18
HETATM   18  C9  UNL     1      22.069  -8.024  14.397  1.00  0.00     0.160 A 
HETATM   19  N7  UNL     1      22.718  -6.898  14.742  1.00  0.00    -0.278 N 
HETATM   20  N8  UNL     1      21.963  -5.855  14.393  1.00  0.00    -0.284 N 
ATOM     21  H7  UNL     1      23.631  -6.850  15.194  1.00  0.00     0.189 HD
HETATM   22  C10 UNL     1      20.824  -6.284  13.820  1.00  0.00     0.156 A 
ATOM     23  H8  UNL     1      22.212  -4.877  14.539  1.00  0.00     0.188 HD
HETATM   24  N11 UNL     1      20.917  -7.632  13.836  1.00  0.00    -0.321 N 
ATOM     25  H11 UNL     1      20.206  -8.266  13.471  1.00  0.00     0.169 HD
BRANCH  22  26
HETATM   26  C11 UNL     1      19.744  -5.439  13.306  1.00  0.00     0.446 C 
BRANCH  26  27
HETATM   27  N9  UNL     1      19.671  -5.432  11.858  1.00  0.00    -0.043 N 
ATOM     28  H93 UNL     1      20.569  -5.171  11.449  1.00  0.00     0.277 HD
ATOM     29  H92 UNL     1      19.591  -6.381  11.493  1.00  0.00     0.277 HD
ATOM     30  H91 UNL     1      18.922  -4.840  11.500  1.00  0.00     0.277 HD
ENDBRANCH  26  27
BRANCH  26  31
HETATM   31  N10 UNL     1      19.942  -4.083  13.738  1.00  0.00    -0.043 N 
ATOM     32 3H10 UNL     1      20.863  -3.729  13.479  1.00  0.00     0.277 HD
ATOM     33 2H10 UNL     1      19.376  -3.423  13.204  1.00  0.00     0.277 HD
ATOM     34 1H10 UNL     1      19.771  -4.013  14.741  1.00  0.00     0.277 HD
ENDBRANCH  26  31
ENDBRANCH  22  26
ENDBRANCH  17  18
ENDBRANCH  16  17
ENDBRANCH  15  16
BRANCH  11  35
HETATM   35  N4  UNL     1      26.167 -10.856  17.769  1.00  0.00    -0.037 N 
ATOM     36  H43 UNL     1      26.552 -10.147  17.146  1.00  0.00     0.277 HD
ATOM     37  H42 UNL     1      25.679 -10.231  18.411  1.00  0.00     0.277 HD
ATOM     38  H41 UNL     1      26.892 -11.403  18.233  1.00  0.00     0.277 HD
ENDBRANCH  11  35
BRANCH  11  39
HETATM   39  C6  UNL     1      24.557 -12.700  17.997  1.00  0.00     0.305 C 
BRANCH  39  40
HETATM   40  N5  UNL     1      24.901 -12.359  19.366  1.00  0.00    -0.075 N 
ATOM     41  H53 UNL     1      25.859 -12.613  19.608  1.00  0.00     0.274 HD
ATOM     42  H52 UNL     1      24.987 -11.354  19.513  1.00  0.00     0.274 HD
ATOM     43  H51 UNL     1      24.209 -12.792  19.978  1.00  0.00     0.274 HD
ENDBRANCH  39  40
ENDBRANCH  11  39
TORSDOF 9
ENDMDL
MODEL 2
REMARK VINA RESULT: -5.979104369      1.305      3.371
REMARK  9 active torsions:
REMARK  status: ('A' for Active; 'I' for Inactive)
REMARK    1  A    between atoms: C5_11  and  N4_12 
REMARK    2  A    between atoms: C5_11  and  C6_16 
REMARK    3  A    between atoms: C6_16  and  N5_17 
REMARK    4  A    between atoms: C7_24  and  C8_25 
REMARK    5  A    between atoms: C8_25  and  S1_26 
REMARK    6  A    between atoms: S1_26  and  C9_27 
REMARK    7  A    between atoms: C10_32  and  C11_33 
REMARK    8  A    between atoms: C11_33  and  N9_34 
REMARK    9  A    between atoms: C11_33  and  N10_38 
ROOT
HETATM    1  C1  UNL     1      24.557 -10.671  17.970  1.00  0.00     0.175 C 
HETATM    2  N1  UNL     1      25.295 -11.494  17.043  1.00  0.00    -0.187 N 
HETATM    3  C2  UNL     1      25.480 -11.236  15.737  1.00  0.00     0.087 A 
HETATM    4  C3  UNL     1      26.236 -12.249  15.183  1.00  0.00     0.117 A 
HETATM    5  N2  UNL     1      26.500 -13.114  16.178  1.00  0.00    -0.189 N 
ATOM      6  H2  UNL     1      27.041 -13.975  16.099  1.00  0.00     0.184 HD
HETATM    7  C4  UNL     1      25.916 -12.636  17.307  1.00  0.00     0.678 A 
HETATM    8  N3  UNL     1      25.985 -13.241  18.444  1.00  0.00    -0.234 N 
ATOM      9  H31 UNL     1      26.462 -14.119  18.648  1.00  0.00     0.174 HD
ATOM     10  H32 UNL     1      25.546 -12.882  19.292  1.00  0.00     0.174 HD
HETATM   11  C5  UNL     1      26.424 -11.939  13.745  1.00  0.00     0.352 C 
HETATM   12  N6  UNL     1      26.339 -10.470  13.772  1.00  0.00    -0.023 N 
ATOM     13  H61 UNL     1      26.278 -10.014  12.862  1.00  0.00     0.281 HD
ATOM     14  H62 UNL     1      27.190  -9.984  14.055  1.00  0.00     0.281 HD
HETATM   15  C7  UNL     1      25.192 -10.290  14.644  1.00  0.00     0.251 C 
ENDROOT
BRANCH  15  16
HETATM   16  C8  UNL     1      25.056  -8.865  15.110  1.00  0.00     0.122 C 
BRANCH  16  17
HETATM   17  S1  UNL     1      23.409  -8.698  15.855  1.00  0.00    -0.090 SA
BRANCH  17  18
HETATM   18  C9  UNL     1      22.179  -8.255  14.642  1.00  0.00     0.160 A 
HETATM   19  N7  UNL     1      21.715  -9.093  13.698  1.00  0.00    -0.278 N 
HETATM   20  N8  UNL     1      20.812  -8.441  12.965  1.00  0.00    -0.284 N 
ATOM     21  H7  UNL     1      22.004 -10.062  13.566  1.00  0.00     0.189 HD
HETATM   22  C10 UNL     1      20.676  -7.181  13.417  1.00  0.00     0.156 A 
ATOM     23  H8  UNL     1      20.299  -8.838  12.177  1.00  0.00     0.188 HD
HETATM   24  N11 UNL     1      21.535  -7.094  14.456  1.00  0.00    -0.321 N 
ATOM     25  H11 UNL     1      21.675  -6.258  15.023  1.00  0.00     0.169 HD
BRANCH  22  26
HETATM   26  C11 UNL     1      19.780  -6.159  12.871  1.00  0.00     0.446 C 
BRANCH  26  27
HETATM   27  N9  UNL     1      20.000  -5.909  11.460  1.00  0.00    -0.043 N 
ATOM     28  H93 UNL     1      20.992  -5.771  11.264  1.00  0.00     0.277 HD
ATOM     29  H92 UNL     1      19.838  -6.753  10.911  1.00  0.00     0.277 HD
ATOM     30  H91 UNL     1      19.446  -5.131  11.102  1.00  0.00     0.277 HD
ENDBRANCH  26  27
BRANCH  26  31
HETATM   31  N10 UNL     1      19.980  -4.918  13.568  1.00  0.00    -0.043 N 
ATOM     32 3H10 UNL     1      20.932  -4.824  13.919  1.00  0.00     0.277 HD
ATOM     33 2H10 UNL     1      19.977  -4.117  12.935  1.00  0.00     0.277 HD
ATOM     34 1H10 UNL     1      19.285  -4.824  14.309  1.00  0.00     0.277 HD
ENDBRANCH  26  31
ENDBRANCH  22  26
ENDBRANCH  17  18
ENDBRANCH  16  17
ENDBRANCH  15  16
BRANCH  11  35
HETATM   35  N4  UNL     1      25.305 -12.444  13.013  1.00  0.00    -0.037 N 
ATOM     36  H43 UNL     1      24.436 -12.389  13.544  1.00  0.00     0.277 HD
ATOM     37  H42 UNL     1      25.037 -11.835  12.240  1.00  0.00     0.277 HD
ATOM     38  H41 UNL     1      25.514 -13.394  12.707  1.00  0.00     0.277 HD
ENDBRANCH  11  35
BRANCH  11  39
HETATM   39  C6  UNL     1      27.753 -12.382  13.222  1.00  0.00     0.305 C 
BRANCH  39  40
HETATM   40  N5  UNL     1      27.908 -11.835  11.886  1.00  0.00    -0.075 N 
ATOM     41  H53 UNL     1      27.541 -10.886  11.801  1.00  0.00     0.274 HD
ATOM     42  H52 UNL     1      28.879 -11.625  11.656  1.00  0.00     0.274 HD
ATOM     43  H51 UNL     1      27.477 -12.487  11.231  1.00  0.00     0.274 HD
ENDBRANCH  39  40
ENDBRANCH  11  39
TORSDOF 9
ENDMDL
MODEL 3
REMARK VINA RESULT: -5.923949068      0.643      1.037
REMARK  9 active torsions:
REMARK  status: ('A' for Active; 'I' for Inactive)
REMARK    1  A    between atoms: C5_11  and  N4_12 
REMARK    2  A    between atoms: C5_11  and  C6_16 
REMARK    3  A    between atoms: C6_16  and  N5_17 
REMARK    4  A    between atoms: C7_24  and  C8_25 
REMARK    5  A    between atoms: C8_25  and  S1_26 
REMARK    6  A    between atoms: S1_26  and  C9_27 
REMARK    7  A    between atoms: C10_32  and  C11_33 
REMARK    8  A    between atoms: C11_33  and  N9_34 
REMARK    9  A    between atoms: C11_33  and  N10_38 
ROOT
HETATM    1  C1  UNL     1      26.645 -11.431  12.730  1.00  0.00     0.175 C 
HETATM    2  N1  UNL     1      26.532 -12.078  14.014  1.00  0.00    -0.187 N 
HETATM    3  C2  UNL     1      25.906 -11.580  15.094  1.00  0.00     0.087 A 
HETATM    4  C3  UNL     1      26.009 -12.486  16.130  1.00  0.00     0.117 A 
HETATM    5  N2  UNL     1      26.705 -13.533  15.650  1.00  0.00    -0.189 N 
ATOM      6  H2  UNL     1      26.954 -14.377  16.167  1.00  0.00     0.184 HD
HETATM    7  C4  UNL     1      27.015 -13.265  14.356  1.00  0.00     0.678 A 
HETATM    8  N3  UNL     1      27.685 -14.079  13.611  1.00  0.00    -0.234 N 
ATOM      9  H31 UNL     1      28.057 -14.991  13.874  1.00  0.00     0.174 HD
ATOM     10  H32 UNL     1      27.918 -13.877  12.639  1.00  0.00     0.174 HD
HETATM   11  C5  UNL     1      25.312 -11.912  17.306  1.00  0.00     0.352 C 
HETATM   12  N6  UNL     1      24.317 -11.059  16.639  1.00  0.00    -0.023 N 
ATOM     13  H61 UNL     1      23.805 -10.418  17.246  1.00  0.00     0.281 HD
ATOM     14  H62 UNL     1      23.483 -11.537  16.297  1.00  0.00     0.281 HD
HETATM   15  C7  UNL     1      25.144 -10.435  15.623  1.00  0.00     0.251 C 
ENDROOT
BRANCH  15  16
HETATM   16  C8  UNL     1      24.320  -9.733  14.575  1.00  0.00     0.122 C 
BRANCH  16  17
HETATM   17  S1  UNL     1      23.000  -8.837  15.441  1.00  0.00    -0.090 SA
BRANCH  17  18
HETATM   18  C9  UNL     1      21.785  -8.195  14.304  1.00  0.00     0.160 A 
HETATM   19  N7  UNL     1      21.164  -8.933  13.368  1.00  0.00    -0.278 N 
HETATM   20  N8  UNL     1      20.325  -8.143  12.698  1.00  0.00    -0.284 N 
ATOM     21  H7  UNL     1      21.310  -9.928  13.199  1.00  0.00     0.189 HD
HETATM   22  C10 UNL     1      20.386  -6.890  13.185  1.00  0.00     0.156 A 
ATOM     23  H8  UNL     1      19.725  -8.443  11.930  1.00  0.00     0.188 HD
HETATM   24  N11 UNL     1      21.298  -6.953  14.179  1.00  0.00    -0.321 N 
ATOM     25  H11 UNL     1      21.580  -6.160  14.757  1.00  0.00     0.169 HD
BRANCH  22  26
HETATM   26  C11 UNL     1      19.614  -5.740  12.711  1.00  0.00     0.446 C 
BRANCH  26  27
HETATM   27  N9  UNL     1      19.987  -5.320  11.374  1.00  0.00    -0.043 N 
ATOM     28  H93 UNL     1      20.124  -4.310  11.334  1.00  0.00     0.277 HD
ATOM     29  H92 UNL     1      20.933  -5.626  11.147  1.00  0.00     0.277 HD
ATOM     30  H91 UNL     1      19.325  -5.627  10.661  1.00  0.00     0.277 HD
ENDBRANCH  26  27
BRANCH  26  31
HETATM   31  N10 UNL     1      19.820  -4.622  13.590  1.00  0.00    -0.043 N 
ATOM     32 3H10 UNL     1      20.809  -4.459  13.778  1.00  0.00     0.277 HD
ATOM     33 2H10 UNL     1      19.607  -3.733  13.138  1.00  0.00     0.277 HD
ATOM     34 1H10 UNL     1      19.283  -4.755  14.447  1.00  0.00     0.277 HD
ENDBRANCH  26  31
ENDBRANCH  22  26
ENDBRANCH  17  18
ENDBRANCH  16  17
ENDBRANCH  15  16
BRANCH  11  35
HETATM   35  N4  UNL     1      26.224 -11.073  18.018  1.00  0.00    -0.037 N 
ATOM     36  H43 UNL     1      27.173 -11.130  17.652  1.00  0.00     0.277 HD
ATOM     37  H42 UNL     1      26.062 -10.081  17.839  1.00  0.00     0.277 HD
ATOM     38  H41 UNL     1      26.175 -11.302  19.010  1.00  0.00     0.277 HD
ENDBRANCH  11  35
BRANCH  11  39
HETATM   39  C6  UNL     1      24.640 -12.948  18.149  1.00  0.00     0.305 C 
BRANCH  39  40
HETATM   40  N5  UNL     1      24.969 -12.672  19.536  1.00  0.00    -0.075 N 
ATOM     41  H53 UNL     1      25.841 -13.112  19.832  1.00  0.00     0.274 HD
ATOM     42  H52 UNL     1      25.247 -11.704  19.691  1.00  0.00     0.274 HD
ATOM     43  H51 UNL     1      24.170 -12.952  20.106  1.00  0.00     0.274 HD
ENDBRANCH  39  40
ENDBRANCH  11  39
TORSDOF 9
ENDMDL
MODEL 4
REMARK VINA RESULT: -5.801771761      1.593      1.895
REMARK  9 active torsions:
REMARK  status: ('A' for Active; 'I' for Inactive)
REMARK    1  A    between atoms: C5_11  and  N4_12 
REMARK    2  A    between atoms: C5_11  and  C6_16 
REMARK    3  A    between atoms: C6_16  and  N5_17 
REMARK    4  A    between atoms: C7_24  and  C8_25 
REMARK    5  A    between atoms: C8_25  and  S1_26 
REMARK    6  A    between atoms: S1_26  and  C9_27 
REMARK    7  A    between atoms: C10_32  and  C11_33 
REMARK    8  A    between atoms: C11_33  and  N9_34 
REMARK    9  A    between atoms: C11_33  and  N10_38 
ROOT
HETATM    1  C1  UNL     1      26.730  -9.993  13.881  1.00  0.00     0.175 C 
HETATM    2  N1  UNL     1      26.331 -11.182  14.593  1.00  0.00    -0.187 N 
HETATM    3  C2  UNL     1      25.950 -11.239  15.881  1.00  0.00     0.087 A 
HETATM    4  C3  UNL     1      25.644 -12.545  16.201  1.00  0.00     0.117 A 
HETATM    5  N2  UNL     1      25.846 -13.267  15.084  1.00  0.00    -0.189 N 
ATOM      6  H2  UNL     1      25.709 -14.274  14.985  1.00  0.00     0.184 HD
HETATM    7  C4  UNL     1      26.266 -12.417  14.113  1.00  0.00     0.678 A 
HETATM    8  N3  UNL     1      26.547 -12.803  12.914  1.00  0.00    -0.234 N 
ATOM      9  H31 UNL     1      26.498 -13.752  12.545  1.00  0.00     0.174 HD
ATOM     10  H32 UNL     1      26.863 -12.164  12.184  1.00  0.00     0.174 HD
HETATM   11  C5  UNL     1      25.229 -12.578  17.624  1.00  0.00     0.352 C 
HETATM   12  N6  UNL     1      24.695 -11.215  17.780  1.00  0.00    -0.023 N 
ATOM     13  H61 UNL     1      24.487 -10.929  18.737  1.00  0.00     0.281 HD
ATOM     14  H62 UNL     1      23.744 -11.071  17.439  1.00  0.00     0.281 HD
HETATM   15  C7  UNL     1      25.728 -10.450  17.106  1.00  0.00     0.251 C 
ENDROOT
BRANCH  15  16
HETATM   16  C8  UNL     1      25.294  -9.034  16.833  1.00  0.00     0.122 C 
BRANCH  16  17
HETATM   17  S1  UNL     1      23.514  -8.942  17.176  1.00  0.00    -0.090 SA
BRANCH  17  18
HETATM   18  C9  UNL     1      22.565  -8.717  15.683  1.00  0.00     0.160 A 
HETATM   19  N7  UNL     1      22.652  -9.518  14.607  1.00  0.00    -0.278 N 
HETATM   20  N8  UNL     1      21.811  -9.065  13.676  1.00  0.00    -0.284 N 
ATOM     21  H7  UNL     1      23.258 -10.334  14.518  1.00  0.00     0.189 HD
HETATM   22  C10 UNL     1      21.170  -7.972  14.130  1.00  0.00     0.156 A 
ATOM     23  H8  UNL     1      21.674  -9.484  12.757  1.00  0.00     0.188 HD
HETATM   24  N11 UNL     1      21.657  -7.780  15.375  1.00  0.00    -0.321 N 
ATOM     25  H11 UNL     1      21.373  -7.024  15.998  1.00  0.00     0.169 HD
BRANCH  22  26
HETATM   26  C11 UNL     1      20.170  -7.192  13.399  1.00  0.00     0.446 C 
BRANCH  26  27
HETATM   27  N9  UNL     1      20.123  -7.514  11.986  1.00  0.00    -0.043 N 
ATOM     28  H93 UNL     1      19.709  -8.434  11.835  1.00  0.00     0.277 HD
ATOM     29  H92 UNL     1      19.432  -6.939  11.504  1.00  0.00     0.277 HD
ATOM     30  H91 UNL     1      21.033  -7.445  11.531  1.00  0.00     0.277 HD
ENDBRANCH  26  27
BRANCH  26  31
HETATM   31  N10 UNL     1      20.468  -5.791  13.515  1.00  0.00    -0.043 N 
ATOM     32 3H10 UNL     1      21.190  -5.609  14.213  1.00  0.00     0.277 HD
ATOM     33 2H10 UNL     1      20.961  -5.434  12.697  1.00  0.00     0.277 HD
ATOM     34 1H10 UNL     1      19.611  -5.272  13.705  1.00  0.00     0.277 HD
ENDBRANCH  26  31
ENDBRANCH  22  26
ENDBRANCH  17  18
ENDBRANCH  16  17
ENDBRANCH  15  16
BRANCH  11  35
HETATM   35  N4  UNL     1      26.394 -12.705  18.442  1.00  0.00    -0.037 N 
ATOM     36  H43 UNL     1      26.281 -13.404  19.175  1.00  0.00     0.277 HD
ATOM     37  H42 UNL     1      27.172 -13.142  17.947  1.00  0.00     0.277 HD
ATOM     38  H41 UNL     1      26.635 -11.787  18.815  1.00  0.00     0.277 HD
ENDBRANCH  11  35
BRANCH  11  39
HETATM   39  C6  UNL     1      24.168 -13.595  17.899  1.00  0.00     0.305 C 
BRANCH  39  40
HETATM   40  N5  UNL     1      23.503 -13.220  19.133  1.00  0.00    -0.075 N 
ATOM     41  H53 UNL     1      23.346 -12.214  19.209  1.00  0.00     0.274 HD
ATOM     42  H52 UNL     1      22.526 -13.511  19.161  1.00  0.00     0.274 HD
ATOM     43  H51 UNL     1      24.051 -13.595  19.908  1.00  0.00     0.274 HD
ENDBRANCH  39  40
ENDBRANCH  11  39
TORSDOF 9
ENDMDL
MODEL 5
REMARK VINA RESULT: -5.798873653      1.042      1.091
REMARK  9 active torsions:
REMARK  status: ('A' for Active; 'I' for Inactive)
REMARK    1  A    between atoms: C5_11  and  N4_12 
REMARK    2  A    between atoms: C5_11  and  C6_16 
REMARK    3  A    between atoms: C6_16  and  N5_17 
REMARK    4  A    between atoms: C7_24  and  C8_25 
REMARK    5  A    between atoms: C8_25  and  S1_26 
REMARK    6  A    between atoms: S1_26  and  C9_27 
REMARK    7  A    between atoms: C10_32  and  C11_33 
REMARK    8  A    between atoms: C11_33  and  N9_34 
REMARK    9  A    between atoms: C11_33  and  N10_38 
ROOT
HETATM    1  C1  UNL     1      26.726 -10.266  13.759  1.00  0.00     0.175 C 
HETATM    2  N1  UNL     1      26.324 -11.313  14.667  1.00  0.00    -0.187 N 
HETATM    3  C2  UNL     1      25.744 -11.135  15.866  1.00  0.00     0.087 A 
HETATM    4  C3  UNL     1      25.509 -12.369  16.437  1.00  0.00     0.117 A 
HETATM    5  N2  UNL     1      25.956 -13.285  15.560  1.00  0.00    -0.189 N 
ATOM      6  H2  UNL     1      25.929 -14.298  15.681  1.00  0.00     0.184 HD
HETATM    7  C4  UNL     1      26.451 -12.620  14.485  1.00  0.00     0.678 A 
HETATM    8  N3  UNL     1      26.960 -13.219  13.461  1.00  0.00    -0.234 N 
ATOM      9  H31 UNL     1      27.058 -14.224  13.321  1.00  0.00     0.174 HD
ATOM     10  H32 UNL     1      27.332 -12.720  12.654  1.00  0.00     0.174 HD
HETATM   11  C5  UNL     1      24.869 -12.144  17.756  1.00  0.00     0.352 C 
HETATM   12  N6  UNL     1      24.196 -10.858  17.513  1.00  0.00    -0.023 N 
ATOM     13  H61 UNL     1      23.808 -10.399  18.337  1.00  0.00     0.281 HD
ATOM     14  H62 UNL     1      23.306 -10.912  17.018  1.00  0.00     0.281 HD
HETATM   15  C7  UNL     1      25.253 -10.134  16.829  1.00  0.00     0.251 C 
ENDROOT
BRANCH  15  16
HETATM   16  C8  UNL     1      24.743  -8.877  16.174  1.00  0.00     0.122 C 
BRANCH  16  17
HETATM   17  S1  UNL     1      23.098  -9.249  15.504  1.00  0.00    -0.090 SA
BRANCH  17  18
HETATM   18  C9  UNL     1      22.322  -7.797  14.818  1.00  0.00     0.160 A 
HETATM   19  N7  UNL     1      22.883  -6.575  14.811  1.00  0.00    -0.278 N 
HETATM   20  N8  UNL     1      22.037  -5.728  14.225  1.00  0.00    -0.284 N 
ATOM     21  H7  UNL     1      23.800  -6.337  15.189  1.00  0.00     0.189 HD
HETATM   22  C10 UNL     1      20.923  -6.380  13.845  1.00  0.00     0.156 A 
ATOM     23  H8  UNL     1      22.207  -4.732  14.086  1.00  0.00     0.188 HD
HETATM   24  N11 UNL     1      21.128  -7.660  14.225  1.00  0.00    -0.321 N 
ATOM     25  H11 UNL     1      20.464  -8.421  14.080  1.00  0.00     0.169 HD
BRANCH  22  26
HETATM   26  C11 UNL     1      19.764  -5.792  13.169  1.00  0.00     0.446 C 
BRANCH  26  27
HETATM   27  N9  UNL     1      19.883  -5.810  11.724  1.00  0.00    -0.043 N 
ATOM     28  H93 UNL     1      20.854  -5.693  11.436  1.00  0.00     0.277 HD
ATOM     29  H92 UNL     1      19.712  -6.746  11.356  1.00  0.00     0.277 HD
ATOM     30  H91 UNL     1      19.282  -5.124  11.267  1.00  0.00     0.277 HD
ENDBRANCH  26  27
BRANCH  26  31
HETATM   31  N10 UNL     1      19.611  -4.422  13.575  1.00  0.00    -0.043 N 
ATOM     32 3H10 UNL     1      20.287  -3.809  13.119  1.00  0.00     0.277 HD
ATOM     33 2H10 UNL     1      18.758  -4.004  13.203  1.00  0.00     0.277 HD
ATOM     34 1H10 UNL     1      19.658  -4.358  14.592  1.00  0.00     0.277 HD
ENDBRANCH  26  31
ENDBRANCH  22  26
ENDBRANCH  17  18
ENDBRANCH  16  17
ENDBRANCH  15  16
BRANCH  11  35
HETATM   35  N4  UNL     1      25.890 -11.942  18.735  1.00  0.00    -0.037 N 
ATOM     36  H43 UNL     1      26.504 -12.751  18.829  1.00  0.00     0.277 HD
ATOM     37  H42 UNL     1      26.592 -11.266  18.434  1.00  0.00     0.277 HD
ATOM     38  H41 UNL     1      25.452 -11.681  19.618  1.00  0.00     0.277 HD
ENDBRANCH  11  35
BRANCH  11  39
HETATM   39  C6  UNL     1      23.874 -13.202  18.110  1.00  0.00     0.305 C 
BRANCH  39  40
HETATM   40  N5  UNL     1      23.777 -13.252  19.558  1.00  0.00    -0.075 N 
ATOM     41  H53 UNL     1      24.647 -13.543  20.004  1.00  0.00     0.274 HD
ATOM     42  H52 UNL     1      23.711 -12.327  19.982  1.00  0.00     0.274 HD
ATOM     43  H51 UNL     1      22.988 -13.854  19.796  1.00  0.00     0.274 HD
ENDBRANCH  39  40
ENDBRANCH  11  39
TORSDOF 9
ENDMDL
