MODEL 1
REMARK VINA RESULT: -7.741154629      0.000      0.000
REMARK  8 active torsions:
REMARK  status: ('A' for Active; 'I' for Inactive)
REMARK    1  A    between atoms: C2_2  and  N1_3 
REMARK    2  A    between atoms: C2_2  and  C15_25 
REMARK       I    between atoms: N1_3  and  C3_5 
REMARK       I    between atoms: C3_5  and  N2_7 
REMARK    3  A    between atoms: N2_7  and  C4_9 
REMARK    4  A    between atoms: C4_9  and  C5_10 
REMARK       I    between atoms: C5_10  and  N3_12 
REMARK    5  A    between atoms: N3_12  and  C6_14 
REMARK    6  A    between atoms: C6_14  and  C7_15 
REMARK    7  A    between atoms: C6_14  and  C14_22 
REMARK    8  A    between atoms: C7_15  and  C8_16 
ROOT
HETATM    1  C4  UNL     1       1.870  -8.119   0.928  1.00  0.00     0.227 C 
ENDROOT
BRANCH   1   2
HETATM    2  N2  UNL     1       0.777  -8.149   1.854  1.00  0.00    -0.334 N 
HETATM    3  C3  UNL     1       0.924  -8.583   3.197  1.00  0.00     0.316 C 
HETATM    4  N1  UNL     1      -0.190  -8.614   4.078  1.00  0.00    -0.338 N 
HETATM    5  O1  UNL     1       2.065  -8.938   3.577  1.00  0.00    -0.247 OA
ATOM      6  H1  UNL     1      -1.114  -8.325   3.755  1.00  0.00     0.164 HD
ATOM      7  H2  UNL     1      -0.144  -7.847   1.535  1.00  0.00     0.164 HD
BRANCH   4   8
HETATM    8  C2  UNL     1       0.000  -9.057   5.423  1.00  0.00     0.087 C 
HETATM    9  C1  UNL     1      -0.103  -7.872   6.396  1.00  0.00     0.032 C 
BRANCH   8  10
HETATM   10  C15 UNL     1      -0.991 -10.071   5.896  1.00  0.00     0.026 C 
HETATM   11  C16 UNL     1      -2.275 -10.088   5.150  1.00  0.00     0.008 C 
HETATM   12  C17 UNL     1      -2.903 -11.395   5.588  1.00  0.00     0.002 C 
HETATM   13  C18 UNL     1      -1.805 -12.221   6.229  1.00  0.00     0.020 C 
HETATM   14  C19 UNL     1      -0.524 -11.495   5.793  1.00  0.00     0.088 C 
HETATM   15 CL1  UNL     1      -0.195 -11.958   4.098  1.00  0.00    -0.125 Cl
ENDBRANCH   8  10
ENDBRANCH   4   8
ENDBRANCH   1   2
BRANCH   1  16
HETATM   16  C5  UNL     1       2.117  -9.445   0.313  1.00  0.00     0.236 C 
HETATM   17  O2  UNL     1       2.860 -10.272   0.877  1.00  0.00    -0.272 OA
HETATM   18  N3  UNL     1       1.513  -9.797  -0.925  1.00  0.00    -0.345 N 
ATOM     19  H3  UNL     1       0.902  -9.134  -1.402  1.00  0.00     0.163 HD
BRANCH  18  20
HETATM   20  C6  UNL     1       1.763 -11.079  -1.497  1.00  0.00     0.189 C 
BRANCH  20  21
HETATM   21  C7  UNL     1       2.422 -10.908  -2.869  1.00  0.00     0.074 C 
BRANCH  21  22
HETATM   22  C8  UNL     1       3.846 -11.252  -2.854  1.00  0.00    -0.056 A 
HETATM   23  C9  UNL     1       4.423 -11.735  -1.704  1.00  0.00     0.007 A 
HETATM   24  C10 UNL     1       5.765 -12.064  -1.682  1.00  0.00     0.001 A 
HETATM   25  C11 UNL     1       6.542 -11.905  -2.834  1.00  0.00     0.000 A 
HETATM   26  C12 UNL     1       5.971 -11.422  -3.987  1.00  0.00     0.001 A 
HETATM   27  C13 UNL     1       4.619 -11.100  -3.983  1.00  0.00     0.007 A 
ENDBRANCH  21  22
ENDBRANCH  20  21
BRANCH  20  28
HETATM   28  C14 UNL     1       0.547 -11.891  -1.679  1.00  0.00     0.197 C 
HETATM   29  O3  UNL     1       0.545 -13.146  -1.636  1.00  0.00    -0.646 OA
HETATM   30  O4  UNL     1      -0.667 -11.262  -1.909  1.00  0.00    -0.646 OA
ENDBRANCH  20  28
ENDBRANCH  18  20
ENDBRANCH   1  16
TORSDOF 8
ENDMDL
MODEL 2
REMARK VINA RESULT: -7.694969950      5.735      8.763
REMARK  8 active torsions:
REMARK  status: ('A' for Active; 'I' for Inactive)
REMARK    1  A    between atoms: C2_2  and  N1_3 
REMARK    2  A    between atoms: C2_2  and  C15_25 
REMARK       I    between atoms: N1_3  and  C3_5 
REMARK       I    between atoms: C3_5  and  N2_7 
REMARK    3  A    between atoms: N2_7  and  C4_9 
REMARK    4  A    between atoms: C4_9  and  C5_10 
REMARK       I    between atoms: C5_10  and  N3_12 
REMARK    5  A    between atoms: N3_12  and  C6_14 
REMARK    6  A    between atoms: C6_14  and  C7_15 
REMARK    7  A    between atoms: C6_14  and  C14_22 
REMARK    8  A    between atoms: C7_15  and  C8_16 
ROOT
HETATM    1  C4  UNL     1       8.164 -11.375   0.945  1.00  0.00     0.227 C 
ENDROOT
BRANCH   1   2
HETATM    2  N2  UNL     1       7.013 -10.717   0.401  1.00  0.00    -0.334 N 
HETATM    3  C3  UNL     1       5.729 -11.319   0.374  1.00  0.00     0.316 C 
HETATM    4  N1  UNL     1       4.617 -10.638  -0.191  1.00  0.00    -0.338 N 
HETATM    5  O1  UNL     1       5.610 -12.467   0.862  1.00  0.00    -0.247 OA
ATOM      6  H1  UNL     1       4.729  -9.704  -0.587  1.00  0.00     0.164 HD
ATOM      7  H2  UNL     1       7.122  -9.778   0.017  1.00  0.00     0.164 HD
BRANCH   4   8
HETATM    8  C2  UNL     1       3.341 -11.279  -0.197  1.00  0.00     0.087 C 
HETATM    9  C1  UNL     1       2.518 -10.844   1.025  1.00  0.00     0.032 C 
BRANCH   8  10
HETATM   10  C15 UNL     1       2.495 -10.983  -1.394  1.00  0.00     0.026 C 
HETATM   11  C16 UNL     1       3.037 -11.483  -2.683  1.00  0.00     0.008 C 
HETATM   12  C17 UNL     1       1.849 -11.367  -3.616  1.00  0.00     0.002 C 
HETATM   13  C18 UNL     1       0.619 -11.191  -2.747  1.00  0.00     0.020 C 
HETATM   14  C19 UNL     1       1.120 -11.586  -1.350  1.00  0.00     0.088 C 
HETATM   15 CL1  UNL     1       1.187 -13.371  -1.289  1.00  0.00    -0.125 Cl
ENDBRANCH   8  10
ENDBRANCH   4   8
ENDBRANCH   1   2
BRANCH   1  16
HETATM   16  C5  UNL     1       9.274 -11.460  -0.035  1.00  0.00     0.236 C 
HETATM   17  O2  UNL     1       9.038 -11.702  -1.235  1.00  0.00    -0.272 OA
HETATM   18  N3  UNL     1      10.622 -11.265   0.374  1.00  0.00    -0.345 N 
ATOM     19  H3  UNL     1      10.836 -11.066   1.352  1.00  0.00     0.163 HD
BRANCH  18  20
HETATM   20  C6  UNL     1      11.673 -11.349  -0.585  1.00  0.00     0.189 C 
BRANCH  20  21
HETATM   21  C7  UNL     1      12.751 -12.313  -0.082  1.00  0.00     0.074 C 
BRANCH  21  22
HETATM   22  C8  UNL     1      12.776 -13.570  -0.833  1.00  0.00    -0.056 A 
HETATM   23  C9  UNL     1      11.830 -13.809  -1.802  1.00  0.00     0.007 A 
HETATM   24  C10 UNL     1      11.847 -14.991  -2.517  1.00  0.00     0.001 A 
HETATM   25  C11 UNL     1      12.830 -15.951  -2.255  1.00  0.00     0.000 A 
HETATM   26  C12 UNL     1      13.778 -15.719  -1.288  1.00  0.00     0.001 A 
HETATM   27  C13 UNL     1      13.740 -14.520  -0.584  1.00  0.00     0.007 A 
ENDBRANCH  21  22
ENDBRANCH  20  21
BRANCH  20  28
HETATM   28  C14 UNL     1      12.320 -10.055  -0.866  1.00  0.00     0.197 C 
HETATM   29  O3  UNL     1      13.179  -9.896  -1.768  1.00  0.00    -0.646 OA
HETATM   30  O4  UNL     1      11.979  -8.943  -0.111  1.00  0.00    -0.646 OA
ENDBRANCH  20  28
ENDBRANCH  18  20
ENDBRANCH   1  16
TORSDOF 8
ENDMDL
MODEL 3
REMARK VINA RESULT: -7.648076361      5.733      8.750
REMARK  8 active torsions:
REMARK  status: ('A' for Active; 'I' for Inactive)
REMARK    1  A    between atoms: C2_2  and  N1_3 
REMARK    2  A    between atoms: C2_2  and  C15_25 
REMARK       I    between atoms: N1_3  and  C3_5 
REMARK       I    between atoms: C3_5  and  N2_7 
REMARK    3  A    between atoms: N2_7  and  C4_9 
REMARK    4  A    between atoms: C4_9  and  C5_10 
REMARK       I    between atoms: C5_10  and  N3_12 
REMARK    5  A    between atoms: N3_12  and  C6_14 
REMARK    6  A    between atoms: C6_14  and  C7_15 
REMARK    7  A    between atoms: C6_14  and  C14_22 
REMARK    8  A    between atoms: C7_15  and  C8_16 
ROOT
HETATM    1  C4  UNL     1       8.138 -11.281   1.034  1.00  0.00     0.227 C 
ENDROOT
BRANCH   1   2
HETATM    2  N2  UNL     1       6.984 -10.641   0.472  1.00  0.00    -0.334 N 
HETATM    3  C3  UNL     1       5.716 -11.274   0.403  1.00  0.00     0.316 C 
HETATM    4  N1  UNL     1       4.602 -10.611  -0.178  1.00  0.00    -0.338 N 
HETATM    5  O1  UNL     1       5.614 -12.433   0.869  1.00  0.00    -0.247 OA
ATOM      6  H1  UNL     1       4.700  -9.668  -0.555  1.00  0.00     0.164 HD
ATOM      7  H2  UNL     1       7.079  -9.693   0.107  1.00  0.00     0.164 HD
BRANCH   4   8
HETATM    8  C2  UNL     1       3.343 -11.283  -0.227  1.00  0.00     0.087 C 
HETATM    9  C1  UNL     1       2.480 -10.890   0.983  1.00  0.00     0.032 C 
BRANCH   8  10
HETATM   10  C15 UNL     1       2.519 -10.986  -1.438  1.00  0.00     0.026 C 
HETATM   11  C16 UNL     1       3.067 -11.515  -2.713  1.00  0.00     0.008 C 
HETATM   12  C17 UNL     1       1.894 -11.388  -3.663  1.00  0.00     0.002 C 
HETATM   13  C18 UNL     1       0.657 -11.174  -2.814  1.00  0.00     0.020 C 
HETATM   14  C19 UNL     1       1.132 -11.560  -1.405  1.00  0.00     0.088 C 
HETATM   15 CL1  UNL     1       1.160 -13.345  -1.318  1.00  0.00    -0.125 Cl
ENDBRANCH   8  10
ENDBRANCH   4   8
ENDBRANCH   1   2
BRANCH   1  16
HETATM   16  C5  UNL     1       9.242 -11.402   0.052  1.00  0.00     0.236 C 
HETATM   17  O2  UNL     1       8.997 -11.655  -1.144  1.00  0.00    -0.272 OA
HETATM   18  N3  UNL     1      10.595 -11.230   0.454  1.00  0.00    -0.345 N 
ATOM     19  H3  UNL     1      10.816 -11.022   1.428  1.00  0.00     0.163 HD
BRANCH  18  20
HETATM   20  C6  UNL     1      11.641 -11.349  -0.508  1.00  0.00     0.189 C 
BRANCH  20  21
HETATM   21  C7  UNL     1      12.693 -12.339  -0.000  1.00  0.00     0.074 C 
BRANCH  21  22
HETATM   22  C8  UNL     1      12.718 -13.580  -0.780  1.00  0.00    -0.056 A 
HETATM   23  C9  UNL     1      13.691 -14.521  -0.540  1.00  0.00     0.007 A 
HETATM   24  C10 UNL     1      13.721 -15.694  -1.269  1.00  0.00     0.001 A 
HETATM   25  C11 UNL     1      12.759 -15.927  -2.258  1.00  0.00     0.000 A 
HETATM   26  C12 UNL     1      11.784 -14.990  -2.503  1.00  0.00     0.001 A 
HETATM   27  C13 UNL     1      11.776 -13.819  -1.754  1.00  0.00     0.007 A 
ENDBRANCH  21  22
ENDBRANCH  20  21
BRANCH  20  28
HETATM   28  C14 UNL     1      12.323 -10.076  -0.798  1.00  0.00     0.197 C 
HETATM   29  O3  UNL     1      12.030  -8.993  -0.232  1.00  0.00    -0.646 OA
HETATM   30  O4  UNL     1      13.342 -10.044  -1.737  1.00  0.00    -0.646 OA
ENDBRANCH  20  28
ENDBRANCH  18  20
ENDBRANCH   1  16
TORSDOF 8
ENDMDL
MODEL 4
REMARK VINA RESULT: -7.586483912      5.528      9.153
REMARK  8 active torsions:
REMARK  status: ('A' for Active; 'I' for Inactive)
REMARK    1  A    between atoms: C2_2  and  N1_3 
REMARK    2  A    between atoms: C2_2  and  C15_25 
REMARK       I    between atoms: N1_3  and  C3_5 
REMARK       I    between atoms: C3_5  and  N2_7 
REMARK    3  A    between atoms: N2_7  and  C4_9 
REMARK    4  A    between atoms: C4_9  and  C5_10 
REMARK       I    between atoms: C5_10  and  N3_12 
REMARK    5  A    between atoms: N3_12  and  C6_14 
REMARK    6  A    between atoms: C6_14  and  C7_15 
REMARK    7  A    between atoms: C6_14  and  C14_22 
REMARK    8  A    between atoms: C7_15  and  C8_16 
ROOT
HETATM    1  C4  UNL     1       5.762 -11.664   1.626  1.00  0.00     0.227 C 
ENDROOT
BRANCH   1   2
HETATM    2  N2  UNL     1       7.083 -12.185   1.425  1.00  0.00    -0.334 N 
HETATM    3  C3  UNL     1       8.176 -11.367   1.037  1.00  0.00     0.316 C 
HETATM    4  N1  UNL     1       9.466 -11.926   0.831  1.00  0.00    -0.338 N 
HETATM    5  O1  UNL     1       7.965 -10.141   0.883  1.00  0.00    -0.247 OA
ATOM      6  H1  UNL     1       9.622 -12.926   0.959  1.00  0.00     0.164 HD
ATOM      7  H2  UNL     1       7.243 -13.182   1.565  1.00  0.00     0.164 HD
BRANCH   4   8
HETATM    8  C2  UNL     1      10.540 -11.069   0.442  1.00  0.00     0.087 C 
HETATM    9  C1  UNL     1      11.417 -10.727   1.656  1.00  0.00     0.032 C 
BRANCH   8  10
HETATM   10  C15 UNL     1      11.460 -11.642  -0.587  1.00  0.00     0.026 C 
HETATM   11  C16 UNL     1      11.507 -13.126  -0.628  1.00  0.00     0.008 C 
HETATM   12  C17 UNL     1      12.202 -13.405  -1.945  1.00  0.00     0.002 C 
HETATM   13  C18 UNL     1      12.160 -12.121  -2.749  1.00  0.00     0.020 C 
HETATM   14  C19 UNL     1      11.116 -11.277  -2.003  1.00  0.00     0.088 C 
HETATM   15 CL1  UNL     1       9.501 -11.887  -2.466  1.00  0.00    -0.125 Cl
ENDBRANCH   8  10
ENDBRANCH   4   8
ENDBRANCH   1   2
BRANCH   1  16
HETATM   16  C5  UNL     1       5.123 -11.257   0.352  1.00  0.00     0.236 C 
HETATM   17  O2  UNL     1       4.136 -10.495   0.358  1.00  0.00    -0.272 OA
HETATM   18  N3  UNL     1       5.622 -11.725  -0.895  1.00  0.00    -0.345 N 
ATOM     19  H3  UNL     1       6.428 -12.349  -0.920  1.00  0.00     0.163 HD
BRANCH  18  20
HETATM   20  C6  UNL     1       4.992 -11.319  -2.108  1.00  0.00     0.189 C 
BRANCH  20  21
HETATM   21  C7  UNL     1       4.029 -12.414  -2.576  1.00  0.00     0.074 C 
BRANCH  21  22
HETATM   22  C8  UNL     1       2.626 -12.006  -2.478  1.00  0.00    -0.056 A 
HETATM   23  C9  UNL     1       2.061 -11.244  -3.474  1.00  0.00     0.007 A 
HETATM   24  C10 UNL     1       0.737 -10.857  -3.390  1.00  0.00     0.001 A 
HETATM   25  C11 UNL     1      -0.034 -11.241  -2.287  1.00  0.00     0.000 A 
HETATM   26  C12 UNL     1       0.524 -12.002  -1.289  1.00  0.00     0.001 A 
HETATM   27  C13 UNL     1       1.858 -12.379  -1.398  1.00  0.00     0.007 A 
ENDBRANCH  21  22
ENDBRANCH  20  21
BRANCH  20  28
HETATM   28  C14 UNL     1       5.940 -11.052  -3.204  1.00  0.00     0.197 C 
HETATM   29  O3  UNL     1       6.743 -10.086  -3.200  1.00  0.00    -0.646 OA
HETATM   30  O4  UNL     1       5.968 -11.895  -4.305  1.00  0.00    -0.646 OA
ENDBRANCH  20  28
ENDBRANCH  18  20
ENDBRANCH   1  16
TORSDOF 8
ENDMDL
MODEL 5
REMARK VINA RESULT: -7.326117626      6.397      9.253
REMARK  8 active torsions:
REMARK  status: ('A' for Active; 'I' for Inactive)
REMARK    1  A    between atoms: C2_2  and  N1_3 
REMARK    2  A    between atoms: C2_2  and  C15_25 
REMARK       I    between atoms: N1_3  and  C3_5 
REMARK       I    between atoms: C3_5  and  N2_7 
REMARK    3  A    between atoms: N2_7  and  C4_9 
REMARK    4  A    between atoms: C4_9  and  C5_10 
REMARK       I    between atoms: C5_10  and  N3_12 
REMARK    5  A    between atoms: N3_12  and  C6_14 
REMARK    6  A    between atoms: C6_14  and  C7_15 
REMARK    7  A    between atoms: C6_14  and  C14_22 
REMARK    8  A    between atoms: C7_15  and  C8_16 
ROOT
HETATM    1  C4  UNL     1       8.442 -11.603   0.475  1.00  0.00     0.227 C 
ENDROOT
BRANCH   1   2
HETATM    2  N2  UNL     1       7.308 -11.003  -0.164  1.00  0.00    -0.334 N 
HETATM    3  C3  UNL     1       5.984 -11.476   0.026  1.00  0.00     0.316 C 
HETATM    4  N1  UNL     1       4.889 -10.863  -0.641  1.00  0.00    -0.338 N 
HETATM    5  O1  UNL     1       5.815 -12.450   0.797  1.00  0.00    -0.247 OA
ATOM      6  H1  UNL     1       5.042 -10.072  -1.267  1.00  0.00     0.164 HD
ATOM      7  H2  UNL     1       7.458 -10.203  -0.780  1.00  0.00     0.164 HD
BRANCH   4   8
HETATM    8  C2  UNL     1       3.572 -11.370  -0.422  1.00  0.00     0.087 C 
HETATM    9  C1  UNL     1       2.997 -10.816   0.891  1.00  0.00     0.032 C 
BRANCH   8  10
HETATM   10  C15 UNL     1       2.581 -11.025  -1.488  1.00  0.00     0.026 C 
HETATM   11  C16 UNL     1       2.948 -11.476  -2.854  1.00  0.00     0.008 C 
HETATM   12  C17 UNL     1       1.651 -11.320  -3.621  1.00  0.00     0.002 C 
HETATM   13  C18 UNL     1       0.545 -11.175  -2.595  1.00  0.00     0.020 C 
HETATM   14  C19 UNL     1       1.219 -11.625  -1.290  1.00  0.00     0.088 C 
HETATM   15 CL1  UNL     1       1.279 -13.412  -1.306  1.00  0.00    -0.125 Cl
ENDBRANCH   8  10
ENDBRANCH   4   8
ENDBRANCH   1   2
BRANCH   1  16
HETATM   16  C5  UNL     1       9.293 -10.599   1.159  1.00  0.00     0.236 C 
HETATM   17  O2  UNL     1       8.855  -9.455   1.391  1.00  0.00    -0.272 OA
HETATM   18  N3  UNL     1      10.618 -10.923   1.562  1.00  0.00    -0.345 N 
ATOM     19  H3  UNL     1      10.994 -11.853   1.382  1.00  0.00     0.163 HD
BRANCH  18  20
HETATM   20  C6  UNL     1      11.418  -9.942   2.220  1.00  0.00     0.189 C 
BRANCH  20  21
HETATM   21  C7  UNL     1      12.859 -10.031   1.711  1.00  0.00     0.074 C 
BRANCH  21  22
HETATM   22  C8  UNL     1      13.264  -8.838   0.962  1.00  0.00    -0.056 A 
HETATM   23  C9  UNL     1      13.817  -8.969  -0.290  1.00  0.00     0.007 A 
HETATM   24  C10 UNL     1      14.200  -7.849  -1.003  1.00  0.00     0.001 A 
HETATM   25  C11 UNL     1      14.027  -6.576  -0.451  1.00  0.00     0.000 A 
HETATM   26  C12 UNL     1      13.475  -6.438   0.800  1.00  0.00     0.001 A 
HETATM   27  C13 UNL     1      13.096  -7.581   1.496  1.00  0.00     0.007 A 
ENDBRANCH  21  22
ENDBRANCH  20  21
BRANCH  20  28
HETATM   28  C14 UNL     1      11.447 -10.091   3.685  1.00  0.00     0.197 C 
HETATM   29  O3  UNL     1      10.796 -10.972   4.301  1.00  0.00    -0.646 OA
HETATM   30  O4  UNL     1      12.223  -9.230   4.445  1.00  0.00    -0.646 OA
ENDBRANCH  20  28
ENDBRANCH  18  20
ENDBRANCH   1  16
TORSDOF 8
ENDMDL
