MODEL 1
REMARK VINA RESULT: -6.596775974      0.000      0.000
REMARK  11 active torsions:
REMARK  status: ('A' for Active; 'I' for Inactive)
REMARK    1  A    between atoms: C1_4  and  O1_5 
REMARK    2  A    between atoms: C1_4  and  N2_7 
REMARK    3  A    between atoms: N2_7  and  C2_9 
REMARK    4  A    between atoms: C2_9  and  C3_10 
REMARK    5  A    between atoms: C6_13  and  C7_14 
REMARK    6  A    between atoms: C7_14  and  N3_15 
REMARK    7  A    between atoms: N3_15  and  C8_17 
REMARK    8  A    between atoms: C8_17  and  N4_19 
REMARK    9  A    between atoms: N4_19  and  C9_20 
REMARK   10  A    between atoms: N4_19  and  C11_23 
REMARK   11  A    between atoms: C9_20  and  C10_21 
ROOT
HETATM    1  C3  UNL     1       1.275 -10.543  -1.002  1.00  0.00     0.073 C 
HETATM    2  C4  UNL     1       0.649 -11.580  -1.882  1.00  0.00     0.014 C 
HETATM    3  C5  UNL     1       1.829 -11.932  -2.808  1.00  0.00     0.014 C 
HETATM    4  C6  UNL     1       2.997 -12.031  -1.849  1.00  0.00     0.073 C 
HETATM    5  C15 UNL     1       2.612 -11.156  -0.692  1.00  0.00     0.138 C 
HETATM    6  O2  UNL     1       3.218 -10.946   0.319  1.00  0.00    -0.297 OA
ENDROOT
BRANCH   4   7
HETATM    7  C7  UNL     1       4.248 -11.444  -2.423  1.00  0.00     0.134 C 
BRANCH   7   8
HETATM    8  N3  UNL     1       5.426 -11.601  -1.584  1.00  0.00    -0.366 N 
ATOM      9  H3  UNL     1       5.285 -11.685  -0.577  1.00  0.00     0.161 HD
BRANCH   8  10
HETATM   10  C8  UNL     1       6.739 -11.644  -2.063  1.00  0.00     0.170 C 
HETATM   11  S1  UNL     1       6.895 -12.048  -3.684  1.00  0.00    -0.041 SA
BRANCH  10  12
HETATM   12  N4  UNL     1       7.928 -11.406  -1.315  1.00  0.00    -0.353 N 
BRANCH  12  13
HETATM   13  C9  UNL     1       7.737 -10.939   0.019  1.00  0.00     0.136 C 
BRANCH  13  14
HETATM   14  C10 UNL     1       7.453 -11.997   1.033  1.00  0.00     0.105 C 
HETATM   15 BR1  UNL     1       5.988 -11.647   2.166  1.00  0.00    -0.095 Br
ENDBRANCH  13  14
ENDBRANCH  12  13
BRANCH  12  16
HETATM   16  C11 UNL     1       9.197 -11.690  -1.897  1.00  0.00     0.086 C 
HETATM   17  C12 UNL     1      10.388 -11.221  -1.089  1.00  0.00     0.025 C 
HETATM   18  C13 UNL     1      10.799 -12.625  -0.875  1.00  0.00     0.004 C 
HETATM   19  C14 UNL     1       9.739 -13.084  -1.823  1.00  0.00     0.025 C 
ENDBRANCH  12  16
ENDBRANCH  10  12
ENDBRANCH   8  10
ENDBRANCH   7   8
ENDBRANCH   4   7
BRANCH   1  20
HETATM   20  C2  UNL     1       0.484 -10.292   0.225  1.00  0.00     0.135 C 
BRANCH  20  21
HETATM   21  N2  UNL     1       0.209  -8.926   0.451  1.00  0.00    -0.356 N 
ATOM     22  H2  UNL     1      -0.693  -8.585   0.115  1.00  0.00     0.163 HD
BRANCH  21  23
HETATM   23  C1  UNL     1       1.036  -7.979   1.086  1.00  0.00     0.210 C 
HETATM   24  N1  UNL     1       1.016  -7.866   2.398  1.00  0.00    -0.366 N 
ATOM     25  H12 UNL     1       1.615  -7.180   2.857  1.00  0.00     0.159 HD
ATOM     26  H11 UNL     1       0.380  -8.494   2.890  1.00  0.00     0.159 HD
BRANCH  23  27
HETATM   27  O1  UNL     1       1.896  -7.130   0.419  1.00  0.00    -0.333 OA
ATOM     28  H1  UNL     1       1.499  -6.564  -0.232  1.00  0.00     0.220 HD
ENDBRANCH  23  27
ENDBRANCH  21  23
ENDBRANCH  20  21
ENDBRANCH   1  20
TORSDOF 11
ENDMDL
MODEL 2
REMARK VINA RESULT: -6.592554416      3.119      7.414
REMARK  11 active torsions:
REMARK  status: ('A' for Active; 'I' for Inactive)
REMARK    1  A    between atoms: C1_4  and  O1_5 
REMARK    2  A    between atoms: C1_4  and  N2_7 
REMARK    3  A    between atoms: N2_7  and  C2_9 
REMARK    4  A    between atoms: C2_9  and  C3_10 
REMARK    5  A    between atoms: C6_13  and  C7_14 
REMARK    6  A    between atoms: C7_14  and  N3_15 
REMARK    7  A    between atoms: N3_15  and  C8_17 
REMARK    8  A    between atoms: C8_17  and  N4_19 
REMARK    9  A    between atoms: N4_19  and  C9_20 
REMARK   10  A    between atoms: N4_19  and  C11_23 
REMARK   11  A    between atoms: C9_20  and  C10_21 
ROOT
HETATM    1  C3  UNL     1       9.507 -11.998  -0.194  1.00  0.00     0.073 C 
HETATM    2  C4  UNL     1       9.981 -11.992  -1.614  1.00  0.00     0.014 C 
HETATM    3  C5  UNL     1       8.650 -12.180  -2.368  1.00  0.00     0.014 C 
HETATM    4  C6  UNL     1       7.710 -11.242  -1.640  1.00  0.00     0.073 C 
HETATM    5  C15 UNL     1       8.289 -11.120  -0.262  1.00  0.00     0.138 C 
HETATM    6  O2  UNL     1       7.897 -10.461   0.658  1.00  0.00    -0.297 OA
ENDROOT
BRANCH   4   7
HETATM    7  C7  UNL     1       6.345 -11.831  -1.474  1.00  0.00     0.134 C 
BRANCH   7   8
HETATM    8  N3  UNL     1       5.340 -10.895  -0.993  1.00  0.00    -0.366 N 
ATOM      9  H3  UNL     1       5.409  -9.925  -1.302  1.00  0.00     0.161 HD
BRANCH   8  10
HETATM   10  C8  UNL     1       4.287 -11.233  -0.138  1.00  0.00     0.170 C 
HETATM   11  S1  UNL     1       4.725 -11.523   1.456  1.00  0.00    -0.041 SA
BRANCH  10  12
HETATM   12  N4  UNL     1       2.914 -11.375  -0.491  1.00  0.00    -0.353 N 
BRANCH  12  13
HETATM   13  C9  UNL     1       1.986 -10.688   0.347  1.00  0.00     0.136 C 
BRANCH  13  14
HETATM   14  C10 UNL     1       1.763  -9.251   0.010  1.00  0.00     0.105 C 
HETATM   15 BR1  UNL     1       1.000  -8.216   1.388  1.00  0.00    -0.095 Br
ENDBRANCH  13  14
ENDBRANCH  12  13
BRANCH  12  16
HETATM   16  C11 UNL     1       2.556 -12.122  -1.650  1.00  0.00     0.086 C 
HETATM   17  C12 UNL     1       1.068 -12.318  -1.847  1.00  0.00     0.025 C 
HETATM   18  C13 UNL     1       1.119 -11.499  -3.077  1.00  0.00     0.004 C 
HETATM   19  C14 UNL     1       2.611 -11.458  -2.991  1.00  0.00     0.025 C 
ENDBRANCH  12  16
ENDBRANCH  10  12
ENDBRANCH   8  10
ENDBRANCH   7   8
ENDBRANCH   4   7
BRANCH   1  20
HETATM   20  C2  UNL     1      10.524 -11.462   0.742  1.00  0.00     0.135 C 
BRANCH  20  21
HETATM   21  N2  UNL     1      11.120 -10.261   0.301  1.00  0.00    -0.356 N 
ATOM     22  H2  UNL     1      11.759 -10.338  -0.491  1.00  0.00     0.163 HD
BRANCH  21  23
HETATM   23  C1  UNL     1      10.934  -8.969   0.829  1.00  0.00     0.210 C 
HETATM   24  N1  UNL     1      11.777  -8.006   0.518  1.00  0.00    -0.366 N 
ATOM     25  H12 UNL     1      11.642  -7.070   0.901  1.00  0.00     0.159 HD
ATOM     26  H11 UNL     1      12.538  -8.265  -0.109  1.00  0.00     0.159 HD
BRANCH  23  27
HETATM   27  O1  UNL     1       9.904  -8.619   1.678  1.00  0.00    -0.333 OA
ATOM     28  H1  UNL     1       9.029  -8.840   1.384  1.00  0.00     0.220 HD
ENDBRANCH  23  27
ENDBRANCH  21  23
ENDBRANCH  20  21
ENDBRANCH   1  20
TORSDOF 11
ENDMDL
MODEL 3
REMARK VINA RESULT: -6.575853968      1.364      2.176
REMARK  11 active torsions:
REMARK  status: ('A' for Active; 'I' for Inactive)
REMARK    1  A    between atoms: C1_4  and  O1_5 
REMARK    2  A    between atoms: C1_4  and  N2_7 
REMARK    3  A    between atoms: N2_7  and  C2_9 
REMARK    4  A    between atoms: C2_9  and  C3_10 
REMARK    5  A    between atoms: C6_13  and  C7_14 
REMARK    6  A    between atoms: C7_14  and  N3_15 
REMARK    7  A    between atoms: N3_15  and  C8_17 
REMARK    8  A    between atoms: C8_17  and  N4_19 
REMARK    9  A    between atoms: N4_19  and  C9_20 
REMARK   10  A    between atoms: N4_19  and  C11_23 
REMARK   11  A    between atoms: C9_20  and  C10_21 
ROOT
HETATM    1  C3  UNL     1       1.150 -10.470  -1.010  1.00  0.00     0.073 C 
HETATM    2  C4  UNL     1       0.383 -11.309  -1.985  1.00  0.00     0.014 C 
HETATM    3  C5  UNL     1       1.498 -11.706  -2.971  1.00  0.00     0.014 C 
HETATM    4  C6  UNL     1       2.651 -12.065  -2.058  1.00  0.00     0.073 C 
HETATM    5  C15 UNL     1       2.396 -11.285  -0.802  1.00  0.00     0.138 C 
HETATM    6  O2  UNL     1       3.034 -11.271   0.211  1.00  0.00    -0.297 OA
ENDROOT
BRANCH   4   7
HETATM    7  C7  UNL     1       3.963 -11.587  -2.593  1.00  0.00     0.134 C 
BRANCH   7   8
HETATM    8  N3  UNL     1       5.110 -11.924  -1.764  1.00  0.00    -0.366 N 
ATOM      9  H3  UNL     1       4.930 -12.333  -0.848  1.00  0.00     0.161 HD
BRANCH   8  10
HETATM   10  C8  UNL     1       6.443 -11.726  -2.138  1.00  0.00     0.170 C 
HETATM   11  S1  UNL     1       6.777 -11.992  -3.761  1.00  0.00    -0.041 SA
BRANCH  10  12
HETATM   12  N4  UNL     1       7.521 -11.352  -1.286  1.00  0.00    -0.353 N 
BRANCH  12  13
HETATM   13  C9  UNL     1       8.822 -11.420  -1.868  1.00  0.00     0.136 C 
BRANCH  13  14
HETATM   14  C10 UNL     1       9.581 -12.676  -1.591  1.00  0.00     0.105 C 
HETATM   15 BR1  UNL     1      11.188 -12.444  -0.633  1.00  0.00    -0.095 Br
ENDBRANCH  13  14
ENDBRANCH  12  13
BRANCH  12  16
HETATM   16  C11 UNL     1       7.251 -10.894   0.036  1.00  0.00     0.086 C 
HETATM   17  C12 UNL     1       7.131 -11.986   1.078  1.00  0.00     0.025 C 
HETATM   18  C13 UNL     1       8.346 -11.481   1.752  1.00  0.00     0.004 C 
HETATM   19  C14 UNL     1       8.362 -10.295   0.842  1.00  0.00     0.025 C 
ENDBRANCH  12  16
ENDBRANCH  10  12
ENDBRANCH   8  10
ENDBRANCH   7   8
ENDBRANCH   4   7
BRANCH   1  20
HETATM   20  C2  UNL     1       0.410 -10.258   0.256  1.00  0.00     0.135 C 
BRANCH  20  21
HETATM   21  N2  UNL     1       0.164  -8.899   0.546  1.00  0.00    -0.356 N 
ATOM     22  H2  UNL     1      -0.749  -8.536   0.271  1.00  0.00     0.163 HD
BRANCH  21  23
HETATM   23  C1  UNL     1       1.036  -7.986   1.172  1.00  0.00     0.210 C 
HETATM   24  N1  UNL     1       1.069  -7.907   2.486  1.00  0.00    -0.366 N 
ATOM     25  H12 UNL     1       1.700  -7.245   2.938  1.00  0.00     0.159 HD
ATOM     26  H11 UNL     1       0.440  -8.534   2.987  1.00  0.00     0.159 HD
BRANCH  23  27
HETATM   27  O1  UNL     1       1.886  -7.136   0.493  1.00  0.00    -0.333 OA
ATOM     28  H1  UNL     1       2.671  -7.533   0.134  1.00  0.00     0.220 HD
ENDBRANCH  23  27
ENDBRANCH  21  23
ENDBRANCH  20  21
ENDBRANCH   1  20
TORSDOF 11
ENDMDL
MODEL 4
REMARK VINA RESULT: -6.499553573      1.749      1.861
REMARK  11 active torsions:
REMARK  status: ('A' for Active; 'I' for Inactive)
REMARK    1  A    between atoms: C1_4  and  O1_5 
REMARK    2  A    between atoms: C1_4  and  N2_7 
REMARK    3  A    between atoms: N2_7  and  C2_9 
REMARK    4  A    between atoms: C2_9  and  C3_10 
REMARK    5  A    between atoms: C6_13  and  C7_14 
REMARK    6  A    between atoms: C7_14  and  N3_15 
REMARK    7  A    between atoms: N3_15  and  C8_17 
REMARK    8  A    between atoms: C8_17  and  N4_19 
REMARK    9  A    between atoms: N4_19  and  C9_20 
REMARK   10  A    between atoms: N4_19  and  C11_23 
REMARK   11  A    between atoms: C9_20  and  C10_21 
ROOT
HETATM    1  C3  UNL     1       1.980 -10.425  -0.523  1.00  0.00     0.073 C 
HETATM    2  C4  UNL     1       2.027 -11.508  -1.556  1.00  0.00     0.014 C 
HETATM    3  C5  UNL     1       3.547 -11.654  -1.760  1.00  0.00     0.014 C 
HETATM    4  C6  UNL     1       4.087 -11.619  -0.346  1.00  0.00     0.073 C 
HETATM    5  C15 UNL     1       3.059 -10.852   0.433  1.00  0.00     0.138 C 
HETATM    6  O2  UNL     1       3.047 -10.593   1.602  1.00  0.00    -0.297 OA
ENDROOT
BRANCH   4   7
HETATM    7  C7  UNL     1       5.359 -10.839  -0.248  1.00  0.00     0.134 C 
BRANCH   7   8
HETATM    8  N3  UNL     1       6.564 -11.654  -0.211  1.00  0.00    -0.366 N 
ATOM      9  H3  UNL     1       6.676 -12.301   0.570  1.00  0.00     0.161 HD
BRANCH   8  10
HETATM   10  C8  UNL     1       7.578 -11.613  -1.173  1.00  0.00     0.170 C 
HETATM   11  S1  UNL     1       7.072 -11.233  -2.728  1.00  0.00    -0.041 SA
BRANCH  10  12
HETATM   12  N4  UNL     1       8.961 -11.880  -0.967  1.00  0.00    -0.353 N 
BRANCH  12  13
HETATM   13  C9  UNL     1       9.423 -11.744   0.376  1.00  0.00     0.136 C 
BRANCH  13  14
HETATM   14  C10 UNL     1       9.550 -10.341   0.870  1.00  0.00     0.105 C 
HETATM   15 BR1  UNL     1      11.306  -9.654   0.885  1.00  0.00    -0.095 Br
ENDBRANCH  13  14
ENDBRANCH  12  13
BRANCH  12  16
HETATM   16  C11 UNL     1       9.770 -12.306  -2.059  1.00  0.00     0.086 C 
HETATM   17  C12 UNL     1      10.817 -11.307  -2.505  1.00  0.00     0.025 C 
HETATM   18  C13 UNL     1      11.887 -12.235  -2.079  1.00  0.00     0.004 C 
HETATM   19  C14 UNL     1      10.867 -13.295  -1.813  1.00  0.00     0.025 C 
ENDBRANCH  12  16
ENDBRANCH  10  12
ENDBRANCH   8  10
ENDBRANCH   7   8
ENDBRANCH   4   7
BRANCH   1  20
HETATM   20  C2  UNL     1       0.658 -10.335   0.140  1.00  0.00     0.135 C 
BRANCH  20  21
HETATM   21  N2  UNL     1       0.281  -9.016   0.472  1.00  0.00    -0.356 N 
ATOM     22  H2  UNL     1      -0.673  -8.745   0.231  1.00  0.00     0.163 HD
BRANCH  21  23
HETATM   23  C1  UNL     1       1.070  -8.031   1.097  1.00  0.00     0.210 C 
HETATM   24  N1  UNL     1       1.139  -7.983   2.411  1.00  0.00    -0.366 N 
ATOM     25  H12 UNL     1       1.711  -7.270   2.863  1.00  0.00     0.159 HD
ATOM     26  H11 UNL     1       0.599  -8.688   2.912  1.00  0.00     0.159 HD
BRANCH  23  27
HETATM   27  O1  UNL     1       1.802  -7.078   0.418  1.00  0.00    -0.333 OA
ATOM     28  H1  UNL     1       1.305  -6.358   0.048  1.00  0.00     0.220 HD
ENDBRANCH  23  27
ENDBRANCH  21  23
ENDBRANCH  20  21
ENDBRANCH   1  20
TORSDOF 11
ENDMDL
MODEL 5
REMARK VINA RESULT: -6.426456367      2.056      2.460
REMARK  11 active torsions:
REMARK  status: ('A' for Active; 'I' for Inactive)
REMARK    1  A    between atoms: C1_4  and  O1_5 
REMARK    2  A    between atoms: C1_4  and  N2_7 
REMARK    3  A    between atoms: N2_7  and  C2_9 
REMARK    4  A    between atoms: C2_9  and  C3_10 
REMARK    5  A    between atoms: C6_13  and  C7_14 
REMARK    6  A    between atoms: C7_14  and  N3_15 
REMARK    7  A    between atoms: N3_15  and  C8_17 
REMARK    8  A    between atoms: C8_17  and  N4_19 
REMARK    9  A    between atoms: N4_19  and  C9_20 
REMARK   10  A    between atoms: N4_19  and  C11_23 
REMARK   11  A    between atoms: C9_20  and  C10_21 
ROOT
HETATM    1  C3  UNL     1       1.946 -10.417  -0.309  1.00  0.00     0.073 C 
HETATM    2  C4  UNL     1       2.092 -11.506  -1.326  1.00  0.00     0.014 C 
HETATM    3  C5  UNL     1       3.621 -11.698  -1.334  1.00  0.00     0.014 C 
HETATM    4  C6  UNL     1       3.976 -11.673   0.138  1.00  0.00     0.073 C 
HETATM    5  C15 UNL     1       2.880 -10.872   0.778  1.00  0.00     0.138 C 
HETATM    6  O2  UNL     1       2.726 -10.608   1.936  1.00  0.00    -0.297 OA
ENDROOT
BRANCH   4   7
HETATM    7  C7  UNL     1       5.248 -10.931   0.398  1.00  0.00     0.134 C 
BRANCH   7   8
HETATM    8  N3  UNL     1       6.438 -11.769   0.428  1.00  0.00    -0.366 N 
ATOM      9  H3  UNL     1       6.330 -12.735   0.736  1.00  0.00     0.161 HD
BRANCH   8  10
HETATM   10  C8  UNL     1       7.717 -11.340   0.063  1.00  0.00     0.170 C 
HETATM   11  S1  UNL     1       8.510 -10.402   1.207  1.00  0.00    -0.041 SA
BRANCH  10  12
HETATM   12  N4  UNL     1       8.385 -11.599  -1.168  1.00  0.00    -0.353 N 
BRANCH  12  13
HETATM   13  C9  UNL     1       7.541 -11.914  -2.275  1.00  0.00     0.136 C 
BRANCH  13  14
HETATM   14  C10 UNL     1       6.835 -10.752  -2.891  1.00  0.00     0.105 C 
HETATM   15 BR1  UNL     1       5.397 -11.199  -4.024  1.00  0.00    -0.095 Br
ENDBRANCH  13  14
ENDBRANCH  12  13
BRANCH  12  16
HETATM   16  C11 UNL     1       9.802 -11.480  -1.242  1.00  0.00     0.086 C 
HETATM   17  C12 UNL     1      10.570 -12.697  -0.771  1.00  0.00     0.025 C 
HETATM   18  C13 UNL     1      11.077 -12.912  -2.143  1.00  0.00     0.004 C 
HETATM   19  C14 UNL     1      10.478 -11.612  -2.572  1.00  0.00     0.025 C 
ENDBRANCH  12  16
ENDBRANCH  10  12
ENDBRANCH   8  10
ENDBRANCH   7   8
ENDBRANCH   4   7
BRANCH   1  20
HETATM   20  C2  UNL     1       0.553 -10.285   0.179  1.00  0.00     0.135 C 
BRANCH  20  21
HETATM   21  N2  UNL     1       0.190  -8.958   0.496  1.00  0.00    -0.356 N 
ATOM     22  H2  UNL     1      -0.755  -8.674   0.236  1.00  0.00     0.163 HD
BRANCH  21  23
HETATM   23  C1  UNL     1       0.982  -7.982   1.131  1.00  0.00     0.210 C 
HETATM   24  N1  UNL     1       1.016  -7.919   2.446  1.00  0.00    -0.366 N 
ATOM     25  H12 UNL     1       1.590  -7.212   2.906  1.00  0.00     0.159 HD
ATOM     26  H11 UNL     1       0.448  -8.607   2.941  1.00  0.00     0.159 HD
BRANCH  23  27
HETATM   27  O1  UNL     1       1.751  -7.051   0.462  1.00  0.00    -0.333 OA
ATOM     28  H1  UNL     1       2.619  -7.337   0.204  1.00  0.00     0.220 HD
ENDBRANCH  23  27
ENDBRANCH  21  23
ENDBRANCH  20  21
ENDBRANCH   1  20
TORSDOF 11
ENDMDL
