MODEL 1
REMARK VINA RESULT: -7.319757151      0.000      0.000
REMARK  8 active torsions:
REMARK  status: ('A' for Active; 'I' for Inactive)
REMARK    1  A    between atoms: N3_4  and  C2_6 
REMARK    2  A    between atoms: C2_6  and  C3_7 
REMARK    3  A    between atoms: C2_6  and  C11_18 
REMARK    4  A    between atoms: C3_7  and  C4_8 
REMARK       I    between atoms: C4_8  and  N4_10 
REMARK    5  A    between atoms: N4_10  and  C5_12 
REMARK    6  A    between atoms: C11_18  and  N5_19 
REMARK    7  A    between atoms: C11_18  and  C12_23 
REMARK    8  A    between atoms: C12_23  and  C13_24 
ROOT
HETATM    1  C2  UNL     1       9.065 -11.993   0.557  1.00  0.00     0.123 C 
ENDROOT
BRANCH   1   2
HETATM    2  N3  UNL     1       9.377 -11.381  -0.749  1.00  0.00    -0.360 N 
HETATM    3  C1  UNL     1      10.157 -11.984  -1.596  1.00  0.00     0.197 C 
HETATM    4  N1  UNL     1      10.768 -13.238  -1.380  1.00  0.00    -0.067 NA
HETATM    5  N2  UNL     1      10.407 -11.325  -2.830  1.00  0.00    -0.067 NA
ATOM      6  H3  UNL     1       8.977 -10.474  -0.989  1.00  0.00     0.162 HD
ENDBRANCH   1   2
BRANCH   1   7
HETATM    7  C3  UNL     1      10.010 -11.371   1.566  1.00  0.00     0.130 C 
BRANCH   7   8
HETATM    8  C4  UNL     1      10.534 -10.052   1.168  1.00  0.00     0.220 C 
HETATM    9  O1  UNL     1       9.779  -9.046   1.236  1.00  0.00    -0.274 OA
HETATM   10  N4  UNL     1      11.875  -9.872   0.706  1.00  0.00    -0.356 N 
ATOM     11  H4  UNL     1      12.490 -10.682   0.644  1.00  0.00     0.162 HD
BRANCH  10  12
HETATM   12  C5  UNL     1      12.385  -8.567   0.321  1.00  0.00     0.084 C 
HETATM   13  C6  UNL     1      13.339  -8.651  -0.818  1.00  0.00     0.025 C 
HETATM   14  C7  UNL     1      14.362  -7.569  -0.884  1.00  0.00     0.002 C 
HETATM   15  C8  UNL     1      14.941  -7.188   0.452  1.00  0.00     0.000 C 
HETATM   16  C9  UNL     1      13.749  -6.686   1.273  1.00  0.00     0.002 C 
HETATM   17  C10 UNL     1      12.880  -7.879   1.534  1.00  0.00     0.025 C 
ENDBRANCH  10  12
ENDBRANCH   7   8
ENDBRANCH   1   7
BRANCH   1  18
HETATM   18  C11 UNL     1       7.645 -11.727   0.883  1.00  0.00     0.210 C 
BRANCH  18  19
HETATM   19  N5  UNL     1       7.569 -11.322   2.308  1.00  0.00    -0.073 N 
ATOM     20  H53 UNL     1       7.783 -12.087   2.948  1.00  0.00     0.274 HD
ATOM     21  H52 UNL     1       8.329 -10.699   2.581  1.00  0.00     0.274 HD
ATOM     22  H51 UNL     1       6.648 -10.916   2.473  1.00  0.00     0.274 HD
ENDBRANCH  18  19
BRANCH  18  23
HETATM   23  C12 UNL     1       6.946 -10.783  -0.005  1.00  0.00     0.073 C 
BRANCH  23  24
HETATM   24  C13 UNL     1       5.639 -11.119  -0.551  1.00  0.00    -0.056 A 
HETATM   25  C14 UNL     1       5.522 -11.430  -1.887  1.00  0.00     0.008 A 
HETATM   26  C15 UNL     1       4.274 -11.692  -2.398  1.00  0.00     0.019 A 
HETATM   27  C16 UNL     1       3.135 -11.657  -1.632  1.00  0.00     0.011 A 
HETATM   28 BR1  UNL     1       1.409 -12.029  -2.365  1.00  0.00    -0.051 Br
HETATM   29  C17 UNL     1       3.245 -11.345  -0.292  1.00  0.00     0.019 A 
HETATM   30  C18 UNL     1       4.493 -11.085   0.214  1.00  0.00     0.008 A 
ENDBRANCH  23  24
ENDBRANCH  18  23
ENDBRANCH   1  18
TORSDOF 8
ENDMDL
MODEL 2
REMARK VINA RESULT: -7.247985777      4.311      8.652
REMARK  8 active torsions:
REMARK  status: ('A' for Active; 'I' for Inactive)
REMARK    1  A    between atoms: N3_4  and  C2_6 
REMARK    2  A    between atoms: C2_6  and  C3_7 
REMARK    3  A    between atoms: C2_6  and  C11_18 
REMARK    4  A    between atoms: C3_7  and  C4_8 
REMARK       I    between atoms: C4_8  and  N4_10 
REMARK    5  A    between atoms: N4_10  and  C5_12 
REMARK    6  A    between atoms: C11_18  and  N5_19 
REMARK    7  A    between atoms: C11_18  and  C12_23 
REMARK    8  A    between atoms: C12_23  and  C13_24 
ROOT
HETATM    1  C2  UNL     1       7.862 -11.604  -0.102  1.00  0.00     0.123 C 
ENDROOT
BRANCH   1   2
HETATM    2  N3  UNL     1       7.759 -11.075   1.271  1.00  0.00    -0.360 N 
HETATM    3  C1  UNL     1       6.771 -11.416   2.043  1.00  0.00     0.197 C 
HETATM    4  N1  UNL     1       5.727 -12.294   1.677  1.00  0.00    -0.067 NA
HETATM    5  N2  UNL     1       6.746 -10.861   3.351  1.00  0.00    -0.067 NA
ATOM      6  H3  UNL     1       8.472 -10.434   1.619  1.00  0.00     0.162 HD
ENDBRANCH   1   2
BRANCH   1   7
HETATM    7  C3  UNL     1       7.017 -10.701  -0.980  1.00  0.00     0.130 C 
BRANCH   7   8
HETATM    8  C4  UNL     1       5.894 -11.385  -1.645  1.00  0.00     0.220 C 
HETATM    9  O1  UNL     1       6.132 -12.159  -2.609  1.00  0.00    -0.274 OA
HETATM   10  N4  UNL     1       4.537 -11.200  -1.235  1.00  0.00    -0.356 N 
ATOM     11  H4  UNL     1       4.336 -10.571  -0.457  1.00  0.00     0.162 HD
BRANCH  10  12
HETATM   12  C5  UNL     1       3.436 -11.882  -1.893  1.00  0.00     0.084 C 
HETATM   13  C6  UNL     1       3.144 -11.310  -3.236  1.00  0.00     0.025 C 
HETATM   14  C7  UNL     1       1.738 -11.457  -3.708  1.00  0.00     0.002 C 
HETATM   15  C8  UNL     1       0.703 -11.226  -2.639  1.00  0.00     0.000 C 
HETATM   16  C9  UNL     1       0.979 -12.299  -1.581  1.00  0.00     0.002 C 
HETATM   17  C10 UNL     1       2.295 -11.949  -0.953  1.00  0.00     0.025 C 
ENDBRANCH  10  12
ENDBRANCH   7   8
ENDBRANCH   1   7
BRANCH   1  18
HETATM   18  C11 UNL     1       9.286 -11.606  -0.510  1.00  0.00     0.210 C 
BRANCH  18  19
HETATM   19  N5  UNL     1      10.077 -12.217   0.586  1.00  0.00    -0.073 N 
ATOM     20  H53 UNL     1       9.597 -13.000   1.029  1.00  0.00     0.274 HD
ATOM     21  H52 UNL     1      10.890 -12.730   0.247  1.00  0.00     0.274 HD
ATOM     22  H51 UNL     1      10.322 -11.480   1.248  1.00  0.00     0.274 HD
ENDBRANCH  18  19
BRANCH  18  23
HETATM   23  C12 UNL     1       9.580 -12.213  -1.818  1.00  0.00     0.073 C 
BRANCH  23  24
HETATM   24  C13 UNL     1      10.902 -12.756  -2.095  1.00  0.00    -0.056 A 
HETATM   25  C14 UNL     1      11.930 -11.902  -2.425  1.00  0.00     0.008 A 
HETATM   26  C15 UNL     1      13.158 -12.435  -2.736  1.00  0.00     0.019 A 
HETATM   27  C16 UNL     1      13.405 -13.786  -2.731  1.00  0.00     0.011 A 
HETATM   28 BR1  UNL     1      15.124 -14.503  -3.164  1.00  0.00    -0.051 Br
HETATM   29  C17 UNL     1      12.378 -14.647  -2.402  1.00  0.00     0.019 A 
HETATM   30  C18 UNL     1      11.154 -14.111  -2.092  1.00  0.00     0.008 A 
ENDBRANCH  23  24
ENDBRANCH  18  23
ENDBRANCH   1  18
TORSDOF 8
ENDMDL
MODEL 3
REMARK VINA RESULT: -7.165541390      6.115      9.468
REMARK  8 active torsions:
REMARK  status: ('A' for Active; 'I' for Inactive)
REMARK    1  A    between atoms: N3_4  and  C2_6 
REMARK    2  A    between atoms: C2_6  and  C3_7 
REMARK    3  A    between atoms: C2_6  and  C11_18 
REMARK    4  A    between atoms: C3_7  and  C4_8 
REMARK       I    between atoms: C4_8  and  N4_10 
REMARK    5  A    between atoms: N4_10  and  C5_12 
REMARK    6  A    between atoms: C11_18  and  N5_19 
REMARK    7  A    between atoms: C11_18  and  C12_23 
REMARK    8  A    between atoms: C12_23  and  C13_24 
ROOT
HETATM    1  C2  UNL     1       1.894 -10.433   3.256  1.00  0.00     0.123 C 
ENDROOT
BRANCH   1   2
HETATM    2  N3  UNL     1       1.338 -10.296   4.616  1.00  0.00    -0.360 N 
HETATM    3  C1  UNL     1       0.300 -10.985   4.982  1.00  0.00     0.197 C 
HETATM    4  N1  UNL     1      -0.388 -11.906   4.162  1.00  0.00    -0.067 NA
HETATM    5  N2  UNL     1      -0.173 -10.794   6.309  1.00  0.00    -0.067 NA
ATOM      6  H3  UNL     1       1.774  -9.653   5.277  1.00  0.00     0.162 HD
ENDBRANCH   1   2
BRANCH   1   7
HETATM    7  C3  UNL     1       1.246  -9.353   2.412  1.00  0.00     0.130 C 
BRANCH   7   8
HETATM    8  C4  UNL     1       0.872  -9.791   1.056  1.00  0.00     0.220 C 
HETATM    9  O1  UNL     1       0.281  -8.983   0.292  1.00  0.00    -0.274 OA
HETATM   10  N4  UNL     1       1.156 -11.106   0.573  1.00  0.00    -0.356 N 
ATOM     11  H4  UNL     1       1.630 -11.768   1.188  1.00  0.00     0.162 HD
BRANCH  10  12
HETATM   12  C5  UNL     1       0.787 -11.529  -0.767  1.00  0.00     0.084 C 
HETATM   13  C6  UNL     1       1.191 -12.934  -1.044  1.00  0.00     0.025 C 
HETATM   14  C7  UNL     1       1.452 -13.261  -2.474  1.00  0.00     0.002 C 
HETATM   15  C8  UNL     1       2.195 -12.187  -3.224  1.00  0.00     0.000 C 
HETATM   16  C9  UNL     1       1.285 -10.956  -3.161  1.00  0.00     0.002 C 
HETATM   17  C10 UNL     1       1.269 -10.513  -1.729  1.00  0.00     0.025 C 
ENDBRANCH  10  12
ENDBRANCH   7   8
ENDBRANCH   1   7
BRANCH   1  18
HETATM   18  C11 UNL     1       3.366 -10.281   3.323  1.00  0.00     0.210 C 
BRANCH  18  19
HETATM   19  N5  UNL     1       3.713  -9.744   4.662  1.00  0.00    -0.073 N 
ATOM     20  H53 UNL     1       3.771  -8.726   4.675  1.00  0.00     0.274 HD
ATOM     21  H52 UNL     1       2.954  -9.847   5.336  1.00  0.00     0.274 HD
ATOM     22  H51 UNL     1       4.576 -10.193   4.968  1.00  0.00     0.274 HD
ENDBRANCH  18  19
BRANCH  18  23
HETATM   23  C12 UNL     1       4.153 -11.478   2.980  1.00  0.00     0.073 C 
BRANCH  23  24
HETATM   24  C13 UNL     1       4.874 -11.545   1.717  1.00  0.00    -0.056 A 
HETATM   25  C14 UNL     1       6.220 -11.834   1.720  1.00  0.00     0.008 A 
HETATM   26  C15 UNL     1       6.898 -11.840   0.526  1.00  0.00     0.019 A 
HETATM   27  C16 UNL     1       6.290 -11.569  -0.675  1.00  0.00     0.011 A 
HETATM   28 BR1  UNL     1       7.254 -11.586  -2.327  1.00  0.00    -0.051 Br
HETATM   29  C17 UNL     1       4.941 -11.276  -0.685  1.00  0.00     0.019 A 
HETATM   30  C18 UNL     1       4.268 -11.272   0.510  1.00  0.00     0.008 A 
ENDBRANCH  23  24
ENDBRANCH  18  23
ENDBRANCH   1  18
TORSDOF 8
ENDMDL
MODEL 4
REMARK VINA RESULT: -7.100960305      4.608      8.881
REMARK  8 active torsions:
REMARK  status: ('A' for Active; 'I' for Inactive)
REMARK    1  A    between atoms: N3_4  and  C2_6 
REMARK    2  A    between atoms: C2_6  and  C3_7 
REMARK    3  A    between atoms: C2_6  and  C11_18 
REMARK    4  A    between atoms: C3_7  and  C4_8 
REMARK       I    between atoms: C4_8  and  N4_10 
REMARK    5  A    between atoms: N4_10  and  C5_12 
REMARK    6  A    between atoms: C11_18  and  N5_19 
REMARK    7  A    between atoms: C11_18  and  C12_23 
REMARK    8  A    between atoms: C12_23  and  C13_24 
ROOT
HETATM    1  C2  UNL     1       8.308 -11.973  -1.588  1.00  0.00     0.123 C 
ENDROOT
BRANCH   1   2
HETATM    2  N3  UNL     1       8.550 -11.279  -0.308  1.00  0.00    -0.360 N 
HETATM    3  C1  UNL     1       7.709 -11.387   0.676  1.00  0.00     0.197 C 
HETATM    4  N1  UNL     1       6.520 -12.148   0.642  1.00  0.00    -0.067 NA
HETATM    5  N2  UNL     1       8.016 -10.686   1.873  1.00  0.00    -0.067 NA
ATOM      6  H3  UNL     1       9.386 -10.706  -0.196  1.00  0.00     0.162 HD
ENDBRANCH   1   2
BRANCH   1   7
HETATM    7  C3  UNL     1       7.571 -10.994  -2.481  1.00  0.00     0.130 C 
BRANCH   7   8
HETATM    8  C4  UNL     1       6.300 -11.508  -3.020  1.00  0.00     0.220 C 
HETATM    9  O1  UNL     1       6.284 -12.021  -4.170  1.00  0.00    -0.274 OA
HETATM   10  N4  UNL     1       5.077 -11.447  -2.281  1.00  0.00    -0.356 N 
ATOM     11  H4  UNL     1       5.082 -11.029  -1.350  1.00  0.00     0.162 HD
BRANCH  10  12
HETATM   12  C5  UNL     1       3.829 -11.960  -2.817  1.00  0.00     0.084 C 
HETATM   13  C6  UNL     1       3.328 -11.143  -3.956  1.00  0.00     0.025 C 
HETATM   14  C7  UNL     1       1.852 -11.156  -4.160  1.00  0.00     0.002 C 
HETATM   15  C8  UNL     1       1.054 -11.092  -2.884  1.00  0.00     0.000 C 
HETATM   16  C9  UNL     1       1.452 -12.350  -2.104  1.00  0.00     0.002 C 
HETATM   17  C10 UNL     1       2.883 -12.163  -1.697  1.00  0.00     0.025 C 
ENDBRANCH  10  12
ENDBRANCH   7   8
ENDBRANCH   1   7
BRANCH   1  18
HETATM   18  C11 UNL     1       9.610 -12.383  -2.163  1.00  0.00     0.210 C 
BRANCH  18  19
HETATM   19  N5  UNL     1      10.058 -11.317  -3.092  1.00  0.00    -0.073 N 
ATOM     20  H53 UNL     1       9.328 -11.029  -3.743  1.00  0.00     0.274 HD
ATOM     21  H52 UNL     1      10.188 -10.419  -2.627  1.00  0.00     0.274 HD
ATOM     22  H51 UNL     1      10.902 -11.643  -3.564  1.00  0.00     0.274 HD
ENDBRANCH  18  19
BRANCH  18  23
HETATM   23  C12 UNL     1      10.653 -12.757  -1.194  1.00  0.00     0.073 C 
BRANCH  23  24
HETATM   24  C13 UNL     1      11.780 -13.580  -1.610  1.00  0.00    -0.056 A 
HETATM   25  C14 UNL     1      13.063 -13.153  -1.352  1.00  0.00     0.008 A 
HETATM   26  C15 UNL     1      14.116 -13.914  -1.798  1.00  0.00     0.019 A 
HETATM   27  C16 UNL     1      13.943 -15.087  -2.492  1.00  0.00     0.011 A 
HETATM   28 BR1  UNL     1      15.425 -16.132  -3.100  1.00  0.00    -0.051 Br
HETATM   29  C17 UNL     1      12.659 -15.520  -2.754  1.00  0.00     0.019 A 
HETATM   30  C18 UNL     1      11.611 -14.757  -2.307  1.00  0.00     0.008 A 
ENDBRANCH  23  24
ENDBRANCH  18  23
ENDBRANCH   1  18
TORSDOF 8
ENDMDL
MODEL 5
REMARK VINA RESULT: -7.047152974      3.372      8.558
REMARK  8 active torsions:
REMARK  status: ('A' for Active; 'I' for Inactive)
REMARK    1  A    between atoms: N3_4  and  C2_6 
REMARK    2  A    between atoms: C2_6  and  C3_7 
REMARK    3  A    between atoms: C2_6  and  C11_18 
REMARK    4  A    between atoms: C3_7  and  C4_8 
REMARK       I    between atoms: C4_8  and  N4_10 
REMARK    5  A    between atoms: N4_10  and  C5_12 
REMARK    6  A    between atoms: C11_18  and  N5_19 
REMARK    7  A    between atoms: C11_18  and  C12_23 
REMARK    8  A    between atoms: C12_23  and  C13_24 
ROOT
HETATM    1  C2  UNL     1       7.626 -11.838   0.601  1.00  0.00     0.123 C 
ENDROOT
BRANCH   1   2
HETATM    2  N3  UNL     1       7.476 -11.230   1.937  1.00  0.00    -0.360 N 
HETATM    3  C1  UNL     1       6.351 -11.310   2.581  1.00  0.00     0.197 C 
HETATM    4  N1  UNL     1       5.192 -11.958   2.103  1.00  0.00    -0.067 NA
HETATM    5  N2  UNL     1       6.291 -10.697   3.862  1.00  0.00    -0.067 NA
ATOM      6  H3  UNL     1       8.266 -10.742   2.360  1.00  0.00     0.162 HD
ENDBRANCH   1   2
BRANCH   1   7
HETATM    7  C3  UNL     1       6.984 -10.882  -0.386  1.00  0.00     0.130 C 
BRANCH   7   8
HETATM    8  C4  UNL     1       5.953 -11.498  -1.239  1.00  0.00     0.220 C 
HETATM    9  O1  UNL     1       6.310 -12.205  -2.218  1.00  0.00    -0.274 OA
HETATM   10  N4  UNL     1       4.555 -11.321  -0.996  1.00  0.00    -0.356 N 
ATOM     11  H4  UNL     1       4.259 -10.746  -0.208  1.00  0.00     0.162 HD
BRANCH  10  12
HETATM   12  C5  UNL     1       3.546 -11.936  -1.840  1.00  0.00     0.084 C 
HETATM   13  C6  UNL     1       3.445 -11.275  -3.169  1.00  0.00     0.025 C 
HETATM   14  C7  UNL     1       2.115 -11.361  -3.835  1.00  0.00     0.002 C 
HETATM   15  C8  UNL     1       0.947 -11.176  -2.902  1.00  0.00     0.000 C 
HETATM   16  C9  UNL     1       1.064 -12.319  -1.889  1.00  0.00     0.002 C 
HETATM   17  C10 UNL     1       2.286 -12.037  -1.068  1.00  0.00     0.025 C 
ENDBRANCH  10  12
ENDBRANCH   7   8
ENDBRANCH   1   7
BRANCH   1  18
HETATM   18  C11 UNL     1       9.068 -12.040   0.325  1.00  0.00     0.210 C 
BRANCH  18  19
HETATM   19  N5  UNL     1       9.361 -11.481  -1.017  1.00  0.00    -0.073 N 
ATOM     20  H53 UNL     1       9.368 -12.192  -1.748  1.00  0.00     0.274 HD
ATOM     21  H52 UNL     1       8.596 -10.916  -1.385  1.00  0.00     0.274 HD
ATOM     22  H51 UNL     1      10.240 -10.966  -0.960  1.00  0.00     0.274 HD
ENDBRANCH  18  19
BRANCH  18  23
HETATM   23  C12 UNL     1       9.996 -11.542   1.354  1.00  0.00     0.073 C 
BRANCH  23  24
HETATM   24  C13 UNL     1      10.839 -10.386   1.084  1.00  0.00    -0.056 A 
HETATM   25  C14 UNL     1      12.128 -10.576   0.641  1.00  0.00     0.008 A 
HETATM   26  C15 UNL     1      12.928  -9.477   0.443  1.00  0.00     0.019 A 
HETATM   27  C16 UNL     1      12.496  -8.193   0.669  1.00  0.00     0.011 A 
HETATM   28 BR1  UNL     1      13.627  -6.678   0.383  1.00  0.00    -0.051 Br
HETATM   29  C17 UNL     1      11.204  -7.996   1.114  1.00  0.00     0.019 A 
HETATM   30  C18 UNL     1      10.409  -9.096   1.310  1.00  0.00     0.008 A 
ENDBRANCH  23  24
ENDBRANCH  18  23
ENDBRANCH   1  18
TORSDOF 8
ENDMDL
