MODEL 1
REMARK VINA RESULT: -3.191283791      0.000      0.000
REMARK  0 active torsions:
REMARK  status: ('A' for Active; 'I' for Inactive)
ROOT
HETATM    1  O1  UNL     1       0.802 -21.687  -6.139  1.00  0.00    -0.635 OA
HETATM    2  C1  UNL     1       0.949 -22.991  -5.719  1.00  0.00     0.274 C 
HETATM    3  O2  UNL     1       2.218 -23.461  -5.457  1.00  0.00    -0.635 OA
HETATM    4  S1  UNL     1      -0.362 -23.932  -5.545  1.00  0.00    -0.004 SA
ENDROOT
TORSDOF 0
ENDMDL
MODEL 2
REMARK VINA RESULT: -3.173705616      1.736      2.229
REMARK  0 active torsions:
REMARK  status: ('A' for Active; 'I' for Inactive)
ROOT
HETATM    1  O1  UNL     1       0.100 -24.398  -5.662  1.00  0.00    -0.635 OA
HETATM    2  C1  UNL     1      -0.398 -23.182  -6.079  1.00  0.00     0.274 C 
HETATM    3  O2  UNL     1       0.415 -22.073  -5.998  1.00  0.00    -0.635 OA
HETATM    4  S1  UNL     1      -1.914 -23.089  -6.652  1.00  0.00    -0.004 SA
ENDROOT
TORSDOF 0
ENDMDL
MODEL 3
REMARK VINA RESULT: -3.141752171      1.716      1.716
REMARK  0 active torsions:
REMARK  status: ('A' for Active; 'I' for Inactive)
ROOT
HETATM    1  O1  UNL     1       0.416 -22.089  -5.936  1.00  0.00    -0.635 OA
HETATM    2  C1  UNL     1      -0.378 -23.211  -6.046  1.00  0.00     0.274 C 
HETATM    3  O2  UNL     1       0.141 -24.427  -5.659  1.00  0.00    -0.635 OA
HETATM    4  S1  UNL     1      -1.889 -23.072  -6.622  1.00  0.00    -0.004 SA
ENDROOT
TORSDOF 0
ENDMDL
MODEL 4
REMARK VINA RESULT: -3.051553428      7.696      7.868
REMARK  0 active torsions:
REMARK  status: ('A' for Active; 'I' for Inactive)
ROOT
HETATM    1  O1  UNL     1      -3.424 -29.146  -4.794  1.00  0.00    -0.635 OA
HETATM    2  C1  UNL     1      -4.432 -28.353  -5.298  1.00  0.00     0.274 C 
HETATM    3  O2  UNL     1      -5.662 -28.925  -5.545  1.00  0.00    -0.635 OA
HETATM    4  S1  UNL     1      -4.150 -26.781  -5.586  1.00  0.00    -0.004 SA
ENDROOT
TORSDOF 0
ENDMDL
MODEL 5
REMARK VINA RESULT: -3.040714409      7.678      7.722
REMARK  0 active torsions:
REMARK  status: ('A' for Active; 'I' for Inactive)
ROOT
HETATM    1  O1  UNL     1      -5.633 -28.948  -5.570  1.00  0.00    -0.635 OA
HETATM    2  C1  UNL     1      -4.432 -28.320  -5.319  1.00  0.00     0.274 C 
HETATM    3  O2  UNL     1      -3.402 -29.060  -4.780  1.00  0.00    -0.635 OA
HETATM    4  S1  UNL     1      -4.263 -26.743  -5.660  1.00  0.00    -0.004 SA
ENDROOT
TORSDOF 0
ENDMDL
