MODEL 1
REMARK VINA RESULT: -3.668046079      0.000      0.000
REMARK  1 active torsions:
REMARK  status: ('A' for Active; 'I' for Inactive)
REMARK    1  A    between atoms: C2_2  and  N2_6 
ROOT
HETATM    1  C1  UNL     1      -1.742 -23.219  -6.611  1.00  0.00     0.089 C 
HETATM    2  C2  UNL     1      -1.122 -23.945  -5.459  1.00  0.00     0.077 C 
HETATM    3  N1  UNL     1      -1.885 -24.373  -4.498  1.00  0.00    -0.389 N 
ATOM      4  H11 UNL     1      -1.462 -24.868  -3.713  1.00  0.00     0.157 HD
ATOM      5  H12 UNL     1      -2.893 -24.219  -4.525  1.00  0.00     0.157 HD
ENDROOT
BRANCH   2   6
HETATM    6  N2  UNL     1       0.273 -24.159  -5.421  1.00  0.00    -0.310 N 
HETATM    7  S1  UNL     1       1.422 -22.853  -5.657  1.00  0.00     0.043 SA
ATOM      8  H2  UNL     1       0.625 -25.102  -5.252  1.00  0.00     0.176 HD
ENDBRANCH   2   6
TORSDOF 1
ENDMDL
MODEL 2
REMARK VINA RESULT: -3.549655271      1.234      1.515
REMARK  1 active torsions:
REMARK  status: ('A' for Active; 'I' for Inactive)
REMARK    1  A    between atoms: C2_2  and  N2_6 
ROOT
HETATM    1  C1  UNL     1      -2.215 -24.423  -5.008  1.00  0.00     0.089 C 
HETATM    2  C2  UNL     1      -1.090 -23.731  -5.710  1.00  0.00     0.077 C 
HETATM    3  N1  UNL     1      -1.363 -22.823  -6.599  1.00  0.00    -0.389 N 
ATOM      4  H11 UNL     1      -0.595 -22.352  -7.077  1.00  0.00     0.157 HD
ATOM      5  H12 UNL     1      -2.329 -22.582  -6.817  1.00  0.00     0.157 HD
ENDROOT
BRANCH   2   6
HETATM    6  N2  UNL     1       0.249 -24.065  -5.409  1.00  0.00    -0.310 N 
HETATM    7  S1  UNL     1       1.567 -22.928  -5.636  1.00  0.00     0.043 SA
ATOM      8  H2  UNL     1       0.457 -24.997  -5.047  1.00  0.00     0.176 HD
ENDBRANCH   2   6
TORSDOF 1
ENDMDL
MODEL 3
REMARK VINA RESULT: -3.487364997      2.556      2.813
REMARK  1 active torsions:
REMARK  status: ('A' for Active; 'I' for Inactive)
REMARK    1  A    between atoms: C2_2  and  N2_6 
ROOT
HETATM    1  C1  UNL     1       1.573 -22.641  -5.846  1.00  0.00     0.089 C 
HETATM    2  C2  UNL     1       0.217 -23.273  -5.859  1.00  0.00     0.077 C 
HETATM    3  N1  UNL     1       0.039 -24.400  -5.238  1.00  0.00    -0.389 N 
ATOM      4  H11 UNL     1      -0.885 -24.830  -5.247  1.00  0.00     0.157 HD
ATOM      5  H12 UNL     1       0.811 -24.851  -4.746  1.00  0.00     0.157 HD
ENDROOT
BRANCH   2   6
HETATM    6  N2  UNL     1      -0.852 -22.649  -6.539  1.00  0.00    -0.310 N 
HETATM    7  S1  UNL     1      -2.419 -23.419  -6.718  1.00  0.00     0.043 SA
ATOM      8  H2  UNL     1      -0.708 -21.722  -6.940  1.00  0.00     0.176 HD
ENDBRANCH   2   6
TORSDOF 1
ENDMDL
MODEL 4
REMARK VINA RESULT: -3.475089021      2.356      2.787
REMARK  1 active torsions:
REMARK  status: ('A' for Active; 'I' for Inactive)
REMARK    1  A    between atoms: C2_2  and  N2_6 
ROOT
HETATM    1  C1  UNL     1      -1.431 -23.067  -6.583  1.00  0.00     0.089 C 
HETATM    2  C2  UNL     1      -0.884 -23.890  -5.460  1.00  0.00     0.077 C 
HETATM    3  N1  UNL     1       0.394 -24.115  -5.407  1.00  0.00    -0.389 N 
ATOM      4  H11 UNL     1       0.767 -24.676  -4.641  1.00  0.00     0.157 HD
ATOM      5  H12 UNL     1       1.020 -23.737  -6.118  1.00  0.00     0.157 HD
ENDROOT
BRANCH   2   6
HETATM    6  N2  UNL     1      -1.749 -24.414  -4.475  1.00  0.00    -0.310 N 
HETATM    7  S1  UNL     1      -3.495 -24.384  -4.657  1.00  0.00     0.043 SA
ATOM      8  H2  UNL     1      -1.348 -24.822  -3.630  1.00  0.00     0.176 HD
ENDBRANCH   2   6
TORSDOF 1
ENDMDL
MODEL 5
REMARK VINA RESULT: -3.388007011      2.577      2.814
REMARK  1 active torsions:
REMARK  status: ('A' for Active; 'I' for Inactive)
REMARK    1  A    between atoms: C2_2  and  N2_6 
ROOT
HETATM    1  C1  UNL     1       1.213 -22.866  -5.608  1.00  0.00     0.089 C 
HETATM    2  C2  UNL     1      -0.214 -23.284  -5.773  1.00  0.00     0.077 C 
HETATM    3  N1  UNL     1      -0.954 -22.675  -6.650  1.00  0.00    -0.389 N 
ATOM      4  H11 UNL     1      -1.926 -22.960  -6.762  1.00  0.00     0.157 HD
ATOM      5  H12 UNL     1      -0.571 -21.921  -7.221  1.00  0.00     0.157 HD
ENDROOT
BRANCH   2   6
HETATM    6  N2  UNL     1      -0.745 -24.328  -4.983  1.00  0.00    -0.310 N 
HETATM    7  S1  UNL     1      -2.467 -24.483  -4.680  1.00  0.00     0.043 SA
ATOM      8  H2  UNL     1      -0.107 -25.012  -4.575  1.00  0.00     0.176 HD
ENDBRANCH   2   6
TORSDOF 1
ENDMDL
