MODEL 1
REMARK VINA RESULT: -4.129946119      0.000      0.000
REMARK  2 active torsions:
REMARK  status: ('A' for Active; 'I' for Inactive)
REMARK    1  A    between atoms: N1_2  and  O1_3 
REMARK    2  A    between atoms: O1_3  and  C2_4 
ROOT
HETATM    1  C2  UNL     1      -3.478 -27.891  -5.415  1.00  0.00     0.131 C 
HETATM    2  C3  UNL     1      -3.403 -26.478  -4.967  1.00  0.00     0.099 C 
HETATM    3  N2  UNL     1      -2.635 -28.349  -6.274  1.00  0.00    -0.382 N 
ATOM      4  H21 UNL     1      -1.928 -27.703  -6.625  1.00  0.00     0.158 HD
ATOM      5  H22 UNL     1      -2.687 -29.321  -6.582  1.00  0.00     0.158 HD
ENDROOT
BRANCH   1   6
HETATM    6  O1  UNL     1      -4.441 -28.771  -4.937  1.00  0.00    -0.232 OA
BRANCH   6   7
HETATM    7  N1  UNL     1      -5.642 -28.985  -5.583  1.00  0.00    -0.098 NA
HETATM    8  C1  UNL     1      -6.400 -27.795  -5.787  1.00  0.00     0.168 C 
ENDBRANCH   6   7
ENDBRANCH   1   6
TORSDOF 2
ENDMDL
MODEL 2
REMARK VINA RESULT: -4.122688610      5.802      7.082
REMARK  2 active torsions:
REMARK  status: ('A' for Active; 'I' for Inactive)
REMARK    1  A    between atoms: N1_2  and  O1_3 
REMARK    2  A    between atoms: O1_3  and  C2_4 
ROOT
HETATM    1  C2  UNL     1      -1.248 -23.372  -6.082  1.00  0.00     0.131 C 
HETATM    2  C3  UNL     1      -2.338 -23.557  -7.073  1.00  0.00     0.099 C 
HETATM    3  N2  UNL     1      -1.222 -24.075  -5.003  1.00  0.00    -0.382 N 
ATOM      4  H21 UNL     1      -1.974 -24.751  -4.867  1.00  0.00     0.158 HD
ATOM      5  H22 UNL     1      -0.473 -23.948  -4.322  1.00  0.00     0.158 HD
ENDROOT
BRANCH   1   6
HETATM    6  O1  UNL     1      -0.224 -22.453  -6.267  1.00  0.00    -0.232 OA
BRANCH   6   7
HETATM    7  N1  UNL     1       0.800 -22.284  -5.357  1.00  0.00    -0.098 NA
HETATM    8  C1  UNL     1       1.984 -23.006  -5.689  1.00  0.00     0.168 C 
ENDBRANCH   6   7
ENDBRANCH   1   6
TORSDOF 2
ENDMDL
MODEL 3
REMARK VINA RESULT: -4.100174115      6.663      7.504
REMARK  2 active torsions:
REMARK  status: ('A' for Active; 'I' for Inactive)
REMARK    1  A    between atoms: N1_2  and  O1_3 
REMARK    2  A    between atoms: O1_3  and  C2_4 
ROOT
HETATM    1  C2  UNL     1       1.562 -22.353  -6.191  1.00  0.00     0.131 C 
HETATM    2  C3  UNL     1       2.231 -23.447  -5.442  1.00  0.00     0.099 C 
HETATM    3  N2  UNL     1       2.242 -21.586  -6.971  1.00  0.00    -0.382 N 
ATOM      4  H21 UNL     1       3.244 -21.765  -7.045  1.00  0.00     0.158 HD
ATOM      5  H22 UNL     1       1.783 -20.834  -7.485  1.00  0.00     0.158 HD
ENDROOT
BRANCH   1   6
HETATM    6  O1  UNL     1       0.199 -22.108  -6.089  1.00  0.00    -0.232 OA
BRANCH   6   7
HETATM    7  N1  UNL     1      -0.751 -22.934  -6.655  1.00  0.00    -0.098 NA
HETATM    8  C1  UNL     1      -1.412 -23.775  -5.712  1.00  0.00     0.168 C 
ENDBRANCH   6   7
ENDBRANCH   1   6
TORSDOF 2
ENDMDL
MODEL 4
REMARK VINA RESULT: -4.035492295      5.697      6.967
REMARK  2 active torsions:
REMARK  status: ('A' for Active; 'I' for Inactive)
REMARK    1  A    between atoms: N1_2  and  O1_3 
REMARK    2  A    between atoms: O1_3  and  C2_4 
ROOT
HETATM    1  C2  UNL     1      -1.635 -23.276  -6.335  1.00  0.00     0.131 C 
HETATM    2  C3  UNL     1      -1.821 -24.178  -5.171  1.00  0.00     0.099 C 
HETATM    3  N2  UNL     1      -2.654 -22.830  -6.985  1.00  0.00    -0.382 N 
ATOM      4  H21 UNL     1      -3.577 -23.125  -6.666  1.00  0.00     0.158 HD
ATOM      5  H22 UNL     1      -2.525 -22.210  -7.785  1.00  0.00     0.158 HD
ENDROOT
BRANCH   1   6
HETATM    6  O1  UNL     1      -0.378 -22.876  -6.771  1.00  0.00    -0.232 OA
BRANCH   6   7
HETATM    7  N1  UNL     1       0.511 -22.198  -5.961  1.00  0.00    -0.098 NA
HETATM    8  C1  UNL     1       1.654 -22.970  -5.598  1.00  0.00     0.168 C 
ENDBRANCH   6   7
ENDBRANCH   1   6
TORSDOF 2
ENDMDL
MODEL 5
REMARK VINA RESULT: -3.893503536      5.841      6.311
REMARK  2 active torsions:
REMARK  status: ('A' for Active; 'I' for Inactive)
REMARK    1  A    between atoms: N1_2  and  O1_3 
REMARK    2  A    between atoms: O1_3  and  C2_4 
ROOT
HETATM    1  C2  UNL     1       0.312 -23.236  -5.872  1.00  0.00     0.131 C 
HETATM    2  C3  UNL     1       1.644 -22.581  -5.846  1.00  0.00     0.099 C 
HETATM    3  N2  UNL     1       0.109 -24.327  -5.219  1.00  0.00    -0.382 N 
ATOM      4  H21 UNL     1       0.896 -24.712  -4.696  1.00  0.00     0.158 HD
ATOM      5  H22 UNL     1      -0.807 -24.777  -5.237  1.00  0.00     0.158 HD
ENDROOT
BRANCH   1   6
HETATM    6  O1  UNL     1      -0.759 -22.713  -6.585  1.00  0.00    -0.232 OA
BRANCH   6   7
HETATM    7  N1  UNL     1      -1.744 -23.505  -7.139  1.00  0.00    -0.098 NA
HETATM    8  C1  UNL     1      -3.057 -22.971  -6.990  1.00  0.00     0.168 C 
ENDBRANCH   6   7
ENDBRANCH   1   6
TORSDOF 2
ENDMDL
