MODEL 1
REMARK VINA RESULT: -3.913453774      0.000      0.000
REMARK  2 active torsions:
REMARK  status: ('A' for Active; 'I' for Inactive)
REMARK    1  A    between atoms: O1_1  and  C1_3 
REMARK    2  A    between atoms: C3_5  and  O2_6 
ROOT
HETATM    1  C1  UNL     1       1.165 -23.086  -5.179  1.00  0.00     0.149 A 
HETATM    2  C2  UNL     1       0.109 -22.682  -6.128  1.00  0.00     0.068 A 
HETATM    3  C3  UNL     1       1.486 -22.623  -6.587  1.00  0.00     0.149 A 
ENDROOT
BRANCH   1   4
HETATM    4  O1  UNL     1       1.413 -22.229  -4.114  1.00  0.00    -0.393 OA
ATOM      5  H1  UNL     1       2.322 -22.014  -3.939  1.00  0.00     0.210 HD
ENDBRANCH   1   4
BRANCH   3   6
HETATM    6  O2  UNL     1       2.232 -21.436  -6.603  1.00  0.00    -0.393 OA
ATOM      7  H2  UNL     1       2.860 -21.412  -7.315  1.00  0.00     0.210 HD
ENDBRANCH   3   6
TORSDOF 2
ENDMDL
MODEL 2
REMARK VINA RESULT: -3.800101517      1.425      1.934
REMARK  2 active torsions:
REMARK  status: ('A' for Active; 'I' for Inactive)
REMARK    1  A    between atoms: O1_1  and  C1_3 
REMARK    2  A    between atoms: C3_5  and  O2_6 
ROOT
HETATM    1  C1  UNL     1       0.101 -23.822  -5.689  1.00  0.00     0.149 A 
HETATM    2  C2  UNL     1       0.160 -22.567  -6.463  1.00  0.00     0.068 A 
HETATM    3  C3  UNL     1       1.243 -22.837  -5.534  1.00  0.00     0.149 A 
ENDROOT
BRANCH   1   4
HETATM    4  O1  UNL     1      -0.863 -23.900  -4.692  1.00  0.00    -0.393 OA
ATOM      5  H1  UNL     1      -0.673 -23.454  -3.875  1.00  0.00     0.210 HD
ENDBRANCH   1   4
BRANCH   3   6
HETATM    6  O2  UNL     1       1.299 -22.281  -4.249  1.00  0.00    -0.393 OA
ATOM      7  H2  UNL     1       1.786 -22.822  -3.639  1.00  0.00     0.210 HD
ENDBRANCH   3   6
TORSDOF 2
ENDMDL
MODEL 3
REMARK VINA RESULT: -3.623083539      5.418      6.000
REMARK  2 active torsions:
REMARK  status: ('A' for Active; 'I' for Inactive)
REMARK    1  A    between atoms: O1_1  and  C1_3 
REMARK    2  A    between atoms: C3_5  and  O2_6 
ROOT
HETATM    1  C1  UNL     1      -4.285 -24.444  -3.522  1.00  0.00     0.149 A 
HETATM    2  C2  UNL     1      -3.180 -24.285  -4.489  1.00  0.00     0.068 A 
HETATM    3  C3  UNL     1      -3.104 -25.394  -3.553  1.00  0.00     0.149 A 
ENDROOT
BRANCH   1   4
HETATM    4  O1  UNL     1      -4.367 -23.503  -2.503  1.00  0.00    -0.393 OA
ATOM      5  H1  UNL     1      -3.667 -23.503  -1.861  1.00  0.00     0.210 HD
ENDBRANCH   1   4
BRANCH   3   6
HETATM    6  O2  UNL     1      -2.345 -25.344  -2.376  1.00  0.00    -0.393 OA
ATOM      7  H2  UNL     1      -2.010 -26.196  -2.124  1.00  0.00     0.210 HD
ENDBRANCH   3   6
TORSDOF 2
ENDMDL
MODEL 4
REMARK VINA RESULT: -3.584320334      5.844      6.286
REMARK  2 active torsions:
REMARK  status: ('A' for Active; 'I' for Inactive)
REMARK    1  A    between atoms: O1_1  and  C1_3 
REMARK    2  A    between atoms: C3_5  and  O2_6 
ROOT
HETATM    1  C1  UNL     1      -2.876 -24.976  -3.097  1.00  0.00     0.149 A 
HETATM    2  C2  UNL     1      -3.033 -24.480  -4.478  1.00  0.00     0.068 A 
HETATM    3  C3  UNL     1      -3.981 -24.012  -3.481  1.00  0.00     0.149 A 
ENDROOT
BRANCH   1   4
HETATM    4  O1  UNL     1      -3.193 -26.310  -2.869  1.00  0.00    -0.393 OA
ATOM      5  H1  UNL     1      -4.042 -26.489  -2.482  1.00  0.00     0.210 HD
ENDBRANCH   1   4
BRANCH   3   6
HETATM    6  O2  UNL     1      -5.257 -24.570  -3.325  1.00  0.00    -0.393 OA
ATOM      7  H2  UNL     1      -5.765 -24.544  -4.127  1.00  0.00     0.210 HD
ENDBRANCH   3   6
TORSDOF 2
ENDMDL
MODEL 5
REMARK VINA RESULT: -3.583749725      5.607      6.243
REMARK  2 active torsions:
REMARK  status: ('A' for Active; 'I' for Inactive)
REMARK    1  A    between atoms: O1_1  and  C1_3 
REMARK    2  A    between atoms: C3_5  and  O2_6 
ROOT
HETATM    1  C1  UNL     1      -3.447 -25.790  -4.480  1.00  0.00     0.149 A 
HETATM    2  C2  UNL     1      -4.353 -24.881  -3.751  1.00  0.00     0.068 A 
HETATM    3  C3  UNL     1      -2.929 -24.766  -3.489  1.00  0.00     0.149 A 
ENDROOT
BRANCH   1   4
HETATM    4  O1  UNL     1      -3.475 -27.130  -4.113  1.00  0.00    -0.393 OA
ATOM      5  H1  UNL     1      -2.681 -27.631  -4.259  1.00  0.00     0.210 HD
ENDBRANCH   1   4
BRANCH   3   6
HETATM    6  O2  UNL     1      -2.310 -25.359  -2.381  1.00  0.00    -0.393 OA
ATOM      7  H2  UNL     1      -2.906 -25.472  -1.650  1.00  0.00     0.210 HD
ENDBRANCH   3   6
TORSDOF 2
ENDMDL
