MODEL 1
REMARK VINA RESULT: -7.641129177      0.000      0.000
REMARK  6 active torsions:
REMARK  status: ('A' for Active; 'I' for Inactive)
REMARK    1  A    between atoms: C2_2  and  O1_3 
REMARK    2  A    between atoms: C4_7  and  N1_8 
REMARK    3  A    between atoms: N1_8  and  N2_9 
REMARK       I    between atoms: N2_9  and  C5_11 
REMARK       I    between atoms: C5_11  and  N3_13 
REMARK    4  A    between atoms: N3_13  and  C6_15 
REMARK    5  A    between atoms: C6_15  and  O4_16 
REMARK    6  A    between atoms: N4_18  and  O5_20 
ROOT
HETATM    1  N2  UNL     1      25.282   4.749  34.050  1.00  0.00    -0.253 N 
ATOM      2  H2  UNL     1      25.753   5.491  34.569  1.00  0.00     0.187 HD
HETATM    3  C5  UNL     1      26.051   3.639  33.656  1.00  0.00     0.339 C 
HETATM    4  O3  UNL     1      25.573   2.683  33.019  1.00  0.00    -0.245 OA
HETATM    5  N3  UNL     1      27.425   3.598  33.991  1.00  0.00    -0.272 N 
ATOM      6  H3  UNL     1      27.824   4.377  34.515  1.00  0.00     0.174 HD
ENDROOT
BRANCH   1   7
HETATM    7  N1  UNL     1      23.924   4.909  33.782  1.00  0.00    -0.105 NA
BRANCH   7   8
HETATM    8  C4  UNL     1      23.719   5.801  32.650  1.00  0.00     0.237 C 
HETATM    9  O2  UNL     1      22.348   6.016  32.552  1.00  0.00    -0.365 OA
HETATM   10  C3  UNL     1      21.809   4.847  32.052  1.00  0.00     0.207 C 
HETATM   11  C2  UNL     1      22.829   4.274  31.108  1.00  0.00     0.079 C 
HETATM   12  C1  UNL     1      22.371   4.368  29.664  1.00  0.00     0.048 C 
HETATM   13  C7  UNL     1      24.040   5.134  31.342  1.00  0.00     0.090 C 
BRANCH  11  14
HETATM   14  O1  UNL     1      23.088   2.949  31.431  1.00  0.00    -0.388 OA
ATOM     15  H1  UNL     1      23.819   2.905  32.035  1.00  0.00     0.210 HD
ENDBRANCH  11  14
ENDBRANCH   7   8
ENDBRANCH   1   7
BRANCH   5  16
HETATM   16  C6  UNL     1      28.284   2.499  33.622  1.00  0.00     0.245 C 
HETATM   17  N4  UNL     1      28.583   2.400  32.382  1.00  0.00    -0.233 N 
ATOM     18  H4  UNL     1      28.189   3.102  31.756  1.00  0.00     0.198 HD
BRANCH  16  19
HETATM   19  O4  UNL     1      28.767   1.591  34.545  1.00  0.00    -0.331 OA
ATOM     20  H4  UNL     1      28.803   0.658  34.373  1.00  0.00     0.221 HD
ENDBRANCH  16  19
BRANCH  17  21
HETATM   21  O5  UNL     1      29.371   1.455  31.821  1.00  0.00    -0.287 OA
ATOM     22  H5  UNL     1      29.445   0.548  32.096  1.00  0.00     0.244 HD
ENDBRANCH  17  21
ENDBRANCH   5  16
TORSDOF 6
ENDMDL
MODEL 2
REMARK VINA RESULT: -7.599079503      1.549      2.042
REMARK  6 active torsions:
REMARK  status: ('A' for Active; 'I' for Inactive)
REMARK    1  A    between atoms: C2_2  and  O1_3 
REMARK    2  A    between atoms: C4_7  and  N1_8 
REMARK    3  A    between atoms: N1_8  and  N2_9 
REMARK       I    between atoms: N2_9  and  C5_11 
REMARK       I    between atoms: C5_11  and  N3_13 
REMARK    4  A    between atoms: N3_13  and  C6_15 
REMARK    5  A    between atoms: C6_15  and  O4_16 
REMARK    6  A    between atoms: N4_18  and  O5_20 
ROOT
HETATM    1  N2  UNL     1      24.999   3.982  31.767  1.00  0.00    -0.253 N 
ATOM      2  H2  UNL     1      25.398   4.861  31.438  1.00  0.00     0.187 HD
HETATM    3  C5  UNL     1      25.886   3.001  32.245  1.00  0.00     0.339 C 
HETATM    4  O3  UNL     1      25.501   1.895  32.668  1.00  0.00    -0.245 OA
HETATM    5  N3  UNL     1      27.274   3.272  32.252  1.00  0.00    -0.272 N 
ATOM      6  H3  UNL     1      27.598   4.177  31.910  1.00  0.00     0.174 HD
ENDROOT
BRANCH   1   7
HETATM    7  N1  UNL     1      23.614   3.838  31.708  1.00  0.00    -0.105 NA
BRANCH   7   8
HETATM    8  C4  UNL     1      23.026   4.827  30.815  1.00  0.00     0.237 C 
HETATM    9  O2  UNL     1      21.891   5.318  31.453  1.00  0.00    -0.365 OA
HETATM   10  C3  UNL     1      20.943   4.317  31.377  1.00  0.00     0.207 C 
HETATM   11  C2  UNL     1      21.163   3.615  30.066  1.00  0.00     0.079 C 
HETATM   12  C1  UNL     1      20.039   3.895  29.086  1.00  0.00     0.048 C 
HETATM   13  C7  UNL     1      22.459   4.199  29.574  1.00  0.00     0.090 C 
BRANCH  11  14
HETATM   14  O1  UNL     1      21.277   2.247  30.268  1.00  0.00    -0.388 OA
ATOM     15  H1  UNL     1      22.155   1.963  30.044  1.00  0.00     0.210 HD
ENDBRANCH  11  14
ENDBRANCH   7   8
ENDBRANCH   1   7
BRANCH   5  16
HETATM   16  C6  UNL     1      28.251   2.320  32.722  1.00  0.00     0.245 C 
HETATM   17  N4  UNL     1      28.151   1.957  33.945  1.00  0.00    -0.233 N 
ATOM     18  H4  UNL     1      27.393   2.370  34.488  1.00  0.00     0.198 HD
BRANCH  16  19
HETATM   19  O4  UNL     1      29.250   1.817  31.911  1.00  0.00    -0.331 OA
ATOM     20  H4  UNL     1      29.965   1.289  32.247  1.00  0.00     0.221 HD
ENDBRANCH  16  19
BRANCH  17  21
HETATM   21  O5  UNL     1      28.954   1.078  34.588  1.00  0.00    -0.287 OA
ATOM     22  H5  UNL     1      29.378   0.319  34.205  1.00  0.00     0.244 HD
ENDBRANCH  17  21
ENDBRANCH   5  16
TORSDOF 6
ENDMDL
MODEL 3
REMARK VINA RESULT: -7.549003426      1.489      1.948
REMARK  6 active torsions:
REMARK  status: ('A' for Active; 'I' for Inactive)
REMARK    1  A    between atoms: C2_2  and  O1_3 
REMARK    2  A    between atoms: C4_7  and  N1_8 
REMARK    3  A    between atoms: N1_8  and  N2_9 
REMARK       I    between atoms: N2_9  and  C5_11 
REMARK       I    between atoms: C5_11  and  N3_13 
REMARK    4  A    between atoms: N3_13  and  C6_15 
REMARK    5  A    between atoms: C6_15  and  O4_16 
REMARK    6  A    between atoms: N4_18  and  O5_20 
ROOT
HETATM    1  N2  UNL     1      25.222   5.204  32.942  1.00  0.00    -0.253 N 
ATOM      2  H2  UNL     1      25.149   5.784  33.777  1.00  0.00     0.187 HD
HETATM    3  C5  UNL     1      26.286   4.285  32.877  1.00  0.00     0.339 C 
HETATM    4  O3  UNL     1      26.465   3.532  31.902  1.00  0.00    -0.245 OA
HETATM    5  N3  UNL     1      27.196   4.207  33.957  1.00  0.00    -0.272 N 
ATOM      6  H3  UNL     1      27.055   4.819  34.761  1.00  0.00     0.174 HD
ENDROOT
BRANCH   1   7
HETATM    7  N1  UNL     1      24.262   5.377  31.947  1.00  0.00    -0.105 NA
BRANCH   7   8
HETATM    8  C4  UNL     1      22.998   4.765  32.333  1.00  0.00     0.237 C 
HETATM    9  O2  UNL     1      23.145   3.394  32.148  1.00  0.00    -0.365 OA
HETATM   10  C3  UNL     1      23.118   3.184  30.783  1.00  0.00     0.207 C 
HETATM   11  C2  UNL     1      22.174   4.203  30.210  1.00  0.00     0.079 C 
HETATM   12  C1  UNL     1      20.896   3.561  29.704  1.00  0.00     0.048 C 
HETATM   13  C7  UNL     1      21.891   5.108  31.378  1.00  0.00     0.090 C 
BRANCH  11  14
HETATM   14  O1  UNL     1      22.788   4.899  29.179  1.00  0.00    -0.388 OA
ATOM     15  H1  UNL     1      23.731   4.835  29.267  1.00  0.00     0.210 HD
ENDBRANCH  11  14
ENDBRANCH   7   8
ENDBRANCH   1   7
BRANCH   5  16
HETATM   16  C6  UNL     1      28.314   3.296  33.969  1.00  0.00     0.245 C 
HETATM   17  N4  UNL     1      28.075   2.103  34.366  1.00  0.00    -0.233 N 
ATOM     18  H4  UNL     1      27.117   1.894  34.643  1.00  0.00     0.198 HD
BRANCH  16  19
HETATM   19  O4  UNL     1      29.585   3.673  33.577  1.00  0.00    -0.331 OA
ATOM     20  H4  UNL     1      29.996   4.475  33.877  1.00  0.00     0.221 HD
ENDBRANCH  16  19
BRANCH  17  21
HETATM   21  O5  UNL     1      28.971   1.093  34.452  1.00  0.00    -0.287 OA
ATOM     22  H5  UNL     1      28.812   0.230  34.818  1.00  0.00     0.244 HD
ENDBRANCH  17  21
ENDBRANCH   5  16
TORSDOF 6
ENDMDL
MODEL 4
REMARK VINA RESULT: -7.533489166      1.745      2.312
REMARK  6 active torsions:
REMARK  status: ('A' for Active; 'I' for Inactive)
REMARK    1  A    between atoms: C2_2  and  O1_3 
REMARK    2  A    between atoms: C4_7  and  N1_8 
REMARK    3  A    between atoms: N1_8  and  N2_9 
REMARK       I    between atoms: N2_9  and  C5_11 
REMARK       I    between atoms: C5_11  and  N3_13 
REMARK    4  A    between atoms: N3_13  and  C6_15 
REMARK    5  A    between atoms: C6_15  and  O4_16 
REMARK    6  A    between atoms: N4_18  and  O5_20 
ROOT
HETATM    1  N2  UNL     1      25.717   5.708  33.727  1.00  0.00    -0.253 N 
ATOM      2  H2  UNL     1      26.315   6.456  33.376  1.00  0.00     0.187 HD
HETATM    3  C5  UNL     1      26.243   4.404  33.740  1.00  0.00     0.339 C 
HETATM    4  O3  UNL     1      25.596   3.422  34.147  1.00  0.00    -0.245 OA
HETATM    5  N3  UNL     1      27.561   4.188  33.273  1.00  0.00    -0.272 N 
ATOM      6  H3  UNL     1      28.099   4.987  32.940  1.00  0.00     0.174 HD
ENDROOT
BRANCH   1   7
HETATM    7  N1  UNL     1      24.437   6.052  34.159  1.00  0.00    -0.105 NA
BRANCH   7   8
HETATM    8  C4  UNL     1      23.584   6.398  33.031  1.00  0.00     0.237 C 
HETATM    9  O2  UNL     1      22.752   7.428  33.460  1.00  0.00    -0.365 OA
HETATM   10  C3  UNL     1      21.826   6.849  34.305  1.00  0.00     0.207 C 
HETATM   11  C2  UNL     1      21.562   5.469  33.771  1.00  0.00     0.079 C 
HETATM   12  C1  UNL     1      20.168   5.353  33.182  1.00  0.00     0.048 C 
HETATM   13  C7  UNL     1      22.609   5.304  32.704  1.00  0.00     0.090 C 
BRANCH  11  14
HETATM   14  O1  UNL     1      21.724   4.527  34.777  1.00  0.00    -0.388 OA
ATOM     15  H1  UNL     1      22.491   3.997  34.599  1.00  0.00     0.210 HD
ENDBRANCH  11  14
ENDBRANCH   7   8
ENDBRANCH   1   7
BRANCH   5  16
HETATM   16  C6  UNL     1      28.174   2.882  33.250  1.00  0.00     0.245 C 
HETATM   17  N4  UNL     1      28.424   2.348  34.385  1.00  0.00    -0.233 N 
ATOM     18  H4  UNL     1      28.172   2.887  35.213  1.00  0.00     0.198 HD
BRANCH  16  19
HETATM   19  O4  UNL     1      28.484   2.227  32.073  1.00  0.00    -0.331 OA
ATOM     20  H4  UNL     1      28.482   2.663  31.229  1.00  0.00     0.221 HD
ENDBRANCH  16  19
BRANCH  17  21
HETATM   21  O5  UNL     1      28.989   1.136  34.594  1.00  0.00    -0.287 OA
ATOM     22  H5  UNL     1      29.347   0.817  35.414  1.00  0.00     0.244 HD
ENDBRANCH  17  21
ENDBRANCH   5  16
TORSDOF 6
ENDMDL
MODEL 5
REMARK VINA RESULT: -7.496277125      1.821      2.091
REMARK  6 active torsions:
REMARK  status: ('A' for Active; 'I' for Inactive)
REMARK    1  A    between atoms: C2_2  and  O1_3 
REMARK    2  A    between atoms: C4_7  and  N1_8 
REMARK    3  A    between atoms: N1_8  and  N2_9 
REMARK       I    between atoms: N2_9  and  C5_11 
REMARK       I    between atoms: C5_11  and  N3_13 
REMARK    4  A    between atoms: N3_13  and  C6_15 
REMARK    5  A    between atoms: C6_15  and  O4_16 
REMARK    6  A    between atoms: N4_18  and  O5_20 
ROOT
HETATM    1  N2  UNL     1      24.717   3.813  34.060  1.00  0.00    -0.253 N 
ATOM      2  H2  UNL     1      24.719   3.666  35.070  1.00  0.00     0.187 HD
HETATM    3  C5  UNL     1      25.920   3.593  33.366  1.00  0.00     0.339 C 
HETATM    4  O3  UNL     1      26.024   3.745  32.135  1.00  0.00    -0.245 OA
HETATM    5  N3  UNL     1      27.066   3.183  34.087  1.00  0.00    -0.272 N 
ATOM      6  H3  UNL     1      26.989   3.054  35.095  1.00  0.00     0.174 HD
ENDROOT
BRANCH   1   7
HETATM    7  N1  UNL     1      23.522   4.218  33.468  1.00  0.00    -0.105 NA
BRANCH   7   8
HETATM    8  C4  UNL     1      23.270   5.630  33.719  1.00  0.00     0.237 C 
HETATM    9  O2  UNL     1      22.449   5.696  34.840  1.00  0.00    -0.365 OA
HETATM   10  C3  UNL     1      21.197   5.289  34.426  1.00  0.00     0.207 C 
HETATM   11  C2  UNL     1      21.039   5.760  33.007  1.00  0.00     0.079 C 
HETATM   12  C1  UNL     1      20.023   6.882  32.899  1.00  0.00     0.048 C 
HETATM   13  C7  UNL     1      22.416   6.249  32.650  1.00  0.00     0.090 C 
BRANCH  11  14
HETATM   14  O1  UNL     1      20.658   4.705  32.192  1.00  0.00    -0.388 OA
ATOM     15  H1  UNL     1      20.591   3.910  32.707  1.00  0.00     0.210 HD
ENDBRANCH  11  14
ENDBRANCH   7   8
ENDBRANCH   1   7
BRANCH   5  16
HETATM   16  C6  UNL     1      28.339   2.939  33.452  1.00  0.00     0.245 C 
HETATM   17  N4  UNL     1      28.382   1.978  32.609  1.00  0.00    -0.233 N 
ATOM     18  H4  UNL     1      27.516   1.461  32.456  1.00  0.00     0.198 HD
BRANCH  16  19
HETATM   19  O4  UNL     1      29.464   3.693  33.729  1.00  0.00    -0.331 OA
ATOM     20  H4  UNL     1      30.326   3.307  33.827  1.00  0.00     0.221 HD
ENDBRANCH  16  19
BRANCH  17  21
HETATM   21  O5  UNL     1      29.464   1.580  31.902  1.00  0.00    -0.287 OA
ATOM     22  H5  UNL     1      29.464   1.253  31.009  1.00  0.00     0.244 HD
ENDBRANCH  17  21
ENDBRANCH   5  16
TORSDOF 6
ENDMDL
