MODEL 1
REMARK VINA RESULT: -7.393295393      0.000      0.000
REMARK  4 active torsions:
REMARK  status: ('A' for Active; 'I' for Inactive)
REMARK    1  A    between atoms: C1_2  and  C2_3 
REMARK    2  A    between atoms: C1_2  and  C3_10 
REMARK    3  A    between atoms: C2_3  and  O2_4 
REMARK    4  A    between atoms: N1_6  and  O3_8 
ROOT
HETATM    1  C3  UNL     1      25.011   3.857  32.725  1.00  0.00     0.268 C 
HETATM    2  C4  UNL     1      24.915   5.345  32.858  1.00  0.00     0.086 C 
HETATM    3  C5  UNL     1      23.688   5.910  33.451  1.00  0.00     0.063 C 
HETATM    4  N2  UNL     1      22.590   5.127  33.793  1.00  0.00    -0.378 N 
ATOM      5  H2  UNL     1      22.712   4.379  34.475  1.00  0.00     0.164 HD
HETATM    6  C6  UNL     1      21.333   5.328  33.237  1.00  0.00     0.103 C 
HETATM    7  C7  UNL     1      21.144   5.360  31.763  1.00  0.00     0.100 C 
HETATM    8  N3  UNL     1      21.297   4.157  31.050  1.00  0.00    -0.398 N 
ATOM      9  H3  UNL     1      21.069   3.260  31.479  1.00  0.00     0.158 HD
HETATM   10  C8  UNL     1      21.785   4.232  29.695  1.00  0.00     0.120 C 
HETATM   11  C9  UNL     1      23.170   3.534  29.560  1.00  0.00     0.047 C 
HETATM   12  C10 UNL     1      23.753   3.753  30.878  1.00  0.00     0.235 C 
HETATM   13  N4  UNL     1      25.048   3.434  31.296  1.00  0.00    -0.063 N 
ATOM     14  H41 UNL     1      25.332   2.467  31.136  1.00  0.00     0.278 HD
ATOM     15  H42 UNL     1      25.798   3.844  30.740  1.00  0.00     0.278 HD
ENDROOT
BRANCH   1  16
HETATM   16  C1  UNL     1      26.153   3.246  33.391  1.00  0.00     0.232 C 
HETATM   17  O1  UNL     1      26.645   3.736  34.433  1.00  0.00    -0.286 OA
BRANCH  16  18
HETATM   18  C2  UNL     1      26.797   2.023  32.887  1.00  0.00     0.209 C 
HETATM   19  N1  UNL     1      28.037   1.954  32.595  1.00  0.00    -0.244 N 
ATOM     20  H1  UNL     1      28.400   1.064  32.253  1.00  0.00     0.196 HD
BRANCH  18  21
HETATM   21  O2  UNL     1      26.005   0.899  32.728  1.00  0.00    -0.342 OA
ATOM     22  H2  UNL     1      25.898   0.327  33.478  1.00  0.00     0.219 HD
ENDBRANCH  18  21
BRANCH  19  23
HETATM   23  O3  UNL     1      28.913   3.003  32.714  1.00  0.00    -0.288 OA
ATOM     24  H3  UNL     1      29.296   3.460  31.975  1.00  0.00     0.244 HD
ENDBRANCH  19  23
ENDBRANCH  16  18
ENDBRANCH   1  16
TORSDOF 4
ENDMDL
MODEL 2
REMARK VINA RESULT: -7.310240295      1.122      1.296
REMARK  4 active torsions:
REMARK  status: ('A' for Active; 'I' for Inactive)
REMARK    1  A    between atoms: C1_2  and  C2_3 
REMARK    2  A    between atoms: C1_2  and  C3_10 
REMARK    3  A    between atoms: C2_3  and  O2_4 
REMARK    4  A    between atoms: N1_6  and  O3_8 
ROOT
HETATM    1  C3  UNL     1      25.217   3.492  32.472  1.00  0.00     0.268 C 
HETATM    2  C4  UNL     1      25.283   4.956  32.777  1.00  0.00     0.086 C 
HETATM    3  C5  UNL     1      24.177   5.554  33.547  1.00  0.00     0.063 C 
HETATM    4  N2  UNL     1      23.040   4.837  33.908  1.00  0.00    -0.378 N 
ATOM      5  H2  UNL     1      23.146   4.006  34.488  1.00  0.00     0.164 HD
HETATM    6  C6  UNL     1      21.766   5.215  33.504  1.00  0.00     0.103 C 
HETATM    7  C7  UNL     1      21.451   5.439  32.069  1.00  0.00     0.100 C 
HETATM    8  N3  UNL     1      21.419   4.321  31.217  1.00  0.00    -0.398 N 
ATOM      9  H3  UNL     1      21.141   3.402  31.565  1.00  0.00     0.158 HD
HETATM   10  C8  UNL     1      21.791   4.512  29.837  1.00  0.00     0.120 C 
HETATM   11  C9  UNL     1      23.082   3.714  29.489  1.00  0.00     0.047 C 
HETATM   12  C10 UNL     1      23.798   3.721  30.759  1.00  0.00     0.235 C 
HETATM   13  N4  UNL     1      25.086   3.241  31.009  1.00  0.00    -0.063 N 
ATOM     14  H41 UNL     1      25.256   2.278  30.716  1.00  0.00     0.278 HD
ATOM     15  H42 UNL     1      25.821   3.645  30.430  1.00  0.00     0.278 HD
ENDROOT
BRANCH   1  16
HETATM   16  C1  UNL     1      26.347   2.706  32.950  1.00  0.00     0.232 C 
HETATM   17  O1  UNL     1      27.201   2.235  32.164  1.00  0.00    -0.286 OA
BRANCH  16  18
HETATM   18  C2  UNL     1      26.555   2.416  34.377  1.00  0.00     0.209 C 
HETATM   19  N1  UNL     1      27.687   2.525  34.957  1.00  0.00    -0.244 N 
ATOM     20  H1  UNL     1      27.739   2.304  35.951  1.00  0.00     0.196 HD
BRANCH  18  21
HETATM   21  O2  UNL     1      25.458   2.006  35.115  1.00  0.00    -0.342 OA
ATOM     22  H2  UNL     1      24.603   2.308  34.836  1.00  0.00     0.219 HD
ENDBRANCH  18  21
BRANCH  19  23
HETATM   23  O3  UNL     1      28.837   2.922  34.324  1.00  0.00    -0.288 OA
ATOM     24  H3  UNL     1      29.427   3.585  34.662  1.00  0.00     0.244 HD
ENDBRANCH  19  23
ENDBRANCH  16  18
ENDBRANCH   1  16
TORSDOF 4
ENDMDL
MODEL 3
REMARK VINA RESULT: -7.203489468      1.747      3.092
REMARK  4 active torsions:
REMARK  status: ('A' for Active; 'I' for Inactive)
REMARK    1  A    between atoms: C1_2  and  C2_3 
REMARK    2  A    between atoms: C1_2  and  C3_10 
REMARK    3  A    between atoms: C2_3  and  O2_4 
REMARK    4  A    between atoms: N1_6  and  O3_8 
ROOT
HETATM    1  C3  UNL     1      26.345   4.129  33.286  1.00  0.00     0.268 C 
HETATM    2  C4  UNL     1      25.377   3.044  33.643  1.00  0.00     0.086 C 
HETATM    3  C5  UNL     1      24.343   2.684  32.656  1.00  0.00     0.063 C 
HETATM    4  N2  UNL     1      24.172   3.377  31.462  1.00  0.00    -0.378 N 
ATOM      5  H2  UNL     1      24.948   3.420  30.802  1.00  0.00     0.164 HD
HETATM    6  C6  UNL     1      22.981   4.013  31.136  1.00  0.00     0.103 C 
HETATM    7  C7  UNL     1      22.358   4.994  32.063  1.00  0.00     0.100 C 
HETATM    8  N3  UNL     1      23.000   6.232  32.245  1.00  0.00    -0.398 N 
ATOM      9  H3  UNL     1      23.544   6.657  31.494  1.00  0.00     0.158 HD
HETATM   10  C8  UNL     1      22.867   6.880  33.527  1.00  0.00     0.120 C 
HETATM   11  C9  UNL     1      24.243   6.987  34.247  1.00  0.00     0.047 C 
HETATM   12  C10 UNL     1      24.935   5.800  33.761  1.00  0.00     0.235 C 
HETATM   13  N4  UNL     1      26.184   5.321  34.166  1.00  0.00    -0.063 N 
ATOM     14  H41 UNL     1      26.945   5.999  34.124  1.00  0.00     0.278 HD
ATOM     15  H42 UNL     1      26.277   5.139  35.165  1.00  0.00     0.278 HD
ENDROOT
BRANCH   1  16
HETATM   16  C1  UNL     1      27.750   3.746  33.321  1.00  0.00     0.232 C 
HETATM   17  O1  UNL     1      28.648   4.501  32.882  1.00  0.00    -0.286 OA
BRANCH  16  18
HETATM   18  C2  UNL     1      28.201   2.458  33.869  1.00  0.00     0.209 C 
HETATM   19  N1  UNL     1      28.852   1.596  33.189  1.00  0.00    -0.244 N 
ATOM     20  H1  UNL     1      29.126   0.729  33.651  1.00  0.00     0.196 HD
BRANCH  18  21
HETATM   21  O2  UNL     1      27.897   2.181  35.191  1.00  0.00    -0.342 OA
ATOM     22  H2  UNL     1      28.251   1.384  35.566  1.00  0.00     0.219 HD
ENDBRANCH  18  21
BRANCH  19  23
HETATM   23  O3  UNL     1      29.206   1.765  31.875  1.00  0.00    -0.288 OA
ATOM     24  H3  UNL     1      28.805   1.296  31.153  1.00  0.00     0.244 HD
ENDBRANCH  19  23
ENDBRANCH  16  18
ENDBRANCH   1  16
TORSDOF 4
ENDMDL
MODEL 4
REMARK VINA RESULT: -7.188658749      2.256      3.951
REMARK  4 active torsions:
REMARK  status: ('A' for Active; 'I' for Inactive)
REMARK    1  A    between atoms: C1_2  and  C2_3 
REMARK    2  A    between atoms: C1_2  and  C3_10 
REMARK    3  A    between atoms: C2_3  and  O2_4 
REMARK    4  A    between atoms: N1_6  and  O3_8 
ROOT
HETATM    1  C3  UNL     1      25.395   4.804  33.096  1.00  0.00     0.268 C 
HETATM    2  C4  UNL     1      24.232   4.265  33.870  1.00  0.00     0.086 C 
HETATM    3  C5  UNL     1      22.910   4.884  33.654  1.00  0.00     0.063 C 
HETATM    4  N2  UNL     1      22.727   6.001  32.846  1.00  0.00    -0.378 N 
ATOM      5  H2  UNL     1      22.987   5.945  31.862  1.00  0.00     0.164 HD
HETATM    6  C6  UNL     1      22.202   7.192  33.334  1.00  0.00     0.103 C 
HETATM    7  C7  UNL     1      22.795   7.861  34.521  1.00  0.00     0.100 C 
HETATM    8  N3  UNL     1      24.066   8.446  34.385  1.00  0.00    -0.398 N 
ATOM      9  H3  UNL     1      24.373   8.835  33.493  1.00  0.00     0.158 HD
HETATM   10  C8  UNL     1      24.923   8.478  35.545  1.00  0.00     0.120 C 
HETATM   11  C9  UNL     1      26.199   7.614  35.324  1.00  0.00     0.047 C 
HETATM   12  C10 UNL     1      25.709   6.568  34.435  1.00  0.00     0.235 C 
HETATM   13  N4  UNL     1      26.403   5.439  33.991  1.00  0.00    -0.063 N 
ATOM     14  H41 UNL     1      27.310   5.626  33.561  1.00  0.00     0.278 HD
ATOM     15  H42 UNL     1      26.772   4.838  34.727  1.00  0.00     0.278 HD
ENDROOT
BRANCH   1  16
HETATM   16  C1  UNL     1      26.096   3.831  32.269  1.00  0.00     0.232 C 
HETATM   17  O1  UNL     1      25.711   3.556  31.109  1.00  0.00    -0.286 OA
BRANCH  16  18
HETATM   18  C2  UNL     1      27.290   3.113  32.740  1.00  0.00     0.209 C 
HETATM   19  N1  UNL     1      27.306   1.859  32.978  1.00  0.00    -0.244 N 
ATOM     20  H1  UNL     1      28.180   1.444  33.301  1.00  0.00     0.196 HD
BRANCH  18  21
HETATM   21  O2  UNL     1      28.448   3.848  32.928  1.00  0.00    -0.342 OA
ATOM     22  H2  UNL     1      28.604   4.210  33.791  1.00  0.00     0.219 HD
ENDBRANCH  18  21
BRANCH  19  23
HETATM   23  O3  UNL     1      26.220   1.036  32.827  1.00  0.00    -0.288 OA
ATOM     24  H3  UNL     1      26.041   0.287  33.382  1.00  0.00     0.244 HD
ENDBRANCH  19  23
ENDBRANCH  16  18
ENDBRANCH   1  16
TORSDOF 4
ENDMDL
MODEL 5
REMARK VINA RESULT: -7.188308525      1.119      1.457
REMARK  4 active torsions:
REMARK  status: ('A' for Active; 'I' for Inactive)
REMARK    1  A    between atoms: C1_2  and  C2_3 
REMARK    2  A    between atoms: C1_2  and  C3_10 
REMARK    3  A    between atoms: C2_3  and  O2_4 
REMARK    4  A    between atoms: N1_6  and  O3_8 
ROOT
HETATM    1  C3  UNL     1      25.458   3.831  33.147  1.00  0.00     0.268 C 
HETATM    2  C4  UNL     1      25.321   5.311  33.332  1.00  0.00     0.086 C 
HETATM    3  C5  UNL     1      24.032   5.831  33.826  1.00  0.00     0.063 C 
HETATM    4  N2  UNL     1      22.922   5.018  34.027  1.00  0.00    -0.378 N 
ATOM      5  H2  UNL     1      22.992   4.243  34.687  1.00  0.00     0.164 HD
HETATM    6  C6  UNL     1      21.721   5.224  33.361  1.00  0.00     0.103 C 
HETATM    7  C7  UNL     1      21.673   5.316  31.878  1.00  0.00     0.100 C 
HETATM    8  N3  UNL     1      21.917   4.148  31.135  1.00  0.00    -0.398 N 
ATOM      9  H3  UNL     1      21.666   3.229  31.502  1.00  0.00     0.158 HD
HETATM   10  C8  UNL     1      22.532   4.288  29.838  1.00  0.00     0.120 C 
HETATM   11  C9  UNL     1      23.937   3.618  29.808  1.00  0.00     0.047 C 
HETATM   12  C10 UNL     1      24.386   3.788  31.185  1.00  0.00     0.235 C 
HETATM   13  N4  UNL     1      25.640   3.471  31.713  1.00  0.00    -0.063 N 
ATOM     14  H41 UNL     1      25.957   2.517  31.541  1.00  0.00     0.278 HD
ATOM     15  H42 UNL     1      26.432   3.916  31.250  1.00  0.00     0.278 HD
ENDROOT
BRANCH   1  16
HETATM   16  C1  UNL     1      26.542   3.209  33.895  1.00  0.00     0.232 C 
HETATM   17  O1  UNL     1      26.326   2.545  34.935  1.00  0.00    -0.286 OA
BRANCH  16  18
HETATM   18  C2  UNL     1      27.949   3.321  33.482  1.00  0.00     0.209 C 
HETATM   19  N1  UNL     1      28.824   2.424  33.721  1.00  0.00    -0.244 N 
ATOM     20  H1  UNL     1      29.777   2.584  33.396  1.00  0.00     0.196 HD
BRANCH  18  21
HETATM   21  O2  UNL     1      28.328   4.464  32.798  1.00  0.00    -0.342 OA
ATOM     22  H2  UNL     1      29.167   4.453  32.354  1.00  0.00     0.219 HD
ENDBRANCH  18  21
BRANCH  19  23
HETATM   23  O3  UNL     1      28.560   1.256  34.390  1.00  0.00    -0.288 OA
ATOM     24  H3  UNL     1      29.087   0.469  34.312  1.00  0.00     0.244 HD
ENDBRANCH  19  23
ENDBRANCH  16  18
ENDBRANCH   1  16
TORSDOF 4
ENDMDL
