MODEL 1
REMARK VINA RESULT: -6.982679893      0.000      0.000
REMARK  4 active torsions:
REMARK  status: ('A' for Active; 'I' for Inactive)
REMARK    1  A    between atoms: N1_3  and  N2_5 
REMARK       I    between atoms: N2_5  and  C3_7 
REMARK       I    between atoms: C3_7  and  N3_9 
REMARK    2  A    between atoms: N3_9  and  C4_11 
REMARK    3  A    between atoms: C5_14  and  N5_15 
REMARK    4  A    between atoms: C6_20  and  N7_21 
ROOT
HETATM    1  C4  UNL     1      25.365   5.376  33.599  1.00  0.00     0.149 A 
HETATM    2  N4  UNL     1      26.606   4.987  33.933  1.00  0.00    -0.175 N 
ATOM      3  H4  UNL     1      27.062   5.433  34.729  1.00  0.00     0.186 HD
HETATM    4  C5  UNL     1      27.283   4.016  33.246  1.00  0.00     0.679 A 
HETATM    5  N6  UNL     1      26.756   3.384  32.190  1.00  0.00    -0.176 N 
ATOM      6  H6  UNL     1      27.272   2.663  31.686  1.00  0.00     0.186 HD
HETATM    7  C6  UNL     1      25.521   3.745  31.829  1.00  0.00     0.139 A 
HETATM    8  C7  UNL     1      24.821   4.709  32.494  1.00  0.00     0.133 A 
HETATM    9  C8  UNL     1      23.497   5.077  32.085  1.00  0.00     0.107 C 
HETATM   10  N8  UNL     1      22.418   5.388  31.744  1.00  0.00    -0.191 NA
ENDROOT
BRANCH   1  11
HETATM   11  N3  UNL     1      24.620   6.374  34.273  1.00  0.00    -0.292 N 
HETATM   12  C3  UNL     1      25.089   7.489  34.968  1.00  0.00     0.340 C 
HETATM   13  N2  UNL     1      24.133   8.380  35.584  1.00  0.00    -0.252 N 
HETATM   14  O1  UNL     1      26.273   7.818  35.125  1.00  0.00    -0.245 OA
ATOM     15  H2  UNL     1      23.141   8.159  35.488  1.00  0.00     0.191 HD
ATOM     16  H3  UNL     1      23.606   6.262  34.247  1.00  0.00     0.172 HD
BRANCH  13  17
HETATM   17  N1  UNL     1      24.479   9.510  36.294  1.00  0.00    -0.312 N 
HETATM   18  C2  UNL     1      23.590  10.391  36.623  1.00  0.00     0.076 C 
HETATM   19  C1  UNL     1      23.997  11.599  37.389  1.00  0.00     0.056 C 
ATOM     20  H1  UNL     1      25.452   9.654  36.564  1.00  0.00     0.185 HD
ENDBRANCH  13  17
ENDBRANCH   1  11
BRANCH   7  21
HETATM   21  N7  UNL     1      24.943   3.176  30.815  1.00  0.00    -0.384 N 
ATOM     22  H72 UNL     1      25.542   2.820  30.070  1.00  0.00     0.157 HD
ATOM     23  H71 UNL     1      23.926   3.096  30.781  1.00  0.00     0.157 HD
ENDBRANCH   7  21
BRANCH   4  24
HETATM   24  N5  UNL     1      28.462   3.701  33.625  1.00  0.00    -0.234 N 
ATOM     25  H52 UNL     1      28.930   4.291  34.311  1.00  0.00     0.174 HD
ATOM     26  H51 UNL     1      28.899   2.869  33.230  1.00  0.00     0.174 HD
ENDBRANCH   4  24
TORSDOF 4
ENDMDL
MODEL 2
REMARK VINA RESULT: -6.957655280      2.079      2.378
REMARK  4 active torsions:
REMARK  status: ('A' for Active; 'I' for Inactive)
REMARK    1  A    between atoms: N1_3  and  N2_5 
REMARK       I    between atoms: N2_5  and  C3_7 
REMARK       I    between atoms: C3_7  and  N3_9 
REMARK    2  A    between atoms: N3_9  and  C4_11 
REMARK    3  A    between atoms: C5_14  and  N5_15 
REMARK    4  A    between atoms: C6_20  and  N7_21 
ROOT
HETATM    1  C4  UNL     1      26.700   3.968  33.723  1.00  0.00     0.149 A 
HETATM    2  N4  UNL     1      27.865   3.530  33.220  1.00  0.00    -0.175 N 
ATOM      3  H4  UNL     1      28.689   4.126  33.301  1.00  0.00     0.186 HD
HETATM    4  C5  UNL     1      27.990   2.315  32.602  1.00  0.00     0.679 A 
HETATM    5  N6  UNL     1      26.958   1.475  32.456  1.00  0.00    -0.176 N 
ATOM      6  H6  UNL     1      27.064   0.573  31.993  1.00  0.00     0.186 HD
HETATM    7  C6  UNL     1      25.782   1.878  32.945  1.00  0.00     0.139 A 
HETATM    8  C7  UNL     1      25.626   3.083  33.566  1.00  0.00     0.133 A 
HETATM    9  C8  UNL     1      24.352   3.491  34.083  1.00  0.00     0.107 C 
HETATM   10  N8  UNL     1      23.307   3.830  34.495  1.00  0.00    -0.191 NA
ENDROOT
BRANCH   1  11
HETATM   11  N3  UNL     1      26.515   5.214  34.370  1.00  0.00    -0.292 N 
HETATM   12  C3  UNL     1      25.772   6.315  33.942  1.00  0.00     0.340 C 
HETATM   13  N2  UNL     1      25.727   7.493  34.776  1.00  0.00    -0.252 N 
HETATM   14  O1  UNL     1      25.124   6.405  32.890  1.00  0.00    -0.245 OA
ATOM     15  H2  UNL     1      26.243   7.477  35.656  1.00  0.00     0.191 HD
ATOM     16  H3  UNL     1      26.986   5.320  35.269  1.00  0.00     0.172 HD
BRANCH  13  17
HETATM   17  N1  UNL     1      25.028   8.638  34.456  1.00  0.00    -0.312 N 
HETATM   18  C2  UNL     1      23.918   8.932  35.052  1.00  0.00     0.076 C 
HETATM   19  C1  UNL     1      23.189  10.175  34.684  1.00  0.00     0.056 C 
ATOM     20  H1  UNL     1      25.393   9.263  33.738  1.00  0.00     0.185 HD
ENDBRANCH  13  17
ENDBRANCH   1  11
BRANCH   7  21
HETATM   21  N7  UNL     1      24.734   1.118  32.841  1.00  0.00    -0.384 N 
ATOM     22  H72 UNL     1      24.542   0.703  31.929  1.00  0.00     0.157 HD
ATOM     23  H71 UNL     1      24.137   0.951  33.652  1.00  0.00     0.157 HD
ENDBRANCH   7  21
BRANCH   4  24
HETATM   24  N5  UNL     1      29.132   1.969  32.148  1.00  0.00    -0.234 N 
ATOM     25  H52 UNL     1      29.844   2.686  32.013  1.00  0.00     0.174 HD
ATOM     26  H51 UNL     1      29.300   0.986  31.935  1.00  0.00     0.174 HD
ENDBRANCH   4  24
TORSDOF 4
ENDMDL
MODEL 3
REMARK VINA RESULT: -6.886064573      1.214      1.214
REMARK  4 active torsions:
REMARK  status: ('A' for Active; 'I' for Inactive)
REMARK    1  A    between atoms: N1_3  and  N2_5 
REMARK       I    between atoms: N2_5  and  C3_7 
REMARK       I    between atoms: C3_7  and  N3_9 
REMARK    2  A    between atoms: N3_9  and  C4_11 
REMARK    3  A    between atoms: C5_14  and  N5_15 
REMARK    4  A    between atoms: C6_20  and  N7_21 
ROOT
HETATM    1  C4  UNL     1      25.803   4.897  33.595  1.00  0.00     0.149 A 
HETATM    2  N4  UNL     1      27.062   4.568  33.930  1.00  0.00    -0.175 N 
ATOM      3  H4  UNL     1      27.694   5.303  34.247  1.00  0.00     0.186 HD
HETATM    4  C5  UNL     1      27.528   3.283  33.862  1.00  0.00     0.679 A 
HETATM    5  N6  UNL     1      26.763   2.261  33.457  1.00  0.00    -0.176 N 
ATOM      6  H6  UNL     1      27.124   1.309  33.410  1.00  0.00     0.186 HD
HETATM    7  C6  UNL     1      25.505   2.552  33.116  1.00  0.00     0.139 A 
HETATM    8  C7  UNL     1      25.011   3.823  33.173  1.00  0.00     0.133 A 
HETATM    9  C8  UNL     1      23.655   4.108  32.801  1.00  0.00     0.107 C 
HETATM   10  N8  UNL     1      22.550   4.343  32.485  1.00  0.00    -0.191 NA
ENDROOT
BRANCH   1  11
HETATM   11  N3  UNL     1      25.269   6.207  33.645  1.00  0.00    -0.292 N 
HETATM   12  C3  UNL     1      25.468   7.192  34.615  1.00  0.00     0.340 C 
HETATM   13  N2  UNL     1      24.813   8.469  34.457  1.00  0.00    -0.252 N 
HETATM   14  O1  UNL     1      26.167   7.095  35.634  1.00  0.00    -0.245 OA
ATOM     15  H2  UNL     1      24.223   8.607  33.635  1.00  0.00     0.191 HD
ATOM     16  H3  UNL     1      24.658   6.466  32.871  1.00  0.00     0.172 HD
BRANCH  13  17
HETATM   17  N1  UNL     1      24.935   9.513  35.348  1.00  0.00    -0.312 N 
HETATM   18  C2  UNL     1      23.941   9.879  36.092  1.00  0.00     0.076 C 
HETATM   19  C1  UNL     1      24.107  11.009  37.043  1.00  0.00     0.056 C 
ATOM     20  H1  UNL     1      25.825  10.007  35.423  1.00  0.00     0.185 HD
ENDBRANCH  13  17
ENDBRANCH   1  11
BRANCH   7  21
HETATM   21  N7  UNL     1      24.702   1.614  32.713  1.00  0.00    -0.384 N 
ATOM     22  H72 UNL     1      24.853   0.675  33.081  1.00  0.00     0.157 HD
ATOM     23  H71 UNL     1      23.953   1.827  32.053  1.00  0.00     0.157 HD
ENDBRANCH   7  21
BRANCH   4  24
HETATM   24  N5  UNL     1      28.738   3.048  34.197  1.00  0.00    -0.234 N 
ATOM     25  H52 UNL     1      29.311   3.820  34.538  1.00  0.00     0.174 HD
ATOM     26  H51 UNL     1      29.096   2.097  34.116  1.00  0.00     0.174 HD
ENDBRANCH   4  24
TORSDOF 4
ENDMDL
MODEL 4
REMARK VINA RESULT: -6.625106431      3.152      6.076
REMARK  4 active torsions:
REMARK  status: ('A' for Active; 'I' for Inactive)
REMARK    1  A    between atoms: N1_3  and  N2_5 
REMARK       I    between atoms: N2_5  and  C3_7 
REMARK       I    between atoms: C3_7  and  N3_9 
REMARK    2  A    between atoms: N3_9  and  C4_11 
REMARK    3  A    between atoms: C5_14  and  N5_15 
REMARK    4  A    between atoms: C6_20  and  N7_21 
ROOT
HETATM    1  C4  UNL     1      24.416   4.135  32.375  1.00  0.00     0.149 A 
HETATM    2  N4  UNL     1      25.316   3.209  32.007  1.00  0.00    -0.175 N 
ATOM      3  H4  UNL     1      25.025   2.470  31.367  1.00  0.00     0.186 HD
HETATM    4  C5  UNL     1      26.608   3.218  32.458  1.00  0.00     0.679 A 
HETATM    5  N6  UNL     1      27.068   4.152  33.300  1.00  0.00    -0.176 N 
ATOM      6  H6  UNL     1      28.033   4.147  33.629  1.00  0.00     0.186 HD
HETATM    7  C6  UNL     1      26.200   5.091  33.687  1.00  0.00     0.139 A 
HETATM    8  C7  UNL     1      24.906   5.108  33.255  1.00  0.00     0.133 A 
HETATM    9  C8  UNL     1      23.994   6.128  33.687  1.00  0.00     0.107 C 
HETATM   10  N8  UNL     1      23.245   6.955  34.049  1.00  0.00    -0.191 NA
ENDROOT
BRANCH   1  11
HETATM   11  N3  UNL     1      23.069   4.173  31.941  1.00  0.00    -0.292 N 
HETATM   12  C3  UNL     1      22.546   3.824  30.695  1.00  0.00     0.340 C 
HETATM   13  N2  UNL     1      21.124   3.946  30.476  1.00  0.00    -0.252 N 
HETATM   14  O1  UNL     1      23.183   3.407  29.717  1.00  0.00    -0.245 OA
ATOM     15  H2  UNL     1      20.548   4.285  31.246  1.00  0.00     0.191 HD
ATOM     16  H3  UNL     1      22.391   4.498  32.630  1.00  0.00     0.172 HD
BRANCH  13  17
HETATM   17  N1  UNL     1      20.497   3.631  29.289  1.00  0.00    -0.312 N 
HETATM   18  C2  UNL     1      19.324   4.101  29.006  1.00  0.00     0.076 C 
HETATM   19  C1  UNL     1      18.676   3.741  27.717  1.00  0.00     0.056 C 
ATOM     20  H1  UNL     1      20.965   3.018  28.622  1.00  0.00     0.185 HD
ENDBRANCH  13  17
ENDBRANCH   1  11
BRANCH   7  21
HETATM   21  N7  UNL     1      26.572   6.031  34.502  1.00  0.00    -0.384 N 
ATOM     22  H72 UNL     1      26.197   6.007  35.451  1.00  0.00     0.157 HD
ATOM     23  H71 UNL     1      27.216   6.758  34.190  1.00  0.00     0.157 HD
ENDBRANCH   7  21
BRANCH   4  24
HETATM   24  N5  UNL     1      27.405   2.302  32.062  1.00  0.00    -0.234 N 
ATOM     25  H52 UNL     1      27.720   1.603  32.734  1.00  0.00     0.174 HD
ATOM     26  H51 UNL     1      27.704   2.297  31.087  1.00  0.00     0.174 HD
ENDBRANCH   4  24
TORSDOF 4
ENDMDL
MODEL 5
REMARK VINA RESULT: -6.471642589      2.210      6.764
REMARK  4 active torsions:
REMARK  status: ('A' for Active; 'I' for Inactive)
REMARK    1  A    between atoms: N1_3  and  N2_5 
REMARK       I    between atoms: N2_5  and  C3_7 
REMARK       I    between atoms: C3_7  and  N3_9 
REMARK    2  A    between atoms: N3_9  and  C4_11 
REMARK    3  A    between atoms: C5_14  and  N5_15 
REMARK    4  A    between atoms: C6_20  and  N7_21 
ROOT
HETATM    1  C4  UNL     1      23.761   7.949  34.582  1.00  0.00     0.149 A 
HETATM    2  N4  UNL     1      22.622   7.586  33.968  1.00  0.00    -0.175 N 
ATOM      3  H4  UNL     1      22.557   6.650  33.569  1.00  0.00     0.186 HD
HETATM    4  C5  UNL     1      21.546   8.425  33.859  1.00  0.00     0.679 A 
HETATM    5  N6  UNL     1      21.552   9.668  34.357  1.00  0.00    -0.176 N 
ATOM      6  H6  UNL     1      20.743  10.284  34.268  1.00  0.00     0.186 HD
HETATM    7  C6  UNL     1      22.669  10.063  34.975  1.00  0.00     0.139 A 
HETATM    8  C7  UNL     1      23.757   9.250  35.100  1.00  0.00     0.133 A 
HETATM    9  C8  UNL     1      24.944   9.699  35.768  1.00  0.00     0.107 C 
HETATM   10  N8  UNL     1      25.919  10.069  36.304  1.00  0.00    -0.191 NA
ENDROOT
BRANCH   1  11
HETATM   11  N3  UNL     1      24.902   7.123  34.723  1.00  0.00    -0.292 N 
HETATM   12  C3  UNL     1      25.404   6.172  33.833  1.00  0.00     0.340 C 
HETATM   13  N2  UNL     1      26.596   5.440  34.193  1.00  0.00    -0.252 N 
HETATM   14  O1  UNL     1      24.928   5.869  32.730  1.00  0.00    -0.245 OA
ATOM     15  H2  UNL     1      27.032   5.647  35.092  1.00  0.00     0.191 HD
ATOM     16  H3  UNL     1      25.428   7.239  35.590  1.00  0.00     0.172 HD
BRANCH  13  17
HETATM   17  N1  UNL     1      27.180   4.479  33.396  1.00  0.00    -0.312 N 
HETATM   18  C2  UNL     1      27.258   3.246  33.782  1.00  0.00     0.076 C 
HETATM   19  C1  UNL     1      27.894   2.234  32.897  1.00  0.00     0.056 C 
ATOM     20  H1  UNL     1      27.558   4.744  32.487  1.00  0.00     0.185 HD
ENDBRANCH  13  17
ENDBRANCH   1  11
BRANCH   7  21
HETATM   21  N7  UNL     1      22.750  11.255  35.483  1.00  0.00    -0.384 N 
ATOM     22  H72 UNL     1      22.042  11.524  36.168  1.00  0.00     0.157 HD
ATOM     23  H71 UNL     1      23.499  11.886  35.198  1.00  0.00     0.157 HD
ENDBRANCH   7  21
BRANCH   4  24
HETATM   24  N5  UNL     1      20.498   8.008  33.261  1.00  0.00    -0.234 N 
ATOM     25  H52 UNL     1      20.525   7.099  32.800  1.00  0.00     0.174 HD
ATOM     26  H51 UNL     1      19.665   8.596  33.261  1.00  0.00     0.174 HD
ENDBRANCH   4  24
TORSDOF 4
ENDMDL
