MODEL 1
REMARK VINA RESULT: -7.076084283      0.000      0.000
REMARK  4 active torsions:
REMARK  status: ('A' for Active; 'I' for Inactive)
REMARK    1  A    between atoms: C4_9  and  S1_10 
REMARK    2  A    between atoms: S1_10  and  C5_11 
REMARK    3  A    between atoms: C6_14  and  N4_15 
REMARK    4  A    between atoms: C7_20  and  N6_21 
ROOT
HETATM    1  C5  UNL     1      25.078   6.025  33.797  1.00  0.00     0.179 A 
HETATM    2  N3  UNL     1      26.221   6.622  34.184  1.00  0.00    -0.169 N 
ATOM      3  H3  UNL     1      27.109   6.137  34.051  1.00  0.00     0.186 HD
HETATM    4  C6  UNL     1      26.213   7.857  34.748  1.00  0.00     0.692 A 
HETATM    5  N5  UNL     1      25.059   8.528  34.939  1.00  0.00    -0.023 N 
ATOM      6  H5  UNL     1      25.055   9.456  35.363  1.00  0.00     0.203 HD
HETATM    7  C7  UNL     1      23.923   7.940  34.557  1.00  0.00     0.692 A 
HETATM    8  N7  UNL     1      23.936   6.716  33.998  1.00  0.00    -0.169 N 
ATOM      9  H7  UNL     1      23.051   6.295  33.718  1.00  0.00     0.186 HD
ENDROOT
BRANCH   1  10
HETATM   10  S1  UNL     1      25.077   4.397  33.051  1.00  0.00    -0.045 SA
BRANCH  10  11
HETATM   11  C4  UNL     1      26.334   3.353  33.763  1.00  0.00     0.101 A 
HETATM   12  C2  UNL     1      26.127   2.272  34.602  1.00  0.00     0.044 A 
HETATM   13  C1  UNL     1      24.818   1.783  35.064  1.00  0.00     0.071 C 
HETATM   14  N1  UNL     1      27.323   1.768  34.906  1.00  0.00    -0.301 N 
HETATM   15  N2  UNL     1      28.243   2.478  34.302  1.00  0.00    -0.265 N 
ATOM     16  H1  UNL     1      27.494   0.963  35.508  1.00  0.00     0.186 HD
HETATM   17  C3  UNL     1      27.694   3.475  33.578  1.00  0.00     0.279 A 
ATOM     18  H2  UNL     1      29.245   2.301  34.370  1.00  0.00     0.190 HD
HETATM   19  O1  UNL     1      28.261   4.349  32.873  1.00  0.00    -0.265 OA
ENDBRANCH  10  11
ENDBRANCH   1  10
BRANCH   4  20
HETATM   20  N4  UNL     1      27.346   8.371  35.095  1.00  0.00    -0.234 N 
ATOM     21  H42 UNL     1      28.028   7.828  35.625  1.00  0.00     0.174 HD
ATOM     22  H41 UNL     1      27.537   9.335  34.824  1.00  0.00     0.174 HD
ENDBRANCH   4  20
BRANCH   7  23
HETATM   23  N6  UNL     1      22.805   8.537  34.718  1.00  0.00    -0.234 N 
ATOM     24  H62 UNL     1      22.317   8.444  35.609  1.00  0.00     0.174 HD
ATOM     25  H61 UNL     1      22.411   9.099  33.964  1.00  0.00     0.174 HD
ENDBRANCH   7  23
TORSDOF 4
ENDMDL
MODEL 2
REMARK VINA RESULT: -7.068045359      0.072      1.980
REMARK  4 active torsions:
REMARK  status: ('A' for Active; 'I' for Inactive)
REMARK    1  A    between atoms: C4_9  and  S1_10 
REMARK    2  A    between atoms: S1_10  and  C5_11 
REMARK    3  A    between atoms: C6_14  and  N4_15 
REMARK    4  A    between atoms: C7_20  and  N6_21 
ROOT
HETATM    1  C5  UNL     1      25.115   5.998  33.804  1.00  0.00     0.179 A 
HETATM    2  N3  UNL     1      23.962   6.665  33.993  1.00  0.00    -0.169 N 
ATOM      3  H3  UNL     1      23.082   6.235  33.707  1.00  0.00     0.186 HD
HETATM    4  C6  UNL     1      23.948   7.899  34.559  1.00  0.00     0.692 A 
HETATM    5  N5  UNL     1      25.091   8.499  34.950  1.00  0.00    -0.023 N 
ATOM      6  H5  UNL     1      25.079   9.426  35.375  1.00  0.00     0.203 HD
HETATM    7  C7  UNL     1      26.238   7.841  34.764  1.00  0.00     0.692 A 
HETATM    8  N7  UNL     1      26.246   6.618  34.203  1.00  0.00    -0.169 N 
ATOM      9  H7  UNL     1      27.139   6.142  34.074  1.00  0.00     0.186 HD
ENDROOT
BRANCH   1  10
HETATM   10  S1  UNL     1      25.145   4.369  33.059  1.00  0.00    -0.045 SA
BRANCH  10  11
HETATM   11  C4  UNL     1      26.415   3.347  33.777  1.00  0.00     0.101 A 
HETATM   12  C2  UNL     1      26.223   2.267  34.620  1.00  0.00     0.044 A 
HETATM   13  C1  UNL     1      24.921   1.761  35.083  1.00  0.00     0.071 C 
HETATM   14  N1  UNL     1      27.427   1.782  34.928  1.00  0.00    -0.301 N 
HETATM   15  N2  UNL     1      28.337   2.503  34.322  1.00  0.00    -0.265 N 
ATOM     16  H1  UNL     1      27.608   0.982  35.534  1.00  0.00     0.186 HD
HETATM   17  C3  UNL     1      27.774   3.488  33.593  1.00  0.00     0.279 A 
ATOM     18  H2  UNL     1      29.341   2.340  34.392  1.00  0.00     0.190 HD
HETATM   19  O1  UNL     1      28.329   4.367  32.885  1.00  0.00    -0.265 OA
ENDBRANCH  10  11
ENDBRANCH   1  10
BRANCH   4  20
HETATM   20  N4  UNL     1      22.806   8.482  34.712  1.00  0.00    -0.234 N 
ATOM     21  H42 UNL     1      22.237   8.313  35.542  1.00  0.00     0.174 HD
ATOM     22  H41 UNL     1      22.490   9.116  33.978  1.00  0.00     0.174 HD
ENDBRANCH   4  20
BRANCH   7  23
HETATM   23  N6  UNL     1      27.345   8.369  35.118  1.00  0.00    -0.234 N 
ATOM     24  H62 UNL     1      27.894   8.881  34.428  1.00  0.00     0.174 HD
ATOM     25  H61 UNL     1      27.672   8.277  36.080  1.00  0.00     0.174 HD
ENDBRANCH   7  23
TORSDOF 4
ENDMDL
MODEL 3
REMARK VINA RESULT: -7.004190071      3.589      6.268
REMARK  4 active torsions:
REMARK  status: ('A' for Active; 'I' for Inactive)
REMARK    1  A    between atoms: C4_9  and  S1_10 
REMARK    2  A    between atoms: S1_10  and  C5_11 
REMARK    3  A    between atoms: C6_14  and  N4_15 
REMARK    4  A    between atoms: C7_20  and  N6_21 
ROOT
HETATM    1  C5  UNL     1      25.246   3.193  31.756  1.00  0.00     0.179 A 
HETATM    2  N3  UNL     1      24.701   2.653  32.862  1.00  0.00    -0.169 N 
ATOM      3  H3  UNL     1      23.720   2.835  33.076  1.00  0.00     0.186 HD
HETATM    4  C6  UNL     1      25.432   1.871  33.697  1.00  0.00     0.692 A 
HETATM    5  N5  UNL     1      26.731   1.609  33.448  1.00  0.00    -0.023 N 
ATOM      6  H5  UNL     1      27.279   1.022  34.076  1.00  0.00     0.203 HD
HETATM    7  C7  UNL     1      27.277   2.143  32.352  1.00  0.00     0.692 A 
HETATM    8  N7  UNL     1      26.548   2.916  31.527  1.00  0.00    -0.169 N 
ATOM      9  H7  UNL     1      26.995   3.309  30.698  1.00  0.00     0.186 HD
ENDROOT
BRANCH   1  10
HETATM   10  S1  UNL     1      24.292   4.224  30.647  1.00  0.00    -0.045 SA
BRANCH  10  11
HETATM   11  C4  UNL     1      22.756   4.736  31.392  1.00  0.00     0.101 A 
HETATM   12  C2  UNL     1      21.486   4.328  31.023  1.00  0.00     0.044 A 
HETATM   13  C1  UNL     1      21.170   3.389  29.936  1.00  0.00     0.071 C 
HETATM   14  N1  UNL     1      20.620   4.942  31.830  1.00  0.00    -0.301 N 
HETATM   15  N2  UNL     1      21.288   5.697  32.666  1.00  0.00    -0.265 N 
ATOM     16  H1  UNL     1      19.606   4.840  31.801  1.00  0.00     0.186 HD
HETATM   17  C3  UNL     1      22.615   5.613  32.447  1.00  0.00     0.279 A 
ATOM     18  H2  UNL     1      20.859   6.274  33.389  1.00  0.00     0.190 HD
HETATM   19  O1  UNL     1      23.557   6.191  33.048  1.00  0.00    -0.265 OA
ENDBRANCH  10  11
ENDBRANCH   1  10
BRANCH   4  20
HETATM   20  N4  UNL     1      24.844   1.386  34.740  1.00  0.00    -0.234 N 
ATOM     21  H42 UNL     1      24.194   1.950  35.287  1.00  0.00     0.174 HD
ATOM     22  H41 UNL     1      25.052   0.421  35.000  1.00  0.00     0.174 HD
ENDBRANCH   4  20
BRANCH   7  23
HETATM   23  N6  UNL     1      28.504   1.922  32.074  1.00  0.00    -0.234 N 
ATOM     24  H62 UNL     1      29.056   1.335  32.699  1.00  0.00     0.174 HD
ATOM     25  H61 UNL     1      28.921   2.330  31.238  1.00  0.00     0.174 HD
ENDBRANCH   7  23
TORSDOF 4
ENDMDL
MODEL 4
REMARK VINA RESULT: -6.997268619      3.590      6.028
REMARK  4 active torsions:
REMARK  status: ('A' for Active; 'I' for Inactive)
REMARK    1  A    between atoms: C4_9  and  S1_10 
REMARK    2  A    between atoms: S1_10  and  C5_11 
REMARK    3  A    between atoms: C6_14  and  N4_15 
REMARK    4  A    between atoms: C7_20  and  N6_21 
ROOT
HETATM    1  C5  UNL     1      25.249   3.194  31.749  1.00  0.00     0.179 A 
HETATM    2  N3  UNL     1      26.546   2.924  31.513  1.00  0.00    -0.169 N 
ATOM      3  H3  UNL     1      26.996   3.315  30.685  1.00  0.00     0.186 HD
HETATM    4  C6  UNL     1      27.266   2.141  32.357  1.00  0.00     0.692 A 
HETATM    5  N5  UNL     1      26.705   1.607  33.461  1.00  0.00    -0.023 N 
ATOM      6  H5  UNL     1      27.247   1.019  34.094  1.00  0.00     0.203 HD
HETATM    7  C7  UNL     1      25.418   1.872  33.699  1.00  0.00     0.692 A 
HETATM    8  N7  UNL     1      24.709   2.648  32.860  1.00  0.00    -0.169 N 
ATOM      9  H7  UNL     1      23.728   2.831  33.070  1.00  0.00     0.186 HD
ENDROOT
BRANCH   1  10
HETATM   10  S1  UNL     1      24.290   4.225  30.643  1.00  0.00    -0.045 SA
BRANCH  10  11
HETATM   11  C4  UNL     1      22.755   4.734  31.392  1.00  0.00     0.101 A 
HETATM   12  C2  UNL     1      21.485   4.325  31.025  1.00  0.00     0.044 A 
HETATM   13  C1  UNL     1      21.167   3.388  29.937  1.00  0.00     0.071 C 
HETATM   14  N1  UNL     1      20.620   4.937  31.834  1.00  0.00    -0.301 N 
HETATM   15  N2  UNL     1      21.288   5.692  32.670  1.00  0.00    -0.265 N 
ATOM     16  H1  UNL     1      19.606   4.834  31.807  1.00  0.00     0.186 HD
HETATM   17  C3  UNL     1      22.615   5.609  32.448  1.00  0.00     0.279 A 
ATOM     18  H2  UNL     1      20.860   6.267  33.395  1.00  0.00     0.190 HD
HETATM   19  O1  UNL     1      23.558   6.187  33.048  1.00  0.00    -0.265 OA
ENDBRANCH  10  11
ENDBRANCH   1  10
BRANCH   4  20
HETATM   20  N4  UNL     1      28.507   1.923  32.070  1.00  0.00    -0.234 N 
ATOM     21  H42 UNL     1      29.125   1.457  32.734  1.00  0.00     0.174 HD
ATOM     22  H41 UNL     1      28.848   2.232  31.160  1.00  0.00     0.174 HD
ENDBRANCH   4  20
BRANCH   7  23
HETATM   23  N6  UNL     1      24.844   1.388  34.732  1.00  0.00    -0.234 N 
ATOM     24  H62 UNL     1      24.097   0.704  34.610  1.00  0.00     0.174 HD
ATOM     25  H61 UNL     1      25.131   1.685  35.664  1.00  0.00     0.174 HD
ENDBRANCH   7  23
TORSDOF 4
ENDMDL
MODEL 5
REMARK VINA RESULT: -6.969176935      2.333      5.601
REMARK  4 active torsions:
REMARK  status: ('A' for Active; 'I' for Inactive)
REMARK    1  A    between atoms: C4_9  and  S1_10 
REMARK    2  A    between atoms: S1_10  and  C5_11 
REMARK    3  A    between atoms: C6_14  and  N4_15 
REMARK    4  A    between atoms: C7_20  and  N6_21 
ROOT
HETATM    1  C5  UNL     1      25.458   4.680  33.650  1.00  0.00     0.179 A 
HETATM    2  N3  UNL     1      26.796   4.542  33.623  1.00  0.00    -0.169 N 
ATOM      3  H3  UNL     1      27.375   5.332  33.338  1.00  0.00     0.186 HD
HETATM    4  C6  UNL     1      27.389   3.371  33.969  1.00  0.00     0.692 A 
HETATM    5  N5  UNL     1      26.656   2.305  34.352  1.00  0.00    -0.023 N 
ATOM      6  H5  UNL     1      27.103   1.425  34.611  1.00  0.00     0.203 HD
HETATM    7  C7  UNL     1      25.328   2.437  34.379  1.00  0.00     0.692 A 
HETATM    8  N7  UNL     1      24.745   3.600  34.036  1.00  0.00    -0.169 N 
ATOM      9  H7  UNL     1      23.728   3.668  34.067  1.00  0.00     0.186 HD
ENDROOT
BRANCH   1  10
HETATM   10  S1  UNL     1      24.665   6.221  33.197  1.00  0.00    -0.045 SA
BRANCH  10  11
HETATM   11  C4  UNL     1      24.508   7.311  34.598  1.00  0.00     0.101 A 
HETATM   12  C2  UNL     1      25.482   8.161  35.092  1.00  0.00     0.044 A 
HETATM   13  C1  UNL     1      26.838   8.321  34.544  1.00  0.00     0.071 C 
HETATM   14  N1  UNL     1      24.962   8.796  36.142  1.00  0.00    -0.301 N 
HETATM   15  N2  UNL     1      23.731   8.382  36.315  1.00  0.00    -0.265 N 
ATOM     16  H1  UNL     1      25.442   9.489  36.715  1.00  0.00     0.186 HD
HETATM   17  C3  UNL     1      23.391   7.462  35.390  1.00  0.00     0.279 A 
ATOM     18  H2  UNL     1      23.110   8.713  37.053  1.00  0.00     0.190 HD
HETATM   19  O1  UNL     1      22.302   6.848  35.244  1.00  0.00    -0.265 OA
ENDBRANCH  10  11
ENDBRANCH   1  10
BRANCH   4  20
HETATM   20  N4  UNL     1      28.678   3.308  33.921  1.00  0.00    -0.234 N 
ATOM     21  H42 UNL     1      29.225   4.061  33.505  1.00  0.00     0.174 HD
ATOM     22  H41 UNL     1      29.132   2.482  34.312  1.00  0.00     0.174 HD
ENDBRANCH   4  20
BRANCH   7  23
HETATM   23  N6  UNL     1      24.592   1.455  34.735  1.00  0.00    -0.234 N 
ATOM     24  H62 UNL     1      24.668   1.099  35.687  1.00  0.00     0.174 HD
ATOM     25  H61 UNL     1      23.940   1.037  34.072  1.00  0.00     0.174 HD
ENDBRANCH   7  23
TORSDOF 4
ENDMDL
