MODEL 1
REMARK VINA RESULT: -6.617094370      0.000      0.000
REMARK  4 active torsions:
REMARK  status: ('A' for Active; 'I' for Inactive)
REMARK    1  A    between atoms: N1_2  and  C2_4 
REMARK    2  A    between atoms: C3_5  and  O1_6 
REMARK    3  A    between atoms: C5_8  and  N2_9 
REMARK    4  A    between atoms: C8_19  and  N5_20 
ROOT
HETATM    1  C2  UNL     1      24.635   5.982  33.667  1.00  0.00     0.095 C 
HETATM    2  C3  UNL     1      23.328   6.081  33.175  1.00  0.00     0.141 C 
HETATM    3  C5  UNL     1      22.684   5.309  32.231  1.00  0.00     0.138 C 
HETATM    4  N3  UNL     1      23.296   4.527  31.321  1.00  0.00    -0.306 N 
ATOM      5  H3  UNL     1      22.715   4.253  30.529  1.00  0.00     0.170 HD
HETATM    6  C6  UNL     1      24.557   4.051  31.297  1.00  0.00     0.276 C 
HETATM    7  O2  UNL     1      24.940   3.431  30.271  1.00  0.00    -0.266 OA
HETATM    8  C7  UNL     1      25.526   4.157  32.285  1.00  0.00     0.146 A 
HETATM    9  N4  UNL     1      26.641   3.402  32.378  1.00  0.00    -0.184 N 
ATOM     10  H4  UNL     1      26.894   2.662  31.723  1.00  0.00     0.184 HD
HETATM   11  C8  UNL     1      27.370   3.753  33.444  1.00  0.00     0.677 A 
HETATM   12  N6  UNL     1      26.705   4.754  34.046  1.00  0.00    -0.187 N 
ATOM     13  H6  UNL     1      27.009   5.237  34.892  1.00  0.00     0.184 HD
HETATM   14  C9  UNL     1      25.579   5.022  33.362  1.00  0.00     0.111 A 
ENDROOT
BRANCH   1  15
HETATM   15  N1  UNL     1      25.072   6.967  34.587  1.00  0.00    -0.390 N 
HETATM   16  C1  UNL     1      25.842   8.118  34.223  1.00  0.00     0.146 C 
ATOM     17  H1  UNL     1      24.824   6.848  35.569  1.00  0.00     0.159 HD
ENDBRANCH   1  15
BRANCH   2  18
HETATM   18  O1  UNL     1      22.577   7.097  33.714  1.00  0.00    -0.350 OA
HETATM   19  C4  UNL     1      21.891   6.858  34.926  1.00  0.00     0.210 C 
ENDBRANCH   2  18
BRANCH   3  20
HETATM   20  N2  UNL     1      21.398   5.363  32.248  1.00  0.00    -0.383 N 
ATOM     21  H22 UNL     1      20.941   6.214  32.574  1.00  0.00     0.157 HD
ATOM     22  H21 UNL     1      20.916   4.525  31.922  1.00  0.00     0.157 HD
ENDBRANCH   3  20
BRANCH  11  23
HETATM   23  N5  UNL     1      28.498   3.258  33.858  1.00  0.00    -0.234 N 
ATOM     24  H52 UNL     1      28.739   2.267  33.841  1.00  0.00     0.174 HD
ATOM     25  H51 UNL     1      29.302   3.745  34.255  1.00  0.00     0.174 HD
ENDBRANCH  11  23
TORSDOF 4
ENDMDL
MODEL 2
REMARK VINA RESULT: -6.298718794      1.659      5.273
REMARK  4 active torsions:
REMARK  status: ('A' for Active; 'I' for Inactive)
REMARK    1  A    between atoms: N1_2  and  C2_4 
REMARK    2  A    between atoms: C3_5  and  O1_6 
REMARK    3  A    between atoms: C5_8  and  N2_9 
REMARK    4  A    between atoms: C8_19  and  N5_20 
ROOT
HETATM    1  C2  UNL     1      24.312   4.263  32.332  1.00  0.00     0.095 C 
HETATM    2  C3  UNL     1      25.598   3.899  32.748  1.00  0.00     0.141 C 
HETATM    3  C5  UNL     1      26.437   4.520  33.650  1.00  0.00     0.138 C 
HETATM    4  N3  UNL     1      26.339   5.804  34.044  1.00  0.00    -0.306 N 
ATOM      5  H3  UNL     1      27.178   6.187  34.479  1.00  0.00     0.170 HD
HETATM    6  C6  UNL     1      25.301   6.660  33.953  1.00  0.00     0.276 C 
HETATM    7  O2  UNL     1      25.487   7.859  34.287  1.00  0.00    -0.266 OA
HETATM    8  C7  UNL     1      24.009   6.389  33.525  1.00  0.00     0.146 A 
HETATM    9  N4  UNL     1      22.926   7.160  33.755  1.00  0.00    -0.184 N 
ATOM     10  H4  UNL     1      22.941   8.036  34.277  1.00  0.00     0.184 HD
HETATM   11  C8  UNL     1      21.829   6.621  33.209  1.00  0.00     0.677 A 
HETATM   12  N6  UNL     1      22.220   5.480  32.616  1.00  0.00    -0.187 N 
ATOM     13  H6  UNL     1      21.608   4.840  32.111  1.00  0.00     0.184 HD
HETATM   14  C9  UNL     1      23.543   5.313  32.792  1.00  0.00     0.111 A 
ENDROOT
BRANCH   1  15
HETATM   15  N1  UNL     1      23.699   3.483  31.320  1.00  0.00    -0.390 N 
HETATM   16  C1  UNL     1      23.688   3.835  29.933  1.00  0.00     0.146 C 
ATOM     17  H1  UNL     1      23.237   2.617  31.598  1.00  0.00     0.159 HD
ENDBRANCH   1  15
BRANCH   2  18
HETATM   18  O1  UNL     1      26.096   2.755  32.173  1.00  0.00    -0.350 OA
HETATM   19  C4  UNL     1      25.901   1.526  32.842  1.00  0.00     0.210 C 
ENDBRANCH   2  18
BRANCH   3  20
HETATM   20  N2  UNL     1      27.378   3.786  34.134  1.00  0.00    -0.383 N 
ATOM     21  H22 UNL     1      27.201   2.794  34.294  1.00  0.00     0.157 HD
ATOM     22  H21 UNL     1      28.258   4.265  34.328  1.00  0.00     0.157 HD
ENDBRANCH   3  20
BRANCH  11  23
HETATM   23  N5  UNL     1      20.609   7.069  33.220  1.00  0.00    -0.234 N 
ATOM     24  H52 UNL     1      20.323   7.966  33.612  1.00  0.00     0.174 HD
ATOM     25  H51 UNL     1      19.763   6.629  32.858  1.00  0.00     0.174 HD
ENDBRANCH  11  23
TORSDOF 4
ENDMDL
MODEL 3
REMARK VINA RESULT: -6.271237620      1.368      4.037
REMARK  4 active torsions:
REMARK  status: ('A' for Active; 'I' for Inactive)
REMARK    1  A    between atoms: N1_2  and  C2_4 
REMARK    2  A    between atoms: C3_5  and  O1_6 
REMARK    3  A    between atoms: C5_8  and  N2_9 
REMARK    4  A    between atoms: C8_19  and  N5_20 
ROOT
HETATM    1  C2  UNL     1      25.717   4.845  33.553  1.00  0.00     0.095 C 
HETATM    2  C3  UNL     1      24.856   4.163  32.685  1.00  0.00     0.141 C 
HETATM    3  C5  UNL     1      23.665   4.577  32.125  1.00  0.00     0.138 C 
HETATM    4  N3  UNL     1      22.902   5.587  32.586  1.00  0.00    -0.306 N 
ATOM      5  H3  UNL     1      21.938   5.586  32.251  1.00  0.00     0.170 HD
HETATM    6  C6  UNL     1      23.215   6.598  33.421  1.00  0.00     0.276 C 
HETATM    7  O2  UNL     1      22.291   7.362  33.805  1.00  0.00    -0.266 OA
HETATM    8  C7  UNL     1      24.462   6.923  33.933  1.00  0.00     0.146 A 
HETATM    9  N4  UNL     1      24.804   8.107  34.482  1.00  0.00    -0.184 N 
ATOM     10  H4  UNL     1      24.173   8.903  34.579  1.00  0.00     0.184 HD
HETATM   11  C8  UNL     1      26.082   8.101  34.880  1.00  0.00     0.677 A 
HETATM   12  N6  UNL     1      26.568   6.884  34.580  1.00  0.00    -0.187 N 
ATOM     13  H6  UNL     1      27.521   6.570  34.761  1.00  0.00     0.184 HD
HETATM   14  C9  UNL     1      25.604   6.145  34.002  1.00  0.00     0.111 A 
ENDROOT
BRANCH   1  15
HETATM   15  N1  UNL     1      26.847   4.147  34.046  1.00  0.00    -0.390 N 
HETATM   16  C1  UNL     1      27.993   3.815  33.255  1.00  0.00     0.146 C 
ATOM     17  H1  UNL     1      26.843   3.864  35.026  1.00  0.00     0.159 HD
ENDBRANCH   1  15
BRANCH   2  18
HETATM   18  O1  UNL     1      25.257   2.896  32.341  1.00  0.00    -0.350 OA
HETATM   19  C4  UNL     1      24.875   1.820  33.173  1.00  0.00     0.210 C 
ENDBRANCH   2  18
BRANCH   3  20
HETATM   20  N2  UNL     1      23.282   3.928  31.082  1.00  0.00    -0.383 N 
ATOM     21  H22 UNL     1      22.423   4.208  30.610  1.00  0.00     0.157 HD
ATOM     22  H21 UNL     1      23.885   3.157  30.795  1.00  0.00     0.157 HD
ENDBRANCH   3  20
BRANCH  11  23
HETATM   23  N5  UNL     1      26.763   9.050  35.448  1.00  0.00    -0.234 N 
ATOM     24  H52 UNL     1      26.356   9.824  35.974  1.00  0.00     0.174 HD
ATOM     25  H51 UNL     1      27.774   9.188  35.470  1.00  0.00     0.174 HD
ENDBRANCH  11  23
TORSDOF 4
ENDMDL
MODEL 4
REMARK VINA RESULT: -6.142592675      1.681      1.915
REMARK  4 active torsions:
REMARK  status: ('A' for Active; 'I' for Inactive)
REMARK    1  A    between atoms: N1_2  and  C2_4 
REMARK    2  A    between atoms: C3_5  and  O1_6 
REMARK    3  A    between atoms: C5_8  and  N2_9 
REMARK    4  A    between atoms: C8_19  and  N5_20 
ROOT
HETATM    1  C2  UNL     1      25.111   6.949  34.549  1.00  0.00     0.095 C 
HETATM    2  C3  UNL     1      23.806   7.454  34.583  1.00  0.00     0.141 C 
HETATM    3  C5  UNL     1      22.674   7.008  33.931  1.00  0.00     0.138 C 
HETATM    4  N3  UNL     1      22.668   6.215  32.844  1.00  0.00    -0.306 N 
ATOM      5  H3  UNL     1      21.793   6.208  32.320  1.00  0.00     0.170 HD
HETATM    6  C6  UNL     1      23.640   5.428  32.340  1.00  0.00     0.276 C 
HETATM    7  O2  UNL     1      23.438   4.864  31.233  1.00  0.00    -0.266 OA
HETATM    8  C7  UNL     1      24.879   5.144  32.897  1.00  0.00     0.146 A 
HETATM    9  N4  UNL     1      25.681   4.115  32.552  1.00  0.00    -0.184 N 
ATOM     10  H4  UNL     1      25.458   3.425  31.835  1.00  0.00     0.184 HD
HETATM   11  C8  UNL     1      26.807   4.120  33.276  1.00  0.00     0.677 A 
HETATM   12  N6  UNL     1      26.723   5.176  34.102  1.00  0.00    -0.187 N 
ATOM     13  H6  UNL     1      27.432   5.449  34.783  1.00  0.00     0.184 HD
HETATM   14  C9  UNL     1      25.561   5.819  33.894  1.00  0.00     0.111 A 
ENDROOT
BRANCH   1  15
HETATM   15  N1  UNL     1      26.113   7.656  35.258  1.00  0.00    -0.390 N 
HETATM   16  C1  UNL     1      27.006   8.599  34.657  1.00  0.00     0.146 C 
ATOM     17  H1  UNL     1      26.204   7.481  36.259  1.00  0.00     0.159 HD
ENDBRANCH   1  15
BRANCH   2  18
HETATM   18  O1  UNL     1      23.627   8.555  35.383  1.00  0.00    -0.350 OA
HETATM   19  C4  UNL     1      23.533   9.824  34.770  1.00  0.00     0.210 C 
ENDBRANCH   2  18
BRANCH   3  20
HETATM   20  N2  UNL     1      21.553   7.399  34.428  1.00  0.00    -0.383 N 
ATOM     21  H22 UNL     1      20.963   8.030  33.886  1.00  0.00     0.157 HD
ATOM     22  H21 UNL     1      21.331   7.038  35.356  1.00  0.00     0.157 HD
ENDBRANCH   3  20
BRANCH  11  23
HETATM   23  N5  UNL     1      27.809   3.295  33.228  1.00  0.00    -0.234 N 
ATOM     24  H52 UNL     1      27.957   2.522  33.877  1.00  0.00     0.174 HD
ATOM     25  H51 UNL     1      28.588   3.271  32.570  1.00  0.00     0.174 HD
ENDBRANCH  11  23
TORSDOF 4
ENDMDL
MODEL 5
REMARK VINA RESULT: -6.108134120      3.101      6.069
REMARK  4 active torsions:
REMARK  status: ('A' for Active; 'I' for Inactive)
REMARK    1  A    between atoms: N1_2  and  C2_4 
REMARK    2  A    between atoms: C3_5  and  O1_6 
REMARK    3  A    between atoms: C5_8  and  N2_9 
REMARK    4  A    between atoms: C8_19  and  N5_20 
ROOT
HETATM    1  C2  UNL     1      23.740   8.223  34.510  1.00  0.00     0.095 C 
HETATM    2  C3  UNL     1      24.577   7.188  34.073  1.00  0.00     0.141 C 
HETATM    3  C5  UNL     1      25.889   6.922  34.403  1.00  0.00     0.138 C 
HETATM    4  N3  UNL     1      26.751   7.810  34.933  1.00  0.00    -0.306 N 
ATOM      5  H3  UNL     1      27.736   7.555  34.855  1.00  0.00     0.170 HD
HETATM    6  C6  UNL     1      26.513   8.984  35.552  1.00  0.00     0.276 C 
HETATM    7  O2  UNL     1      27.497   9.705  35.861  1.00  0.00    -0.266 OA
HETATM    8  C7  UNL     1      25.286   9.525  35.907  1.00  0.00     0.146 A 
HETATM    9  N4  UNL     1      25.091  10.515  36.803  1.00  0.00    -0.184 N 
ATOM     10  H4  UNL     1      25.837  10.978  37.324  1.00  0.00     0.184 HD
HETATM   11  C8  UNL     1      23.791  10.809  36.919  1.00  0.00     0.677 A 
HETATM   12  N6  UNL     1      23.139   9.989  36.078  1.00  0.00    -0.187 N 
ATOM     13  H6  UNL     1      22.129   9.970  35.938  1.00  0.00     0.184 HD
HETATM   14  C9  UNL     1      24.023   9.196  35.447  1.00  0.00     0.111 A 
ENDROOT
BRANCH   1  15
HETATM   15  N1  UNL     1      22.445   8.310  33.943  1.00  0.00    -0.390 N 
HETATM   16  C1  UNL     1      21.256   7.837  34.584  1.00  0.00     0.146 C 
ATOM     17  H1  UNL     1      22.355   8.736  33.021  1.00  0.00     0.159 HD
ENDBRANCH   1  15
BRANCH   2  18
HETATM   18  O1  UNL     1      24.004   6.310  33.186  1.00  0.00    -0.350 OA
HETATM   19  C4  UNL     1      23.407   5.134  33.692  1.00  0.00     0.210 C 
ENDBRANCH   2  18
BRANCH   3  20
HETATM   20  N2  UNL     1      26.290   5.720  34.174  1.00  0.00    -0.383 N 
ATOM     21  H22 UNL     1      25.819   4.943  34.638  1.00  0.00     0.157 HD
ATOM     22  H21 UNL     1      27.072   5.630  33.525  1.00  0.00     0.157 HD
ENDBRANCH   3  20
BRANCH  11  23
HETATM   23  N5  UNL     1      23.221  11.699  37.675  1.00  0.00    -0.234 N 
ATOM     24  H52 UNL     1      23.587  12.020  38.572  1.00  0.00     0.174 HD
ATOM     25  H51 UNL     1      22.351  12.209  37.519  1.00  0.00     0.174 HD
ENDBRANCH  11  23
TORSDOF 4
ENDMDL
