MODEL 1
REMARK VINA RESULT: -7.377180594      0.000      0.000
REMARK  4 active torsions:
REMARK  status: ('A' for Active; 'I' for Inactive)
REMARK    1  A    between atoms: N1_1  and  C1_4 
REMARK    2  A    between atoms: C2_7  and  S1_8 
REMARK    3  A    between atoms: S1_8  and  C3_10 
REMARK    4  A    between atoms: C4_15  and  N5_16 
ROOT
HETATM    1  S1  UNL     1      25.098   5.315  33.402  1.00  0.00     0.146 S 
HETATM    2  O1  UNL     1      23.702   4.706  34.106  1.00  0.00    -0.242 OA
ENDROOT
BRANCH   1   3
HETATM    3  C2  UNL     1      26.378   4.141  33.380  1.00  0.00     0.211 A 
HETATM    4  N2  UNL     1      26.879   3.470  32.330  1.00  0.00    -0.165 N 
HETATM    5  C1  UNL     1      27.857   2.668  32.781  1.00  0.00     0.692 A 
ATOM      6  H2  UNL     1      26.571   3.554  31.361  1.00  0.00     0.186 HD
HETATM    7  N7  UNL     1      27.974   2.835  34.127  1.00  0.00    -0.130 N 
HETATM    8  N6  UNL     1      27.058   3.745  34.476  1.00  0.00    -0.263 N 
ATOM      9  H7  UNL     1      28.631   2.361  34.747  1.00  0.00     0.205 HD
ATOM     10  H6  UNL     1      26.897   4.086  35.424  1.00  0.00     0.189 HD
BRANCH   5  11
HETATM   11  N1  UNL     1      28.586   1.863  32.093  1.00  0.00    -0.233 N 
ATOM     12  H12 UNL     1      29.606   1.851  32.125  1.00  0.00     0.174 HD
ATOM     13  H11 UNL     1      28.270   1.145  31.440  1.00  0.00     0.174 HD
ENDBRANCH   5  11
ENDBRANCH   1   3
BRANCH   1  14
HETATM   14  C3  UNL     1      25.564   6.762  34.307  1.00  0.00     0.168 A 
HETATM   15  N3  UNL     1      26.749   7.233  34.592  1.00  0.00    -0.284 N 
HETATM   16  N4  UNL     1      26.898   8.303  35.262  1.00  0.00    -0.279 N 
ATOM     17  H3  UNL     1      27.575   6.730  34.268  1.00  0.00     0.188 HD
HETATM   18  C4  UNL     1      25.804   8.949  35.677  1.00  0.00     0.159 A 
ATOM     19  H4  UNL     1      27.829   8.660  35.477  1.00  0.00     0.189 HD
HETATM   20  S2  UNL     1      24.562   7.951  35.062  1.00  0.00    -0.024 SA
BRANCH  18  21
HETATM   21  N5  UNL     1      25.723  10.055  36.372  1.00  0.00    -0.379 N 
ATOM     22  H52 UNL     1      26.060  10.992  36.150  1.00  0.00     0.158 HD
ATOM     23  H51 UNL     1      25.299  10.201  37.288  1.00  0.00     0.158 HD
ENDBRANCH  18  21
ENDBRANCH   1  14
TORSDOF 4
ENDMDL
MODEL 2
REMARK VINA RESULT: -7.261703193      0.552      1.169
REMARK  4 active torsions:
REMARK  status: ('A' for Active; 'I' for Inactive)
REMARK    1  A    between atoms: N1_1  and  C1_4 
REMARK    2  A    between atoms: C2_7  and  S1_8 
REMARK    3  A    between atoms: S1_8  and  C3_10 
REMARK    4  A    between atoms: C4_15  and  N5_16 
ROOT
HETATM    1  S1  UNL     1      25.013   5.404  33.386  1.00  0.00     0.146 S 
HETATM    2  O1  UNL     1      23.615   4.815  34.103  1.00  0.00    -0.242 OA
ENDROOT
BRANCH   1   3
HETATM    3  C2  UNL     1      26.265   4.203  33.321  1.00  0.00     0.211 A 
HETATM    4  N2  UNL     1      26.983   3.688  34.333  1.00  0.00    -0.165 N 
HETATM    5  C1  UNL     1      27.837   2.790  33.817  1.00  0.00     0.692 A 
ATOM      6  H2  UNL     1      26.894   3.935  35.319  1.00  0.00     0.186 HD
HETATM    7  N7  UNL     1      27.657   2.738  32.469  1.00  0.00    -0.130 N 
HETATM    8  N6  UNL     1      26.686   3.613  32.183  1.00  0.00    -0.263 N 
ATOM      9  H7  UNL     1      28.162   2.149  31.807  1.00  0.00     0.205 HD
ATOM     10  H6  UNL     1      26.321   3.804  31.251  1.00  0.00     0.189 HD
BRANCH   5  11
HETATM   11  N1  UNL     1      28.698   2.076  34.453  1.00  0.00    -0.233 N 
ATOM     12  H12 UNL     1      28.835   2.117  35.463  1.00  0.00     0.174 HD
ATOM     13  H11 UNL     1      29.346   1.392  34.062  1.00  0.00     0.174 HD
ENDBRANCH   5  11
ENDBRANCH   1   3
BRANCH   1  14
HETATM   14  C3  UNL     1      25.527   6.825  34.308  1.00  0.00     0.168 A 
HETATM   15  N3  UNL     1      26.726   7.240  34.616  1.00  0.00    -0.284 N 
HETATM   16  N4  UNL     1      26.911   8.299  35.295  1.00  0.00    -0.279 N 
ATOM     17  H3  UNL     1      27.534   6.702  34.304  1.00  0.00     0.188 HD
HETATM   18  C4  UNL     1      25.839   8.991  35.695  1.00  0.00     0.159 A 
ATOM     19  H4  UNL     1      27.853   8.612  35.529  1.00  0.00     0.189 HD
HETATM   20  S2  UNL     1      24.565   8.054  35.051  1.00  0.00    -0.024 SA
BRANCH  18  21
HETATM   21  N5  UNL     1      25.795  10.096  36.394  1.00  0.00    -0.379 N 
ATOM     22  H52 UNL     1      25.473  11.027  36.127  1.00  0.00     0.158 HD
ATOM     23  H51 UNL     1      26.080  10.249  37.362  1.00  0.00     0.158 HD
ENDBRANCH  18  21
ENDBRANCH   1  14
TORSDOF 4
ENDMDL
MODEL 3
REMARK VINA RESULT: -7.018767835      1.453      5.763
REMARK  4 active torsions:
REMARK  status: ('A' for Active; 'I' for Inactive)
REMARK    1  A    between atoms: N1_1  and  C1_4 
REMARK    2  A    between atoms: C2_7  and  S1_8 
REMARK    3  A    between atoms: S1_8  and  C3_10 
REMARK    4  A    between atoms: C4_15  and  N5_16 
ROOT
HETATM    1  S1  UNL     1      25.074   5.645  33.683  1.00  0.00     0.146 S 
HETATM    2  O1  UNL     1      24.766   5.913  32.055  1.00  0.00    -0.242 OA
ENDROOT
BRANCH   1   3
HETATM    3  C2  UNL     1      25.503   7.110  34.511  1.00  0.00     0.211 A 
HETATM    4  N2  UNL     1      24.710   7.939  35.209  1.00  0.00    -0.165 N 
HETATM    5  C1  UNL     1      25.469   8.943  35.674  1.00  0.00     0.692 A 
ATOM      6  H2  UNL     1      23.707   7.825  35.359  1.00  0.00     0.186 HD
HETATM    7  N7  UNL     1      26.753   8.746  35.266  1.00  0.00    -0.130 N 
HETATM    8  N6  UNL     1      26.754   7.614  34.554  1.00  0.00    -0.263 N 
ATOM      9  H7  UNL     1      27.555   9.344  35.465  1.00  0.00     0.205 HD
ATOM     10  H6  UNL     1      27.572   7.197  34.112  1.00  0.00     0.189 HD
BRANCH   5  11
HETATM   11  N1  UNL     1      25.089   9.943  36.388  1.00  0.00    -0.233 N 
ATOM     12  H12 UNL     1      24.549   9.854  37.249  1.00  0.00     0.174 HD
ATOM     13  H11 UNL     1      25.262  10.933  36.211  1.00  0.00     0.174 HD
ENDBRANCH   5  11
ENDBRANCH   1   3
BRANCH   1  14
HETATM   14  C3  UNL     1      26.366   4.440  33.790  1.00  0.00     0.168 A 
HETATM   15  N3  UNL     1      27.622   4.517  33.439  1.00  0.00    -0.284 N 
HETATM   16  N4  UNL     1      28.418   3.539  33.592  1.00  0.00    -0.279 N 
ATOM     17  H3  UNL     1      27.971   5.384  33.032  1.00  0.00     0.188 HD
HETATM   18  C4  UNL     1      27.941   2.410  34.128  1.00  0.00     0.159 A 
ATOM     19  H4  UNL     1      29.396   3.612  33.314  1.00  0.00     0.189 HD
HETATM   20  S2  UNL     1      26.306   2.823  34.398  1.00  0.00    -0.024 SA
BRANCH  18  21
HETATM   21  N5  UNL     1      28.575   1.292  34.374  1.00  0.00    -0.379 N 
ATOM     22  H52 UNL     1      28.805   0.520  33.748  1.00  0.00     0.158 HD
ATOM     23  H51 UNL     1      28.970   0.966  35.255  1.00  0.00     0.158 HD
ENDBRANCH  18  21
ENDBRANCH   1  14
TORSDOF 4
ENDMDL
MODEL 4
REMARK VINA RESULT: -7.004648236      1.594      5.630
REMARK  4 active torsions:
REMARK  status: ('A' for Active; 'I' for Inactive)
REMARK    1  A    between atoms: N1_1  and  C1_4 
REMARK    2  A    between atoms: C2_7  and  S1_8 
REMARK    3  A    between atoms: S1_8  and  C3_10 
REMARK    4  A    between atoms: C4_15  and  N5_16 
ROOT
HETATM    1  S1  UNL     1      25.032   5.456  33.547  1.00  0.00     0.146 S 
HETATM    2  O1  UNL     1      24.740   5.654  31.906  1.00  0.00    -0.242 OA
ENDROOT
BRANCH   1   3
HETATM    3  C2  UNL     1      25.385   6.965  34.329  1.00  0.00     0.211 A 
HETATM    4  N2  UNL     1      26.552   7.391  34.838  1.00  0.00    -0.165 N 
HETATM    5  C1  UNL     1      26.359   8.619  35.345  1.00  0.00     0.692 A 
ATOM      6  H2  UNL     1      27.431   6.873  34.839  1.00  0.00     0.186 HD
HETATM    7  N7  UNL     1      25.057   8.971  35.155  1.00  0.00    -0.130 N 
HETATM    8  N6  UNL     1      24.476   7.942  34.528  1.00  0.00    -0.263 N 
ATOM      9  H7  UNL     1      24.614   9.846  35.434  1.00  0.00     0.205 HD
ATOM     10  H6  UNL     1      23.497   7.902  34.245  1.00  0.00     0.189 HD
BRANCH   5  11
HETATM   11  N1  UNL     1      27.227   9.371  35.922  1.00  0.00    -0.233 N 
ATOM     12  H12 UNL     1      28.154   9.054  36.209  1.00  0.00     0.174 HD
ATOM     13  H11 UNL     1      27.127  10.356  36.170  1.00  0.00     0.174 HD
ENDBRANCH   5  11
ENDBRANCH   1   3
BRANCH   1  14
HETATM   14  C3  UNL     1      26.372   4.312  33.716  1.00  0.00     0.168 A 
HETATM   15  N3  UNL     1      27.625   4.424  33.366  1.00  0.00    -0.284 N 
HETATM   16  N4  UNL     1      28.461   3.488  33.568  1.00  0.00    -0.279 N 
ATOM     17  H3  UNL     1      27.941   5.285  32.920  1.00  0.00     0.188 HD
HETATM   18  C4  UNL     1      28.027   2.367  34.154  1.00  0.00     0.159 A 
ATOM     19  H4  UNL     1      29.436   3.589  33.290  1.00  0.00     0.189 HD
HETATM   20  S2  UNL     1      26.375   2.724  34.399  1.00  0.00    -0.024 SA
BRANCH  18  21
HETATM   21  N5  UNL     1      28.705   1.289  34.455  1.00  0.00    -0.379 N 
ATOM     22  H52 UNL     1      28.761   0.395  33.966  1.00  0.00     0.158 HD
ATOM     23  H51 UNL     1      29.321   1.126  35.251  1.00  0.00     0.158 HD
ENDBRANCH  18  21
ENDBRANCH   1  14
TORSDOF 4
ENDMDL
MODEL 5
REMARK VINA RESULT: -6.858452569      1.203      1.339
REMARK  4 active torsions:
REMARK  status: ('A' for Active; 'I' for Inactive)
REMARK    1  A    between atoms: N1_1  and  C1_4 
REMARK    2  A    between atoms: C2_7  and  S1_8 
REMARK    3  A    between atoms: S1_8  and  C3_10 
REMARK    4  A    between atoms: C4_15  and  N5_16 
ROOT
HETATM    1  S1  UNL     1      24.404   4.763  32.788  1.00  0.00     0.146 S 
HETATM    2  O1  UNL     1      22.929   4.277  33.424  1.00  0.00    -0.242 OA
ENDROOT
BRANCH   1   3
HETATM    3  C2  UNL     1      25.531   3.446  32.683  1.00  0.00     0.211 A 
HETATM    4  N2  UNL     1      26.801   3.465  32.248  1.00  0.00    -0.165 N 
HETATM    5  C1  UNL     1      27.290   2.219  32.345  1.00  0.00     0.692 A 
ATOM      6  H2  UNL     1      27.306   4.283  31.904  1.00  0.00     0.186 HD
HETATM    7  N7  UNL     1      26.319   1.406  32.847  1.00  0.00    -0.130 N 
HETATM    8  N6  UNL     1      25.247   2.179  33.048  1.00  0.00    -0.263 N 
ATOM      9  H7  UNL     1      26.395   0.406  33.031  1.00  0.00     0.205 HD
ATOM     10  H6  UNL     1      24.352   1.860  33.421  1.00  0.00     0.189 HD
BRANCH   5  11
HETATM   11  N1  UNL     1      28.470   1.816  32.030  1.00  0.00    -0.233 N 
ATOM     12  H12 UNL     1      28.959   2.098  31.181  1.00  0.00     0.174 HD
ATOM     13  H11 UNL     1      29.069   1.180  32.557  1.00  0.00     0.174 HD
ENDBRANCH   5  11
ENDBRANCH   1   3
BRANCH   1  14
HETATM   14  C3  UNL     1      25.024   6.066  33.813  1.00  0.00     0.168 A 
HETATM   15  N3  UNL     1      26.233   6.288  34.253  1.00  0.00    -0.284 N 
HETATM   16  N4  UNL     1      26.502   7.288  34.990  1.00  0.00    -0.279 N 
ATOM     17  H3  UNL     1      26.981   5.642  34.000  1.00  0.00     0.188 HD
HETATM   18  C4  UNL     1      25.508   8.123  35.312  1.00  0.00     0.159 A 
ATOM     19  H4  UNL     1      27.450   7.450  35.327  1.00  0.00     0.189 HD
HETATM   20  S2  UNL     1      24.183   7.406  34.509  1.00  0.00    -0.024 SA
BRANCH  18  21
HETATM   21  N5  UNL     1      25.556   9.204  36.048  1.00  0.00    -0.379 N 
ATOM     22  H52 UNL     1      26.091  10.062  35.915  1.00  0.00     0.158 HD
ATOM     23  H51 UNL     1      25.061   9.404  36.917  1.00  0.00     0.158 HD
ENDBRANCH  18  21
ENDBRANCH   1  14
TORSDOF 4
ENDMDL
