MODEL 1
REMARK VINA RESULT: -7.283809518      0.000      0.000
REMARK  4 active torsions:
REMARK  status: ('A' for Active; 'I' for Inactive)
REMARK    1  A    between atoms: O1_2  and  C2_3 
REMARK       I    between atoms: C2_3  and  N1_5 
REMARK    2  A    between atoms: N1_5  and  N2_7 
REMARK    3  A    between atoms: N2_7  and  C3_9 
REMARK    4  A    between atoms: C5_17  and  N6_18 
ROOT
HETATM    1  C3  UNL     1      24.535   4.795  33.217  1.00  0.00     0.154 A 
HETATM    2  N3  UNL     1      25.210   5.889  33.584  1.00  0.00    -0.282 N 
ATOM      3  H3  UNL     1      24.839   6.838  33.544  1.00  0.00     0.188 HD
HETATM    4  N4  UNL     1      26.427   5.574  34.007  1.00  0.00    -0.282 N 
ATOM      5  H4  UNL     1      27.125   6.240  34.337  1.00  0.00     0.188 HD
HETATM    6  C4  UNL     1      26.602   4.235  33.933  1.00  0.00     0.155 A 
HETATM    7  N5  UNL     1      27.624   3.395  34.234  1.00  0.00    -0.174 N 
ATOM      8  H5  UNL     1      28.498   3.773  34.599  1.00  0.00     0.186 HD
HETATM    9  C5  UNL     1      27.493   2.048  34.052  1.00  0.00     0.680 A 
HETATM   10  N7  UNL     1      26.343   1.553  33.572  1.00  0.00    -0.155 N 
ATOM     11  H7  UNL     1      26.247   0.546  33.437  1.00  0.00     0.187 HD
HETATM   12  C6  UNL     1      25.308   2.369  33.262  1.00  0.00     0.277 A 
HETATM   13  O3  UNL     1      24.225   1.908  32.811  1.00  0.00    -0.266 OA
HETATM   14  C7  UNL     1      25.418   3.732  33.437  1.00  0.00     0.125 A 
ENDROOT
BRANCH   1  15
HETATM   15  N2  UNL     1      23.244   4.583  32.705  1.00  0.00    -0.279 N 
ATOM     16  H2  UNL     1      22.480   4.484  33.373  1.00  0.00     0.189 HD
BRANCH  15  17
HETATM   17  N1  UNL     1      22.938   4.500  31.359  1.00  0.00    -0.244 N 
HETATM   18  C2  UNL     1      21.589   4.485  30.889  1.00  0.00     0.379 C 
HETATM   19  O2  UNL     1      20.627   4.537  31.724  1.00  0.00    -0.237 OA
ATOM     20  H1  UNL     1      23.698   4.447  30.681  1.00  0.00     0.192 HD
BRANCH  18  21
HETATM   21  O1  UNL     1      21.228   4.417  29.555  1.00  0.00    -0.308 OA
HETATM   22  C1  UNL     1      19.918   3.933  29.197  1.00  0.00     0.215 C 
ENDBRANCH  18  21
ENDBRANCH  15  17
ENDBRANCH   1  15
BRANCH   9  23
HETATM   23  N6  UNL     1      28.507   1.334  34.360  1.00  0.00    -0.234 N 
ATOM     24  H62 UNL     1      28.829   1.182  35.316  1.00  0.00     0.174 HD
ATOM     25  H61 UNL     1      29.006   0.899  33.584  1.00  0.00     0.174 HD
ENDBRANCH   9  23
TORSDOF 4
ENDMDL
MODEL 2
REMARK VINA RESULT: -7.186608035      4.040      6.651
REMARK  4 active torsions:
REMARK  status: ('A' for Active; 'I' for Inactive)
REMARK    1  A    between atoms: O1_2  and  C2_3 
REMARK       I    between atoms: C2_3  and  N1_5 
REMARK    2  A    between atoms: N1_5  and  N2_7 
REMARK    3  A    between atoms: N2_7  and  C3_9 
REMARK    4  A    between atoms: C5_17  and  N6_18 
ROOT
HETATM    1  C3  UNL     1      26.214   7.419  34.725  1.00  0.00     0.154 A 
HETATM    2  N3  UNL     1      27.362   8.085  34.885  1.00  0.00    -0.282 N 
ATOM      3  H3  UNL     1      28.273   7.753  34.569  1.00  0.00     0.188 HD
HETATM    4  N4  UNL     1      27.157   9.238  35.510  1.00  0.00    -0.282 N 
ATOM      5  H4  UNL     1      27.881   9.916  35.744  1.00  0.00     0.188 HD
HETATM    6  C4  UNL     1      25.841   9.375  35.790  1.00  0.00     0.155 A 
HETATM    7  N5  UNL     1      25.097  10.334  36.395  1.00  0.00    -0.174 N 
ATOM      8  H5  UNL     1      25.550  11.174  36.755  1.00  0.00     0.186 HD
HETATM    9  C5  UNL     1      23.745  10.185  36.526  1.00  0.00     0.680 A 
HETATM   10  N7  UNL     1      23.151   9.081  36.052  1.00  0.00    -0.155 N 
ATOM     11  H7  UNL     1      22.141   8.972  36.150  1.00  0.00     0.187 HD
HETATM   12  C6  UNL     1      23.870   8.108  35.444  1.00  0.00     0.277 A 
HETATM   13  O3  UNL     1      23.317   7.068  34.996  1.00  0.00    -0.266 OA
HETATM   14  C7  UNL     1      25.236   8.237  35.301  1.00  0.00     0.125 A 
ENDROOT
BRANCH   1  15
HETATM   15  N2  UNL     1      25.890   6.180  34.148  1.00  0.00    -0.279 N 
ATOM     16  H2  UNL     1      24.977   6.090  33.702  1.00  0.00     0.189 HD
BRANCH  15  17
HETATM   17  N1  UNL     1      26.721   5.074  34.142  1.00  0.00    -0.244 N 
HETATM   18  C2  UNL     1      26.692   4.111  33.088  1.00  0.00     0.379 C 
HETATM   19  O2  UNL     1      25.872   4.254  32.123  1.00  0.00    -0.237 OA
ATOM     20  H1  UNL     1      27.374   4.943  34.915  1.00  0.00     0.192 HD
BRANCH  18  21
HETATM   21  O1  UNL     1      27.509   2.997  33.028  1.00  0.00    -0.308 OA
HETATM   22  C1  UNL     1      27.714   2.199  34.212  1.00  0.00     0.215 C 
ENDBRANCH  18  21
ENDBRANCH  15  17
ENDBRANCH   1  15
BRANCH   9  23
HETATM   23  N6  UNL     1      23.125  11.136  37.111  1.00  0.00    -0.234 N 
ATOM     24  H62 UNL     1      23.365  12.123  37.009  1.00  0.00     0.174 HD
ATOM     25  H61 UNL     1      22.345  10.867  37.710  1.00  0.00     0.174 HD
ENDBRANCH   9  23
TORSDOF 4
ENDMDL
MODEL 3
REMARK VINA RESULT: -7.151562750      1.687      2.082
REMARK  4 active torsions:
REMARK  status: ('A' for Active; 'I' for Inactive)
REMARK    1  A    between atoms: O1_2  and  C2_3 
REMARK       I    between atoms: C2_3  and  N1_5 
REMARK    2  A    between atoms: N1_5  and  N2_7 
REMARK    3  A    between atoms: N2_7  and  C3_9 
REMARK    4  A    between atoms: C5_17  and  N6_18 
ROOT
HETATM    1  C3  UNL     1      23.989   3.783  31.429  1.00  0.00     0.154 A 
HETATM    2  N3  UNL     1      24.667   3.713  30.280  1.00  0.00    -0.282 N 
ATOM      3  H3  UNL     1      24.271   3.911  29.361  1.00  0.00     0.188 HD
HETATM    4  N4  UNL     1      25.925   3.349  30.494  1.00  0.00    -0.282 N 
ATOM      5  H4  UNL     1      26.633   3.228  29.770  1.00  0.00     0.188 HD
HETATM    6  C4  UNL     1      26.126   3.163  31.818  1.00  0.00     0.155 A 
HETATM    7  N5  UNL     1      27.194   2.804  32.572  1.00  0.00    -0.174 N 
ATOM      8  H5  UNL     1      28.087   2.605  32.122  1.00  0.00     0.186 HD
HETATM    9  C5  UNL     1      27.084   2.706  33.930  1.00  0.00     0.680 A 
HETATM   10  N7  UNL     1      25.909   2.969  34.521  1.00  0.00    -0.155 N 
ATOM     11  H7  UNL     1      25.829   2.896  35.535  1.00  0.00     0.187 HD
HETATM   12  C6  UNL     1      24.828   3.328  33.791  1.00  0.00     0.277 A 
HETATM   13  O3  UNL     1      23.720   3.577  34.341  1.00  0.00    -0.266 OA
HETATM   14  C7  UNL     1      24.915   3.433  32.419  1.00  0.00     0.125 A 
ENDROOT
BRANCH   1  15
HETATM   15  N2  UNL     1      22.659   4.105  31.748  1.00  0.00    -0.279 N 
ATOM     16  H2  UNL     1      22.305   3.807  32.657  1.00  0.00     0.189 HD
BRANCH  15  17
HETATM   17  N1  UNL     1      21.798   4.798  30.917  1.00  0.00    -0.244 N 
HETATM   18  C2  UNL     1      20.902   4.129  30.029  1.00  0.00     0.379 C 
HETATM   19  O2  UNL     1      20.892   2.855  29.981  1.00  0.00    -0.237 OA
ATOM     20  H1  UNL     1      21.804   5.818  30.938  1.00  0.00     0.192 HD
BRANCH  18  21
HETATM   21  O1  UNL     1      20.012   4.772  29.187  1.00  0.00    -0.308 OA
HETATM   22  C1  UNL     1      19.039   3.999  28.456  1.00  0.00     0.215 C 
ENDBRANCH  18  21
ENDBRANCH  15  17
ENDBRANCH   1  15
BRANCH   9  23
HETATM   23  N6  UNL     1      28.140   2.360  34.560  1.00  0.00    -0.234 N 
ATOM     24  H62 UNL     1      29.001   2.053  34.107  1.00  0.00     0.174 HD
ATOM     25  H61 UNL     1      28.094   2.403  35.578  1.00  0.00     0.174 HD
ENDBRANCH   9  23
TORSDOF 4
ENDMDL
MODEL 4
REMARK VINA RESULT: -6.982150130      1.038      1.229
REMARK  4 active torsions:
REMARK  status: ('A' for Active; 'I' for Inactive)
REMARK    1  A    between atoms: O1_2  and  C2_3 
REMARK       I    between atoms: C2_3  and  N1_5 
REMARK    2  A    between atoms: N1_5  and  N2_7 
REMARK    3  A    between atoms: N2_7  and  C3_9 
REMARK    4  A    between atoms: C5_17  and  N6_18 
ROOT
HETATM    1  C3  UNL     1      24.886   5.228  32.606  1.00  0.00     0.154 A 
HETATM    2  N3  UNL     1      25.179   6.096  33.579  1.00  0.00    -0.282 N 
ATOM      3  H3  UNL     1      24.712   6.992  33.716  1.00  0.00     0.188 HD
HETATM    4  N4  UNL     1      26.161   5.635  34.344  1.00  0.00    -0.282 N 
ATOM      5  H4  UNL     1      26.556   6.120  35.148  1.00  0.00     0.188 HD
HETATM    6  C4  UNL     1      26.557   4.422  33.894  1.00  0.00     0.155 A 
HETATM    7  N5  UNL     1      27.492   3.524  34.292  1.00  0.00    -0.174 N 
ATOM      8  H5  UNL     1      28.077   3.728  35.101  1.00  0.00     0.186 HD
HETATM    9  C5  UNL     1      27.656   2.347  33.617  1.00  0.00     0.680 A 
HETATM   10  N7  UNL     1      26.885   2.080  32.553  1.00  0.00    -0.155 N 
ATOM     11  H7  UNL     1      27.008   1.200  32.051  1.00  0.00     0.187 HD
HETATM   12  C6  UNL     1      25.945   2.960  32.135  1.00  0.00     0.277 A 
HETATM   13  O3  UNL     1      25.217   2.714  31.135  1.00  0.00    -0.266 OA
HETATM   14  C7  UNL     1      25.763   4.154  32.800  1.00  0.00     0.125 A 
ENDROOT
BRANCH   1  15
HETATM   15  N2  UNL     1      23.956   5.236  31.553  1.00  0.00    -0.279 N 
ATOM     16  H2  UNL     1      24.146   5.846  30.758  1.00  0.00     0.189 HD
BRANCH  15  17
HETATM   17  N1  UNL     1      22.802   4.475  31.519  1.00  0.00    -0.244 N 
HETATM   18  C2  UNL     1      22.171   4.111  30.290  1.00  0.00     0.379 C 
HETATM   19  O2  UNL     1      22.668   4.503  29.183  1.00  0.00    -0.237 OA
ATOM     20  H1  UNL     1      22.388   4.165  32.398  1.00  0.00     0.192 HD
BRANCH  18  21
HETATM   21  O1  UNL     1      21.025   3.342  30.199  1.00  0.00    -0.308 OA
HETATM   22  C1  UNL     1      19.896   3.834  29.449  1.00  0.00     0.215 C 
ENDBRANCH  18  21
ENDBRANCH  15  17
ENDBRANCH   1  15
BRANCH   9  23
HETATM   23  N6  UNL     1      28.561   1.562  34.061  1.00  0.00    -0.234 N 
ATOM     24  H62 UNL     1      28.412   0.572  34.258  1.00  0.00     0.174 HD
ATOM     25  H61 UNL     1      29.480   1.975  34.217  1.00  0.00     0.174 HD
ENDBRANCH   9  23
TORSDOF 4
ENDMDL
MODEL 5
REMARK VINA RESULT: -6.921479026      2.206      2.591
REMARK  4 active torsions:
REMARK  status: ('A' for Active; 'I' for Inactive)
REMARK    1  A    between atoms: O1_2  and  C2_3 
REMARK       I    between atoms: C2_3  and  N1_5 
REMARK    2  A    between atoms: N1_5  and  N2_7 
REMARK    3  A    between atoms: N2_7  and  C3_9 
REMARK    4  A    between atoms: C5_17  and  N6_18 
ROOT
HETATM    1  C3  UNL     1      24.741   5.619  33.102  1.00  0.00     0.154 A 
HETATM    2  N3  UNL     1      25.334   6.293  34.092  1.00  0.00    -0.282 N 
ATOM      3  H3  UNL     1      24.958   7.136  34.525  1.00  0.00     0.188 HD
HETATM    4  N4  UNL     1      26.480   5.718  34.436  1.00  0.00    -0.282 N 
ATOM      5  H4  UNL     1      27.108   6.051  35.166  1.00  0.00     0.188 HD
HETATM    6  C4  UNL     1      26.687   4.622  33.670  1.00  0.00     0.155 A 
HETATM    7  N5  UNL     1      27.666   3.687  33.602  1.00  0.00    -0.174 N 
ATOM      8  H5  UNL     1      28.468   3.747  34.228  1.00  0.00     0.186 HD
HETATM    9  C5  UNL     1      27.586   2.663  32.700  1.00  0.00     0.680 A 
HETATM   10  N7  UNL     1      26.531   2.585  31.877  1.00  0.00    -0.155 N 
ATOM     11  H7  UNL     1      26.473   1.820  31.205  1.00  0.00     0.187 HD
HETATM   12  C6  UNL     1      25.541   3.507  31.924  1.00  0.00     0.277 A 
HETATM   13  O3  UNL     1      24.545   3.438  31.153  1.00  0.00    -0.266 OA
HETATM   14  C7  UNL     1      25.600   4.548  32.825  1.00  0.00     0.125 A 
ENDROOT
BRANCH   1  15
HETATM   15  N2  UNL     1      23.546   5.806  32.387  1.00  0.00    -0.279 N 
ATOM     16  H2  UNL     1      23.560   6.458  31.603  1.00  0.00     0.189 HD
BRANCH  15  17
HETATM   17  N1  UNL     1      22.353   5.167  32.672  1.00  0.00    -0.244 N 
HETATM   18  C2  UNL     1      21.693   5.322  33.928  1.00  0.00     0.379 C 
HETATM   19  O2  UNL     1      22.213   6.058  34.830  1.00  0.00    -0.237 OA
ATOM     20  H1  UNL     1      21.932   4.566  31.962  1.00  0.00     0.192 HD
BRANCH  18  21
HETATM   21  O1  UNL     1      20.494   4.717  34.259  1.00  0.00    -0.308 OA
HETATM   22  C1  UNL     1      20.114   4.602  35.646  1.00  0.00     0.215 C 
ENDBRANCH  18  21
ENDBRANCH  15  17
ENDBRANCH   1  15
BRANCH   9  23
HETATM   23  N6  UNL     1      28.554   1.829  32.704  1.00  0.00    -0.234 N 
ATOM     24  H62 UNL     1      29.056   1.540  33.544  1.00  0.00     0.174 HD
ATOM     25  H61 UNL     1      28.820   1.442  31.799  1.00  0.00     0.174 HD
ENDBRANCH   9  23
TORSDOF 4
ENDMDL
