MODEL 1
REMARK VINA RESULT: -8.532754003      0.000      0.000
REMARK  5 active torsions:
REMARK  status: ('A' for Active; 'I' for Inactive)
REMARK    1  A    between atoms: C8_9  and  C9_10 
REMARK    2  A    between atoms: C12_16  and  C13_17 
REMARK    3  A    between atoms: C13_17  and  N3_18 
REMARK    4  A    between atoms: C16_21  and  C17_22 
REMARK    5  A    between atoms: C17_22  and  C18_23 
ROOT
HETATM    1  C9  UNL     1      -4.873   4.304  15.238  1.00  0.00     0.045 C 
HETATM    2  C10 UNL     1      -5.796   5.220  14.487  1.00  0.00     0.239 C 
HETATM    3  N2  UNL     1      -5.088   6.118  13.645  1.00  0.00    -0.074 N 
ATOM      4  H21 UNL     1      -5.672   6.912  13.383  1.00  0.00     0.277 HD
ATOM      5  H22 UNL     1      -4.938   5.712  12.721  1.00  0.00     0.277 HD
HETATM    6  C11 UNL     1      -3.830   6.564  14.231  1.00  0.00     0.238 C 
HETATM    7  C12 UNL     1      -2.877   5.467  14.442  1.00  0.00     0.040 C 
HETATM    8  C21 UNL     1      -3.620   4.095  14.482  1.00  0.00     0.016 C 
ENDROOT
BRANCH   7   9
HETATM    9  C13 UNL     1      -1.651   5.353  13.639  1.00  0.00     0.278 C 
BRANCH   9  10
HETATM   10  N3  UNL     1      -1.654   5.526  12.243  1.00  0.00     0.088 N 
HETATM   11  C14 UNL     1      -2.918   5.022  11.680  1.00  0.00     0.272 C 
HETATM   12  C15 UNL     1      -2.748   3.939  10.673  1.00  0.00     0.035 C 
HETATM   13  C16 UNL     1      -1.850   2.865  11.248  1.00  0.00    -0.004 C 
HETATM   14  C19 UNL     1      -0.508   3.470  11.464  1.00  0.00     0.035 C 
HETATM   15  C20 UNL     1      -0.606   4.985  11.455  1.00  0.00     0.272 C 
BRANCH  13  16
HETATM   16  C17 UNL     1      -1.845   1.627  10.378  1.00  0.00     0.084 C 
BRANCH  16  17
HETATM   17  C18 UNL     1      -2.679   0.535  10.894  1.00  0.00     0.113 A 
HETATM   18  N4  UNL     1      -3.941   0.664  11.337  1.00  0.00    -0.272 N 
HETATM   19  N5  UNL     1      -4.376  -0.519  11.723  1.00  0.00    -0.227 N 
ATOM     20  H4  UNL     1      -4.474   1.533  11.370  1.00  0.00     0.190 HD
HETATM   21  N6  UNL     1      -3.411  -1.392  11.530  1.00  0.00    -0.227 N 
ATOM     22  H5  UNL     1      -5.300  -0.722  12.104  1.00  0.00     0.210 HD
HETATM   23  N7  UNL     1      -2.371  -0.767  11.025  1.00  0.00    -0.272 N 
ATOM     24  H6  UNL     1      -3.461  -2.389  11.738  1.00  0.00     0.210 HD
ATOM     25  H7  UNL     1      -1.480  -1.197  10.776  1.00  0.00     0.190 HD
ENDBRANCH  16  17
ENDBRANCH  13  16
ENDBRANCH   9  10
ENDBRANCH   7   9
BRANCH   1  26
HETATM   26  C8  UNL     1      -5.569   3.018  15.632  1.00  0.00     0.232 C 
HETATM   27  N1  UNL     1      -4.787   2.117  16.406  1.00  0.00     0.094 N 
HETATM   28  C1  UNL     1      -4.380   0.935  15.624  1.00  0.00     0.310 C 
HETATM   29  C2  UNL     1      -5.563   1.543  17.517  1.00  0.00     0.223 C 
HETATM   30  C3  UNL     1      -5.810   2.653  18.508  1.00  0.00     0.036 C 
HETATM   31  C7  UNL     1      -6.886   0.982  17.061  1.00  0.00     0.036 C 
HETATM   32  C4  UNL     1      -6.659   3.686  17.797  1.00  0.00     0.009 C 
HETATM   33  C5  UNL     1      -6.881   3.301  16.327  1.00  0.00     0.019 C 
HETATM   34  C6  UNL     1      -7.680   2.012  16.292  1.00  0.00     0.009 C 
ENDBRANCH   1  26
TORSDOF 5
ENDMDL
MODEL 2
REMARK VINA RESULT: -8.445499907      2.609      4.380
REMARK  5 active torsions:
REMARK  status: ('A' for Active; 'I' for Inactive)
REMARK    1  A    between atoms: C8_9  and  C9_10 
REMARK    2  A    between atoms: C12_16  and  C13_17 
REMARK    3  A    between atoms: C13_17  and  N3_18 
REMARK    4  A    between atoms: C16_21  and  C17_22 
REMARK    5  A    between atoms: C17_22  and  C18_23 
ROOT
HETATM    1  C9  UNL     1      -4.872   4.166  15.170  1.00  0.00     0.045 C 
HETATM    2  C10 UNL     1      -5.794   5.125  14.472  1.00  0.00     0.239 C 
HETATM    3  N2  UNL     1      -5.095   5.986  13.585  1.00  0.00    -0.074 N 
ATOM      4  H21 UNL     1      -5.655   6.807  13.355  1.00  0.00     0.277 HD
ATOM      5  H22 UNL     1      -5.022   5.573  12.655  1.00  0.00     0.277 HD
HETATM    6  C11 UNL     1      -3.784   6.371  14.092  1.00  0.00     0.238 C 
HETATM    7  C12 UNL     1      -2.874   5.229  14.249  1.00  0.00     0.040 C 
HETATM    8  C21 UNL     1      -3.679   3.895  14.340  1.00  0.00     0.016 C 
ENDROOT
BRANCH   7   9
HETATM    9  C13 UNL     1      -1.706   5.054  13.374  1.00  0.00     0.278 C 
BRANCH   9  10
HETATM   10  N3  UNL     1      -1.828   4.959  11.976  1.00  0.00     0.088 N 
HETATM   11  C14 UNL     1      -1.198   3.714  11.504  1.00  0.00     0.272 C 
HETATM   12  C15 UNL     1      -0.098   3.922  10.523  1.00  0.00     0.035 C 
HETATM   13  C16 UNL     1       0.874   4.941  11.078  1.00  0.00    -0.004 C 
HETATM   14  C19 UNL     1       0.149   6.235  11.196  1.00  0.00     0.035 C 
HETATM   15  C20 UNL     1      -1.351   6.005  11.145  1.00  0.00     0.272 C 
BRANCH  13  16
HETATM   16  C17 UNL     1       2.138   5.005  10.248  1.00  0.00     0.084 C 
BRANCH  16  17
HETATM   17  C18 UNL     1       3.343   5.322  11.023  1.00  0.00     0.113 A 
HETATM   18  N4  UNL     1       3.422   5.335  12.365  1.00  0.00    -0.272 N 
HETATM   19  N5  UNL     1       4.651   5.661  12.712  1.00  0.00    -0.227 N 
ATOM     20  H4  UNL     1       2.658   5.127  13.008  1.00  0.00     0.190 HD
HETATM   21  N6  UNL     1       5.348   5.854  11.613  1.00  0.00    -0.227 N 
ATOM     22  H5  UNL     1       5.000   5.749  13.666  1.00  0.00     0.210 HD
HETATM   23  N7  UNL     1       4.567   5.651  10.576  1.00  0.00    -0.272 N 
ATOM     24  H6  UNL     1       6.333   6.117  11.573  1.00  0.00     0.210 HD
ATOM     25  H7  UNL     1       4.843   5.731   9.597  1.00  0.00     0.190 HD
ENDBRANCH  16  17
ENDBRANCH  13  16
ENDBRANCH   9  10
ENDBRANCH   7   9
BRANCH   1  26
HETATM   26  C8  UNL     1      -5.605   2.916  15.611  1.00  0.00     0.232 C 
HETATM   27  N1  UNL     1      -4.844   2.017  16.408  1.00  0.00     0.094 N 
HETATM   28  C1  UNL     1      -4.481   0.798  15.663  1.00  0.00     0.310 C 
HETATM   29  C2  UNL     1      -5.629   1.504  17.544  1.00  0.00     0.223 C 
HETATM   30  C3  UNL     1      -5.833   2.653  18.500  1.00  0.00     0.036 C 
HETATM   31  C7  UNL     1      -6.972   0.970  17.116  1.00  0.00     0.036 C 
HETATM   32  C4  UNL     1      -6.656   3.689  17.761  1.00  0.00     0.009 C 
HETATM   33  C5  UNL     1      -6.902   3.263  16.306  1.00  0.00     0.019 C 
HETATM   34  C6  UNL     1      -7.741   2.000  16.319  1.00  0.00     0.009 C 
ENDBRANCH   1  26
TORSDOF 5
ENDMDL
MODEL 3
REMARK VINA RESULT: -8.158728320      1.693      3.048
REMARK  5 active torsions:
REMARK  status: ('A' for Active; 'I' for Inactive)
REMARK    1  A    between atoms: C8_9  and  C9_10 
REMARK    2  A    between atoms: C12_16  and  C13_17 
REMARK    3  A    between atoms: C13_17  and  N3_18 
REMARK    4  A    between atoms: C16_21  and  C17_22 
REMARK    5  A    between atoms: C17_22  and  C18_23 
ROOT
HETATM    1  C9  UNL     1      -2.866   5.872  14.120  1.00  0.00     0.045 C 
HETATM    2  C10 UNL     1      -3.070   7.321  14.459  1.00  0.00     0.239 C 
HETATM    3  N2  UNL     1      -2.558   8.182  13.452  1.00  0.00    -0.074 N 
ATOM      4  H21 UNL     1      -2.424   9.126  13.812  1.00  0.00     0.277 HD
ATOM      5  H22 UNL     1      -3.264   8.375  12.742  1.00  0.00     0.277 HD
HETATM    6  C11 UNL     1      -1.333   7.673  12.848  1.00  0.00     0.238 C 
HETATM    7  C12 UNL     1      -1.530   6.399  12.142  1.00  0.00     0.040 C 
HETATM    8  C21 UNL     1      -2.819   5.683  12.655  1.00  0.00     0.016 C 
ENDROOT
BRANCH   7   9
HETATM    9  C13 UNL     1      -1.455   6.316  10.677  1.00  0.00     0.278 C 
BRANCH   9  10
HETATM   10  N3  UNL     1      -0.500   5.518  10.022  1.00  0.00     0.088 N 
HETATM   11  C14 UNL     1      -1.157   4.702   8.988  1.00  0.00     0.272 C 
HETATM   12  C15 UNL     1      -0.985   3.234   9.169  1.00  0.00     0.035 C 
HETATM   13  C16 UNL     1      -1.361   2.863  10.587  1.00  0.00    -0.004 C 
HETATM   14  C19 UNL     1      -0.390   3.528  11.497  1.00  0.00     0.035 C 
HETATM   15  C20 UNL     1       0.334   4.646  10.769  1.00  0.00     0.272 C 
BRANCH  13  16
HETATM   16  C17 UNL     1      -1.451   1.362  10.758  1.00  0.00     0.084 C 
BRANCH  16  17
HETATM   17  C18 UNL     1      -2.826   0.852  10.825  1.00  0.00     0.113 A 
HETATM   18  N4  UNL     1      -3.230  -0.195  11.563  1.00  0.00    -0.272 N 
HETATM   19  N5  UNL     1      -4.525  -0.367  11.379  1.00  0.00    -0.227 N 
ATOM     20  H4  UNL     1      -2.636  -0.764  12.166  1.00  0.00     0.190 HD
HETATM   21  N6  UNL     1      -4.943   0.554  10.538  1.00  0.00    -0.227 N 
ATOM     22  H5  UNL     1      -5.101  -1.088  11.813  1.00  0.00     0.210 HD
HETATM   23  N7  UNL     1      -3.921   1.304  10.191  1.00  0.00    -0.272 N 
ATOM     24  H6  UNL     1      -5.902   0.667  10.209  1.00  0.00     0.210 HD
ATOM     25  H7  UNL     1      -3.955   2.097   9.549  1.00  0.00     0.190 HD
ENDBRANCH  16  17
ENDBRANCH  13  16
ENDBRANCH   9  10
ENDBRANCH   7   9
BRANCH   1  26
HETATM   26  C8  UNL     1      -3.883   4.992  14.816  1.00  0.00     0.232 C 
HETATM   27  N1  UNL     1      -5.185   5.001  14.243  1.00  0.00     0.094 N 
HETATM   28  C1  UNL     1      -6.150   5.728  15.088  1.00  0.00     0.310 C 
HETATM   29  C2  UNL     1      -5.752   3.644  14.167  1.00  0.00     0.223 C 
HETATM   30  C3  UNL     1      -4.969   2.893  13.118  1.00  0.00     0.036 C 
HETATM   31  C7  UNL     1      -5.656   2.908  15.479  1.00  0.00     0.036 C 
HETATM   32  C4  UNL     1      -3.544   2.804  13.626  1.00  0.00     0.009 C 
HETATM   33  C5  UNL     1      -3.378   3.573  14.944  1.00  0.00     0.019 C 
HETATM   34  C6  UNL     1      -4.235   2.898  15.997  1.00  0.00     0.009 C 
ENDBRANCH   1  26
TORSDOF 5
ENDMDL
MODEL 4
REMARK VINA RESULT: -8.152181075      4.052      6.841
REMARK  5 active torsions:
REMARK  status: ('A' for Active; 'I' for Inactive)
REMARK    1  A    between atoms: C8_9  and  C9_10 
REMARK    2  A    between atoms: C12_16  and  C13_17 
REMARK    3  A    between atoms: C13_17  and  N3_18 
REMARK    4  A    between atoms: C16_21  and  C17_22 
REMARK    5  A    between atoms: C17_22  and  C18_23 
ROOT
HETATM    1  C9  UNL     1      -3.994   9.510  10.635  1.00  0.00     0.045 C 
HETATM    2  C10 UNL     1      -2.832  10.424  10.373  1.00  0.00     0.239 C 
HETATM    3  N2  UNL     1      -1.667  10.023  11.080  1.00  0.00    -0.074 N 
ATOM      4  H21 UNL     1      -0.996  10.788  11.142  1.00  0.00     0.277 HD
ATOM      5  H22 UNL     1      -1.114   9.364  10.531  1.00  0.00     0.277 HD
HETATM    6  C11 UNL     1      -1.970   9.482  12.399  1.00  0.00     0.238 C 
HETATM    7  C12 UNL     1      -2.776   8.255  12.343  1.00  0.00     0.040 C 
HETATM    8  C21 UNL     1      -3.520   8.151  10.974  1.00  0.00     0.016 C 
ENDROOT
BRANCH   7   9
HETATM    9  C13 UNL     1      -2.211   6.949  12.710  1.00  0.00     0.278 C 
BRANCH   9  10
HETATM   10  N3  UNL     1      -2.448   6.359  13.964  1.00  0.00     0.088 N 
HETATM   11  C14 UNL     1      -1.934   4.979  13.971  1.00  0.00     0.272 C 
HETATM   12  C15 UNL     1      -2.966   3.945  14.260  1.00  0.00     0.035 C 
HETATM   13  C16 UNL     1      -4.154   4.164  13.348  1.00  0.00    -0.004 C 
HETATM   14  C19 UNL     1      -4.751   5.481  13.695  1.00  0.00     0.035 C 
HETATM   15  C20 UNL     1      -3.763   6.313  14.494  1.00  0.00     0.272 C 
BRANCH  13  16
HETATM   16  C17 UNL     1      -5.121   3.001  13.415  1.00  0.00     0.084 C 
BRANCH  16  17
HETATM   17  C18 UNL     1      -4.956   2.027  12.330  1.00  0.00     0.113 A 
HETATM   18  N4  UNL     1      -4.302   0.857  12.431  1.00  0.00    -0.272 N 
HETATM   19  N5  UNL     1      -4.355   0.243  11.265  1.00  0.00    -0.227 N 
ATOM     20  H4  UNL     1      -3.842   0.502  13.269  1.00  0.00     0.190 HD
HETATM   21  N6  UNL     1      -5.030   1.005  10.432  1.00  0.00    -0.227 N 
ATOM     22  H5  UNL     1      -3.943  -0.664  11.047  1.00  0.00     0.210 HD
HETATM   23  N7  UNL     1      -5.403   2.095  11.065  1.00  0.00    -0.272 N 
ATOM     24  H6  UNL     1      -5.231   0.787   9.456  1.00  0.00     0.210 HD
ATOM     25  H7  UNL     1      -5.942   2.863  10.663  1.00  0.00     0.190 HD
ENDBRANCH  16  17
ENDBRANCH  13  16
ENDBRANCH   9  10
ENDBRANCH   7   9
BRANCH   1  26
HETATM   26  C8  UNL     1      -4.991   9.541   9.496  1.00  0.00     0.232 C 
HETATM   27  N1  UNL     1      -4.973   8.403   8.642  1.00  0.00     0.094 N 
HETATM   28  C1  UNL     1      -4.389   8.716   7.325  1.00  0.00     0.310 C 
HETATM   29  C2  UNL     1      -6.335   7.950   8.315  1.00  0.00     0.223 C 
HETATM   30  C3  UNL     1      -6.926   7.370   9.576  1.00  0.00     0.036 C 
HETATM   31  C7  UNL     1      -7.211   9.076   7.829  1.00  0.00     0.036 C 
HETATM   32  C4  UNL     1      -7.012   8.506  10.575  1.00  0.00     0.009 C 
HETATM   33  C5  UNL     1      -6.392   9.790  10.005  1.00  0.00     0.019 C 
HETATM   34  C6  UNL     1      -7.220  10.225   8.812  1.00  0.00     0.009 C 
ENDBRANCH   1  26
TORSDOF 5
ENDMDL
MODEL 5
REMARK VINA RESULT: -8.147405767      4.514      7.644
REMARK  5 active torsions:
REMARK  status: ('A' for Active; 'I' for Inactive)
REMARK    1  A    between atoms: C8_9  and  C9_10 
REMARK    2  A    between atoms: C12_16  and  C13_17 
REMARK    3  A    between atoms: C13_17  and  N3_18 
REMARK    4  A    between atoms: C16_21  and  C17_22 
REMARK    5  A    between atoms: C17_22  and  C18_23 
ROOT
HETATM    1  C9  UNL     1      -5.495   8.786  10.358  1.00  0.00     0.045 C 
HETATM    2  C10 UNL     1      -4.198   8.892   9.608  1.00  0.00     0.239 C 
HETATM    3  N2  UNL     1      -3.201   8.032  10.141  1.00  0.00    -0.074 N 
ATOM      4  H21 UNL     1      -2.271   8.320   9.841  1.00  0.00     0.277 HD
ATOM      5  H22 UNL     1      -3.239   7.112   9.703  1.00  0.00     0.277 HD
HETATM    6  C11 UNL     1      -3.273   7.923  11.593  1.00  0.00     0.238 C 
HETATM    7  C12 UNL     1      -4.530   7.323  12.061  1.00  0.00     0.040 C 
HETATM    8  C21 UNL     1      -5.636   7.447  10.966  1.00  0.00     0.016 C 
ENDROOT
BRANCH   7   9
HETATM    9  C13 UNL     1      -4.561   5.982  12.661  1.00  0.00     0.278 C 
BRANCH   9  10
HETATM   10  N3  UNL     1      -3.543   5.039  12.435  1.00  0.00     0.088 N 
HETATM   11  C14 UNL     1      -4.137   3.717  12.174  1.00  0.00     0.272 C 
HETATM   12  C15 UNL     1      -3.710   2.658  13.131  1.00  0.00     0.035 C 
HETATM   13  C16 UNL     1      -3.904   3.161  14.544  1.00  0.00    -0.004 C 
HETATM   14  C19 UNL     1      -2.988   4.316  14.741  1.00  0.00     0.035 C 
HETATM   15  C20 UNL     1      -2.519   4.850  13.399  1.00  0.00     0.272 C 
BRANCH  13  16
HETATM   16  C17 UNL     1      -3.731   2.046  15.554  1.00  0.00     0.084 C 
BRANCH  16  17
HETATM   17  C18 UNL     1      -4.978   1.641  16.213  1.00  0.00     0.113 A 
HETATM   18  N4  UNL     1      -6.118   2.355  16.223  1.00  0.00    -0.272 N 
HETATM   19  N5  UNL     1      -7.027   1.688  16.907  1.00  0.00    -0.227 N 
ATOM     20  H4  UNL     1      -6.256   3.261  15.777  1.00  0.00     0.190 HD
HETATM   21  N6  UNL     1      -6.480   0.567  17.327  1.00  0.00    -0.227 N 
ATOM     22  H5  UNL     1      -7.986   1.989  17.080  1.00  0.00     0.210 HD
HETATM   23  N7  UNL     1      -5.234   0.523  16.913  1.00  0.00    -0.272 N 
ATOM     24  H6  UNL     1      -6.947  -0.149  17.883  1.00  0.00     0.210 HD
ATOM     25  H7  UNL     1      -4.573  -0.232  17.093  1.00  0.00     0.190 HD
ENDBRANCH  16  17
ENDBRANCH  13  16
ENDBRANCH   9  10
ENDBRANCH   7   9
BRANCH   1  26
HETATM   26  C8  UNL     1      -6.670   9.189   9.491  1.00  0.00     0.232 C 
HETATM   27  N1  UNL     1      -6.378  10.149   8.482  1.00  0.00     0.094 N 
HETATM   28  C1  UNL     1      -6.951  11.469   8.800  1.00  0.00     0.310 C 
HETATM   29  C2  UNL     1      -7.015   9.798   7.201  1.00  0.00     0.223 C 
HETATM   30  C3  UNL     1      -6.304   8.578   6.670  1.00  0.00     0.036 C 
HETATM   31  C7  UNL     1      -8.482   9.489   7.358  1.00  0.00     0.036 C 
HETATM   32  C4  UNL     1      -6.554   7.464   7.665  1.00  0.00     0.009 C 
HETATM   33  C5  UNL     1      -7.338   7.978   8.883  1.00  0.00     0.019 C 
HETATM   34  C6  UNL     1      -8.707   8.425   8.409  1.00  0.00     0.009 C 
ENDBRANCH   1  26
TORSDOF 5
ENDMDL
