MODEL 1
REMARK VINA RESULT: -7.699304556      0.000      0.000
REMARK  7 active torsions:
REMARK  status: ('A' for Active; 'I' for Inactive)
REMARK    1  A    between atoms: C2_2  and  C3_3 
REMARK    2  A    between atoms: C13_14  and  O1_15 
REMARK    3  A    between atoms: O1_15  and  C14_16 
REMARK    4  A    between atoms: C14_16  and  C15_17 
REMARK    5  A    between atoms: C15_17  and  O2_18 
REMARK    6  A    between atoms: C16_20  and  C18_22 
REMARK    7  A    between atoms: C18_22  and  O3_23 
ROOT
HETATM    1  C3  UNL     1      -0.492   5.524   9.169  1.00  0.00     0.141 C 
HETATM    2  C4  UNL     1       0.701   5.046   8.469  1.00  0.00     0.060 C 
HETATM    3  N1  UNL     1       1.640   4.679   7.902  1.00  0.00    -0.197 NA
ENDROOT
BRANCH   1   4
HETATM    4  C2  UNL     1      -0.717   4.783  10.463  1.00  0.00     0.030 C 
HETATM    5  C1  UNL     1       0.567   4.352  11.104  1.00  0.00     0.024 C 
HETATM    6  C5  UNL     1      -1.571   5.637  11.428  1.00  0.00     0.029 C 
HETATM    7  C6  UNL     1      -2.919   5.378  10.903  1.00  0.00    -0.017 A 
HETATM    8  C7  UNL     1      -3.748   6.454  10.600  1.00  0.00     0.017 A 
HETATM    9  C8  UNL     1      -4.243   5.613  11.620  1.00  0.00     0.005 A 
HETATM   10  C21 UNL     1      -2.912   3.904  10.861  1.00  0.00     0.135 C 
HETATM   11  C9  UNL     1      -4.077   5.557  13.069  1.00  0.00    -0.028 C 
HETATM   12  C10 UNL     1      -3.261   6.712  13.650  1.00  0.00     0.016 C 
HETATM   13  C11 UNL     1      -5.484   5.771  13.665  1.00  0.00     0.013 C 
HETATM   14  C19 UNL     1      -3.523   4.203  13.428  1.00  0.00     0.077 C 
HETATM   15  C12 UNL     1      -5.401   5.289  15.089  1.00  0.00     0.034 C 
HETATM   16  C13 UNL     1      -5.501   3.773  14.954  1.00  0.00     0.132 C 
HETATM   17  C16 UNL     1      -4.380   3.232  14.110  1.00  0.00     0.015 C 
HETATM   18  C17 UNL     1      -3.501   2.453  15.125  1.00  0.00     0.021 C 
HETATM   19  C20 UNL     1      -2.794   3.536  12.328  1.00  0.00     0.144 C 
HETATM   20  O4  UNL     1      -2.026   2.618  12.554  1.00  0.00    -0.297 OA
HETATM   21  C22 UNL     1      -1.618   3.634  10.177  1.00  0.00     0.148 C 
HETATM   22  O5  UNL     1      -1.371   2.661   9.521  1.00  0.00    -0.296 OA
BRANCH  16  23
HETATM   23  O1  UNL     1      -5.597   3.258  16.216  1.00  0.00    -0.383 OA
BRANCH  23  24
HETATM   24  C14 UNL     1      -6.898   2.860  16.519  1.00  0.00     0.194 C 
BRANCH  24  25
HETATM   25  C15 UNL     1      -6.972   1.463  17.041  1.00  0.00     0.190 C 
BRANCH  25  26
HETATM   26  O2  UNL     1      -6.151   0.601  16.340  1.00  0.00    -0.399 OA
ATOM     27  H2  UNL     1      -5.535   0.151  16.906  1.00  0.00     0.209 HD
ENDBRANCH  25  26
ENDBRANCH  24  25
ENDBRANCH  23  24
ENDBRANCH  16  23
BRANCH  17  28
HETATM   28  C18 UNL     1      -4.967   2.122  13.275  1.00  0.00     0.176 C 
BRANCH  28  29
HETATM   29  O3  UNL     1      -4.577   0.850  13.640  1.00  0.00    -0.400 OA
ATOM     30  H3  UNL     1      -3.791   0.532  13.211  1.00  0.00     0.209 HD
ENDBRANCH  28  29
ENDBRANCH  17  28
ENDBRANCH   1   4
TORSDOF 7
ENDMDL
MODEL 2
REMARK VINA RESULT: -7.636073810      1.616      2.063
REMARK  7 active torsions:
REMARK  status: ('A' for Active; 'I' for Inactive)
REMARK    1  A    between atoms: C2_2  and  C3_3 
REMARK    2  A    between atoms: C13_14  and  O1_15 
REMARK    3  A    between atoms: O1_15  and  C14_16 
REMARK    4  A    between atoms: C14_16  and  C15_17 
REMARK    5  A    between atoms: C15_17  and  O2_18 
REMARK    6  A    between atoms: C16_20  and  C18_22 
REMARK    7  A    between atoms: C18_22  and  O3_23 
ROOT
HETATM    1  C3  UNL     1      -0.241   6.677   9.145  1.00  0.00     0.141 C 
HETATM    2  C4  UNL     1       0.982   7.161   9.788  1.00  0.00     0.060 C 
HETATM    3  N1  UNL     1       1.949   7.558  10.285  1.00  0.00    -0.197 NA
ENDROOT
BRANCH   1   4
HETATM    4  C2  UNL     1      -0.631   5.308   9.643  1.00  0.00     0.030 C 
HETATM    5  C1  UNL     1       0.358   4.255   9.246  1.00  0.00     0.024 C 
HETATM    6  C5  UNL     1      -0.844   5.335  11.174  1.00  0.00     0.029 C 
HETATM    7  C6  UNL     1      -2.204   5.885  11.252  1.00  0.00    -0.017 A 
HETATM    8  C7  UNL     1      -2.447   6.984  12.070  1.00  0.00     0.017 A 
HETATM    9  C8  UNL     1      -3.152   5.820  12.443  1.00  0.00     0.005 A 
HETATM   10  C21 UNL     1      -2.910   4.989  10.317  1.00  0.00     0.135 C 
HETATM   11  C9  UNL     1      -2.855   4.672  13.294  1.00  0.00    -0.028 C 
HETATM   12  C10 UNL     1      -1.520   4.771  14.033  1.00  0.00     0.016 C 
HETATM   13  C11 UNL     1      -3.901   4.704  14.428  1.00  0.00     0.013 C 
HETATM   14  C19 UNL     1      -2.977   3.423  12.461  1.00  0.00     0.077 C 
HETATM   15  C12 UNL     1      -3.882   3.327  15.037  1.00  0.00     0.034 C 
HETATM   16  C13 UNL     1      -4.712   2.499  14.062  1.00  0.00     0.132 C 
HETATM   17  C16 UNL     1      -4.103   2.514  12.686  1.00  0.00     0.015 C 
HETATM   18  C17 UNL     1      -3.586   1.063  12.499  1.00  0.00     0.021 C 
HETATM   19  C20 UNL     1      -2.800   3.643  11.009  1.00  0.00     0.144 C 
HETATM   20  O4  UNL     1      -2.545   2.715  10.263  1.00  0.00    -0.297 OA
HETATM   21  C22 UNL     1      -2.000   5.015   9.139  1.00  0.00     0.148 C 
HETATM   22  O5  UNL     1      -2.333   4.830   8.002  1.00  0.00    -0.296 OA
BRANCH  16  23
HETATM   23  O1  UNL     1      -4.885   1.264  14.621  1.00  0.00    -0.383 OA
BRANCH  23  24
HETATM   24  C14 UNL     1      -4.604   1.266  15.987  1.00  0.00     0.194 C 
BRANCH  24  25
HETATM   25  C15 UNL     1      -5.818   1.058  16.830  1.00  0.00     0.190 C 
BRANCH  25  26
HETATM   26  O2  UNL     1      -5.894  -0.230  17.325  1.00  0.00    -0.399 OA
ATOM     27  H2  UNL     1      -6.787  -0.555  17.344  1.00  0.00     0.209 HD
ENDBRANCH  25  26
ENDBRANCH  24  25
ENDBRANCH  23  24
ENDBRANCH  16  23
BRANCH  17  28
HETATM   28  C18 UNL     1      -5.248   2.577  11.708  1.00  0.00     0.176 C 
BRANCH  28  29
HETATM   29  O3  UNL     1      -5.409   1.452  10.927  1.00  0.00    -0.400 OA
ATOM     30  H3  UNL     1      -5.585   1.623  10.009  1.00  0.00     0.209 HD
ENDBRANCH  28  29
ENDBRANCH  17  28
ENDBRANCH   1   4
TORSDOF 7
ENDMDL
MODEL 3
REMARK VINA RESULT: -7.544379493      1.352      1.361
REMARK  7 active torsions:
REMARK  status: ('A' for Active; 'I' for Inactive)
REMARK    1  A    between atoms: C2_2  and  C3_3 
REMARK    2  A    between atoms: C13_14  and  O1_15 
REMARK    3  A    between atoms: O1_15  and  C14_16 
REMARK    4  A    between atoms: C14_16  and  C15_17 
REMARK    5  A    between atoms: C15_17  and  O2_18 
REMARK    6  A    between atoms: C16_20  and  C18_22 
REMARK    7  A    between atoms: C18_22  and  O3_23 
ROOT
HETATM    1  C3  UNL     1       0.378   5.822   9.514  1.00  0.00     0.141 C 
HETATM    2  C4  UNL     1       1.359   6.730  10.109  1.00  0.00     0.060 C 
HETATM    3  N1  UNL     1       2.137   7.456  10.564  1.00  0.00    -0.197 NA
ENDROOT
BRANCH   1   4
HETATM    4  C2  UNL     1      -0.074   4.767  10.491  1.00  0.00     0.030 C 
HETATM    5  C1  UNL     1       1.073   3.989  11.061  1.00  0.00     0.024 C 
HETATM    6  C5  UNL     1      -0.935   5.403  11.606  1.00  0.00     0.029 C 
HETATM    7  C6  UNL     1      -2.233   5.504  10.927  1.00  0.00    -0.017 A 
HETATM    8  C7  UNL     1      -2.899   6.726  10.912  1.00  0.00     0.017 A 
HETATM    9  C8  UNL     1      -3.597   5.697  11.579  1.00  0.00     0.005 A 
HETATM   10  C21 UNL     1      -2.383   4.124  10.428  1.00  0.00     0.135 C 
HETATM   11  C9  UNL     1      -3.606   5.187  12.947  1.00  0.00    -0.028 C 
HETATM   12  C10 UNL     1      -2.740   5.989  13.918  1.00  0.00     0.016 C 
HETATM   13  C11 UNL     1      -5.040   5.407  13.471  1.00  0.00     0.013 C 
HETATM   14  C19 UNL     1      -3.248   3.724  12.907  1.00  0.00     0.077 C 
HETATM   15  C12 UNL     1      -5.174   4.515  14.676  1.00  0.00     0.034 C 
HETATM   16  C13 UNL     1      -5.423   3.138  14.069  1.00  0.00     0.132 C 
HETATM   17  C16 UNL     1      -4.279   2.723  13.186  1.00  0.00     0.015 C 
HETATM   18  C17 UNL     1      -3.614   1.561  13.971  1.00  0.00     0.021 C 
HETATM   19  C20 UNL     1      -2.475   3.321  11.713  1.00  0.00     0.144 C 
HETATM   20  O4  UNL     1      -1.843   2.280  11.699  1.00  0.00    -0.297 OA
HETATM   21  C22 UNL     1      -1.056   3.894   9.794  1.00  0.00     0.148 C 
HETATM   22  O5  UNL     1      -0.844   3.136   8.889  1.00  0.00    -0.296 OA
BRANCH  16  23
HETATM   23  O1  UNL     1      -5.720   2.288  15.097  1.00  0.00    -0.383 OA
BRANCH  23  24
HETATM   24  C14 UNL     1      -6.484   2.909  16.084  1.00  0.00     0.194 C 
BRANCH  24  25
HETATM   25  C15 UNL     1      -7.116   1.939  17.026  1.00  0.00     0.190 C 
BRANCH  25  26
HETATM   26  O2  UNL     1      -6.840   0.628  16.687  1.00  0.00    -0.399 OA
ATOM     27  H2  UNL     1      -7.112   0.018  17.362  1.00  0.00     0.209 HD
ENDBRANCH  25  26
ENDBRANCH  24  25
ENDBRANCH  23  24
ENDBRANCH  16  23
BRANCH  17  28
HETATM   28  C18 UNL     1      -4.884   2.007  12.004  1.00  0.00     0.176 C 
BRANCH  28  29
HETATM   29  O3  UNL     1      -5.691   2.786  11.202  1.00  0.00    -0.400 OA
ATOM     30  H3  UNL     1      -6.455   2.343  10.851  1.00  0.00     0.209 HD
ENDBRANCH  28  29
ENDBRANCH  17  28
ENDBRANCH   1   4
TORSDOF 7
ENDMDL
MODEL 4
REMARK VINA RESULT: -7.481460828      1.413      1.503
REMARK  7 active torsions:
REMARK  status: ('A' for Active; 'I' for Inactive)
REMARK    1  A    between atoms: C2_2  and  C3_3 
REMARK    2  A    between atoms: C13_14  and  O1_15 
REMARK    3  A    between atoms: O1_15  and  C14_16 
REMARK    4  A    between atoms: C14_16  and  C15_17 
REMARK    5  A    between atoms: C15_17  and  O2_18 
REMARK    6  A    between atoms: C16_20  and  C18_22 
REMARK    7  A    between atoms: C18_22  and  O3_23 
ROOT
HETATM    1  C3  UNL     1      -0.970   6.756   9.867  1.00  0.00     0.141 C 
HETATM    2  C4  UNL     1      -0.523   8.098  10.243  1.00  0.00     0.060 C 
HETATM    3  N1  UNL     1      -0.170   9.164  10.523  1.00  0.00    -0.197 NA
ENDROOT
BRANCH   1   4
HETATM    4  C2  UNL     1      -1.038   5.835  11.058  1.00  0.00     0.030 C 
HETATM    5  C1  UNL     1       0.314   5.554  11.640  1.00  0.00     0.024 C 
HETATM    6  C5  UNL     1      -2.004   6.405  12.122  1.00  0.00     0.029 C 
HETATM    7  C6  UNL     1      -3.299   5.986  11.569  1.00  0.00    -0.017 A 
HETATM    8  C7  UNL     1      -4.306   6.932  11.402  1.00  0.00     0.017 A 
HETATM    9  C8  UNL     1      -4.629   5.901  12.310  1.00  0.00     0.005 A 
HETATM   10  C21 UNL     1      -3.043   4.551  11.344  1.00  0.00     0.135 C 
HETATM   11  C9  UNL     1      -4.425   5.697  13.741  1.00  0.00    -0.028 C 
HETATM   12  C10 UNL     1      -3.804   6.895  14.461  1.00  0.00     0.016 C 
HETATM   13  C11 UNL     1      -5.835   5.592  14.358  1.00  0.00     0.013 C 
HETATM   14  C19 UNL     1      -3.641   4.424  13.929  1.00  0.00     0.077 C 
HETATM   15  C12 UNL     1      -5.640   4.961  15.711  1.00  0.00     0.034 C 
HETATM   16  C13 UNL     1      -5.484   3.479  15.389  1.00  0.00     0.132 C 
HETATM   17  C16 UNL     1      -4.306   3.244  14.484  1.00  0.00     0.015 C 
HETATM   18  C17 UNL     1      -3.286   2.509  15.395  1.00  0.00     0.021 C 
HETATM   19  C20 UNL     1      -2.833   4.032  12.754  1.00  0.00     0.144 C 
HETATM   20  O4  UNL     1      -1.915   3.238  12.864  1.00  0.00    -0.297 OA
HETATM   21  C22 UNL     1      -1.737   4.592  10.632  1.00  0.00     0.148 C 
HETATM   22  O5  UNL     1      -1.343   3.763   9.860  1.00  0.00    -0.296 OA
BRANCH  16  23
HETATM   23  O1  UNL     1      -5.465   2.804  16.578  1.00  0.00    -0.383 OA
BRANCH  23  24
HETATM   24  C14 UNL     1      -6.750   2.527  17.041  1.00  0.00     0.194 C 
BRANCH  24  25
HETATM   25  C15 UNL     1      -7.070   1.068  17.025  1.00  0.00     0.190 C 
BRANCH  25  26
HETATM   26  O2  UNL     1      -5.945   0.290  16.832  1.00  0.00    -0.399 OA
ATOM     27  H2  UNL     1      -5.951  -0.144  15.986  1.00  0.00     0.209 HD
ENDBRANCH  25  26
ENDBRANCH  24  25
ENDBRANCH  23  24
ENDBRANCH  16  23
BRANCH  17  28
HETATM   28  C18 UNL     1      -4.713   2.161  13.518  1.00  0.00     0.176 C 
BRANCH  28  29
HETATM   29  O3  UNL     1      -4.729   0.887  14.044  1.00  0.00    -0.400 OA
ATOM     30  H3  UNL     1      -4.749   0.845  14.994  1.00  0.00     0.209 HD
ENDBRANCH  28  29
ENDBRANCH  17  28
ENDBRANCH   1   4
TORSDOF 7
ENDMDL
MODEL 5
REMARK VINA RESULT: -7.278472688      1.838      2.833
REMARK  7 active torsions:
REMARK  status: ('A' for Active; 'I' for Inactive)
REMARK    1  A    between atoms: C2_2  and  C3_3 
REMARK    2  A    between atoms: C13_14  and  O1_15 
REMARK    3  A    between atoms: O1_15  and  C14_16 
REMARK    4  A    between atoms: C14_16  and  C15_17 
REMARK    5  A    between atoms: C15_17  and  O2_18 
REMARK    6  A    between atoms: C16_20  and  C18_22 
REMARK    7  A    between atoms: C18_22  and  O3_23 
ROOT
HETATM    1  C3  UNL     1       0.471   4.323   8.640  1.00  0.00     0.141 C 
HETATM    2  C4  UNL     1       0.023   4.741   7.310  1.00  0.00     0.060 C 
HETATM    3  N1  UNL     1      -0.318   5.063   6.252  1.00  0.00    -0.197 NA
ENDROOT
BRANCH   1   4
HETATM    4  C2  UNL     1      -0.364   4.941   9.732  1.00  0.00     0.030 C 
HETATM    5  C1  UNL     1      -0.578   6.409   9.525  1.00  0.00     0.024 C 
HETATM    6  C5  UNL     1      -1.707   4.188   9.869  1.00  0.00     0.029 C 
HETATM    7  C6  UNL     1      -1.292   3.030  10.672  1.00  0.00    -0.017 A 
HETATM    8  C7  UNL     1      -1.612   1.749  10.234  1.00  0.00     0.017 A 
HETATM    9  C8  UNL     1      -2.194   2.097  11.471  1.00  0.00     0.005 A 
HETATM   10  C21 UNL     1      -0.588   3.708  11.777  1.00  0.00     0.135 C 
HETATM   11  C9  UNL     1      -3.429   2.767  11.868  1.00  0.00    -0.028 C 
HETATM   12  C10 UNL     1      -4.364   3.096  10.704  1.00  0.00     0.016 C 
HETATM   13  C11 UNL     1      -4.225   1.734  12.694  1.00  0.00     0.013 C 
HETATM   14  C19 UNL     1      -3.066   3.975  12.693  1.00  0.00     0.077 C 
HETATM   15  C12 UNL     1      -5.255   2.527  13.453  1.00  0.00     0.034 C 
HETATM   16  C13 UNL     1      -4.463   3.106  14.621  1.00  0.00     0.132 C 
HETATM   17  C16 UNL     1      -3.335   3.972  14.132  1.00  0.00     0.015 C 
HETATM   18  C17 UNL     1      -3.773   5.405  14.537  1.00  0.00     0.021 C 
HETATM   19  C20 UNL     1      -1.704   4.492  12.443  1.00  0.00     0.144 C 
HETATM   20  O4  UNL     1      -1.394   5.623  12.773  1.00  0.00    -0.297 OA
HETATM   21  C22 UNL     1       0.297   4.645  11.031  1.00  0.00     0.148 C 
HETATM   22  O5  UNL     1       1.347   5.069  11.427  1.00  0.00    -0.296 OA
BRANCH  16  23
HETATM   23  O1  UNL     1      -5.358   3.711  15.458  1.00  0.00    -0.383 OA
BRANCH  23  24
HETATM   24  C14 UNL     1      -6.193   2.787  16.085  1.00  0.00     0.194 C 
BRANCH  24  25
HETATM   25  C15 UNL     1      -5.600   2.221  17.333  1.00  0.00     0.190 C 
BRANCH  25  26
HETATM   26  O2  UNL     1      -4.859   1.081  17.088  1.00  0.00    -0.399 OA
ATOM     27  H2  UNL     1      -4.722   0.566  17.874  1.00  0.00     0.209 HD
ENDBRANCH  25  26
ENDBRANCH  24  25
ENDBRANCH  23  24
ENDBRANCH  16  23
BRANCH  17  28
HETATM   28  C18 UNL     1      -2.168   3.719  15.052  1.00  0.00     0.176 C 
BRANCH  28  29
HETATM   29  O3  UNL     1      -2.325   2.655  15.914  1.00  0.00    -0.400 OA
ATOM     30  H3  UNL     1      -1.658   2.580  16.587  1.00  0.00     0.209 HD
ENDBRANCH  28  29
ENDBRANCH  17  28
ENDBRANCH   1   4
TORSDOF 7
ENDMDL
