MODEL 1
REMARK VINA RESULT: -7.107480856      0.000      0.000
REMARK  7 active torsions:
REMARK  status: ('A' for Active; 'I' for Inactive)
REMARK    1  A    between atoms: C3_3  and  C4_4 
REMARK    2  A    between atoms: C5_6  and  C6_7 
REMARK    3  A    between atoms: C6_7  and  O2_8 
REMARK    4  A    between atoms: C16_22  and  C17_23 
REMARK    5  A    between atoms: C17_23  and  C19_25 
REMARK    6  A    between atoms: C21_27  and  C22_28 
REMARK    7  A    between atoms: C22_28  and  O6_29 
ROOT
HETATM    1  C4  UNL     1      -4.206   5.079  13.118  1.00  0.00     0.052 C 
HETATM    2  O1  UNL     1      -4.179   4.116  12.233  1.00  0.00    -0.341 OA
HETATM    3  C5  UNL     1      -3.957   3.816  10.994  1.00  0.00     0.104 A 
HETATM    4  C7  UNL     1      -3.455   4.373   9.754  1.00  0.00     0.045 A 
HETATM    5  C8  UNL     1      -2.964   5.683   9.228  1.00  0.00     0.031 C 
HETATM    6  C9  UNL     1      -1.418   5.566   9.199  1.00  0.00     0.086 C 
HETATM    7  C10 UNL     1      -1.136   5.749  10.671  1.00  0.00     0.133 C 
HETATM    8  O3  UNL     1      -0.091   6.111  11.076  1.00  0.00    -0.297 OA
HETATM    9  C11 UNL     1      -2.367   5.401  11.474  1.00  0.00     0.082 C 
HETATM   10  C12 UNL     1      -3.548   6.278  11.336  1.00  0.00     0.017 C 
HETATM   11  C13 UNL     1      -4.921   6.282  10.938  1.00  0.00     0.124 C 
HETATM   12  C14 UNL     1      -5.188   6.867   9.600  1.00  0.00     0.260 C 
HETATM   13  O4  UNL     1      -6.131   6.670   8.816  1.00  0.00    -0.265 OA
HETATM   14  O5  UNL     1      -4.108   7.683   9.477  1.00  0.00    -0.315 OA
HETATM   15  C15 UNL     1      -3.130   6.924  10.162  1.00  0.00     0.147 C 
HETATM   16  C16 UNL     1      -3.743   6.500  12.796  1.00  0.00     0.058 C 
HETATM   17  C21 UNL     1      -2.549   3.998  10.807  1.00  0.00     0.033 A 
ENDROOT
BRANCH  16  18
HETATM   18  C17 UNL     1      -2.714   7.191  13.517  1.00  0.00    -0.008 C 
HETATM   19  C18 UNL     1      -2.411   8.519  12.771  1.00  0.00     0.011 C 
BRANCH  18  20
HETATM   20  C19 UNL     1      -2.843   7.642  14.918  1.00  0.00     0.000 C 
HETATM   21  C20 UNL     1      -1.912   8.858  15.032  1.00  0.00     0.005 C 
ENDBRANCH  18  20
ENDBRANCH  16  18
BRANCH   1  22
HETATM   22  C3  UNL     1      -3.679   4.579  14.408  1.00  0.00     0.028 C 
HETATM   23  C2  UNL     1      -4.467   4.065  15.307  1.00  0.00    -0.028 C 
HETATM   24  C1  UNL     1      -5.933   3.953  15.089  1.00  0.00     0.036 C 
ENDBRANCH   1  22
BRANCH   3  25
HETATM   25  C6  UNL     1      -4.661   2.441  10.781  1.00  0.00     0.204 C 
BRANCH  25  26
HETATM   26  O2  UNL     1      -5.993   2.489  11.087  1.00  0.00    -0.398 OA
ATOM     27  H2  UNL     1      -6.168   3.028  11.849  1.00  0.00     0.209 HD
ENDBRANCH  25  26
ENDBRANCH   3  25
BRANCH  17  28
HETATM   28  C22 UNL     1      -1.548   2.984  10.918  1.00  0.00     0.178 C 
BRANCH  28  29
HETATM   29  O6  UNL     1      -1.414   2.243   9.775  1.00  0.00    -0.400 OA
ATOM     30  H6  UNL     1      -1.739   1.356   9.871  1.00  0.00     0.209 HD
ENDBRANCH  28  29
ENDBRANCH  17  28
TORSDOF 7
ENDMDL
MODEL 2
REMARK VINA RESULT: -7.070901214      1.616      3.302
REMARK  7 active torsions:
REMARK  status: ('A' for Active; 'I' for Inactive)
REMARK    1  A    between atoms: C3_3  and  C4_4 
REMARK    2  A    between atoms: C5_6  and  C6_7 
REMARK    3  A    between atoms: C6_7  and  O2_8 
REMARK    4  A    between atoms: C16_22  and  C17_23 
REMARK    5  A    between atoms: C17_23  and  C19_25 
REMARK    6  A    between atoms: C21_27  and  C22_28 
REMARK    7  A    between atoms: C22_28  and  O6_29 
ROOT
HETATM    1  C4  UNL     1      -3.597   3.268  11.495  1.00  0.00     0.052 C 
HETATM    2  O1  UNL     1      -2.638   3.640  10.688  1.00  0.00    -0.341 OA
HETATM    3  C5  UNL     1      -2.014   4.649  10.171  1.00  0.00     0.104 A 
HETATM    4  C7  UNL     1      -1.903   6.091  10.257  1.00  0.00     0.045 A 
HETATM    5  C8  UNL     1      -2.541   7.226  10.991  1.00  0.00     0.031 C 
HETATM    6  C9  UNL     1      -1.548   7.600  12.121  1.00  0.00     0.086 C 
HETATM    7  C10 UNL     1      -1.836   6.469  13.079  1.00  0.00     0.133 C 
HETATM    8  O3  UNL     1      -1.599   6.538  14.230  1.00  0.00    -0.297 OA
HETATM    9  C11 UNL     1      -2.442   5.307  12.329  1.00  0.00     0.082 C 
HETATM   10  C12 UNL     1      -3.789   5.491  11.748  1.00  0.00     0.017 C 
HETATM   11  C13 UNL     1      -4.504   5.485  10.511  1.00  0.00     0.124 C 
HETATM   12  C14 UNL     1      -4.840   6.827   9.970  1.00  0.00     0.260 C 
HETATM   13  O4  UNL     1      -5.067   7.183   8.803  1.00  0.00    -0.265 OA
HETATM   14  O5  UNL     1      -4.832   7.555  11.118  1.00  0.00    -0.315 OA
HETATM   15  C15 UNL     1      -3.811   6.892  11.839  1.00  0.00     0.147 C 
HETATM   16  C16 UNL     1      -4.382   4.264  12.350  1.00  0.00     0.058 C 
HETATM   17  C21 UNL     1      -1.303   5.252  11.259  1.00  0.00     0.033 A 
ENDROOT
BRANCH  16  18
HETATM   18  C17 UNL     1      -4.480   4.193  13.778  1.00  0.00    -0.008 C 
HETATM   19  C18 UNL     1      -5.369   5.372  14.260  1.00  0.00     0.011 C 
BRANCH  18  20
HETATM   20  C19 UNL     1      -5.055   3.047  14.513  1.00  0.00     0.000 C 
HETATM   21  C20 UNL     1      -4.126   2.840  15.719  1.00  0.00     0.005 C 
ENDBRANCH  18  20
ENDBRANCH  16  18
BRANCH   1  22
HETATM   22  C3  UNL     1      -3.168   2.071  12.254  1.00  0.00     0.028 C 
HETATM   23  C2  UNL     1      -3.706   0.905  12.040  1.00  0.00    -0.028 C 
HETATM   24  C1  UNL     1      -4.776   0.713  11.028  1.00  0.00     0.036 C 
ENDBRANCH   1  22
BRANCH   3  25
HETATM   25  C6  UNL     1      -1.295   4.075   8.912  1.00  0.00     0.204 C 
BRANCH  25  26
HETATM   26  O2  UNL     1      -0.895   2.780   9.090  1.00  0.00    -0.398 OA
ATOM     27  H2  UNL     1      -1.187   2.424   9.920  1.00  0.00     0.209 HD
ENDBRANCH  25  26
ENDBRANCH   3  25
BRANCH  17  28
HETATM   28  C22 UNL     1       0.053   4.986  11.625  1.00  0.00     0.178 C 
BRANCH  28  29
HETATM   29  O6  UNL     1       0.253   3.689  12.011  1.00  0.00    -0.400 OA
ATOM     30  H6  UNL     1       1.172   3.450  12.035  1.00  0.00     0.209 HD
ENDBRANCH  28  29
ENDBRANCH  17  28
TORSDOF 7
ENDMDL
MODEL 3
REMARK VINA RESULT: -6.912482026      1.802      4.905
REMARK  7 active torsions:
REMARK  status: ('A' for Active; 'I' for Inactive)
REMARK    1  A    between atoms: C3_3  and  C4_4 
REMARK    2  A    between atoms: C5_6  and  C6_7 
REMARK    3  A    between atoms: C6_7  and  O2_8 
REMARK    4  A    between atoms: C16_22  and  C17_23 
REMARK    5  A    between atoms: C17_23  and  C19_25 
REMARK    6  A    between atoms: C21_27  and  C22_28 
REMARK    7  A    between atoms: C22_28  and  O6_29 
ROOT
HETATM    1  C4  UNL     1      -3.059   3.569  13.023  1.00  0.00     0.052 C 
HETATM    2  O1  UNL     1      -2.887   4.861  13.137  1.00  0.00    -0.341 OA
HETATM    3  C5  UNL     1      -2.380   5.919  12.592  1.00  0.00     0.104 A 
HETATM    4  C7  UNL     1      -1.742   6.386  11.377  1.00  0.00     0.045 A 
HETATM    5  C8  UNL     1      -1.258   5.831  10.077  1.00  0.00     0.031 C 
HETATM    6  C9  UNL     1      -2.344   6.206   9.035  1.00  0.00     0.086 C 
HETATM    7  C10 UNL     1      -3.387   5.174   9.393  1.00  0.00     0.133 C 
HETATM    8  O3  UNL     1      -4.220   4.827   8.637  1.00  0.00    -0.297 OA
HETATM    9  C11 UNL     1      -3.174   4.704  10.812  1.00  0.00     0.082 C 
HETATM   10  C12 UNL     1      -1.948   3.932  11.105  1.00  0.00     0.017 C 
HETATM   11  C13 UNL     1      -0.757   3.945  11.895  1.00  0.00     0.124 C 
HETATM   12  C14 UNL     1       0.480   4.321  11.165  1.00  0.00     0.260 C 
HETATM   13  O4  UNL     1       1.541   4.806  11.589  1.00  0.00    -0.265 OA
HETATM   14  O5  UNL     1       0.123   3.978   9.899  1.00  0.00    -0.315 OA
HETATM   15  C15 UNL     1      -1.260   4.275   9.930  1.00  0.00     0.147 C 
HETATM   16  C16 UNL     1      -2.642   2.795  11.772  1.00  0.00     0.058 C 
HETATM   17  C21 UNL     1      -3.160   6.148  11.412  1.00  0.00     0.033 A 
ENDROOT
BRANCH  16  18
HETATM   18  C17 UNL     1      -3.537   1.996  10.987  1.00  0.00    -0.008 C 
HETATM   19  C18 UNL     1      -2.712   0.864  10.317  1.00  0.00     0.011 C 
BRANCH  18  20
HETATM   20  C19 UNL     1      -4.690   1.257  11.541  1.00  0.00     0.000 C 
HETATM   21  C20 UNL     1      -4.172  -0.169  11.780  1.00  0.00     0.005 C 
ENDBRANCH  18  20
ENDBRANCH  16  18
BRANCH   1  22
HETATM   22  C3  UNL     1      -4.412   3.206  13.501  1.00  0.00     0.028 C 
HETATM   23  C2  UNL     1      -4.597   2.690  14.682  1.00  0.00    -0.028 C 
HETATM   24  C1  UNL     1      -3.464   2.437  15.610  1.00  0.00     0.036 C 
ENDBRANCH   1  22
BRANCH   3  25
HETATM   25  C6  UNL     1      -2.280   6.959  13.749  1.00  0.00     0.204 C 
BRANCH  25  26
HETATM   26  O2  UNL     1      -3.386   6.947  14.553  1.00  0.00    -0.398 OA
ATOM     27  H2  UNL     1      -4.191   6.849  14.057  1.00  0.00     0.209 HD
ENDBRANCH  25  26
ENDBRANCH   3  25
BRANCH  17  28
HETATM   28  C22 UNL     1      -4.297   7.009  11.312  1.00  0.00     0.178 C 
BRANCH  28  29
HETATM   29  O6  UNL     1      -5.335   6.611  12.110  1.00  0.00    -0.400 OA
ATOM     30  H6  UNL     1      -5.883   7.335  12.389  1.00  0.00     0.209 HD
ENDBRANCH  28  29
ENDBRANCH  17  28
TORSDOF 7
ENDMDL
MODEL 4
REMARK VINA RESULT: -6.483037866      1.769      5.098
REMARK  7 active torsions:
REMARK  status: ('A' for Active; 'I' for Inactive)
REMARK    1  A    between atoms: C3_3  and  C4_4 
REMARK    2  A    between atoms: C5_6  and  C6_7 
REMARK    3  A    between atoms: C6_7  and  O2_8 
REMARK    4  A    between atoms: C16_22  and  C17_23 
REMARK    5  A    between atoms: C17_23  and  C19_25 
REMARK    6  A    between atoms: C21_27  and  C22_28 
REMARK    7  A    between atoms: C22_28  and  O6_29 
ROOT
HETATM    1  C4  UNL     1      -2.673   5.948  10.414  1.00  0.00     0.052 C 
HETATM    2  O1  UNL     1      -3.658   6.389  11.154  1.00  0.00    -0.341 OA
HETATM    3  C5  UNL     1      -4.478   6.104  12.114  1.00  0.00     0.104 A 
HETATM    4  C7  UNL     1      -4.761   5.094  13.114  1.00  0.00     0.045 A 
HETATM    5  C8  UNL     1      -4.255   3.751  13.530  1.00  0.00     0.031 C 
HETATM    6  C9  UNL     1      -3.379   4.007  14.784  1.00  0.00     0.086 C 
HETATM    7  C10 UNL     1      -2.146   4.558  14.108  1.00  0.00     0.133 C 
HETATM    8  O3  UNL     1      -1.084   4.539  14.616  1.00  0.00    -0.297 OA
HETATM    9  C11 UNL     1      -2.510   5.102  12.748  1.00  0.00     0.082 C 
HETATM   10  C12 UNL     1      -2.950   4.140  11.717  1.00  0.00     0.017 C 
HETATM   11  C13 UNL     1      -4.053   3.804  10.871  1.00  0.00     0.124 C 
HETATM   12  C14 UNL     1      -4.860   2.641  11.319  1.00  0.00     0.260 C 
HETATM   13  O4  UNL     1      -6.042   2.350  11.078  1.00  0.00    -0.265 OA
HETATM   14  O5  UNL     1      -3.935   1.983  12.066  1.00  0.00    -0.315 OA
HETATM   15  C15 UNL     1      -3.203   3.073  12.593  1.00  0.00     0.147 C 
HETATM   16  C16 UNL     1      -1.999   4.599  10.666  1.00  0.00     0.058 C 
HETATM   17  C21 UNL     1      -3.664   6.008  13.290  1.00  0.00     0.033 A 
ENDROOT
BRANCH  16  18
HETATM   18  C17 UNL     1      -0.596   4.435  10.907  1.00  0.00    -0.008 C 
HETATM   19  C18 UNL     1      -0.297   2.914  11.002  1.00  0.00     0.011 C 
BRANCH  18  20
HETATM   20  C19 UNL     1       0.463   4.906   9.991  1.00  0.00     0.000 C 
HETATM   21  C20 UNL     1       0.221   4.146   8.678  1.00  0.00     0.005 C 
ENDBRANCH  18  20
ENDBRANCH  16  18
BRANCH   1  22
HETATM   22  C3  UNL     1      -1.703   7.042  10.180  1.00  0.00     0.028 C 
HETATM   23  C2  UNL     1      -1.649   7.666   9.039  1.00  0.00    -0.028 C 
HETATM   24  C1  UNL     1      -2.553   7.316   7.914  1.00  0.00     0.036 C 
ENDBRANCH   1  22
BRANCH   3  25
HETATM   25  C6  UNL     1      -5.635   7.139  11.975  1.00  0.00     0.204 C 
BRANCH  25  26
HETATM   26  O2  UNL     1      -6.190   7.130  10.726  1.00  0.00    -0.398 OA
ATOM     27  H2  UNL     1      -5.951   6.355  10.231  1.00  0.00     0.209 HD
ENDBRANCH  25  26
ENDBRANCH   3  25
BRANCH  17  28
HETATM   28  C22 UNL     1      -3.412   7.061  14.223  1.00  0.00     0.178 C 
BRANCH  28  29
HETATM   29  O6  UNL     1      -2.638   8.060  13.699  1.00  0.00    -0.400 OA
ATOM     30  H6  UNL     1      -3.153   8.762  13.318  1.00  0.00     0.209 HD
ENDBRANCH  28  29
ENDBRANCH  17  28
TORSDOF 7
ENDMDL
MODEL 5
REMARK VINA RESULT: -6.446910990      1.696      3.505
REMARK  7 active torsions:
REMARK  status: ('A' for Active; 'I' for Inactive)
REMARK    1  A    between atoms: C3_3  and  C4_4 
REMARK    2  A    between atoms: C5_6  and  C6_7 
REMARK    3  A    between atoms: C6_7  and  O2_8 
REMARK    4  A    between atoms: C16_22  and  C17_23 
REMARK    5  A    between atoms: C17_23  and  C19_25 
REMARK    6  A    between atoms: C21_27  and  C22_28 
REMARK    7  A    between atoms: C22_28  and  O6_29 
ROOT
HETATM    1  C4  UNL     1      -2.529   6.948  13.030  1.00  0.00     0.052 C 
HETATM    2  O1  UNL     1      -3.500   6.213  13.507  1.00  0.00    -0.341 OA
HETATM    3  C5  UNL     1      -4.328   5.251  13.256  1.00  0.00     0.104 A 
HETATM    4  C7  UNL     1      -4.641   4.240  12.265  1.00  0.00     0.045 A 
HETATM    5  C8  UNL     1      -4.174   3.810  10.912  1.00  0.00     0.031 C 
HETATM    6  C9  UNL     1      -3.292   2.559  11.155  1.00  0.00     0.086 C 
HETATM    7  C10 UNL     1      -2.044   3.239  11.663  1.00  0.00     0.133 C 
HETATM    8  O3  UNL     1      -0.982   2.730  11.620  1.00  0.00    -0.297 OA
HETATM    9  C11 UNL     1      -2.391   4.605  12.204  1.00  0.00     0.082 C 
HETATM   10  C12 UNL     1      -2.859   5.627  11.244  1.00  0.00     0.017 C 
HETATM   11  C13 UNL     1      -3.970   6.469  10.932  1.00  0.00     0.124 C 
HETATM   12  C14 UNL     1      -4.811   6.010   9.798  1.00  0.00     0.260 C 
HETATM   13  O4  UNL     1      -6.001   6.249   9.539  1.00  0.00    -0.265 OA
HETATM   14  O5  UNL     1      -3.906   5.256   9.120  1.00  0.00    -0.315 OA
HETATM   15  C15 UNL     1      -3.143   4.739  10.194  1.00  0.00     0.147 C 
HETATM   16  C16 UNL     1      -1.894   6.682  11.665  1.00  0.00     0.058 C 
HETATM   17  C21 UNL     1      -3.518   4.074  13.149  1.00  0.00     0.033 A 
ENDROOT
BRANCH  16  18
HETATM   18  C17 UNL     1      -0.496   6.438  11.463  1.00  0.00    -0.008 C 
HETATM   19  C18 UNL     1      -0.274   6.123   9.958  1.00  0.00     0.011 C 
BRANCH  18  20
HETATM   20  C19 UNL     1       0.566   7.428  11.736  1.00  0.00     0.000 C 
HETATM   21  C20 UNL     1       0.097   8.716  11.043  1.00  0.00     0.005 C 
ENDBRANCH  18  20
ENDBRANCH  16  18
BRANCH   1  22
HETATM   22  C3  UNL     1      -1.527   7.193  14.093  1.00  0.00     0.028 C 
HETATM   23  C2  UNL     1      -1.335   8.384  14.581  1.00  0.00    -0.028 C 
HETATM   24  C1  UNL     1      -2.108   9.559  14.099  1.00  0.00     0.036 C 
ENDBRANCH   1  22
BRANCH   3  25
HETATM   25  C6  UNL     1      -5.455   5.401  14.322  1.00  0.00     0.204 C 
BRANCH  25  26
HETATM   26  O2  UNL     1      -6.561   6.029  13.822  1.00  0.00    -0.398 OA
ATOM     27  H2  UNL     1      -6.926   6.658  14.434  1.00  0.00     0.209 HD
ENDBRANCH  25  26
ENDBRANCH   3  25
BRANCH  17  28
HETATM   28  C22 UNL     1      -3.235   3.151  14.203  1.00  0.00     0.178 C 
BRANCH  28  29
HETATM   29  O6  UNL     1      -2.354   3.651  15.123  1.00  0.00    -0.400 OA
ATOM     30  H6  UNL     1      -1.696   3.017  15.383  1.00  0.00     0.209 HD
ENDBRANCH  28  29
ENDBRANCH  17  28
TORSDOF 7
ENDMDL
