MODEL 1
REMARK VINA RESULT: -7.807401475      0.000      0.000
REMARK  5 active torsions:
REMARK  status: ('A' for Active; 'I' for Inactive)
REMARK    1  A    between atoms: C2_2  and  C3_3 
REMARK    2  A    between atoms: C2_2  and  C19_25 
REMARK    3  A    between atoms: N1_20  and  C17_22 
REMARK    4  A    between atoms: C17_22  and  C18_23 
REMARK    5  A    between atoms: C19_25  and  O5_28 
ROOT
HETATM    1  C3  UNL     1      -4.997   6.774   9.674  1.00  0.00     0.129 C 
HETATM    2  C4  UNL     1      -4.642   6.014  10.967  1.00  0.00     0.048 C 
HETATM    3  C5  UNL     1      -3.307   5.552  10.683  1.00  0.00     0.032 C 
HETATM    4  C6  UNL     1      -3.206   5.586   9.171  1.00  0.00     0.182 C 
HETATM    5  O1  UNL     1      -4.491   5.917   8.722  1.00  0.00    -0.384 OA
HETATM    6  C7  UNL     1      -2.119   6.214  11.370  1.00  0.00     0.048 C 
HETATM    7  C8  UNL     1      -2.447   6.729  12.714  1.00  0.00     0.011 C 
HETATM    8  C9  UNL     1      -3.062   5.945  13.754  1.00  0.00     0.003 C 
HETATM    9  C10 UNL     1      -3.016   4.464  13.720  1.00  0.00     0.035 C 
HETATM   10  C11 UNL     1      -3.381   3.836  12.434  1.00  0.00     0.166 C 
HETATM   11  O2  UNL     1      -3.033   2.464  12.507  1.00  0.00    -0.347 OA
HETATM   12  C12 UNL     1      -2.800   2.063  11.210  1.00  0.00     0.159 C 
HETATM   13  C13 UNL     1      -1.438   1.412  11.013  1.00  0.00     0.078 C 
HETATM   14  C14 UNL     1      -3.874   1.026  10.886  1.00  0.00     0.078 C 
HETATM   15  O3  UNL     1      -2.901   3.161  10.368  1.00  0.00    -0.335 OA
HETATM   16  C15 UNL     1      -2.752   4.263  11.217  1.00  0.00     0.139 C 
HETATM   17  C16 UNL     1      -1.436   4.940  11.129  1.00  0.00     0.030 C 
HETATM   18  N1  UNL     1      -0.241   4.466  11.556  1.00  0.00    -0.367 N 
ATOM     19  H1  UNL     1      -0.246   3.725  12.256  1.00  0.00     0.165 HD
ENDROOT
BRANCH   1  20
HETATM   20  C2  UNL     1      -6.440   7.088   9.600  1.00  0.00     0.044 C 
HETATM   21  C1  UNL     1      -6.739   8.064  10.743  1.00  0.00     0.015 C 
BRANCH  20  22
HETATM   22  C19 UNL     1      -6.876   7.728   8.328  1.00  0.00     0.056 C 
HETATM   23  C20 UNL     1      -8.307   8.158   8.304  1.00  0.00     0.045 C 
HETATM   24  C21 UNL     1      -5.905   8.866   8.017  1.00  0.00     0.045 C 
BRANCH  22  25
HETATM   25  O5  UNL     1      -6.734   6.804   7.262  1.00  0.00    -0.390 OA
ATOM     26  H5  UNL     1      -6.340   7.241   6.515  1.00  0.00     0.210 HD
ENDBRANCH  22  25
ENDBRANCH  20  22
ENDBRANCH   1  20
BRANCH  18  27
HETATM   27  C17 UNL     1       0.999   4.927  11.100  1.00  0.00     0.129 C 
BRANCH  27  28
HETATM   28  C18 UNL     1       1.662   4.349   9.932  1.00  0.00     0.275 C 
HETATM   29  O4  UNL     1       2.817   4.085   9.780  1.00  0.00    -0.301 OA
ENDBRANCH  27  28
ENDBRANCH  18  27
TORSDOF 5
ENDMDL
MODEL 2
REMARK VINA RESULT: -7.646636807      1.859      2.607
REMARK  5 active torsions:
REMARK  status: ('A' for Active; 'I' for Inactive)
REMARK    1  A    between atoms: C2_2  and  C3_3 
REMARK    2  A    between atoms: C2_2  and  C19_25 
REMARK    3  A    between atoms: N1_20  and  C17_22 
REMARK    4  A    between atoms: C17_22  and  C18_23 
REMARK    5  A    between atoms: C19_25  and  O5_28 
ROOT
HETATM    1  C3  UNL     1      -5.687   7.681   9.980  1.00  0.00     0.129 C 
HETATM    2  C4  UNL     1      -5.020   7.672  11.369  1.00  0.00     0.048 C 
HETATM    3  C5  UNL     1      -4.218   6.476  11.306  1.00  0.00     0.032 C 
HETATM    4  C6  UNL     1      -4.855   5.649  10.207  1.00  0.00     0.182 C 
HETATM    5  O1  UNL     1      -6.012   6.349   9.840  1.00  0.00    -0.384 OA
HETATM    6  C7  UNL     1      -2.706   6.589  11.161  1.00  0.00     0.048 C 
HETATM    7  C8  UNL     1      -2.159   7.806  11.791  1.00  0.00     0.011 C 
HETATM    8  C9  UNL     1      -2.410   8.196  13.153  1.00  0.00     0.003 C 
HETATM    9  C10 UNL     1      -2.867   7.207  14.158  1.00  0.00     0.035 C 
HETATM   10  C11 UNL     1      -3.988   6.338  13.744  1.00  0.00     0.166 C 
HETATM   11  O2  UNL     1      -4.113   5.303  14.705  1.00  0.00    -0.347 OA
HETATM   12  C12 UNL     1      -4.678   4.236  14.042  1.00  0.00     0.159 C 
HETATM   13  C13 UNL     1      -3.874   2.950  14.169  1.00  0.00     0.078 C 
HETATM   14  C14 UNL     1      -6.044   4.010  14.688  1.00  0.00     0.078 C 
HETATM   15  O3  UNL     1      -4.812   4.554  12.698  1.00  0.00    -0.335 OA
HETATM   16  C15 UNL     1      -3.926   5.619  12.504  1.00  0.00     0.139 C 
HETATM   17  C16 UNL     1      -2.678   5.264  11.786  1.00  0.00     0.030 C 
HETATM   18  N1  UNL     1      -1.652   4.511  12.251  1.00  0.00    -0.367 N 
ATOM     19  H1  UNL     1      -1.557   4.406  13.260  1.00  0.00     0.165 HD
ENDROOT
BRANCH   1  20
HETATM   20  C2  UNL     1      -6.796   8.656   9.910  1.00  0.00     0.044 C 
HETATM   21  C1  UNL     1      -6.231  10.002  10.376  1.00  0.00     0.015 C 
BRANCH  20  22
HETATM   22  C19 UNL     1      -7.373   8.850   8.551  1.00  0.00     0.056 C 
HETATM   23  C20 UNL     1      -8.726   8.246   8.354  1.00  0.00     0.045 C 
HETATM   24  C21 UNL     1      -7.334  10.344   8.232  1.00  0.00     0.045 C 
BRANCH  22  25
HETATM   25  O5  UNL     1      -6.533   8.234   7.589  1.00  0.00    -0.390 OA
ATOM     26  H5  UNL     1      -6.286   8.873   6.929  1.00  0.00     0.210 HD
ENDBRANCH  22  25
ENDBRANCH  20  22
ENDBRANCH   1  20
BRANCH  18  27
HETATM   27  C17 UNL     1      -0.714   3.867  11.436  1.00  0.00     0.129 C 
BRANCH  27  28
HETATM   28  C18 UNL     1      -1.057   2.699  10.628  1.00  0.00     0.275 C 
HETATM   29  O4  UNL     1      -1.146   2.608   9.440  1.00  0.00    -0.301 OA
ENDBRANCH  27  28
ENDBRANCH  18  27
TORSDOF 5
ENDMDL
MODEL 3
REMARK VINA RESULT: -7.492715504      2.793      6.094
REMARK  5 active torsions:
REMARK  status: ('A' for Active; 'I' for Inactive)
REMARK    1  A    between atoms: C2_2  and  C3_3 
REMARK    2  A    between atoms: C2_2  and  C19_25 
REMARK    3  A    between atoms: N1_20  and  C17_22 
REMARK    4  A    between atoms: C17_22  and  C18_23 
REMARK    5  A    between atoms: C19_25  and  O5_28 
ROOT
HETATM    1  C3  UNL     1      -5.243   2.730  14.380  1.00  0.00     0.129 C 
HETATM    2  C4  UNL     1      -3.943   3.540  14.211  1.00  0.00     0.048 C 
HETATM    3  C5  UNL     1      -4.148   4.167  12.930  1.00  0.00     0.032 C 
HETATM    4  C6  UNL     1      -5.198   3.310  12.251  1.00  0.00     0.182 C 
HETATM    5  O1  UNL     1      -5.398   2.221  13.109  1.00  0.00    -0.384 OA
HETATM    6  C7  UNL     1      -4.464   5.656  12.861  1.00  0.00     0.048 C 
HETATM    7  C8  UNL     1      -3.854   6.423  13.963  1.00  0.00     0.011 C 
HETATM    8  C9  UNL     1      -2.456   6.377  14.306  1.00  0.00     0.003 C 
HETATM    9  C10 UNL     1      -1.446   5.909  13.327  1.00  0.00     0.035 C 
HETATM   10  C11 UNL     1      -1.761   4.646  12.629  1.00  0.00     0.166 C 
HETATM   11  O2  UNL     1      -0.835   4.495  11.566  1.00  0.00    -0.347 OA
HETATM   12  C12 UNL     1      -1.470   3.725  10.617  1.00  0.00     0.159 C 
HETATM   13  C13 UNL     1      -1.491   4.363   9.235  1.00  0.00     0.078 C 
HETATM   14  C14 UNL     1      -0.678   2.421  10.528  1.00  0.00     0.078 C 
HETATM   15  O3  UNL     1      -2.775   3.486  11.023  1.00  0.00    -0.335 OA
HETATM   16  C15 UNL     1      -3.028   4.476  11.978  1.00  0.00     0.139 C 
HETATM   17  C16 UNL     1      -3.901   5.580  11.510  1.00  0.00     0.030 C 
HETATM   18  N1  UNL     1      -3.590   6.544  10.610  1.00  0.00    -0.367 N 
ATOM     19  H1  UNL     1      -2.604   6.736  10.439  1.00  0.00     0.165 HD
ENDROOT
BRANCH   1  20
HETATM   20  C2  UNL     1      -5.143   1.757  15.488  1.00  0.00     0.044 C 
HETATM   21  C1  UNL     1      -3.765   1.957  16.129  1.00  0.00     0.015 C 
BRANCH  20  22
HETATM   22  C19 UNL     1      -6.169   1.916  16.555  1.00  0.00     0.056 C 
HETATM   23  C20 UNL     1      -5.627   1.919  17.948  1.00  0.00     0.045 C 
HETATM   24  C21 UNL     1      -6.994   3.162  16.232  1.00  0.00     0.045 C 
BRANCH  22  25
HETATM   25  O5  UNL     1      -7.082   0.832  16.499  1.00  0.00    -0.390 OA
ATOM     26  H5  UNL     1      -7.674   0.878  17.241  1.00  0.00     0.210 HD
ENDBRANCH  22  25
ENDBRANCH  20  22
ENDBRANCH   1  20
BRANCH  18  27
HETATM   27  C17 UNL     1      -4.535   7.294   9.901  1.00  0.00     0.129 C 
BRANCH  27  28
HETATM   28  C18 UNL     1      -5.970   7.036  10.003  1.00  0.00     0.275 C 
HETATM   29  O4  UNL     1      -6.695   6.507   9.214  1.00  0.00    -0.301 OA
ENDBRANCH  27  28
ENDBRANCH  18  27
TORSDOF 5
ENDMDL
MODEL 4
REMARK VINA RESULT: -7.342365282      2.350      3.327
REMARK  5 active torsions:
REMARK  status: ('A' for Active; 'I' for Inactive)
REMARK    1  A    between atoms: C2_2  and  C3_3 
REMARK    2  A    between atoms: C2_2  and  C19_25 
REMARK    3  A    between atoms: N1_20  and  C17_22 
REMARK    4  A    between atoms: C17_22  and  C18_23 
REMARK    5  A    between atoms: C19_25  and  O5_28 
ROOT
HETATM    1  C3  UNL     1      -4.381   7.289  10.586  1.00  0.00     0.129 C 
HETATM    2  C4  UNL     1      -3.615   6.797  11.829  1.00  0.00     0.048 C 
HETATM    3  C5  UNL     1      -3.577   5.373  11.611  1.00  0.00     0.032 C 
HETATM    4  C6  UNL     1      -4.710   5.107  10.639  1.00  0.00     0.182 C 
HETATM    5  O1  UNL     1      -5.370   6.334  10.496  1.00  0.00    -0.384 OA
HETATM    6  C7  UNL     1      -2.271   4.709  11.192  1.00  0.00     0.048 C 
HETATM    7  C8  UNL     1      -1.081   5.401  11.722  1.00  0.00     0.011 C 
HETATM    8  C9  UNL     1      -0.881   5.723  13.111  1.00  0.00     0.003 C 
HETATM    9  C10 UNL     1      -1.630   5.010  14.173  1.00  0.00     0.035 C 
HETATM   10  C11 UNL     1      -3.087   4.886  13.964  1.00  0.00     0.166 C 
HETATM   11  O2  UNL     1      -3.587   3.969  14.922  1.00  0.00    -0.347 OA
HETATM   12  C12 UNL     1      -4.719   3.418  14.365  1.00  0.00     0.159 C 
HETATM   13  C13 UNL     1      -4.697   1.896  14.331  1.00  0.00     0.078 C 
HETATM   14  C14 UNL     1      -5.885   3.858  15.248  1.00  0.00     0.078 C 
HETATM   15  O3  UNL     1      -4.868   3.895  13.071  1.00  0.00    -0.335 OA
HETATM   16  C15 UNL     1      -3.598   4.369  12.728  1.00  0.00     0.139 C 
HETATM   17  C16 UNL     1      -2.846   3.501  11.790  1.00  0.00     0.030 C 
HETATM   18  N1  UNL     1      -2.308   2.285  12.053  1.00  0.00    -0.367 N 
ATOM     19  H1  UNL     1      -2.130   2.044  13.027  1.00  0.00     0.165 HD
ENDROOT
BRANCH   1  20
HETATM   20  C2  UNL     1      -4.813   8.696  10.729  1.00  0.00     0.044 C 
HETATM   21  C1  UNL     1      -3.875   9.536   9.855  1.00  0.00     0.015 C 
BRANCH  20  22
HETATM   22  C19 UNL     1      -6.210   8.969  10.291  1.00  0.00     0.056 C 
HETATM   23  C20 UNL     1      -7.266   8.445  11.210  1.00  0.00     0.045 C 
HETATM   24  C21 UNL     1      -6.336  10.469  10.028  1.00  0.00     0.045 C 
BRANCH  22  25
HETATM   25  O5  UNL     1      -6.443   8.343   9.040  1.00  0.00    -0.390 OA
ATOM     26  H5  UNL     1      -7.306   7.944   9.042  1.00  0.00     0.210 HD
ENDBRANCH  22  25
ENDBRANCH  20  22
ENDBRANCH   1  20
BRANCH  18  27
HETATM   27  C17 UNL     1      -1.980   1.340  11.075  1.00  0.00     0.129 C 
BRANCH  27  28
HETATM   28  C18 UNL     1      -2.964   0.399  10.541  1.00  0.00     0.275 C 
HETATM   29  O4  UNL     1      -3.902   0.616   9.833  1.00  0.00    -0.301 OA
ENDBRANCH  27  28
ENDBRANCH  18  27
TORSDOF 5
ENDMDL
MODEL 5
REMARK VINA RESULT: -7.278112195      0.862      1.116
REMARK  5 active torsions:
REMARK  status: ('A' for Active; 'I' for Inactive)
REMARK    1  A    between atoms: C2_2  and  C3_3 
REMARK    2  A    between atoms: C2_2  and  C19_25 
REMARK    3  A    between atoms: N1_20  and  C17_22 
REMARK    4  A    between atoms: C17_22  and  C18_23 
REMARK    5  A    between atoms: C19_25  and  O5_28 
ROOT
HETATM    1  C3  UNL     1      -4.883   6.740   9.824  1.00  0.00     0.129 C 
HETATM    2  C4  UNL     1      -4.441   6.018  11.111  1.00  0.00     0.048 C 
HETATM    3  C5  UNL     1      -3.199   5.412  10.701  1.00  0.00     0.032 C 
HETATM    4  C6  UNL     1      -3.286   5.356   9.188  1.00  0.00     0.182 C 
HETATM    5  O1  UNL     1      -4.581   5.788   8.876  1.00  0.00    -0.384 OA
HETATM    6  C7  UNL     1      -1.879   5.988  11.197  1.00  0.00     0.048 C 
HETATM    7  C8  UNL     1      -1.988   6.603  12.534  1.00  0.00     0.011 C 
HETATM    8  C9  UNL     1      -2.537   5.940  13.688  1.00  0.00     0.003 C 
HETATM    9  C10 UNL     1      -2.632   4.462  13.745  1.00  0.00     0.035 C 
HETATM   10  C11 UNL     1      -3.211   3.806  12.555  1.00  0.00     0.166 C 
HETATM   11  O2  UNL     1      -2.984   2.412  12.673  1.00  0.00    -0.347 OA
HETATM   12  C12 UNL     1      -2.953   1.922  11.387  1.00  0.00     0.159 C 
HETATM   13  C13 UNL     1      -1.692   1.130  11.071  1.00  0.00     0.078 C 
HETATM   14  C14 UNL     1      -4.150   0.981  11.261  1.00  0.00     0.078 C 
HETATM   15  O3  UNL     1      -3.057   2.979  10.494  1.00  0.00    -0.335 OA
HETATM   16  C15 UNL     1      -2.703   4.103  11.246  1.00  0.00     0.139 C 
HETATM   17  C16 UNL     1      -1.352   4.642  10.958  1.00  0.00     0.030 C 
HETATM   18  N1  UNL     1      -0.161   4.075  11.269  1.00  0.00    -0.367 N 
ATOM     19  H1  UNL     1      -0.146   3.376  12.011  1.00  0.00     0.165 HD
ENDROOT
BRANCH   1  20
HETATM   20  C2  UNL     1      -6.289   7.191   9.903  1.00  0.00     0.044 C 
HETATM   21  C1  UNL     1      -6.426   7.982  11.208  1.00  0.00     0.015 C 
BRANCH  20  22
HETATM   22  C19 UNL     1      -6.726   8.074   8.787  1.00  0.00     0.056 C 
HETATM   23  C20 UNL     1      -5.612   8.706   8.017  1.00  0.00     0.045 C 
HETATM   24  C21 UNL     1      -7.686   7.277   7.904  1.00  0.00     0.045 C 
BRANCH  22  25
HETATM   25  O5  UNL     1      -7.493   9.148   9.306  1.00  0.00    -0.390 OA
ATOM     26  H5  UNL     1      -8.092   9.461   8.639  1.00  0.00     0.210 HD
ENDBRANCH  22  25
ENDBRANCH  20  22
ENDBRANCH   1  20
BRANCH  18  27
HETATM   27  C17 UNL     1       1.049   4.386  10.639  1.00  0.00     0.129 C 
BRANCH  27  28
HETATM   28  C18 UNL     1       2.112   5.126  11.318  1.00  0.00     0.275 C 
HETATM   29  O4  UNL     1       3.210   4.760  11.613  1.00  0.00    -0.301 OA
ENDBRANCH  27  28
ENDBRANCH  18  27
TORSDOF 5
ENDMDL
