MODEL 1
REMARK VINA RESULT: -8.201501529      0.000      0.000
REMARK  6 active torsions:
REMARK  status: ('A' for Active; 'I' for Inactive)
REMARK    1  A    between atoms: C2_2  and  C3_3 
REMARK    2  A    between atoms: C2_2  and  N6_30 
REMARK    3  A    between atoms: C3_3  and  N1_4 
REMARK       I    between atoms: N1_4  and  C4_6 
REMARK       I    between atoms: C4_6  and  N2_8 
REMARK    4  A    between atoms: C7_11  and  N3_12 
REMARK    5  A    between atoms: C9_14  and  C10_15 
REMARK    6  A    between atoms: C10_15  and  O2_16 
ROOT
HETATM    1  N1  UNL     1       1.250   6.040  11.933  1.00  0.00    -0.341 N 
ATOM      2  H1  UNL     1       0.832   6.118  12.860  1.00  0.00     0.164 HD
HETATM    3  C4  UNL     1       0.606   5.255  10.979  1.00  0.00     0.318 C 
HETATM    4  O1  UNL     1       1.096   5.129   9.855  1.00  0.00    -0.247 OA
HETATM    5  N2  UNL     1      -0.655   4.584  11.344  1.00  0.00    -0.329 N 
HETATM    6  C5  UNL     1      -1.045   4.952  12.655  1.00  0.00     0.130 C 
HETATM    7  C6  UNL     1      -2.395   4.641  13.141  1.00  0.00     0.047 C 
HETATM    8  C7  UNL     1      -2.917   3.255  12.916  1.00  0.00     0.114 C 
HETATM    9  C13 UNL     1      -3.395   2.956  11.566  1.00  0.00     0.010 C 
HETATM   10  C14 UNL     1      -2.557   1.851  10.911  1.00  0.00     0.009 C 
HETATM   11  C15 UNL     1      -1.159   2.267  10.646  1.00  0.00     0.026 C 
HETATM   12  C16 UNL     1      -1.110   3.731  10.283  1.00  0.00     0.089 C 
HETATM   13  C17 UNL     1      -2.368   4.279   9.699  1.00  0.00     0.026 C 
HETATM   14  C18 UNL     1      -3.529   4.093  10.627  1.00  0.00     0.009 C 
ENDROOT
BRANCH   8  15
HETATM   15  N3  UNL     1      -3.962   3.092  13.933  1.00  0.00    -0.282 N 
HETATM   16  C8  UNL     1      -4.194   2.014  14.663  1.00  0.00     0.141 A 
HETATM   17  C9  UNL     1      -5.230   2.285  15.520  1.00  0.00     0.078 A 
HETATM   18  N4  UNL     1      -5.604   3.564  15.267  1.00  0.00    -0.286 N 
HETATM   19  N5  UNL     1      -4.800   4.013  14.290  1.00  0.00    -0.240 N 
ATOM     20  H4  UNL     1      -6.352   4.083  15.728  1.00  0.00     0.188 HD
ATOM     21  H5  UNL     1      -4.842   4.948  13.886  1.00  0.00     0.208 HD
BRANCH  17  22
HETATM   22  C10 UNL     1      -5.839   1.423  16.534  1.00  0.00     0.103 A 
HETATM   23  C11 UNL     1      -6.066   2.089  17.889  1.00  0.00     0.048 A 
HETATM   24  C12 UNL     1      -7.202   1.590  17.047  1.00  0.00     0.048 A 
BRANCH  22  25
HETATM   25  O2  UNL     1      -5.301   0.119  16.559  1.00  0.00    -0.383 OA
ATOM     26  H2  UNL     1      -4.392   0.081  16.282  1.00  0.00     0.211 HD
ENDBRANCH  22  25
ENDBRANCH  17  22
ENDBRANCH   8  15
BRANCH   1  27
HETATM   27  C3  UNL     1       2.479   6.750  11.674  1.00  0.00     0.159 C 
BRANCH  27  28
HETATM   28  C2  UNL     1       3.665   5.897  12.093  1.00  0.00     0.235 C 
HETATM   29  C1  UNL     1       4.370   6.459  13.291  1.00  0.00     0.044 C 
BRANCH  28  30
HETATM   30  N6  UNL     1       4.510   5.521  11.013  1.00  0.00     0.085 N 
HETATM   31  C19 UNL     1       4.292   6.271   9.810  1.00  0.00     0.310 C 
HETATM   32  C20 UNL     1       5.913   5.507  11.410  1.00  0.00     0.310 C 
ENDBRANCH  28  30
ENDBRANCH  27  28
ENDBRANCH   1  27
TORSDOF 6
ENDMDL
MODEL 2
REMARK VINA RESULT: -8.191513949      1.966      2.570
REMARK  6 active torsions:
REMARK  status: ('A' for Active; 'I' for Inactive)
REMARK    1  A    between atoms: C2_2  and  C3_3 
REMARK    2  A    between atoms: C2_2  and  N6_30 
REMARK    3  A    between atoms: C3_3  and  N1_4 
REMARK       I    between atoms: N1_4  and  C4_6 
REMARK       I    between atoms: C4_6  and  N2_8 
REMARK    4  A    between atoms: C7_11  and  N3_12 
REMARK    5  A    between atoms: C9_14  and  C10_15 
REMARK    6  A    between atoms: C10_15  and  O2_16 
ROOT
HETATM    1  N1  UNL     1       1.018   6.217  11.913  1.00  0.00    -0.341 N 
ATOM      2  H1  UNL     1       1.073   5.320  12.396  1.00  0.00     0.164 HD
HETATM    3  C4  UNL     1      -0.199   6.896  11.915  1.00  0.00     0.318 C 
HETATM    4  O1  UNL     1      -0.301   7.975  11.326  1.00  0.00    -0.247 OA
HETATM    5  N2  UNL     1      -1.346   6.300  12.624  1.00  0.00    -0.329 N 
HETATM    6  C5  UNL     1      -0.951   5.111  13.283  1.00  0.00     0.130 C 
HETATM    7  C6  UNL     1      -1.833   4.486  14.277  1.00  0.00     0.047 C 
HETATM    8  C7  UNL     1      -3.277   4.313  13.919  1.00  0.00     0.114 C 
HETATM    9  C13 UNL     1      -4.113   5.510  14.012  1.00  0.00     0.010 C 
HETATM   10  C14 UNL     1      -4.680   5.901  12.642  1.00  0.00     0.009 C 
HETATM   11  C15 UNL     1      -3.634   6.343  11.689  1.00  0.00     0.026 C 
HETATM   12  C16 UNL     1      -2.536   7.076  12.421  1.00  0.00     0.089 C 
HETATM   13  C17 UNL     1      -2.950   7.712  13.705  1.00  0.00     0.026 C 
HETATM   14  C18 UNL     1      -3.519   6.704  14.656  1.00  0.00     0.009 C 
ENDROOT
BRANCH   8  15
HETATM   15  N3  UNL     1      -3.740   3.233  14.797  1.00  0.00    -0.282 N 
HETATM   16  C8  UNL     1      -4.930   3.132  15.366  1.00  0.00     0.141 A 
HETATM   17  C9  UNL     1      -4.974   1.958  16.073  1.00  0.00     0.078 A 
HETATM   18  N4  UNL     1      -3.764   1.369  15.904  1.00  0.00    -0.286 N 
HETATM   19  N5  UNL     1      -3.047   2.187  15.117  1.00  0.00    -0.240 N 
ATOM     20  H4  UNL     1      -3.459   0.479  16.298  1.00  0.00     0.188 HD
ATOM     21  H5  UNL     1      -2.090   2.009  14.812  1.00  0.00     0.208 HD
BRANCH  17  22
HETATM   22  C10 UNL     1      -6.075   1.391  16.854  1.00  0.00     0.103 A 
HETATM   23  C11 UNL     1      -6.504   2.225  18.059  1.00  0.00     0.048 A 
HETATM   24  C12 UNL     1      -7.426   1.957  16.907  1.00  0.00     0.048 A 
BRANCH  22  25
HETATM   25  O2  UNL     1      -5.954   0.001  17.065  1.00  0.00    -0.383 OA
ATOM     26  H2  UNL     1      -6.788  -0.454  17.066  1.00  0.00     0.211 HD
ENDBRANCH  22  25
ENDBRANCH  17  22
ENDBRANCH   8  15
BRANCH   1  27
HETATM   27  C3  UNL     1       2.203   6.720  11.263  1.00  0.00     0.159 C 
BRANCH  27  28
HETATM   28  C2  UNL     1       3.358   5.756  11.478  1.00  0.00     0.235 C 
HETATM   29  C1  UNL     1       4.149   6.088  12.707  1.00  0.00     0.044 C 
BRANCH  28  30
HETATM   30  N6  UNL     1       4.128   5.516  10.307  1.00  0.00     0.085 N 
HETATM   31  C19 UNL     1       3.357   5.092   9.175  1.00  0.00     0.310 C 
HETATM   32  C20 UNL     1       4.995   6.646   9.996  1.00  0.00     0.310 C 
ENDBRANCH  28  30
ENDBRANCH  27  28
ENDBRANCH   1  27
TORSDOF 6
ENDMDL
MODEL 3
REMARK VINA RESULT: -8.156275333      3.654      6.416
REMARK  6 active torsions:
REMARK  status: ('A' for Active; 'I' for Inactive)
REMARK    1  A    between atoms: C2_2  and  C3_3 
REMARK    2  A    between atoms: C2_2  and  N6_30 
REMARK    3  A    between atoms: C3_3  and  N1_4 
REMARK       I    between atoms: N1_4  and  C4_6 
REMARK       I    between atoms: C4_6  and  N2_8 
REMARK    4  A    between atoms: C7_11  and  N3_12 
REMARK    5  A    between atoms: C9_14  and  C10_15 
REMARK    6  A    between atoms: C10_15  and  O2_16 
ROOT
HETATM    1  N1  UNL     1      -5.249   7.403  10.081  1.00  0.00    -0.341 N 
ATOM      2  H1  UNL     1      -5.896   6.774  10.556  1.00  0.00     0.164 HD
HETATM    3  C4  UNL     1      -3.898   7.345  10.419  1.00  0.00     0.318 C 
HETATM    4  O1  UNL     1      -3.095   8.104   9.873  1.00  0.00    -0.247 OA
HETATM    5  N2  UNL     1      -3.461   6.370  11.435  1.00  0.00    -0.329 N 
HETATM    6  C5  UNL     1      -4.551   5.566  11.846  1.00  0.00     0.130 C 
HETATM    7  C6  UNL     1      -4.321   4.350  12.635  1.00  0.00     0.047 C 
HETATM    8  C7  UNL     1      -3.397   4.445  13.811  1.00  0.00     0.114 C 
HETATM    9  C13 UNL     1      -1.966   4.454  13.509  1.00  0.00     0.010 C 
HETATM   10  C14 UNL     1      -1.313   5.771  13.946  1.00  0.00     0.009 C 
HETATM   11  C15 UNL     1      -1.789   6.938  13.165  1.00  0.00     0.026 C 
HETATM   12  C16 UNL     1      -2.067   6.533  11.738  1.00  0.00     0.089 C 
HETATM   13  C17 UNL     1      -1.304   5.345  11.259  1.00  0.00     0.026 C 
HETATM   14  C18 UNL     1      -1.564   4.144  12.118  1.00  0.00     0.009 C 
ENDROOT
BRANCH   8  15
HETATM   15  N3  UNL     1      -3.786   3.319  14.668  1.00  0.00    -0.282 N 
HETATM   16  C8  UNL     1      -4.913   3.196  15.349  1.00  0.00     0.141 A 
HETATM   17  C9  UNL     1      -4.902   1.983  15.988  1.00  0.00     0.078 A 
HETATM   18  N4  UNL     1      -3.725   1.393  15.660  1.00  0.00    -0.286 N 
HETATM   19  N5  UNL     1      -3.080   2.249  14.852  1.00  0.00    -0.240 N 
ATOM     20  H4  UNL     1      -3.395   0.478  15.968  1.00  0.00     0.188 HD
ATOM     21  H5  UNL     1      -2.162   2.081  14.441  1.00  0.00     0.208 HD
BRANCH  17  22
HETATM   22  C10 UNL     1      -5.926   1.381  16.844  1.00  0.00     0.103 A 
HETATM   23  C11 UNL     1      -6.313   2.214  18.064  1.00  0.00     0.048 A 
HETATM   24  C12 UNL     1      -7.294   1.890  16.977  1.00  0.00     0.048 A 
BRANCH  22  25
HETATM   25  O2  UNL     1      -5.733   0.001  17.063  1.00  0.00    -0.383 OA
ATOM     26  H2  UNL     1      -6.545  -0.484  17.155  1.00  0.00     0.211 HD
ENDBRANCH  22  25
ENDBRANCH  17  22
ENDBRANCH   8  15
BRANCH   1  27
HETATM   27  C3  UNL     1      -5.777   8.309   9.090  1.00  0.00     0.159 C 
BRANCH  27  28
HETATM   28  C2  UNL     1      -7.114   8.861   9.557  1.00  0.00     0.235 C 
HETATM   29  C1  UNL     1      -7.359   8.591  11.011  1.00  0.00     0.044 C 
BRANCH  28  30
HETATM   30  N6  UNL     1      -8.197   8.547   8.691  1.00  0.00     0.085 N 
HETATM   31  C19 UNL     1      -8.515   9.583   7.752  1.00  0.00     0.310 C 
HETATM   32  C20 UNL     1      -8.009   7.253   8.046  1.00  0.00     0.310 C 
ENDBRANCH  28  30
ENDBRANCH  27  28
ENDBRANCH   1  27
TORSDOF 6
ENDMDL
MODEL 4
REMARK VINA RESULT: -8.139901566      2.090      2.962
REMARK  6 active torsions:
REMARK  status: ('A' for Active; 'I' for Inactive)
REMARK    1  A    between atoms: C2_2  and  C3_3 
REMARK    2  A    between atoms: C2_2  and  N6_30 
REMARK    3  A    between atoms: C3_3  and  N1_4 
REMARK       I    between atoms: N1_4  and  C4_6 
REMARK       I    between atoms: C4_6  and  N2_8 
REMARK    4  A    between atoms: C7_11  and  N3_12 
REMARK    5  A    between atoms: C9_14  and  C10_15 
REMARK    6  A    between atoms: C10_15  and  O2_16 
ROOT
HETATM    1  N1  UNL     1       0.624   6.462  10.953  1.00  0.00    -0.341 N 
ATOM      2  H1  UNL     1       0.712   5.544  11.388  1.00  0.00     0.164 HD
HETATM    3  C4  UNL     1      -0.516   7.218  11.226  1.00  0.00     0.318 C 
HETATM    4  O1  UNL     1      -0.658   8.324  10.701  1.00  0.00    -0.247 OA
HETATM    5  N2  UNL     1      -1.533   6.666  12.139  1.00  0.00    -0.329 N 
HETATM    6  C5  UNL     1      -1.098   5.427  12.668  1.00  0.00     0.130 C 
HETATM    7  C6  UNL     1      -1.800   4.818  13.804  1.00  0.00     0.047 C 
HETATM    8  C7  UNL     1      -3.296   4.754  13.747  1.00  0.00     0.114 C 
HETATM    9  C13 UNL     1      -4.007   5.997  14.046  1.00  0.00     0.010 C 
HETATM   10  C14 UNL     1      -4.813   6.482  12.834  1.00  0.00     0.009 C 
HETATM   11  C15 UNL     1      -3.955   6.895  11.698  1.00  0.00     0.026 C 
HETATM   12  C16 UNL     1      -2.681   7.525  12.208  1.00  0.00     0.089 C 
HETATM   13  C17 UNL     1      -2.777   8.130  13.568  1.00  0.00     0.026 C 
HETATM   14  C18 UNL     1      -3.211   7.122  14.587  1.00  0.00     0.009 C 
ENDROOT
BRANCH   8  15
HETATM   15  N3  UNL     1      -3.646   3.669  14.671  1.00  0.00    -0.282 N 
HETATM   16  C8  UNL     1      -4.851   3.388  15.140  1.00  0.00     0.141 A 
HETATM   17  C9  UNL     1      -4.757   2.278  15.939  1.00  0.00     0.078 A 
HETATM   18  N4  UNL     1      -3.450   1.913  15.927  1.00  0.00    -0.286 N 
HETATM   19  N5  UNL     1      -2.813   2.794  15.139  1.00  0.00    -0.240 N 
ATOM     20  H4  UNL     1      -3.032   1.124  16.422  1.00  0.00     0.188 HD
ATOM     21  H5  UNL     1      -1.814   2.777  14.936  1.00  0.00     0.208 HD
BRANCH  17  22
HETATM   22  C10 UNL     1      -5.813   1.571  16.667  1.00  0.00     0.103 A 
HETATM   23  C11 UNL     1      -6.231   2.221  17.983  1.00  0.00     0.048 A 
HETATM   24  C12 UNL     1      -7.179   2.073  16.830  1.00  0.00     0.048 A 
BRANCH  22  25
HETATM   25  O2  UNL     1      -5.638   0.171  16.687  1.00  0.00    -0.383 OA
ATOM     26  H2  UNL     1      -5.030  -0.124  17.355  1.00  0.00     0.211 HD
ENDBRANCH  22  25
ENDBRANCH  17  22
ENDBRANCH   8  15
BRANCH   1  27
HETATM   27  C3  UNL     1       1.684   6.916  10.086  1.00  0.00     0.159 C 
BRANCH  27  28
HETATM   28  C2  UNL     1       3.027   6.459  10.632  1.00  0.00     0.235 C 
HETATM   29  C1  UNL     1       3.449   5.139  10.060  1.00  0.00     0.044 C 
BRANCH  28  30
HETATM   30  N6  UNL     1       3.139   6.572  12.045  1.00  0.00     0.085 N 
HETATM   31  C19 UNL     1       4.049   5.635  12.636  1.00  0.00     0.310 C 
HETATM   32  C20 UNL     1       3.413   7.944  12.452  1.00  0.00     0.310 C 
ENDBRANCH  28  30
ENDBRANCH  27  28
ENDBRANCH   1  27
TORSDOF 6
ENDMDL
MODEL 5
REMARK VINA RESULT: -8.101292027      4.352      6.953
REMARK  6 active torsions:
REMARK  status: ('A' for Active; 'I' for Inactive)
REMARK    1  A    between atoms: C2_2  and  C3_3 
REMARK    2  A    between atoms: C2_2  and  N6_30 
REMARK    3  A    between atoms: C3_3  and  N1_4 
REMARK       I    between atoms: N1_4  and  C4_6 
REMARK       I    between atoms: C4_6  and  N2_8 
REMARK    4  A    between atoms: C7_11  and  N3_12 
REMARK    5  A    between atoms: C9_14  and  C10_15 
REMARK    6  A    between atoms: C10_15  and  O2_16 
ROOT
HETATM    1  N1  UNL     1      -5.976   8.603  10.672  1.00  0.00    -0.341 N 
ATOM      2  H1  UNL     1      -6.502   7.850  11.115  1.00  0.00     0.164 HD
HETATM    3  C4  UNL     1      -4.607   8.691  10.918  1.00  0.00     0.318 C 
HETATM    4  O1  UNL     1      -3.949   9.601  10.409  1.00  0.00    -0.247 OA
HETATM    5  N2  UNL     1      -3.976   7.686  11.793  1.00  0.00    -0.329 N 
HETATM    6  C5  UNL     1      -4.924   6.708  12.180  1.00  0.00     0.130 C 
HETATM    7  C6  UNL     1      -4.484   5.461  12.817  1.00  0.00     0.047 C 
HETATM    8  C7  UNL     1      -3.494   5.560  13.937  1.00  0.00     0.114 C 
HETATM    9  C13 UNL     1      -2.102   5.787  13.550  1.00  0.00     0.010 C 
HETATM   10  C14 UNL     1      -1.587   7.129  14.086  1.00  0.00     0.009 C 
HETATM   11  C15 UNL     1      -2.263   8.295  13.467  1.00  0.00     0.026 C 
HETATM   12  C16 UNL     1      -2.595   8.001  12.025  1.00  0.00     0.089 C 
HETATM   13  C17 UNL     1      -1.728   6.978  11.374  1.00  0.00     0.026 C 
HETATM   14  C18 UNL     1      -1.770   5.674  12.111  1.00  0.00     0.009 C 
ENDROOT
BRANCH   8  15
HETATM   15  N3  UNL     1      -3.673   4.312  14.689  1.00  0.00    -0.282 N 
HETATM   16  C8  UNL     1      -4.814   3.817  15.139  1.00  0.00     0.141 A 
HETATM   17  C9  UNL     1      -4.554   2.619  15.753  1.00  0.00     0.078 A 
HETATM   18  N4  UNL     1      -3.215   2.424  15.650  1.00  0.00    -0.286 N 
HETATM   19  N5  UNL     1      -2.723   3.486  14.993  1.00  0.00    -0.240 N 
ATOM     20  H4  UNL     1      -2.686   1.627  16.004  1.00  0.00     0.188 HD
ATOM     21  H5  UNL     1      -1.739   3.623  14.764  1.00  0.00     0.208 HD
BRANCH  17  22
HETATM   22  C10 UNL     1      -5.486   1.685  16.388  1.00  0.00     0.103 A 
HETATM   23  C11 UNL     1      -5.924   2.075  17.797  1.00  0.00     0.048 A 
HETATM   24  C12 UNL     1      -6.895   1.982  16.658  1.00  0.00     0.048 A 
BRANCH  22  25
HETATM   25  O2  UNL     1      -5.144   0.330  16.191  1.00  0.00    -0.383 OA
ATOM     26  H2  UNL     1      -5.606  -0.074  15.466  1.00  0.00     0.211 HD
ENDBRANCH  22  25
ENDBRANCH  17  22
ENDBRANCH   8  15
BRANCH   1  27
HETATM   27  C3  UNL     1      -6.687   9.526   9.820  1.00  0.00     0.159 C 
BRANCH  27  28
HETATM   28  C2  UNL     1      -7.667   8.767   8.942  1.00  0.00     0.235 C 
HETATM   29  C1  UNL     1      -7.304   7.318   8.813  1.00  0.00     0.044 C 
BRANCH  28  30
HETATM   30  N6  UNL     1      -7.971   9.427   7.719  1.00  0.00     0.085 N 
HETATM   31  C19 UNL     1      -9.374   9.606   7.484  1.00  0.00     0.310 C 
HETATM   32  C20 UNL     1      -7.222  10.670   7.582  1.00  0.00     0.310 C 
ENDBRANCH  28  30
ENDBRANCH  27  28
ENDBRANCH   1  27
TORSDOF 6
ENDMDL
