MODEL 1
REMARK VINA RESULT: -5.951615328      0.000      0.000
REMARK  4 active torsions:
REMARK  status: ('A' for Active; 'I' for Inactive)
REMARK    1  A    between atoms: O1_2  and  C2_3 
REMARK    2  A    between atoms: C6_9  and  O4_10 
REMARK    3  A    between atoms: C8_12  and  O5_13 
REMARK    4  A    between atoms: C9_15  and  O6_16 
ROOT
HETATM    1  C2  UNL     1      -3.573  -0.781  21.314  1.00  0.00     0.264 C 
HETATM    2  C3  UNL     1      -4.347  -0.112  22.422  1.00  0.00     0.095 C 
HETATM    3  C4  UNL     1      -3.431  -0.142  23.650  1.00  0.00     0.160 C 
HETATM    4  O2  UNL     1      -2.327  -0.920  23.279  1.00  0.00    -0.350 OA
HETATM    5  C5  UNL     1      -1.587  -0.303  22.264  1.00  0.00     0.294 C 
HETATM    6  O3  UNL     1      -2.391  -0.029  21.152  1.00  0.00    -0.329 OA
HETATM    7  C6  UNL     1      -0.886   0.920  22.785  1.00  0.00     0.207 C 
HETATM    8  C8  UNL     1      -1.433   1.245  24.165  1.00  0.00     0.183 C 
HETATM    9  C9  UNL     1      -2.950   1.224  24.013  1.00  0.00     0.178 C 
ENDROOT
BRANCH   1  10
HETATM   10  O1  UNL     1      -4.270  -0.945  20.156  1.00  0.00    -0.366 OA
HETATM   11  C1  UNL     1      -3.697  -1.840  19.265  1.00  0.00     0.204 C 
ENDBRANCH   1  10
BRANCH   9  12
HETATM   12  O6  UNL     1      -3.473   1.701  25.209  1.00  0.00    -0.390 OA
ATOM     13  H6  UNL     1      -3.916   2.538  25.124  1.00  0.00     0.210 HD
ENDBRANCH   9  12
BRANCH   7  14
HETATM   14  O4  UNL     1       0.469   0.878  22.747  1.00  0.00    -0.383 OA
HETATM   15  C7  UNL     1       1.075   0.247  23.817  1.00  0.00     0.202 C 
ENDBRANCH   7  14
BRANCH   8  16
HETATM   16  O5  UNL     1      -1.021   2.501  24.596  1.00  0.00    -0.390 OA
ATOM     17  H5  UNL     1      -1.573   2.828  25.296  1.00  0.00     0.210 HD
ENDBRANCH   8  16
TORSDOF 4
ENDMDL
MODEL 2
REMARK VINA RESULT: -5.949024499      1.543      3.436
REMARK  4 active torsions:
REMARK  status: ('A' for Active; 'I' for Inactive)
REMARK    1  A    between atoms: O1_2  and  C2_3 
REMARK    2  A    between atoms: C6_9  and  O4_10 
REMARK    3  A    between atoms: C8_12  and  O5_13 
REMARK    4  A    between atoms: C9_15  and  O6_16 
ROOT
HETATM    1  C2  UNL     1      -2.084  -1.172  21.365  1.00  0.00     0.264 C 
HETATM    2  C3  UNL     1      -1.121  -0.344  22.177  1.00  0.00     0.095 C 
HETATM    3  C4  UNL     1      -1.848   0.970  22.478  1.00  0.00     0.160 C 
HETATM    4  O2  UNL     1      -3.037   0.922  21.739  1.00  0.00    -0.350 OA
HETATM    5  C5  UNL     1      -3.880  -0.096  22.198  1.00  0.00     0.294 C 
HETATM    6  O3  UNL     1      -3.232  -1.337  22.169  1.00  0.00    -0.329 OA
HETATM    7  C6  UNL     1      -4.427   0.238  23.557  1.00  0.00     0.207 C 
HETATM    8  C8  UNL     1      -3.667   1.433  24.108  1.00  0.00     0.183 C 
HETATM    9  C9  UNL     1      -2.192   1.092  23.925  1.00  0.00     0.178 C 
ENDROOT
BRANCH   1  10
HETATM   10  O1  UNL     1      -1.574  -2.349  20.909  1.00  0.00    -0.366 OA
HETATM   11  C1  UNL     1      -2.422  -3.051  20.066  1.00  0.00     0.204 C 
ENDBRANCH   1  10
BRANCH   9  12
HETATM   12  O6  UNL     1      -1.474   2.079  24.590  1.00  0.00    -0.390 OA
ATOM     13  H6  UNL     1      -1.724   2.963  24.347  1.00  0.00     0.210 HD
ENDBRANCH   9  12
BRANCH   7  14
HETATM   14  O4  UNL     1      -5.773   0.387  23.626  1.00  0.00    -0.383 OA
HETATM   15  C7  UNL     1      -6.308   1.355  22.797  1.00  0.00     0.202 C 
ENDBRANCH   7  14
BRANCH   8  16
HETATM   16  O5  UNL     1      -3.939   1.635  25.457  1.00  0.00    -0.390 OA
ATOM     17  H5  UNL     1      -3.354   2.279  25.838  1.00  0.00     0.210 HD
ENDBRANCH   8  16
TORSDOF 4
ENDMDL
MODEL 3
REMARK VINA RESULT: -5.915109958      2.207      4.162
REMARK  4 active torsions:
REMARK  status: ('A' for Active; 'I' for Inactive)
REMARK    1  A    between atoms: O1_2  and  C2_3 
REMARK    2  A    between atoms: C6_9  and  O4_10 
REMARK    3  A    between atoms: C8_12  and  O5_13 
REMARK    4  A    between atoms: C9_15  and  O6_16 
ROOT
HETATM    1  C2  UNL     1      -4.959  -1.731  22.160  1.00  0.00     0.264 C 
HETATM    2  C3  UNL     1      -4.633  -2.848  21.201  1.00  0.00     0.095 C 
HETATM    3  C4  UNL     1      -3.633  -2.261  20.199  1.00  0.00     0.160 C 
HETATM    4  O2  UNL     1      -3.564  -0.893  20.491  1.00  0.00    -0.350 OA
HETATM    5  C5  UNL     1      -3.012  -0.671  21.758  1.00  0.00     0.294 C 
HETATM    6  O3  UNL     1      -3.734  -1.349  22.747  1.00  0.00    -0.329 OA
HETATM    7  C6  UNL     1      -1.550  -1.019  21.770  1.00  0.00     0.207 C 
HETATM    8  C8  UNL     1      -1.216  -1.762  20.487  1.00  0.00     0.183 C 
HETATM    9  C9  UNL     1      -2.273  -2.853  20.365  1.00  0.00     0.178 C 
ENDROOT
BRANCH   1  10
HETATM   10  O1  UNL     1      -5.922  -2.033  23.074  1.00  0.00    -0.366 OA
HETATM   11  C1  UNL     1      -5.485  -2.022  24.390  1.00  0.00     0.204 C 
ENDBRANCH   1  10
BRANCH   9  12
HETATM   12  O6  UNL     1      -1.883  -3.665  19.307  1.00  0.00    -0.390 OA
ATOM     13  H6  UNL     1      -2.188  -4.561  19.380  1.00  0.00     0.210 HD
ENDBRANCH   9  12
BRANCH   7  14
HETATM   14  O4  UNL     1      -0.706   0.012  22.022  1.00  0.00    -0.383 OA
HETATM   15  C7  UNL     1      -0.607   0.389  23.347  1.00  0.00     0.202 C 
ENDBRANCH   7  14
BRANCH   8  16
HETATM   16  O5  UNL     1       0.049  -2.337  20.545  1.00  0.00    -0.390 OA
ATOM     17  H5  UNL     1       0.397  -2.502  19.676  1.00  0.00     0.210 HD
ENDBRANCH   8  16
TORSDOF 4
ENDMDL
MODEL 4
REMARK VINA RESULT: -5.821932133      2.184      4.096
REMARK  4 active torsions:
REMARK  status: ('A' for Active; 'I' for Inactive)
REMARK    1  A    between atoms: O1_2  and  C2_3 
REMARK    2  A    between atoms: C6_9  and  O4_10 
REMARK    3  A    between atoms: C8_12  and  O5_13 
REMARK    4  A    between atoms: C9_15  and  O6_16 
ROOT
HETATM    1  C2  UNL     1      -4.846  -0.957  25.560  1.00  0.00     0.264 C 
HETATM    2  C3  UNL     1      -3.868   0.136  25.907  1.00  0.00     0.095 C 
HETATM    3  C4  UNL     1      -2.726   0.016  24.893  1.00  0.00     0.160 C 
HETATM    4  O2  UNL     1      -2.984  -1.156  24.172  1.00  0.00    -0.350 OA
HETATM    5  C5  UNL     1      -4.157  -1.041  23.417  1.00  0.00     0.294 C 
HETATM    6  O3  UNL     1      -5.248  -0.714  24.230  1.00  0.00    -0.329 OA
HETATM    7  C6  UNL     1      -3.968  -0.070  22.285  1.00  0.00     0.207 C 
HETATM    8  C8  UNL     1      -2.664   0.679  22.499  1.00  0.00     0.183 C 
HETATM    9  C9  UNL     1      -2.709   1.166  23.942  1.00  0.00     0.178 C 
ENDROOT
BRANCH   1  10
HETATM   10  O1  UNL     1      -5.890  -1.078  26.424  1.00  0.00    -0.366 OA
HETATM   11  C1  UNL     1      -6.510  -2.319  26.403  1.00  0.00     0.204 C 
ENDBRANCH   1  10
BRANCH   9  12
HETATM   12  O6  UNL     1      -1.619   2.013  24.108  1.00  0.00    -0.390 OA
ATOM     13  H6  UNL     1      -1.154   2.199  23.300  1.00  0.00     0.210 HD
ENDBRANCH   9  12
BRANCH   7  14
HETATM   14  O4  UNL     1      -4.083  -0.593  21.039  1.00  0.00    -0.383 OA
HETATM   15  C7  UNL     1      -3.178  -1.589  20.727  1.00  0.00     0.202 C 
ENDBRANCH   7  14
BRANCH   8  16
HETATM   16  O5  UNL     1      -2.552   1.766  21.638  1.00  0.00    -0.390 OA
ATOM     17  H5  UNL     1      -1.814   2.319  21.869  1.00  0.00     0.210 HD
ENDBRANCH   8  16
TORSDOF 4
ENDMDL
MODEL 5
REMARK VINA RESULT: -5.787239028      2.150      3.707
REMARK  4 active torsions:
REMARK  status: ('A' for Active; 'I' for Inactive)
REMARK    1  A    between atoms: O1_2  and  C2_3 
REMARK    2  A    between atoms: C6_9  and  O4_10 
REMARK    3  A    between atoms: C8_12  and  O5_13 
REMARK    4  A    between atoms: C9_15  and  O6_16 
ROOT
HETATM    1  C2  UNL     1      -1.241  -2.769  19.329  1.00  0.00     0.264 C 
HETATM    2  C3  UNL     1      -2.621  -2.424  18.830  1.00  0.00     0.095 C 
HETATM    3  C4  UNL     1      -3.500  -2.302  20.080  1.00  0.00     0.160 C 
HETATM    4  O2  UNL     1      -2.697  -2.721  21.148  1.00  0.00    -0.350 OA
HETATM    5  C5  UNL     1      -1.622  -1.848  21.349  1.00  0.00     0.294 C 
HETATM    6  O3  UNL     1      -0.858  -1.715  20.184  1.00  0.00    -0.329 OA
HETATM    7  C6  UNL     1      -2.101  -0.526  21.880  1.00  0.00     0.207 C 
HETATM    8  C8  UNL     1      -3.614  -0.472  21.758  1.00  0.00     0.183 C 
HETATM    9  C9  UNL     1      -3.918  -0.891  20.324  1.00  0.00     0.178 C 
ENDROOT
BRANCH   1  10
HETATM   10  O1  UNL     1      -0.332  -3.023  18.348  1.00  0.00    -0.366 OA
HETATM   11  C1  UNL     1      -0.775  -2.729  17.067  1.00  0.00     0.204 C 
ENDBRANCH   1  10
BRANCH   9  12
HETATM   12  O6  UNL     1      -5.276  -0.668  20.128  1.00  0.00    -0.390 OA
ATOM     13  H6  UNL     1      -5.482   0.215  19.844  1.00  0.00     0.210 HD
ENDBRANCH   9  12
BRANCH   7  14
HETATM   14  O4  UNL     1      -1.655  -0.197  23.118  1.00  0.00    -0.383 OA
HETATM   15  C7  UNL     1      -0.514   0.580  23.153  1.00  0.00     0.202 C 
ENDBRANCH   7  14
BRANCH   8  16
HETATM   16  O5  UNL     1      -4.100   0.811  21.987  1.00  0.00    -0.390 OA
ATOM     17  H5  UNL     1      -5.030   0.870  21.804  1.00  0.00     0.210 HD
ENDBRANCH   8  16
TORSDOF 4
ENDMDL
