MODEL 1
REMARK VINA RESULT: -5.812483259      0.000      0.000
REMARK  6 active torsions:
REMARK  status: ('A' for Active; 'I' for Inactive)
REMARK    1  A    between atoms: O1_2  and  C2_3 
REMARK    2  A    between atoms: C4_5  and  O2_6 
REMARK    3  A    between atoms: C5_8  and  O3_9 
REMARK    4  A    between atoms: C7_12  and  N1_13 
REMARK    5  A    between atoms: N1_13  and  N2_15 
REMARK    6  A    between atoms: N2_15  and  N3_16 
ROOT
HETATM    1  C2  UNL     1      -4.870  -0.214  23.406  1.00  0.00     0.130 C 
HETATM    2  C3  UNL     1      -4.678  -1.366  22.470  1.00  0.00     0.066 C 
HETATM    3  C4  UNL     1      -3.484  -1.258  21.589  1.00  0.00     0.149 C 
HETATM    4  C5  UNL     1      -2.250  -0.772  22.295  1.00  0.00     0.155 C 
HETATM    5  C6  UNL     1      -2.557   0.608  22.838  1.00  0.00     0.076 C 
HETATM    6  C7  UNL     1      -1.408   0.961  23.796  1.00  0.00     0.257 C 
HETATM    7  O4  UNL     1      -1.550  -0.105  24.716  1.00  0.00    -0.364 OA
HETATM    8  C8  UNL     1      -2.906  -0.209  24.980  1.00  0.00     0.178 C 
HETATM    9  C9  UNL     1      -3.639   0.460  23.855  1.00  0.00     0.049 C 
ENDROOT
BRANCH   6  10
HETATM   10  N1  UNL     1      -0.148   0.968  23.160  1.00  0.00    -0.222 N 
ATOM     11  H1  UNL     1      -0.080   1.362  22.222  1.00  0.00     0.200 HD
BRANCH  10  12
HETATM   12  N2  UNL     1       0.875   0.519  23.684  1.00  0.00    -0.246 NA
BRANCH  12  13
HETATM   13  N3  UNL     1       1.867   0.087  24.292  1.00  0.00    -0.261 N 
ATOM     14  H32 UNL     1       1.660  -0.663  23.632  1.00  0.00     0.193 HD
ATOM     15  H31 UNL     1       2.682  -0.204  24.832  1.00  0.00     0.193 HD
ENDBRANCH  12  13
ENDBRANCH  10  12
ENDBRANCH   6  10
BRANCH   4  16
HETATM   16  O3  UNL     1      -1.192  -0.722  21.426  1.00  0.00    -0.392 OA
ATOM     17  H3  UNL     1      -1.003  -1.590  21.086  1.00  0.00     0.210 HD
ENDBRANCH   4  16
BRANCH   3  18
HETATM   18  O2  UNL     1      -3.687  -0.412  20.489  1.00  0.00    -0.393 OA
ATOM     19  H2  UNL     1      -3.419   0.485  20.654  1.00  0.00     0.210 HD
ENDBRANCH   3  18
BRANCH   1  20
HETATM   20  O1  UNL     1      -5.547  -0.692  24.527  1.00  0.00    -0.390 OA
HETATM   21  C1  UNL     1      -6.131  -1.918  24.269  1.00  0.00     0.202 C 
ENDBRANCH   1  20
TORSDOF 6
ENDMDL
MODEL 2
REMARK VINA RESULT: -5.757083258      1.382      2.682
REMARK  6 active torsions:
REMARK  status: ('A' for Active; 'I' for Inactive)
REMARK    1  A    between atoms: O1_2  and  C2_3 
REMARK    2  A    between atoms: C4_5  and  O2_6 
REMARK    3  A    between atoms: C5_8  and  O3_9 
REMARK    4  A    between atoms: C7_12  and  N1_13 
REMARK    5  A    between atoms: N1_13  and  N2_15 
REMARK    6  A    between atoms: N2_15  and  N3_16 
ROOT
HETATM    1  C2  UNL     1      -4.619  -0.891  23.523  1.00  0.00     0.130 C 
HETATM    2  C3  UNL     1      -5.057   0.407  24.127  1.00  0.00     0.066 C 
HETATM    3  C4  UNL     1      -3.959   1.215  24.725  1.00  0.00     0.149 C 
HETATM    4  C5  UNL     1      -2.716   1.268  23.882  1.00  0.00     0.155 C 
HETATM    5  C6  UNL     1      -2.218  -0.153  23.725  1.00  0.00     0.076 C 
HETATM    6  C7  UNL     1      -1.137  -0.114  22.633  1.00  0.00     0.257 C 
HETATM    7  O4  UNL     1      -1.919   0.383  21.564  1.00  0.00    -0.364 OA
HETATM    8  C8  UNL     1      -3.107  -0.329  21.590  1.00  0.00     0.178 C 
HETATM    9  C9  UNL     1      -3.255  -0.911  22.965  1.00  0.00     0.049 C 
ENDROOT
BRANCH   6  10
HETATM   10  N1  UNL     1      -0.059   0.737  22.962  1.00  0.00    -0.222 N 
ATOM     11  H1  UNL     1      -0.050   1.680  22.574  1.00  0.00     0.200 HD
BRANCH  10  12
HETATM   12  N2  UNL     1       0.872   0.395  23.695  1.00  0.00    -0.246 NA
BRANCH  12  13
HETATM   13  N3  UNL     1       1.867   0.071  24.364  1.00  0.00    -0.261 N 
ATOM     14  H32 UNL     1       1.672  -0.772  23.823  1.00  0.00     0.193 HD
ATOM     15  H31 UNL     1       2.683  -0.125  24.943  1.00  0.00     0.193 HD
ENDBRANCH  12  13
ENDBRANCH  10  12
ENDBRANCH   6  10
BRANCH   4  16
HETATM   16  O3  UNL     1      -1.765   2.048  24.486  1.00  0.00    -0.392 OA
ATOM     17  H3  UNL     1      -1.451   2.712  23.884  1.00  0.00     0.210 HD
ENDBRANCH   4  16
BRANCH   3  18
HETATM   18  O2  UNL     1      -3.574   0.764  25.996  1.00  0.00    -0.393 OA
ATOM     19  H2  UNL     1      -3.934   1.288  26.702  1.00  0.00     0.210 HD
ENDBRANCH   3  18
BRANCH   1  20
HETATM   20  O1  UNL     1      -5.518  -1.203  22.504  1.00  0.00    -0.390 OA
HETATM   21  C1  UNL     1      -5.949  -2.513  22.606  1.00  0.00     0.202 C 
ENDBRANCH   1  20
TORSDOF 6
ENDMDL
MODEL 3
REMARK VINA RESULT: -5.704390746      3.375      4.619
REMARK  6 active torsions:
REMARK  status: ('A' for Active; 'I' for Inactive)
REMARK    1  A    between atoms: O1_2  and  C2_3 
REMARK    2  A    between atoms: C4_5  and  O2_6 
REMARK    3  A    between atoms: C5_8  and  O3_9 
REMARK    4  A    between atoms: C7_12  and  N1_13 
REMARK    5  A    between atoms: N1_13  and  N2_15 
REMARK    6  A    between atoms: N2_15  and  N3_16 
ROOT
HETATM    1  C2  UNL     1      -1.495  -0.132  23.230  1.00  0.00     0.130 C 
HETATM    2  C3  UNL     1      -2.371   0.017  22.027  1.00  0.00     0.066 C 
HETATM    3  C4  UNL     1      -3.727  -0.580  22.167  1.00  0.00     0.149 C 
HETATM    4  C5  UNL     1      -4.378  -0.304  23.493  1.00  0.00     0.155 C 
HETATM    5  C6  UNL     1      -3.490  -0.902  24.563  1.00  0.00     0.076 C 
HETATM    6  C7  UNL     1      -4.007  -0.360  25.906  1.00  0.00     0.257 C 
HETATM    7  O4  UNL     1      -3.834   1.024  25.668  1.00  0.00    -0.364 OA
HETATM    8  C8  UNL     1      -2.580   1.164  25.095  1.00  0.00     0.178 C 
HETATM    9  C9  UNL     1      -2.190  -0.170  24.530  1.00  0.00     0.049 C 
ENDROOT
BRANCH   6  10
HETATM   10  N1  UNL     1      -5.353  -0.706  26.153  1.00  0.00    -0.222 N 
ATOM     11  H1  UNL     1      -6.059   0.028  26.109  1.00  0.00     0.200 HD
BRANCH  10  12
HETATM   12  N2  UNL     1      -5.717  -1.854  26.421  1.00  0.00    -0.246 NA
BRANCH  12  13
HETATM   13  N3  UNL     1      -6.073  -3.029  26.602  1.00  0.00    -0.261 N 
ATOM     14  H32 UNL     1      -5.235  -3.131  26.028  1.00  0.00     0.193 HD
ATOM     15  H31 UNL     1      -6.424  -3.969  26.791  1.00  0.00     0.193 HD
ENDBRANCH  12  13
ENDBRANCH  10  12
ENDBRANCH   6  10
BRANCH   4  16
HETATM   16  O3  UNL     1      -5.628  -0.864  23.535  1.00  0.00    -0.392 OA
ATOM     17  H3  UNL     1      -5.983  -0.812  24.415  1.00  0.00     0.210 HD
ENDBRANCH   4  16
BRANCH   3  18
HETATM   18  O2  UNL     1      -3.736  -1.972  21.988  1.00  0.00    -0.393 OA
ATOM     19  H2  UNL     1      -4.592  -2.312  21.757  1.00  0.00     0.210 HD
ENDBRANCH   3  18
BRANCH   1  20
HETATM   20  O1  UNL     1      -0.604   0.940  23.236  1.00  0.00    -0.390 OA
HETATM   21  C1  UNL     1       0.684   0.515  23.507  1.00  0.00     0.202 C 
ENDBRANCH   1  20
TORSDOF 6
ENDMDL
MODEL 4
REMARK VINA RESULT: -5.688120463      3.188      4.433
REMARK  6 active torsions:
REMARK  status: ('A' for Active; 'I' for Inactive)
REMARK    1  A    between atoms: O1_2  and  C2_3 
REMARK    2  A    between atoms: C4_5  and  O2_6 
REMARK    3  A    between atoms: C5_8  and  O3_9 
REMARK    4  A    between atoms: C7_12  and  N1_13 
REMARK    5  A    between atoms: N1_13  and  N2_15 
REMARK    6  A    between atoms: N2_15  and  N3_16 
ROOT
HETATM    1  C2  UNL     1      -5.887  -1.260  21.403  1.00  0.00     0.130 C 
HETATM    2  C3  UNL     1      -5.250  -0.085  22.076  1.00  0.00     0.066 C 
HETATM    3  C4  UNL     1      -3.841  -0.304  22.505  1.00  0.00     0.149 C 
HETATM    4  C5  UNL     1      -2.999  -1.014  21.484  1.00  0.00     0.155 C 
HETATM    5  C6  UNL     1      -3.631  -2.369  21.243  1.00  0.00     0.076 C 
HETATM    6  C7  UNL     1      -2.941  -2.953  20.000  1.00  0.00     0.257 C 
HETATM    7  O4  UNL     1      -3.277  -1.946  19.066  1.00  0.00    -0.364 OA
HETATM    8  C8  UNL     1      -4.618  -1.663  19.267  1.00  0.00     0.178 C 
HETATM    9  C9  UNL     1      -4.978  -2.137  20.645  1.00  0.00     0.049 C 
ENDROOT
BRANCH   6  10
HETATM   10  N1  UNL     1      -1.546  -3.099  20.166  1.00  0.00    -0.222 N 
ATOM     11  H1  UNL     1      -1.161  -3.035  21.108  1.00  0.00     0.200 HD
BRANCH  10  12
HETATM   12  N2  UNL     1      -0.772  -3.300  19.227  1.00  0.00    -0.246 NA
BRANCH  12  13
HETATM   13  N3  UNL     1      -0.060  -3.479  18.226  1.00  0.00    -0.261 N 
ATOM     14  H32 UNL     1       0.579  -3.031  18.882  1.00  0.00     0.193 HD
ATOM     15  H31 UNL     1       0.464  -3.657  17.369  1.00  0.00     0.193 HD
ENDBRANCH  12  13
ENDBRANCH  10  12
ENDBRANCH   6  10
BRANCH   4  16
HETATM   16  O3  UNL     1      -1.715  -1.156  21.941  1.00  0.00    -0.392 OA
ATOM     17  H3  UNL     1      -1.182  -1.607  21.296  1.00  0.00     0.210 HD
ENDBRANCH   4  16
BRANCH   3  18
HETATM   18  O2  UNL     1      -3.738  -1.032  23.700  1.00  0.00    -0.393 OA
ATOM     19  H2  UNL     1      -3.005  -1.637  23.705  1.00  0.00     0.210 HD
ENDBRANCH   3  18
BRANCH   1  20
HETATM   20  O1  UNL     1      -6.857  -0.768  20.532  1.00  0.00    -0.390 OA
HETATM   21  C1  UNL     1      -7.632   0.200  21.143  1.00  0.00     0.202 C 
ENDBRANCH   1  20
TORSDOF 6
ENDMDL
MODEL 5
REMARK VINA RESULT: -5.687578393      3.172      4.854
REMARK  6 active torsions:
REMARK  status: ('A' for Active; 'I' for Inactive)
REMARK    1  A    between atoms: O1_2  and  C2_3 
REMARK    2  A    between atoms: C4_5  and  O2_6 
REMARK    3  A    between atoms: C5_8  and  O3_9 
REMARK    4  A    between atoms: C7_12  and  N1_13 
REMARK    5  A    between atoms: N1_13  and  N2_15 
REMARK    6  A    between atoms: N2_15  and  N3_16 
ROOT
HETATM    1  C2  UNL     1      -1.410   1.536  23.097  1.00  0.00     0.130 C 
HETATM    2  C3  UNL     1      -1.479   1.209  24.556  1.00  0.00     0.066 C 
HETATM    3  C4  UNL     1      -2.771   0.618  24.999  1.00  0.00     0.149 C 
HETATM    4  C5  UNL     1      -3.312  -0.428  24.065  1.00  0.00     0.155 C 
HETATM    5  C6  UNL     1      -3.539   0.240  22.726  1.00  0.00     0.076 C 
HETATM    6  C7  UNL     1      -3.804  -0.890  21.718  1.00  0.00     0.257 C 
HETATM    7  O4  UNL     1      -2.586  -1.597  21.852  1.00  0.00    -0.364 OA
HETATM    8  C8  UNL     1      -1.582  -0.643  21.848  1.00  0.00     0.178 C 
HETATM    9  C9  UNL     1      -2.208   0.673  22.208  1.00  0.00     0.049 C 
ENDROOT
BRANCH   6  10
HETATM   10  N1  UNL     1      -4.929  -1.673  22.059  1.00  0.00    -0.222 N 
ATOM     11  H1  UNL     1      -5.850  -1.237  22.028  1.00  0.00     0.200 HD
BRANCH  10  12
HETATM   12  N2  UNL     1      -4.851  -2.858  22.392  1.00  0.00    -0.246 NA
BRANCH  12  13
HETATM   13  N3  UNL     1      -4.682  -4.038  22.739  1.00  0.00    -0.261 N 
ATOM     14  H32 UNL     1      -3.764  -3.621  22.895  1.00  0.00     0.193 HD
ATOM     15  H31 UNL     1      -4.617  -5.020  23.006  1.00  0.00     0.193 HD
ENDBRANCH  12  13
ENDBRANCH  10  12
ENDBRANCH   6  10
BRANCH   4  16
HETATM   16  O3  UNL     1      -4.485  -0.940  24.553  1.00  0.00    -0.392 OA
ATOM     17  H3  UNL     1      -5.060  -1.187  23.838  1.00  0.00     0.210 HD
ENDBRANCH   4  16
BRANCH   3  18
HETATM   18  O2  UNL     1      -3.782   1.574  25.175  1.00  0.00    -0.393 OA
ATOM     19  H2  UNL     1      -3.521   2.446  24.905  1.00  0.00     0.210 HD
ENDBRANCH   3  18
BRANCH   1  20
HETATM   20  O1  UNL     1      -0.073   1.452  22.712  1.00  0.00    -0.390 OA
HETATM   21  C1  UNL     1       0.682   0.804  23.672  1.00  0.00     0.202 C 
ENDBRANCH   1  20
TORSDOF 6
ENDMDL
