MODEL 1
REMARK VINA RESULT: -6.193056814      0.000      0.000
REMARK  4 active torsions:
REMARK  status: ('A' for Active; 'I' for Inactive)
REMARK    1  A    between atoms: O1_2  and  C2_3 
REMARK    2  A    between atoms: C3_4  and  C4_5 
REMARK    3  A    between atoms: C4_5  and  O2_6 
REMARK    4  A    between atoms: C10_16  and  O6_17 
ROOT
HETATM    1  C2  UNL     1      -3.639  -0.289  23.354  1.00  0.00     0.183 C 
HETATM    2  C3  UNL     1      -4.776  -1.256  23.263  1.00  0.00     0.179 C 
HETATM    3  O3  UNL     1      -4.323  -2.370  22.594  1.00  0.00    -0.348 OA
HETATM    4  C5  UNL     1      -4.118  -2.117  21.274  1.00  0.00     0.295 C 
HETATM    5  O4  UNL     1      -3.296  -3.150  20.768  1.00  0.00    -0.323 OA
HETATM    6  C6  UNL     1      -2.485  -2.533  19.828  1.00  0.00     0.160 C 
HETATM    7  C7  UNL     1      -1.241  -3.345  19.586  1.00  0.00     0.078 C 
HETATM    8  C8  UNL     1      -3.253  -2.368  18.556  1.00  0.00     0.078 C 
HETATM    9  O5  UNL     1      -2.176  -1.317  20.444  1.00  0.00    -0.343 OA
HETATM   10  C9  UNL     1      -3.432  -0.872  20.916  1.00  0.00     0.211 C 
HETATM   11  C10 UNL     1      -3.339   0.186  21.934  1.00  0.00     0.183 C 
ENDROOT
BRANCH   2  12
HETATM   12  C4  UNL     1      -5.417  -1.588  24.577  1.00  0.00     0.198 C 
BRANCH  12  13
HETATM   13  O2  UNL     1      -4.668  -2.398  25.390  1.00  0.00    -0.398 OA
ATOM     14  H2  UNL     1      -3.943  -1.963  25.823  1.00  0.00     0.209 HD
ENDBRANCH  12  13
ENDBRANCH   2  12
BRANCH   1  15
HETATM   15  O1  UNL     1      -2.498  -0.793  23.933  1.00  0.00    -0.385 OA
HETATM   16  C1  UNL     1      -2.093  -0.072  25.039  1.00  0.00     0.202 C 
ENDBRANCH   1  15
BRANCH  11  17
HETATM   17  O6  UNL     1      -2.082   0.813  21.880  1.00  0.00    -0.390 OA
ATOM     18  H6  UNL     1      -1.780   0.878  20.981  1.00  0.00     0.210 HD
ENDBRANCH  11  17
TORSDOF 4
ENDMDL
MODEL 2
REMARK VINA RESULT: -6.077018687      1.203      1.347
REMARK  4 active torsions:
REMARK  status: ('A' for Active; 'I' for Inactive)
REMARK    1  A    between atoms: O1_2  and  C2_3 
REMARK    2  A    between atoms: C3_4  and  C4_5 
REMARK    3  A    between atoms: C4_5  and  O2_6 
REMARK    4  A    between atoms: C10_16  and  O6_17 
ROOT
HETATM    1  C2  UNL     1      -3.788  -0.261  23.873  1.00  0.00     0.183 C 
HETATM    2  C3  UNL     1      -4.692  -1.423  24.134  1.00  0.00     0.179 C 
HETATM    3  O3  UNL     1      -4.472  -2.353  23.144  1.00  0.00    -0.348 OA
HETATM    4  C5  UNL     1      -4.955  -1.937  21.944  1.00  0.00     0.295 C 
HETATM    5  O4  UNL     1      -4.347  -2.731  20.944  1.00  0.00    -0.323 OA
HETATM    6  C6  UNL     1      -4.171  -1.875  19.868  1.00  0.00     0.160 C 
HETATM    7  C7  UNL     1      -3.098  -2.394  18.948  1.00  0.00     0.078 C 
HETATM    8  C8  UNL     1      -5.466  -1.744  19.133  1.00  0.00     0.078 C 
HETATM    9  O5  UNL     1      -3.767  -0.688  20.485  1.00  0.00    -0.343 OA
HETATM   10  C9  UNL     1      -4.693  -0.551  21.545  1.00  0.00     0.211 C 
HETATM   11  C10 UNL     1      -4.265   0.400  22.583  1.00  0.00     0.183 C 
ENDROOT
BRANCH   2  12
HETATM   12  C4  UNL     1      -4.580  -2.003  25.512  1.00  0.00     0.198 C 
BRANCH  12  13
HETATM   13  O2  UNL     1      -5.667  -2.733  25.914  1.00  0.00    -0.398 OA
ATOM     14  H2  UNL     1      -5.732  -2.864  26.853  1.00  0.00     0.209 HD
ENDBRANCH  12  13
ENDBRANCH   2  12
BRANCH   1  15
HETATM   15  O1  UNL     1      -2.453  -0.580  23.773  1.00  0.00    -0.385 OA
HETATM   16  C1  UNL     1      -1.688  -0.015  24.774  1.00  0.00     0.202 C 
ENDBRANCH   1  15
BRANCH  11  17
HETATM   17  O6  UNL     1      -3.280   1.268  22.080  1.00  0.00    -0.390 OA
ATOM     18  H6  UNL     1      -3.679   1.963  21.569  1.00  0.00     0.210 HD
ENDBRANCH  11  17
TORSDOF 4
ENDMDL
MODEL 3
REMARK VINA RESULT: -5.913785061      2.334      4.145
REMARK  4 active torsions:
REMARK  status: ('A' for Active; 'I' for Inactive)
REMARK    1  A    between atoms: O1_2  and  C2_3 
REMARK    2  A    between atoms: C3_4  and  C4_5 
REMARK    3  A    between atoms: C4_5  and  O2_6 
REMARK    4  A    between atoms: C10_16  and  O6_17 
ROOT
HETATM    1  C2  UNL     1      -5.174  -1.588  23.082  1.00  0.00     0.183 C 
HETATM    2  C3  UNL     1      -5.486  -0.410  22.215  1.00  0.00     0.179 C 
HETATM    3  O3  UNL     1      -4.300   0.038  21.679  1.00  0.00    -0.348 OA
HETATM    4  C5  UNL     1      -3.514   0.631  22.616  1.00  0.00     0.295 C 
HETATM    5  O4  UNL     1      -2.201   0.688  22.093  1.00  0.00    -0.323 OA
HETATM    6  C6  UNL     1      -1.374   0.495  23.189  1.00  0.00     0.160 C 
HETATM    7  C7  UNL     1      -0.016   0.015  22.749  1.00  0.00     0.078 C 
HETATM    8  C8  UNL     1      -1.250   1.783  23.938  1.00  0.00     0.078 C 
HETATM    9  O5  UNL     1      -2.045  -0.497  23.908  1.00  0.00    -0.343 OA
HETATM   10  C9  UNL     1      -3.380  -0.034  23.915  1.00  0.00     0.211 C 
HETATM   11  C10 UNL     1      -4.363  -1.071  24.267  1.00  0.00     0.183 C 
ENDROOT
BRANCH   2  12
HETATM   12  C4  UNL     1      -6.535  -0.662  21.174  1.00  0.00     0.198 C 
BRANCH  12  13
HETATM   13  O2  UNL     1      -6.056  -0.777  19.896  1.00  0.00    -0.398 OA
ATOM     14  H2  UNL     1      -5.697   0.024  19.534  1.00  0.00     0.209 HD
ENDBRANCH  12  13
ENDBRANCH   2  12
BRANCH   1  15
HETATM   15  O1  UNL     1      -4.493  -2.603  22.452  1.00  0.00    -0.385 OA
HETATM   16  C1  UNL     1      -5.229  -3.768  22.359  1.00  0.00     0.202 C 
ENDBRANCH   1  15
BRANCH  11  17
HETATM   17  O6  UNL     1      -3.736  -2.137  24.937  1.00  0.00    -0.390 OA
ATOM     18  H6  UNL     1      -3.458  -1.867  25.804  1.00  0.00     0.210 HD
ENDBRANCH  11  17
TORSDOF 4
ENDMDL
MODEL 4
REMARK VINA RESULT: -5.911151767      2.442      4.547
REMARK  4 active torsions:
REMARK  status: ('A' for Active; 'I' for Inactive)
REMARK    1  A    between atoms: O1_2  and  C2_3 
REMARK    2  A    between atoms: C3_4  and  C4_5 
REMARK    3  A    between atoms: C4_5  and  O2_6 
REMARK    4  A    between atoms: C10_16  and  O6_17 
ROOT
HETATM    1  C2  UNL     1      -5.835  -0.951  21.576  1.00  0.00     0.183 C 
HETATM    2  C3  UNL     1      -6.275   0.329  22.209  1.00  0.00     0.179 C 
HETATM    3  O3  UNL     1      -5.164   1.130  22.346  1.00  0.00    -0.348 OA
HETATM    4  C5  UNL     1      -4.321   0.664  23.307  1.00  0.00     0.295 C 
HETATM    5  O4  UNL     1      -3.066   1.283  23.104  1.00  0.00    -0.323 OA
HETATM    6  C6  UNL     1      -2.133   0.315  23.445  1.00  0.00     0.160 C 
HETATM    7  C7  UNL     1      -0.802   0.614  22.807  1.00  0.00     0.078 C 
HETATM    8  C8  UNL     1      -1.998   0.272  24.933  1.00  0.00     0.078 C 
HETATM    9  O5  UNL     1      -2.693  -0.849  22.911  1.00  0.00    -0.343 OA
HETATM   10  C9  UNL     1      -4.040  -0.774  23.330  1.00  0.00     0.211 C 
HETATM   11  C10 UNL     1      -4.941  -1.668  22.585  1.00  0.00     0.183 C 
ENDROOT
BRANCH   2  12
HETATM   12  C4  UNL     1      -7.403   1.018  21.503  1.00  0.00     0.198 C 
BRANCH  12  13
HETATM   13  O2  UNL     1      -7.221   2.362  21.310  1.00  0.00    -0.398 OA
ATOM     14  H2  UNL     1      -7.446   2.672  20.441  1.00  0.00     0.209 HD
ENDBRANCH  12  13
ENDBRANCH   2  12
BRANCH   1  15
HETATM   15  O1  UNL     1      -5.171  -0.805  20.380  1.00  0.00    -0.385 OA
HETATM   16  C1  UNL     1      -5.747  -1.527  19.353  1.00  0.00     0.202 C 
ENDBRANCH   1  15
BRANCH  11  17
HETATM   17  O6  UNL     1      -4.210  -2.692  21.956  1.00  0.00    -0.390 OA
ATOM     18  H6  UNL     1      -4.511  -2.816  21.063  1.00  0.00     0.210 HD
ENDBRANCH  11  17
TORSDOF 4
ENDMDL
MODEL 5
REMARK VINA RESULT: -5.770366990      1.849      4.533
REMARK  4 active torsions:
REMARK  status: ('A' for Active; 'I' for Inactive)
REMARK    1  A    between atoms: O1_2  and  C2_3 
REMARK    2  A    between atoms: C3_4  and  C4_5 
REMARK    3  A    between atoms: C4_5  and  O2_6 
REMARK    4  A    between atoms: C10_16  and  O6_17 
ROOT
HETATM    1  C2  UNL     1      -3.679  -1.653  20.791  1.00  0.00     0.183 C 
HETATM    2  C3  UNL     1      -2.215  -1.844  20.553  1.00  0.00     0.179 C 
HETATM    3  O3  UNL     1      -1.562  -1.562  21.731  1.00  0.00    -0.348 OA
HETATM    4  C5  UNL     1      -1.587  -0.233  22.017  1.00  0.00     0.295 C 
HETATM    5  O4  UNL     1      -1.270  -0.089  23.387  1.00  0.00    -0.323 OA
HETATM    6  C6  UNL     1      -2.040   0.980  23.820  1.00  0.00     0.160 C 
HETATM    7  C7  UNL     1      -2.218   0.933  25.315  1.00  0.00     0.078 C 
HETATM    8  C8  UNL     1      -1.373   2.255  23.416  1.00  0.00     0.078 C 
HETATM    9  O5  UNL     1      -3.255   0.764  23.166  1.00  0.00    -0.343 OA
HETATM   10  C9  UNL     1      -2.856   0.479  21.840  1.00  0.00     0.211 C 
HETATM   11  C10 UNL     1      -3.905  -0.163  21.032  1.00  0.00     0.183 C 
ENDROOT
BRANCH   2  12
HETATM   12  C4  UNL     1      -1.845  -3.183  19.990  1.00  0.00     0.198 C 
BRANCH  12  13
HETATM   13  O2  UNL     1      -1.879  -4.212  20.893  1.00  0.00    -0.398 OA
ATOM     14  H2  UNL     1      -1.088  -4.737  20.927  1.00  0.00     0.209 HD
ENDBRANCH  12  13
ENDBRANCH   2  12
BRANCH   1  15
HETATM   15  O1  UNL     1      -4.194  -2.383  21.838  1.00  0.00    -0.385 OA
HETATM   16  C1  UNL     1      -5.292  -3.138  21.478  1.00  0.00     0.202 C 
ENDBRANCH   1  15
BRANCH  11  17
HETATM   17  O6  UNL     1      -5.171   0.058  21.603  1.00  0.00    -0.390 OA
ATOM     18  H6  UNL     1      -5.331   0.988  21.708  1.00  0.00     0.210 HD
ENDBRANCH  11  17
TORSDOF 4
ENDMDL
