MODEL 1
REMARK VINA RESULT: -6.135408287      0.000      0.000
REMARK  3 active torsions:
REMARK  status: ('A' for Active; 'I' for Inactive)
REMARK    1  A    between atoms: C5_7  and  N3_8 
REMARK    2  A    between atoms: C9_14  and  C10_15 
REMARK    3  A    between atoms: C10_15  and  O1_16 
ROOT
HETATM    1  C1  UNL     1      -5.977  -2.454  19.864  1.00  0.00     0.310 C 
HETATM    2  N1  UNL     1      -4.909  -1.989  20.685  1.00  0.00     0.086 N 
HETATM    3  C2  UNL     1      -3.913  -1.274  19.869  1.00  0.00     0.293 C 
HETATM    4  C3  UNL     1      -2.633  -1.350  20.702  1.00  0.00     0.144 C 
HETATM    5  C4  UNL     1      -2.141  -2.738  20.529  1.00  0.00     0.068 C 
HETATM    6  N2  UNL     1      -1.769  -3.828  20.403  1.00  0.00    -0.197 NA
HETATM    7  C5  UNL     1      -2.831  -1.009  22.122  1.00  0.00     0.117 C 
HETATM    8  C9  UNL     1      -4.186  -0.635  22.559  1.00  0.00     0.062 C 
HETATM    9  C11 UNL     1      -5.314  -1.071  21.703  1.00  0.00     0.280 C 
ENDROOT
BRANCH   7  10
HETATM   10  N3  UNL     1      -1.896   0.061  22.502  1.00  0.00    -0.345 N 
HETATM   11  C6  UNL     1      -2.192   1.366  22.669  1.00  0.00     0.109 A 
HETATM   12  C7  UNL     1      -1.044   2.055  23.027  1.00  0.00     0.106 A 
HETATM   13  N4  UNL     1      -0.054   1.146  23.072  1.00  0.00    -0.361 N 
HETATM   14  C8  UNL     1      -0.578  -0.066  22.751  1.00  0.00     0.183 A 
ATOM     15  H4  UNL     1       0.921   1.334  23.306  1.00  0.00     0.166 HD
ENDBRANCH   7  10
BRANCH   8  16
HETATM   16  C10 UNL     1      -4.480  -1.120  23.987  1.00  0.00     0.172 C 
BRANCH  16  17
HETATM   17  O1  UNL     1      -4.382  -2.516  24.036  1.00  0.00    -0.400 OA
ATOM     18  H1  UNL     1      -5.248  -2.890  24.149  1.00  0.00     0.209 HD
ENDBRANCH  16  17
ENDBRANCH   8  16
TORSDOF 3
ENDMDL
MODEL 2
REMARK VINA RESULT: -5.896796870      2.054      4.248
REMARK  3 active torsions:
REMARK  status: ('A' for Active; 'I' for Inactive)
REMARK    1  A    between atoms: C5_7  and  N3_8 
REMARK    2  A    between atoms: C9_14  and  C10_15 
REMARK    3  A    between atoms: C10_15  and  O1_16 
ROOT
HETATM    1  C1  UNL     1      -5.797  -0.705  23.729  1.00  0.00     0.310 C 
HETATM    2  N1  UNL     1      -4.996  -0.890  22.565  1.00  0.00     0.086 N 
HETATM    3  C2  UNL     1      -3.629  -1.285  22.944  1.00  0.00     0.293 C 
HETATM    4  C3  UNL     1      -2.783  -0.893  21.732  1.00  0.00     0.144 C 
HETATM    5  C4  UNL     1      -2.645   0.581  21.818  1.00  0.00     0.068 C 
HETATM    6  N2  UNL     1      -2.553   1.733  21.880  1.00  0.00    -0.197 NA
HETATM    7  C5  UNL     1      -3.362  -1.319  20.446  1.00  0.00     0.117 C 
HETATM    8  C9  UNL     1      -4.636  -2.057  20.473  1.00  0.00     0.062 C 
HETATM    9  C11 UNL     1      -5.471  -1.914  21.689  1.00  0.00     0.280 C 
ENDROOT
BRANCH   7  10
HETATM   10  N3  UNL     1      -2.370  -2.109  19.701  1.00  0.00    -0.345 N 
HETATM   11  C6  UNL     1      -2.431  -2.456  18.400  1.00  0.00     0.109 A 
HETATM   12  C7  UNL     1      -1.309  -3.199  18.070  1.00  0.00     0.106 A 
HETATM   13  N4  UNL     1      -0.573  -3.295  19.192  1.00  0.00    -0.361 N 
HETATM   14  C8  UNL     1      -1.224  -2.630  20.182  1.00  0.00     0.183 A 
ATOM     15  H4  UNL     1       0.318  -3.782  19.283  1.00  0.00     0.166 HD
ENDBRANCH   7  10
BRANCH   8  16
HETATM   16  C10 UNL     1      -5.522  -1.713  19.265  1.00  0.00     0.172 C 
BRANCH  16  17
HETATM   17  O1  UNL     1      -6.225  -0.530  19.523  1.00  0.00    -0.400 OA
ATOM     18  H1  UNL     1      -7.157  -0.692  19.443  1.00  0.00     0.209 HD
ENDBRANCH  16  17
ENDBRANCH   8  16
TORSDOF 3
ENDMDL
MODEL 3
REMARK VINA RESULT: -5.722037092      2.274      3.869
REMARK  3 active torsions:
REMARK  status: ('A' for Active; 'I' for Inactive)
REMARK    1  A    between atoms: C5_7  and  N3_8 
REMARK    2  A    between atoms: C9_14  and  C10_15 
REMARK    3  A    between atoms: C10_15  and  O1_16 
ROOT
HETATM    1  C1  UNL     1      -2.564  -2.397  19.133  1.00  0.00     0.310 C 
HETATM    2  N1  UNL     1      -3.022  -1.706  20.292  1.00  0.00     0.086 N 
HETATM    3  C2  UNL     1      -3.935  -2.562  21.068  1.00  0.00     0.293 C 
HETATM    4  C3  UNL     1      -4.759  -1.570  21.890  1.00  0.00     0.144 C 
HETATM    5  C4  UNL     1      -5.728  -0.985  20.932  1.00  0.00     0.068 C 
HETATM    6  N2  UNL     1      -6.471  -0.518  20.176  1.00  0.00    -0.197 NA
HETATM    7  C5  UNL     1      -3.947  -0.537  22.555  1.00  0.00     0.117 C 
HETATM    8  C9  UNL     1      -2.487  -0.581  22.369  1.00  0.00     0.062 C 
HETATM    9  C11 UNL     1      -1.980  -1.327  21.194  1.00  0.00     0.280 C 
ENDROOT
BRANCH   7  10
HETATM   10  N3  UNL     1      -4.244  -0.534  23.996  1.00  0.00    -0.345 N 
HETATM   11  C6  UNL     1      -4.496  -1.610  24.767  1.00  0.00     0.109 A 
HETATM   12  C7  UNL     1      -4.728  -1.197  26.069  1.00  0.00     0.106 A 
HETATM   13  N4  UNL     1      -4.613   0.142  26.069  1.00  0.00    -0.361 N 
HETATM   14  C8  UNL     1      -4.318   0.542  24.804  1.00  0.00     0.183 A 
ATOM     15  H4  UNL     1      -4.727   0.753  26.879  1.00  0.00     0.166 HD
ENDBRANCH   7  10
BRANCH   8  16
HETATM   16  C10 UNL     1      -1.874   0.827  22.319  1.00  0.00     0.172 C 
BRANCH  16  17
HETATM   17  O1  UNL     1      -2.704   1.670  21.568  1.00  0.00    -0.400 OA
ATOM     18  H1  UNL     1      -3.332   2.090  22.144  1.00  0.00     0.209 HD
ENDBRANCH  16  17
ENDBRANCH   8  16
TORSDOF 3
ENDMDL
MODEL 4
REMARK VINA RESULT: -5.711632083      1.876      4.392
REMARK  3 active torsions:
REMARK  status: ('A' for Active; 'I' for Inactive)
REMARK    1  A    between atoms: C5_7  and  N3_8 
REMARK    2  A    between atoms: C9_14  and  C10_15 
REMARK    3  A    between atoms: C10_15  and  O1_16 
ROOT
HETATM    1  C1  UNL     1      -3.747   0.404  25.929  1.00  0.00     0.310 C 
HETATM    2  N1  UNL     1      -3.588   0.148  24.535  1.00  0.00     0.086 N 
HETATM    3  C2  UNL     1      -2.242  -0.386  24.266  1.00  0.00     0.293 C 
HETATM    4  C3  UNL     1      -2.012  -0.071  22.787  1.00  0.00     0.144 C 
HETATM    5  C4  UNL     1      -1.713   1.381  22.743  1.00  0.00     0.068 C 
HETATM    6  N2  UNL     1      -1.496   2.518  22.711  1.00  0.00    -0.197 NA
HETATM    7  C5  UNL     1      -3.151  -0.426  21.923  1.00  0.00     0.117 C 
HETATM    8  C9  UNL     1      -4.334  -1.033  22.557  1.00  0.00     0.062 C 
HETATM    9  C11 UNL     1      -4.504  -0.817  24.013  1.00  0.00     0.280 C 
ENDROOT
BRANCH   7  10
HETATM   10  N3  UNL     1      -2.687  -1.307  20.840  1.00  0.00    -0.345 N 
HETATM   11  C6  UNL     1      -1.520  -1.979  20.795  1.00  0.00     0.109 A 
HETATM   12  C7  UNL     1      -1.451  -2.699  19.612  1.00  0.00     0.106 A 
HETATM   13  N4  UNL     1      -2.592  -2.448  18.947  1.00  0.00    -0.361 N 
HETATM   14  C8  UNL     1      -3.342  -1.600  19.699  1.00  0.00     0.183 A 
ATOM     15  H4  UNL     1      -2.851  -2.829  18.037  1.00  0.00     0.166 HD
ENDBRANCH   7  10
BRANCH   8  16
HETATM   16  C10 UNL     1      -5.638  -0.592  21.872  1.00  0.00     0.172 C 
BRANCH  16  17
HETATM   17  O1  UNL     1      -5.750   0.802  21.935  1.00  0.00    -0.400 OA
ATOM     18  H1  UNL     1      -5.247   1.127  22.672  1.00  0.00     0.209 HD
ENDBRANCH  16  17
ENDBRANCH   8  16
TORSDOF 3
ENDMDL
MODEL 5
REMARK VINA RESULT: -5.621870043      2.991      5.171
REMARK  3 active torsions:
REMARK  status: ('A' for Active; 'I' for Inactive)
REMARK    1  A    between atoms: C5_7  and  N3_8 
REMARK    2  A    between atoms: C9_14  and  C10_15 
REMARK    3  A    between atoms: C10_15  and  O1_16 
ROOT
HETATM    1  C1  UNL     1      -1.192   1.639  23.158  1.00  0.00     0.310 C 
HETATM    2  N1  UNL     1      -2.411   1.027  23.571  1.00  0.00     0.086 N 
HETATM    3  C2  UNL     1      -2.293  -0.439  23.507  1.00  0.00     0.293 C 
HETATM    4  C3  UNL     1      -3.741  -0.920  23.402  1.00  0.00     0.144 C 
HETATM    5  C4  UNL     1      -4.140  -0.644  22.001  1.00  0.00     0.068 C 
HETATM    6  N2  UNL     1      -4.452  -0.412  20.911  1.00  0.00    -0.197 NA
HETATM    7  C5  UNL     1      -4.647  -0.278  24.370  1.00  0.00     0.117 C 
HETATM    8  C9  UNL     1      -4.075   0.708  25.302  1.00  0.00     0.062 C 
HETATM    9  C11 UNL     1      -2.787   1.331  24.916  1.00  0.00     0.280 C 
ENDROOT
BRANCH   7  10
HETATM   10  N3  UNL     1      -5.348  -1.314  25.145  1.00  0.00    -0.345 N 
HETATM   11  C6  UNL     1      -6.557  -1.844  24.870  1.00  0.00     0.109 A 
HETATM   12  C7  UNL     1      -6.873  -2.790  25.833  1.00  0.00     0.106 A 
HETATM   13  N4  UNL     1      -5.837  -2.820  26.690  1.00  0.00    -0.361 N 
HETATM   14  C8  UNL     1      -4.912  -1.920  26.267  1.00  0.00     0.183 A 
ATOM     15  H4  UNL     1      -5.760  -3.415  27.515  1.00  0.00     0.166 HD
ENDBRANCH   7  10
BRANCH   8  16
HETATM   16  C10 UNL     1      -5.062   1.846  25.607  1.00  0.00     0.172 C 
BRANCH  16  17
HETATM   17  O1  UNL     1      -4.980   2.817  24.602  1.00  0.00    -0.400 OA
ATOM     18  H1  UNL     1      -4.082   2.887  24.302  1.00  0.00     0.209 HD
ENDBRANCH  16  17
ENDBRANCH   8  16
TORSDOF 3
ENDMDL
