MODEL 1
REMARK VINA RESULT: -5.780485654      0.000      0.000
REMARK  4 active torsions:
REMARK  status: ('A' for Active; 'I' for Inactive)
REMARK    1  A    between atoms: O1_2  and  C2_3 
REMARK    2  A    between atoms: C4_6  and  O3_7 
REMARK    3  A    between atoms: C5_9  and  O4_10 
REMARK    4  A    between atoms: C8_15  and  O6_16 
ROOT
HETATM    1  C2  UNL     1      -3.936  -0.969  22.369  1.00  0.00     0.290 C 
HETATM    2  O2  UNL     1      -2.589  -1.105  22.595  1.00  0.00    -0.356 OA
HETATM    3  C3  UNL     1      -1.804  -0.069  22.213  1.00  0.00     0.207 C 
HETATM    4  C4  UNL     1      -0.910   0.279  23.414  1.00  0.00     0.197 C 
HETATM    5  C5  UNL     1      -1.692   1.296  24.235  1.00  0.00     0.288 C 
HETATM    6  O5  UNL     1      -2.831   1.707  23.622  1.00  0.00    -0.351 OA
HETATM    7  C6  UNL     1      -3.976   1.024  23.903  1.00  0.00     0.154 C 
HETATM    8  C7  UNL     1      -3.898   0.085  25.066  1.00  0.00     0.042 C 
HETATM    9  C8  UNL     1      -4.490   0.390  22.642  1.00  0.00     0.204 C 
ENDROOT
BRANCH   1  10
HETATM   10  O1  UNL     1      -4.584  -1.953  23.103  1.00  0.00    -0.363 OA
HETATM   11  C1  UNL     1      -4.980  -2.959  22.253  1.00  0.00     0.204 C 
ENDBRANCH   1  10
BRANCH   9  12
HETATM   12  O6  UNL     1      -5.882   0.249  22.796  1.00  0.00    -0.383 OA
HETATM   13  C9  UNL     1      -6.529   1.462  22.574  1.00  0.00     0.202 C 
ENDBRANCH   9  12
BRANCH   4  14
HETATM   14  O3  UNL     1       0.289   0.770  22.958  1.00  0.00    -0.389 OA
ATOM     15  H3  UNL     1       0.454   1.615  23.359  1.00  0.00     0.210 HD
ENDBRANCH   4  14
BRANCH   5  16
HETATM   16  O4  UNL     1      -0.848   2.413  24.365  1.00  0.00    -0.369 OA
ATOM     17  H4  UNL     1      -1.336   3.148  24.012  1.00  0.00     0.212 HD
ENDBRANCH   5  16
TORSDOF 4
ENDMDL
MODEL 2
REMARK VINA RESULT: -5.557930549      2.490      4.167
REMARK  4 active torsions:
REMARK  status: ('A' for Active; 'I' for Inactive)
REMARK    1  A    between atoms: O1_2  and  C2_3 
REMARK    2  A    between atoms: C4_6  and  O3_7 
REMARK    3  A    between atoms: C5_9  and  O4_10 
REMARK    4  A    between atoms: C8_15  and  O6_16 
ROOT
HETATM    1  C2  UNL     1      -5.133  -0.255  22.305  1.00  0.00     0.290 C 
HETATM    2  O2  UNL     1      -3.998  -0.106  21.547  1.00  0.00    -0.356 OA
HETATM    3  C3  UNL     1      -2.913  -0.817  21.937  1.00  0.00     0.207 C 
HETATM    4  C4  UNL     1      -2.389  -1.550  20.692  1.00  0.00     0.197 C 
HETATM    5  C5  UNL     1      -3.130  -2.880  20.649  1.00  0.00     0.288 C 
HETATM    6  O5  UNL     1      -3.886  -3.100  21.754  1.00  0.00    -0.351 OA
HETATM    7  C6  UNL     1      -5.188  -2.699  21.713  1.00  0.00     0.154 C 
HETATM    8  C7  UNL     1      -5.704  -2.323  20.359  1.00  0.00     0.042 C 
HETATM    9  C8  UNL     1      -5.410  -1.648  22.762  1.00  0.00     0.204 C 
ENDROOT
BRANCH   1  10
HETATM   10  O1  UNL     1      -6.192   0.276  21.580  1.00  0.00    -0.363 OA
HETATM   11  C1  UNL     1      -6.617   1.432  22.189  1.00  0.00     0.204 C 
ENDBRANCH   1  10
BRANCH   9  12
HETATM   12  O6  UNL     1      -6.771  -1.708  23.116  1.00  0.00    -0.383 OA
HETATM   13  C9  UNL     1      -6.959  -2.531  24.223  1.00  0.00     0.202 C 
ENDBRANCH   9  12
BRANCH   4  14
HETATM   14  O3  UNL     1      -1.027  -1.699  20.794  1.00  0.00    -0.389 OA
ATOM     15  H3  UNL     1      -0.795  -1.833  21.705  1.00  0.00     0.210 HD
ENDBRANCH   4  14
BRANCH   5  16
HETATM   16  O4  UNL     1      -2.133  -3.872  20.608  1.00  0.00    -0.369 OA
ATOM     17  H4  UNL     1      -2.576  -4.692  20.792  1.00  0.00     0.212 HD
ENDBRANCH   5  16
TORSDOF 4
ENDMDL
MODEL 3
REMARK VINA RESULT: -5.513224074      1.549      3.284
REMARK  4 active torsions:
REMARK  status: ('A' for Active; 'I' for Inactive)
REMARK    1  A    between atoms: O1_2  and  C2_3 
REMARK    2  A    between atoms: C4_6  and  O3_7 
REMARK    3  A    between atoms: C5_9  and  O4_10 
REMARK    4  A    between atoms: C8_15  and  O6_16 
ROOT
HETATM    1  C2  UNL     1      -3.711   0.250  25.435  1.00  0.00     0.290 C 
HETATM    2  O2  UNL     1      -2.531   0.805  25.006  1.00  0.00    -0.356 OA
HETATM    3  C3  UNL     1      -1.567  -0.058  24.606  1.00  0.00     0.207 C 
HETATM    4  C4  UNL     1      -1.084   0.422  23.228  1.00  0.00     0.197 C 
HETATM    5  C5  UNL     1      -1.987  -0.259  22.208  1.00  0.00     0.288 C 
HETATM    6  O5  UNL     1      -2.818  -1.176  22.766  1.00  0.00    -0.351 OA
HETATM    7  C6  UNL     1      -4.053  -0.749  23.152  1.00  0.00     0.154 C 
HETATM    8  C7  UNL     1      -4.451   0.607  22.657  1.00  0.00     0.042 C 
HETATM    9  C8  UNL     1      -4.189  -0.918  24.638  1.00  0.00     0.204 C 
ENDROOT
BRANCH   1  10
HETATM   10  O1  UNL     1      -4.657   1.266  25.487  1.00  0.00    -0.363 OA
HETATM   11  C1  UNL     1      -4.667   1.804  26.751  1.00  0.00     0.204 C 
ENDBRANCH   1  10
BRANCH   9  12
HETATM   12  O6  UNL     1      -5.561  -1.074  24.906  1.00  0.00    -0.383 OA
HETATM   13  C9  UNL     1      -6.032  -2.279  24.393  1.00  0.00     0.202 C 
ENDBRANCH   9  12
BRANCH   4  14
HETATM   14  O3  UNL     1       0.241   0.092  23.074  1.00  0.00    -0.389 OA
ATOM     15  H3  UNL     1       0.374  -0.273  22.206  1.00  0.00     0.210 HD
ENDBRANCH   4  14
BRANCH   5  16
HETATM   16  O4  UNL     1      -1.126  -0.941  21.330  1.00  0.00    -0.369 OA
ATOM     17  H4  UNL     1      -1.388  -1.853  21.367  1.00  0.00     0.212 HD
ENDBRANCH   5  16
TORSDOF 4
ENDMDL
MODEL 4
REMARK VINA RESULT: -5.484781561      2.040      3.904
REMARK  4 active torsions:
REMARK  status: ('A' for Active; 'I' for Inactive)
REMARK    1  A    between atoms: O1_2  and  C2_3 
REMARK    2  A    between atoms: C4_6  and  O3_7 
REMARK    3  A    between atoms: C5_9  and  O4_10 
REMARK    4  A    between atoms: C8_15  and  O6_16 
ROOT
HETATM    1  C2  UNL     1      -6.125  -0.600  21.656  1.00  0.00     0.290 C 
HETATM    2  O2  UNL     1      -5.114   0.327  21.709  1.00  0.00    -0.356 OA
HETATM    3  C3  UNL     1      -4.075   0.043  22.530  1.00  0.00     0.207 C 
HETATM    4  C4  UNL     1      -2.792   0.230  21.706  1.00  0.00     0.197 C 
HETATM    5  C5  UNL     1      -2.519  -1.116  21.048  1.00  0.00     0.288 C 
HETATM    6  O5  UNL     1      -3.353  -2.095  21.479  1.00  0.00    -0.351 OA
HETATM    7  C6  UNL     1      -4.499  -2.300  20.769  1.00  0.00     0.154 C 
HETATM    8  C7  UNL     1      -4.564  -1.618  19.439  1.00  0.00     0.042 C 
HETATM    9  C8  UNL     1      -5.680  -2.024  21.654  1.00  0.00     0.204 C 
ENDROOT
BRANCH   1  10
HETATM   10  O1  UNL     1      -6.911  -0.299  20.550  1.00  0.00    -0.363 OA
HETATM   11  C1  UNL     1      -7.962   0.492  20.949  1.00  0.00     0.204 C 
ENDBRANCH   1  10
BRANCH   9  12
HETATM   12  O6  UNL     1      -6.748  -2.795  21.160  1.00  0.00    -0.383 OA
HETATM   13  C9  UNL     1      -7.524  -3.292  22.203  1.00  0.00     0.202 C 
ENDBRANCH   9  12
BRANCH   4  14
HETATM   14  O3  UNL     1      -1.776   0.634  22.538  1.00  0.00    -0.389 OA
ATOM     15  H3  UNL     1      -2.146   1.089  23.285  1.00  0.00     0.210 HD
ENDBRANCH   4  14
BRANCH   5  16
HETATM   16  O4  UNL     1      -1.211  -1.469  21.427  1.00  0.00    -0.369 OA
ATOM     17  H4  UNL     1      -1.307  -2.159  22.073  1.00  0.00     0.212 HD
ENDBRANCH   5  16
TORSDOF 4
ENDMDL
MODEL 5
REMARK VINA RESULT: -5.427601274      1.994      2.760
REMARK  4 active torsions:
REMARK  status: ('A' for Active; 'I' for Inactive)
REMARK    1  A    between atoms: O1_2  and  C2_3 
REMARK    2  A    between atoms: C4_6  and  O3_7 
REMARK    3  A    between atoms: C5_9  and  O4_10 
REMARK    4  A    between atoms: C8_15  and  O6_16 
ROOT
HETATM    1  C2  UNL     1      -2.651  -1.422  20.887  1.00  0.00     0.290 C 
HETATM    2  O2  UNL     1      -1.968  -0.883  21.949  1.00  0.00    -0.356 OA
HETATM    3  C3  UNL     1      -2.052   0.460  22.104  1.00  0.00     0.207 C 
HETATM    4  C4  UNL     1      -2.440   0.716  23.569  1.00  0.00     0.197 C 
HETATM    5  C5  UNL     1      -3.962   0.710  23.604  1.00  0.00     0.288 C 
HETATM    6  O5  UNL     1      -4.520   0.643  22.369  1.00  0.00    -0.351 OA
HETATM    7  C6  UNL     1      -4.810  -0.595  21.878  1.00  0.00     0.154 C 
HETATM    8  C7  UNL     1      -4.743  -1.714  22.869  1.00  0.00     0.042 C 
HETATM    9  C8  UNL     1      -3.999  -0.832  20.636  1.00  0.00     0.204 C 
ENDROOT
BRANCH   1  10
HETATM   10  O1  UNL     1      -2.713  -2.796  21.083  1.00  0.00    -0.363 OA
HETATM   11  C1  UNL     1      -1.847  -3.412  20.211  1.00  0.00     0.204 C 
ENDBRANCH   1  10
BRANCH   9  12
HETATM   12  O6  UNL     1      -4.718  -1.752  19.851  1.00  0.00    -0.383 OA
HETATM   13  C9  UNL     1      -5.970  -1.243  19.515  1.00  0.00     0.202 C 
ENDBRANCH   9  12
BRANCH   4  14
HETATM   14  O3  UNL     1      -1.900   1.912  23.977  1.00  0.00    -0.389 OA
ATOM     15  H3  UNL     1      -1.967   1.978  24.922  1.00  0.00     0.210 HD
ENDBRANCH   4  14
BRANCH   5  16
HETATM   16  O4  UNL     1      -4.336   1.938  24.178  1.00  0.00    -0.369 OA
ATOM     17  H4  UNL     1      -4.987   1.728  24.837  1.00  0.00     0.212 HD
ENDBRANCH   5  16
TORSDOF 4
ENDMDL
