MODEL 1
REMARK VINA RESULT: -6.770351334      0.000      0.000
REMARK  10 active torsions:
REMARK  status: ('A' for Active; 'I' for Inactive)
REMARK    1  A    between atoms: C2_2  and  C4_4 
REMARK    2  A    between atoms: C5_5  and  O1_6 
REMARK    3  A    between atoms: C6_8  and  O2_9 
REMARK    4  A    between atoms: C7_11  and  O3_12 
REMARK    5  A    between atoms: C9_15  and  N1_16 
REMARK    6  A    between atoms: C11_20  and  C12_21 
REMARK    7  A    between atoms: C12_21  and  O4_22 
REMARK    8  A    between atoms: N3_24  and  O5_26 
REMARK    9  A    between atoms: O5_26  and  C13_27 
REMARK   10  A    between atoms: C13_27  and  C14_28 
ROOT
HETATM    1  C4  UNL     1      -2.076   4.928  12.320  1.00  0.00     0.044 C 
HETATM    2  C5  UNL     1      -0.714   4.754  11.792  1.00  0.00     0.155 C 
HETATM    3  C6  UNL     1      -0.527   4.582  10.337  1.00  0.00     0.176 C 
HETATM    4  C7  UNL     1      -1.494   3.539   9.852  1.00  0.00     0.151 C 
HETATM    5  C8  UNL     1      -2.886   4.050  10.093  1.00  0.00     0.060 C 
HETATM    6  C9  UNL     1      -3.195   4.350  11.519  1.00  0.00     0.099 C 
ENDROOT
BRANCH   6   7
HETATM    7  N1  UNL     1      -3.746   3.135  12.111  1.00  0.00    -0.345 N 
HETATM    8  C10 UNL     1      -4.434   2.202  11.413  1.00  0.00     0.183 A 
HETATM    9  N2  UNL     1      -4.791   1.222  12.260  1.00  0.00    -0.348 N 
HETATM   10  C11 UNL     1      -4.333   1.523  13.500  1.00  0.00     0.102 A 
ATOM     11  H2  UNL     1      -5.321   0.387  12.011  1.00  0.00     0.167 HD
HETATM   12  C15 UNL     1      -3.686   2.715  13.390  1.00  0.00     0.126 A 
BRANCH  10  13
HETATM   13  C12 UNL     1      -4.514   0.714  14.691  1.00  0.00     0.189 C 
HETATM   14  N3  UNL     1      -4.477   1.209  15.876  1.00  0.00    -0.243 N 
ATOM     15  H3  UNL     1      -4.314   2.209  15.991  1.00  0.00     0.196 HD
BRANCH  13  16
HETATM   16  O4  UNL     1      -4.737  -0.646  14.552  1.00  0.00    -0.343 OA
ATOM     17  H4  UNL     1      -5.497  -1.033  14.968  1.00  0.00     0.219 HD
ENDBRANCH  13  16
BRANCH  14  18
HETATM   18  O5  UNL     1      -4.650   0.432  16.989  1.00  0.00    -0.276 OA
BRANCH  18  19
HETATM   19  C13 UNL     1      -5.856   0.417  17.728  1.00  0.00     0.232 C 
BRANCH  19  20
HETATM   20  C14 UNL     1      -6.476   1.787  17.793  1.00  0.00     0.250 C 
HETATM   21  F1  UNL     1      -6.306   2.243  19.103  1.00  0.00    -0.253 F 
ENDBRANCH  19  20
ENDBRANCH  18  19
ENDBRANCH  14  18
ENDBRANCH  10  13
ENDBRANCH   6   7
BRANCH   1  22
HETATM   22  C2  UNL     1      -2.389   6.359  12.730  1.00  0.00    -0.014 C 
HETATM   23  C1  UNL     1      -2.818   6.391  14.199  1.00  0.00     0.010 C 
HETATM   24  C3  UNL     1      -3.507   6.991  11.959  1.00  0.00     0.010 C 
ENDBRANCH   1  22
BRANCH   2  25
HETATM   25  O1  UNL     1       0.083   5.840  12.232  1.00  0.00    -0.392 OA
ATOM     26  H1  UNL     1       0.246   6.415  11.493  1.00  0.00     0.210 HD
ENDBRANCH   2  25
BRANCH   4  27
HETATM   27  O3  UNL     1      -1.315   3.406   8.478  1.00  0.00    -0.393 OA
ATOM     28  H3  UNL     1      -1.559   2.519   8.241  1.00  0.00     0.210 HD
ENDBRANCH   4  27
BRANCH   3  29
HETATM   29  O2  UNL     1      -0.514   5.727   9.573  1.00  0.00    -0.390 OA
ATOM     30  H2  UNL     1      -1.356   6.063   9.289  1.00  0.00     0.210 HD
ENDBRANCH   3  29
TORSDOF 10
ENDMDL
MODEL 2
REMARK VINA RESULT: -6.637282469      1.289      1.490
REMARK  10 active torsions:
REMARK  status: ('A' for Active; 'I' for Inactive)
REMARK    1  A    between atoms: C2_2  and  C4_4 
REMARK    2  A    between atoms: C5_5  and  O1_6 
REMARK    3  A    between atoms: C6_8  and  O2_9 
REMARK    4  A    between atoms: C7_11  and  O3_12 
REMARK    5  A    between atoms: C9_15  and  N1_16 
REMARK    6  A    between atoms: C11_20  and  C12_21 
REMARK    7  A    between atoms: C12_21  and  O4_22 
REMARK    8  A    between atoms: N3_24  and  O5_26 
REMARK    9  A    between atoms: O5_26  and  C13_27 
REMARK   10  A    between atoms: C13_27  and  C14_28 
ROOT
HETATM    1  C4  UNL     1      -3.024   4.854  11.976  1.00  0.00     0.044 C 
HETATM    2  C5  UNL     1      -1.652   5.279  12.295  1.00  0.00     0.155 C 
HETATM    3  C6  UNL     1      -0.550   4.871  11.401  1.00  0.00     0.176 C 
HETATM    4  C7  UNL     1      -0.672   3.396  11.139  1.00  0.00     0.151 C 
HETATM    5  C8  UNL     1      -1.972   3.159  10.424  1.00  0.00     0.060 C 
HETATM    6  C9  UNL     1      -3.179   3.603  11.176  1.00  0.00     0.099 C 
ENDROOT
BRANCH   6   7
HETATM    7  N1  UNL     1      -3.634   2.471  11.978  1.00  0.00    -0.345 N 
HETATM    8  C10 UNL     1      -4.006   1.280  11.456  1.00  0.00     0.183 A 
HETATM    9  N2  UNL     1      -4.364   0.471  12.469  1.00  0.00    -0.348 N 
HETATM   10  C11 UNL     1      -4.223   1.141  13.638  1.00  0.00     0.102 A 
ATOM     11  H2  UNL     1      -4.690  -0.490  12.372  1.00  0.00     0.167 HD
HETATM   12  C15 UNL     1      -3.768   2.383  13.316  1.00  0.00     0.126 A 
BRANCH  10  13
HETATM   13  C12 UNL     1      -4.508   0.612  14.959  1.00  0.00     0.189 C 
HETATM   14  N3  UNL     1      -4.525   1.350  16.011  1.00  0.00    -0.243 N 
ATOM     15  H3  UNL     1      -4.330   2.346  15.922  1.00  0.00     0.196 HD
BRANCH  13  16
HETATM   16  O4  UNL     1      -4.776  -0.740  15.098  1.00  0.00    -0.343 OA
ATOM     17  H4  UNL     1      -5.555  -1.009  15.570  1.00  0.00     0.219 HD
ENDBRANCH  13  16
BRANCH  14  18
HETATM   18  O5  UNL     1      -4.796   0.834  17.250  1.00  0.00    -0.276 OA
BRANCH  18  19
HETATM   19  C13 UNL     1      -5.933   1.216  18.001  1.00  0.00     0.232 C 
BRANCH  19  20
HETATM   20  C14 UNL     1      -7.022   1.755  17.112  1.00  0.00     0.250 C 
HETATM   21  F1  UNL     1      -7.807   0.664  16.731  1.00  0.00    -0.253 F 
ENDBRANCH  19  20
ENDBRANCH  18  19
ENDBRANCH  14  18
ENDBRANCH  10  13
ENDBRANCH   6   7
BRANCH   1  22
HETATM   22  C2  UNL     1      -3.889   5.969  11.408  1.00  0.00    -0.014 C 
HETATM   23  C1  UNL     1      -5.113   6.176  12.301  1.00  0.00     0.010 C 
HETATM   24  C3  UNL     1      -4.420   5.697  10.034  1.00  0.00     0.010 C 
ENDBRANCH   1  22
BRANCH   2  25
HETATM   25  O1  UNL     1      -1.637   6.691  12.426  1.00  0.00    -0.392 OA
ATOM     26  H1  UNL     1      -0.916   7.035  11.912  1.00  0.00     0.210 HD
ENDBRANCH   2  25
BRANCH   4  27
HETATM   27  O3  UNL     1       0.364   3.035  10.281  1.00  0.00    -0.393 OA
ATOM     28  H3  UNL     1      -0.021   2.828   9.437  1.00  0.00     0.210 HD
ENDBRANCH   4  27
BRANCH   3  29
HETATM   29  O2  UNL     1      -0.359   5.624  10.266  1.00  0.00    -0.390 OA
ATOM     30  H2  UNL     1      -1.138   5.899   9.797  1.00  0.00     0.210 HD
ENDBRANCH   3  29
TORSDOF 10
ENDMDL
MODEL 3
REMARK VINA RESULT: -6.372701649      1.132      1.276
REMARK  10 active torsions:
REMARK  status: ('A' for Active; 'I' for Inactive)
REMARK    1  A    between atoms: C2_2  and  C4_4 
REMARK    2  A    between atoms: C5_5  and  O1_6 
REMARK    3  A    between atoms: C6_8  and  O2_9 
REMARK    4  A    between atoms: C7_11  and  O3_12 
REMARK    5  A    between atoms: C9_15  and  N1_16 
REMARK    6  A    between atoms: C11_20  and  C12_21 
REMARK    7  A    between atoms: C12_21  and  O4_22 
REMARK    8  A    between atoms: N3_24  and  O5_26 
REMARK    9  A    between atoms: O5_26  and  C13_27 
REMARK   10  A    between atoms: C13_27  and  C14_28 
ROOT
HETATM    1  C4  UNL     1      -2.056   5.274  11.798  1.00  0.00     0.044 C 
HETATM    2  C5  UNL     1      -1.374   5.334  10.496  1.00  0.00     0.155 C 
HETATM    3  C6  UNL     1      -2.186   5.447   9.267  1.00  0.00     0.176 C 
HETATM    4  C7  UNL     1      -3.280   4.418   9.323  1.00  0.00     0.151 C 
HETATM    5  C8  UNL     1      -4.157   4.737  10.500  1.00  0.00     0.060 C 
HETATM    6  C9  UNL     1      -3.451   4.743  11.812  1.00  0.00     0.099 C 
ENDROOT
BRANCH   6   7
HETATM    7  N1  UNL     1      -3.536   3.392  12.358  1.00  0.00    -0.345 N 
HETATM    8  C10 UNL     1      -3.077   2.291  11.720  1.00  0.00     0.183 A 
HETATM    9  N2  UNL     1      -3.314   1.223  12.502  1.00  0.00    -0.348 N 
HETATM   10  C11 UNL     1      -3.923   1.636  13.639  1.00  0.00     0.102 A 
ATOM     11  H2  UNL     1      -3.074   0.258  12.275  1.00  0.00     0.167 HD
HETATM   12  C15 UNL     1      -4.054   2.987  13.535  1.00  0.00     0.126 A 
BRANCH  10  13
HETATM   13  C12 UNL     1      -4.343   0.784  14.736  1.00  0.00     0.189 C 
HETATM   14  N3  UNL     1      -4.325   1.171  15.961  1.00  0.00    -0.243 N 
ATOM     15  H3  UNL     1      -4.004   2.115  16.178  1.00  0.00     0.196 HD
BRANCH  13  16
HETATM   16  O4  UNL     1      -4.781  -0.501  14.458  1.00  0.00    -0.343 OA
ATOM     17  H4  UNL     1      -4.321  -1.014  13.805  1.00  0.00     0.219 HD
ENDBRANCH  13  16
BRANCH  14  18
HETATM   18  O5  UNL     1      -4.724   0.353  16.983  1.00  0.00    -0.276 OA
BRANCH  18  19
HETATM   19  C13 UNL     1      -6.032   0.390  17.521  1.00  0.00     0.232 C 
BRANCH  19  20
HETATM   20  C14 UNL     1      -6.513   1.805  17.697  1.00  0.00     0.250 C 
HETATM   21  F1  UNL     1      -6.233   2.163  19.019  1.00  0.00    -0.253 F 
ENDBRANCH  19  20
ENDBRANCH  18  19
ENDBRANCH  14  18
ENDBRANCH  10  13
ENDBRANCH   6   7
BRANCH   1  22
HETATM   22  C2  UNL     1      -1.964   6.569  12.591  1.00  0.00    -0.014 C 
HETATM   23  C1  UNL     1      -1.979   6.258  14.088  1.00  0.00     0.010 C 
HETATM   24  C3  UNL     1      -3.098   7.519  12.354  1.00  0.00     0.010 C 
ENDBRANCH   1  22
BRANCH   2  25
HETATM   25  O1  UNL     1      -0.436   6.396  10.526  1.00  0.00    -0.392 OA
ATOM     26  H1  UNL     1      -0.768   7.108   9.991  1.00  0.00     0.210 HD
ENDBRANCH   2  25
BRANCH   4  27
HETATM   27  O3  UNL     1      -4.044   4.554   8.166  1.00  0.00    -0.393 OA
ATOM     28  H3  UNL     1      -3.611   5.190   7.609  1.00  0.00     0.210 HD
ENDBRANCH   4  27
BRANCH   3  29
HETATM   29  O2  UNL     1      -2.623   6.707   8.926  1.00  0.00    -0.390 OA
ATOM     30  H2  UNL     1      -2.774   7.316   9.639  1.00  0.00     0.210 HD
ENDBRANCH   3  29
TORSDOF 10
ENDMDL
MODEL 4
REMARK VINA RESULT: -6.348758876      3.935      7.203
REMARK  10 active torsions:
REMARK  status: ('A' for Active; 'I' for Inactive)
REMARK    1  A    between atoms: C2_2  and  C4_4 
REMARK    2  A    between atoms: C5_5  and  O1_6 
REMARK    3  A    between atoms: C6_8  and  O2_9 
REMARK    4  A    between atoms: C7_11  and  O3_12 
REMARK    5  A    between atoms: C9_15  and  N1_16 
REMARK    6  A    between atoms: C11_20  and  C12_21 
REMARK    7  A    between atoms: C12_21  and  O4_22 
REMARK    8  A    between atoms: N3_24  and  O5_26 
REMARK    9  A    between atoms: O5_26  and  C13_27 
REMARK   10  A    between atoms: C13_27  and  C14_28 
ROOT
HETATM    1  C4  UNL     1      -3.175   1.704  12.192  1.00  0.00     0.044 C 
HETATM    2  C5  UNL     1      -3.585   2.237  13.501  1.00  0.00     0.155 C 
HETATM    3  C6  UNL     1      -4.574   3.332  13.550  1.00  0.00     0.176 C 
HETATM    4  C7  UNL     1      -4.154   4.398  12.576  1.00  0.00     0.151 C 
HETATM    5  C8  UNL     1      -4.178   3.801  11.198  1.00  0.00     0.060 C 
HETATM    6  C9  UNL     1      -3.284   2.623  11.020  1.00  0.00     0.099 C 
ENDROOT
BRANCH   6   7
HETATM    7  N1  UNL     1      -1.987   3.124  10.572  1.00  0.00    -0.345 N 
HETATM    8  C10 UNL     1      -1.813   3.873   9.459  1.00  0.00     0.183 A 
HETATM    9  N2  UNL     1      -0.505   4.160   9.347  1.00  0.00    -0.348 N 
HETATM   10  C11 UNL     1       0.161   3.597  10.384  1.00  0.00     0.102 A 
ATOM     11  H2  UNL     1      -0.081   4.712   8.601  1.00  0.00     0.167 HD
HETATM   12  C15 UNL     1      -0.775   2.956  11.136  1.00  0.00     0.126 A 
BRANCH  10  13
HETATM   13  C12 UNL     1       1.590   3.677  10.620  1.00  0.00     0.189 C 
HETATM   14  N3  UNL     1       2.087   4.152  11.705  1.00  0.00    -0.243 N 
ATOM     15  H3  UNL     1       1.458   4.488  12.434  1.00  0.00     0.196 HD
BRANCH  13  16
HETATM   16  O4  UNL     1       2.459   3.225   9.640  1.00  0.00    -0.343 OA
ATOM     17  H4  UNL     1       3.319   2.913   9.895  1.00  0.00     0.219 HD
ENDBRANCH  13  16
BRANCH  14  18
HETATM   18  O5  UNL     1       3.439   4.221  11.911  1.00  0.00    -0.276 OA
BRANCH  18  19
HETATM   19  C13 UNL     1       4.170   5.424  11.770  1.00  0.00     0.232 C 
BRANCH  19  20
HETATM   20  C14 UNL     1       3.962   6.333  12.952  1.00  0.00     0.250 C 
HETATM   21  F1  UNL     1       4.306   5.598  14.090  1.00  0.00    -0.253 F 
ENDBRANCH  19  20
ENDBRANCH  18  19
ENDBRANCH  14  18
ENDBRANCH  10  13
ENDBRANCH   6   7
BRANCH   1  22
HETATM   22  C2  UNL     1      -3.783   0.347  11.872  1.00  0.00    -0.014 C 
HETATM   23  C1  UNL     1      -2.747  -0.526  11.163  1.00  0.00     0.010 C 
HETATM   24  C3  UNL     1      -4.971   0.404  10.960  1.00  0.00     0.010 C 
ENDBRANCH   1  22
BRANCH   2  25
HETATM   25  O1  UNL     1      -4.050   1.162  14.299  1.00  0.00    -0.392 OA
ATOM     26  H1  UNL     1      -4.791   0.759  13.861  1.00  0.00     0.210 HD
ENDBRANCH   2  25
BRANCH   4  27
HETATM   27  O3  UNL     1      -5.108   5.411  12.624  1.00  0.00    -0.393 OA
ATOM     28  H3  UNL     1      -4.645   6.241  12.622  1.00  0.00     0.210 HD
ENDBRANCH   4  27
BRANCH   3  29
HETATM   29  O2  UNL     1      -5.900   2.978  13.448  1.00  0.00    -0.390 OA
ATOM     30  H2  UNL     1      -6.540   3.664  13.594  1.00  0.00     0.210 HD
ENDBRANCH   3  29
TORSDOF 10
ENDMDL
MODEL 5
REMARK VINA RESULT: -6.336240260      1.830      2.967
REMARK  10 active torsions:
REMARK  status: ('A' for Active; 'I' for Inactive)
REMARK    1  A    between atoms: C2_2  and  C4_4 
REMARK    2  A    between atoms: C5_5  and  O1_6 
REMARK    3  A    between atoms: C6_8  and  O2_9 
REMARK    4  A    between atoms: C7_11  and  O3_12 
REMARK    5  A    between atoms: C9_15  and  N1_16 
REMARK    6  A    between atoms: C11_20  and  C12_21 
REMARK    7  A    between atoms: C12_21  and  O4_22 
REMARK    8  A    between atoms: N3_24  and  O5_26 
REMARK    9  A    between atoms: O5_26  and  C13_27 
REMARK   10  A    between atoms: C13_27  and  C14_28 
ROOT
HETATM    1  C4  UNL     1      -2.625   3.897  10.270  1.00  0.00     0.044 C 
HETATM    2  C5  UNL     1      -3.607   4.445   9.321  1.00  0.00     0.155 C 
HETATM    3  C6  UNL     1      -4.444   5.588   9.737  1.00  0.00     0.176 C 
HETATM    4  C7  UNL     1      -5.027   5.283  11.089  1.00  0.00     0.151 C 
HETATM    5  C8  UNL     1      -3.891   5.150  12.063  1.00  0.00     0.060 C 
HETATM    6  C9  UNL     1      -2.909   4.083  11.724  1.00  0.00     0.099 C 
ENDROOT
BRANCH   6   7
HETATM    7  N1  UNL     1      -3.358   2.855  12.375  1.00  0.00    -0.345 N 
HETATM    8  C10 UNL     1      -3.524   1.678  11.729  1.00  0.00     0.183 A 
HETATM    9  N2  UNL     1      -3.942   0.765  12.622  1.00  0.00    -0.348 N 
HETATM   10  C11 UNL     1      -4.043   1.353  13.839  1.00  0.00     0.102 A 
ATOM     11  H2  UNL     1      -4.149  -0.212  12.417  1.00  0.00     0.167 HD
HETATM   12  C15 UNL     1      -3.677   2.652  13.668  1.00  0.00     0.126 A 
BRANCH  10  13
HETATM   13  C12 UNL     1      -4.463   0.700  15.064  1.00  0.00     0.189 C 
HETATM   14  N3  UNL     1      -4.513   1.311  16.193  1.00  0.00    -0.243 N 
ATOM     15  H3  UNL     1      -4.247   2.295  16.236  1.00  0.00     0.196 HD
BRANCH  13  16
HETATM   16  O4  UNL     1      -4.828  -0.636  15.023  1.00  0.00    -0.343 OA
ATOM     17  H4  UNL     1      -4.645  -1.187  15.775  1.00  0.00     0.219 HD
ENDBRANCH  13  16
BRANCH  14  18
HETATM   18  O5  UNL     1      -4.912   0.680  17.340  1.00  0.00    -0.276 OA
BRANCH  18  19
HETATM   19  C13 UNL     1      -6.023   1.114  18.102  1.00  0.00     0.232 C 
BRANCH  19  20
HETATM   20  C14 UNL     1      -7.082   1.727  17.225  1.00  0.00     0.250 C 
HETATM   21  F1  UNL     1      -7.865   0.674  16.745  1.00  0.00    -0.253 F 
ENDBRANCH  19  20
ENDBRANCH  18  19
ENDBRANCH  14  18
ENDBRANCH  10  13
ENDBRANCH   6   7
BRANCH   1  22
HETATM   22  C2  UNL     1      -1.189   4.280   9.947  1.00  0.00    -0.014 C 
HETATM   23  C1  UNL     1      -0.258   3.113  10.284  1.00  0.00     0.010 C 
HETATM   24  C3  UNL     1      -0.676   5.456  10.721  1.00  0.00     0.010 C 
ENDBRANCH   1  22
BRANCH   2  25
HETATM   25  O1  UNL     1      -2.932   4.784   8.121  1.00  0.00    -0.392 OA
ATOM     26  H1  UNL     1      -2.841   5.729   8.082  1.00  0.00     0.210 HD
ENDBRANCH   2  25
BRANCH   4  27
HETATM   27  O3  UNL     1      -5.797   6.379  11.472  1.00  0.00    -0.393 OA
ATOM     28  H3  UNL     1      -6.619   6.332  10.997  1.00  0.00     0.210 HD
ENDBRANCH   4  27
BRANCH   3  29
HETATM   29  O2  UNL     1      -3.880   6.839   9.644  1.00  0.00    -0.390 OA
ATOM     30  H2  UNL     1      -4.389   7.566   9.984  1.00  0.00     0.210 HD
ENDBRANCH   3  29
TORSDOF 10
ENDMDL
