MODEL 1
REMARK VINA RESULT: -6.986963237      0.000      0.000
REMARK  9 active torsions:
REMARK  status: ('A' for Active; 'I' for Inactive)
REMARK    1  A    between atoms: N1_1  and  C1_4 
REMARK    2  A    between atoms: N2_9  and  C4_10 
REMARK    3  A    between atoms: C5_12  and  C6_13 
REMARK    4  A    between atoms: C6_13  and  S2_14 
REMARK    5  A    between atoms: S2_14  and  C7_15 
REMARK    6  A    between atoms: C7_15  and  C8_16 
REMARK    7  A    between atoms: C8_16  and  C9_17 
REMARK    8  A    between atoms: C10_20  and  O4_21 
REMARK    9  A    between atoms: C11_23  and  O5_24 
ROOT
HETATM    1  C4  UNL     1      -3.150   3.610  11.718  1.00  0.00     0.261 C 
HETATM    2  O1  UNL     1      -3.136   2.656  12.699  1.00  0.00    -0.355 OA
HETATM    3  C5  UNL     1      -3.912   1.600  12.226  1.00  0.00     0.165 C 
HETATM    4  C10 UNL     1      -5.079   2.313  11.652  1.00  0.00     0.180 C 
HETATM    5  C11 UNL     1      -4.306   3.337  10.780  1.00  0.00     0.198 C 
ENDROOT
BRANCH   1   6
HETATM    6  N2  UNL     1      -1.868   3.656  10.980  1.00  0.00    -0.304 N 
HETATM    7  C1  UNL     1      -0.751   3.966  11.627  1.00  0.00     0.149 A 
HETATM    8  S1  UNL     1       0.441   3.897  10.408  1.00  0.00    -0.023 SA
HETATM    9  C2  UNL     1      -0.568   3.467   9.105  1.00  0.00     0.176 A 
HETATM   10  F1  UNL     1      -0.243   3.241   7.787  1.00  0.00    -0.197 F 
HETATM   11  C3  UNL     1      -1.800   3.399   9.698  1.00  0.00     0.146 A 
BRANCH   7  12
HETATM   12  N1  UNL     1      -0.607   4.254  12.905  1.00  0.00    -0.379 N 
ATOM     13  H12 UNL     1       0.078   4.877  13.335  1.00  0.00     0.158 HD
ATOM     14  H11 UNL     1      -1.147   3.915  13.700  1.00  0.00     0.158 HD
ENDBRANCH   7  12
ENDBRANCH   1   6
BRANCH   5  15
HETATM   15  O5  UNL     1      -5.107   4.427  10.571  1.00  0.00    -0.388 OA
ATOM     16  H5  UNL     1      -5.124   4.716   9.666  1.00  0.00     0.210 HD
ENDBRANCH   5  15
BRANCH   3  17
HETATM   17  C6  UNL     1      -4.142   0.493  13.162  1.00  0.00     0.108 C 
BRANCH  17  18
HETATM   18  S2  UNL     1      -4.384   0.847  14.876  1.00  0.00    -0.166 SA
BRANCH  18  19
HETATM   19  C7  UNL     1      -5.526   2.161  15.277  1.00  0.00     0.084 C 
BRANCH  19  20
HETATM   20  C8  UNL     1      -5.833   2.060  16.776  1.00  0.00     0.123 C 
BRANCH  20  21
HETATM   21  C9  UNL     1      -6.297   0.705  17.123  1.00  0.00     0.173 C 
HETATM   22  O2  UNL     1      -7.414   0.323  16.660  1.00  0.00    -0.648 OA
HETATM   23  O3  UNL     1      -5.591  -0.160  17.916  1.00  0.00    -0.648 OA
ENDBRANCH  20  21
ENDBRANCH  19  20
ENDBRANCH  18  19
ENDBRANCH  17  18
ENDBRANCH   3  17
BRANCH   4  24
HETATM   24  O4  UNL     1      -5.928   1.544  10.904  1.00  0.00    -0.390 OA
ATOM     25  H4  UNL     1      -6.511   2.022  10.326  1.00  0.00     0.210 HD
ENDBRANCH   4  24
TORSDOF 9
ENDMDL
MODEL 2
REMARK VINA RESULT: -6.949397513      1.769      2.383
REMARK  9 active torsions:
REMARK  status: ('A' for Active; 'I' for Inactive)
REMARK    1  A    between atoms: N1_1  and  C1_4 
REMARK    2  A    between atoms: N2_9  and  C4_10 
REMARK    3  A    between atoms: C5_12  and  C6_13 
REMARK    4  A    between atoms: C6_13  and  S2_14 
REMARK    5  A    between atoms: S2_14  and  C7_15 
REMARK    6  A    between atoms: C7_15  and  C8_16 
REMARK    7  A    between atoms: C8_16  and  C9_17 
REMARK    8  A    between atoms: C10_20  and  O4_21 
REMARK    9  A    between atoms: C11_23  and  O5_24 
ROOT
HETATM    1  C4  UNL     1      -4.412   3.021  10.993  1.00  0.00     0.261 C 
HETATM    2  O1  UNL     1      -4.668   3.558  12.225  1.00  0.00    -0.355 OA
HETATM    3  C5  UNL     1      -4.292   2.593  13.156  1.00  0.00     0.165 C 
HETATM    4  C10 UNL     1      -4.851   1.357  12.557  1.00  0.00     0.180 C 
HETATM    5  C11 UNL     1      -4.268   1.521  11.129  1.00  0.00     0.198 C 
ENDROOT
BRANCH   1   6
HETATM    6  N2  UNL     1      -3.205   3.616  10.376  1.00  0.00    -0.304 N 
HETATM    7  C1  UNL     1      -3.276   4.824   9.831  1.00  0.00     0.149 A 
HETATM    8  S1  UNL     1      -1.690   5.092   9.261  1.00  0.00    -0.023 SA
HETATM    9  C2  UNL     1      -1.000   3.616   9.758  1.00  0.00     0.176 A 
HETATM   10  F1  UNL     1       0.291   3.162   9.610  1.00  0.00    -0.197 F 
HETATM   11  C3  UNL     1      -2.059   2.982  10.351  1.00  0.00     0.146 A 
BRANCH   7  12
HETATM   12  N1  UNL     1      -4.324   5.619   9.754  1.00  0.00    -0.379 N 
ATOM     13  H12 UNL     1      -4.948   5.762   8.960  1.00  0.00     0.158 HD
ATOM     14  H11 UNL     1      -4.709   6.237  10.468  1.00  0.00     0.158 HD
ENDBRANCH   7  12
ENDBRANCH   1   6
BRANCH   5  15
HETATM   15  O5  UNL     1      -5.050   0.817  10.252  1.00  0.00    -0.388 OA
ATOM     16  H5  UNL     1      -4.691   0.776   9.373  1.00  0.00     0.210 HD
ENDBRANCH   5  15
BRANCH   3  17
HETATM   17  C6  UNL     1      -4.584   2.898  14.562  1.00  0.00     0.108 C 
BRANCH  17  18
HETATM   18  S2  UNL     1      -6.256   3.193  15.053  1.00  0.00    -0.166 SA
BRANCH  18  19
HETATM   19  C7  UNL     1      -6.701   2.733  16.721  1.00  0.00     0.084 C 
BRANCH  19  20
HETATM   20  C8  UNL     1      -7.049   1.240  16.708  1.00  0.00     0.123 C 
BRANCH  20  21
HETATM   21  C9  UNL     1      -5.840   0.421  16.902  1.00  0.00     0.173 C 
HETATM   22  O2  UNL     1      -5.338   0.368  18.065  1.00  0.00    -0.648 OA
HETATM   23  O3  UNL     1      -5.231  -0.284  15.898  1.00  0.00    -0.648 OA
ENDBRANCH  20  21
ENDBRANCH  19  20
ENDBRANCH  18  19
ENDBRANCH  17  18
ENDBRANCH   3  17
BRANCH   4  24
HETATM   24  O4  UNL     1      -4.450   0.187  13.141  1.00  0.00    -0.390 OA
ATOM     25  H4  UNL     1      -4.960  -0.090  13.894  1.00  0.00     0.210 HD
ENDBRANCH   4  24
TORSDOF 9
ENDMDL
MODEL 3
REMARK VINA RESULT: -6.917085653      3.763      7.185
REMARK  9 active torsions:
REMARK  status: ('A' for Active; 'I' for Inactive)
REMARK    1  A    between atoms: N1_1  and  C1_4 
REMARK    2  A    between atoms: N2_9  and  C4_10 
REMARK    3  A    between atoms: C5_12  and  C6_13 
REMARK    4  A    between atoms: C6_13  and  S2_14 
REMARK    5  A    between atoms: S2_14  and  C7_15 
REMARK    6  A    between atoms: C7_15  and  C8_16 
REMARK    7  A    between atoms: C8_16  and  C9_17 
REMARK    8  A    between atoms: C10_20  and  O4_21 
REMARK    9  A    between atoms: C11_23  and  O5_24 
ROOT
HETATM    1  C4  UNL     1      -4.402   1.383  12.783  1.00  0.00     0.261 C 
HETATM    2  O1  UNL     1      -3.043   1.532  12.709  1.00  0.00    -0.355 OA
HETATM    3  C5  UNL     1      -2.818   2.656  11.917  1.00  0.00     0.165 C 
HETATM    4  C10 UNL     1      -3.782   2.446  10.809  1.00  0.00     0.180 C 
HETATM    5  C11 UNL     1      -5.047   2.174  11.665  1.00  0.00     0.198 C 
ENDROOT
BRANCH   1   6
HETATM    6  N2  UNL     1      -4.929   1.801  14.101  1.00  0.00    -0.304 N 
HETATM    7  C1  UNL     1      -4.808   0.987  15.142  1.00  0.00     0.149 A 
HETATM    8  S1  UNL     1      -5.537   1.862  16.412  1.00  0.00    -0.023 SA
HETATM    9  C2  UNL     1      -5.970   3.254  15.531  1.00  0.00     0.176 A 
HETATM   10  F1  UNL     1      -6.612   4.394  15.960  1.00  0.00    -0.197 F 
HETATM   11  C3  UNL     1      -5.516   2.958  14.274  1.00  0.00     0.146 A 
BRANCH   7  12
HETATM   12  N1  UNL     1      -4.254  -0.209  15.177  1.00  0.00    -0.379 N 
ATOM     13  H12 UNL     1      -3.828  -0.681  15.975  1.00  0.00     0.158 HD
ATOM     14  H11 UNL     1      -4.148  -0.885  14.421  1.00  0.00     0.158 HD
ENDBRANCH   7  12
ENDBRANCH   1   6
BRANCH   5  15
HETATM   15  O5  UNL     1      -5.932   1.443  10.920  1.00  0.00    -0.388 OA
ATOM     16  H5  UNL     1      -5.706   1.403   9.997  1.00  0.00     0.210 HD
ENDBRANCH   5  15
BRANCH   3  17
HETATM   17  C6  UNL     1      -1.417   2.953  11.596  1.00  0.00     0.108 C 
BRANCH  17  18
HETATM   18  S2  UNL     1      -0.855   4.627  11.643  1.00  0.00    -0.166 SA
BRANCH  18  19
HETATM   19  C7  UNL     1       0.307   5.125  10.381  1.00  0.00     0.084 C 
BRANCH  19  20
HETATM   20  C8  UNL     1       0.842   3.850   9.720  1.00  0.00     0.123 C 
BRANCH  20  21
HETATM   21  C9  UNL     1       2.273   3.666  10.022  1.00  0.00     0.173 C 
HETATM   22  O2  UNL     1       2.708   4.112  11.127  1.00  0.00    -0.648 OA
HETATM   23  O3  UNL     1       3.153   3.043   9.179  1.00  0.00    -0.648 OA
ENDBRANCH  20  21
ENDBRANCH  19  20
ENDBRANCH  18  19
ENDBRANCH  17  18
ENDBRANCH   3  17
BRANCH   4  24
HETATM   24  O4  UNL     1      -3.953   3.512   9.969  1.00  0.00    -0.390 OA
ATOM     25  H4  UNL     1      -4.743   3.493   9.441  1.00  0.00     0.210 HD
ENDBRANCH   4  24
TORSDOF 9
ENDMDL
MODEL 4
REMARK VINA RESULT: -6.800077946      3.577      5.686
REMARK  9 active torsions:
REMARK  status: ('A' for Active; 'I' for Inactive)
REMARK    1  A    between atoms: N1_1  and  C1_4 
REMARK    2  A    between atoms: N2_9  and  C4_10 
REMARK    3  A    between atoms: C5_12  and  C6_13 
REMARK    4  A    between atoms: C6_13  and  S2_14 
REMARK    5  A    between atoms: S2_14  and  C7_15 
REMARK    6  A    between atoms: C7_15  and  C8_16 
REMARK    7  A    between atoms: C8_16  and  C9_17 
REMARK    8  A    between atoms: C10_20  and  O4_21 
REMARK    9  A    between atoms: C11_23  and  O5_24 
ROOT
HETATM    1  C4  UNL     1      -4.500   1.212  12.731  1.00  0.00     0.261 C 
HETATM    2  O1  UNL     1      -3.137   1.169  12.621  1.00  0.00    -0.355 OA
HETATM    3  C5  UNL     1      -2.778   2.242  11.810  1.00  0.00     0.165 C 
HETATM    4  C10 UNL     1      -3.792   2.161  10.730  1.00  0.00     0.180 C 
HETATM    5  C11 UNL     1      -5.058   2.077  11.621  1.00  0.00     0.198 C 
ENDROOT
BRANCH   1   6
HETATM    6  N2  UNL     1      -4.928   1.711  14.057  1.00  0.00    -0.304 N 
HETATM    7  C1  UNL     1      -4.730   0.960  15.134  1.00  0.00     0.149 A 
HETATM    8  S1  UNL     1      -5.362   1.914  16.400  1.00  0.00    -0.023 SA
HETATM    9  C2  UNL     1      -5.858   3.253  15.471  1.00  0.00     0.176 A 
HETATM   10  F1  UNL     1      -6.466   4.420  15.877  1.00  0.00    -0.197 F 
HETATM   11  C3  UNL     1      -5.500   2.880  14.203  1.00  0.00     0.146 A 
BRANCH   7  12
HETATM   12  N1  UNL     1      -4.176  -0.234  15.200  1.00  0.00    -0.379 N 
ATOM     13  H12 UNL     1      -3.619  -0.627  15.959  1.00  0.00     0.158 HD
ATOM     14  H11 UNL     1      -4.200  -0.986  14.512  1.00  0.00     0.158 HD
ENDBRANCH   7  12
ENDBRANCH   1   6
BRANCH   5  15
HETATM   15  O5  UNL     1      -6.057   1.471  10.907  1.00  0.00    -0.388 OA
ATOM     16  H5  UNL     1      -5.861   0.571  10.673  1.00  0.00     0.210 HD
ENDBRANCH   5  15
BRANCH   3  17
HETATM   17  C6  UNL     1      -1.359   2.337  11.449  1.00  0.00     0.108 C 
BRANCH  17  18
HETATM   18  S2  UNL     1      -0.569   3.917  11.453  1.00  0.00    -0.166 SA
BRANCH  18  19
HETATM   19  C7  UNL     1      -1.589   5.330  11.845  1.00  0.00     0.084 C 
BRANCH  19  20
HETATM   20  C8  UNL     1      -1.331   5.689  13.313  1.00  0.00     0.123 C 
BRANCH  20  21
HETATM   21  C9  UNL     1      -2.330   5.050  14.189  1.00  0.00     0.173 C 
HETATM   22  O2  UNL     1      -3.425   5.659  14.384  1.00  0.00    -0.648 OA
HETATM   23  O3  UNL     1      -2.141   3.840  14.800  1.00  0.00    -0.648 OA
ENDBRANCH  20  21
ENDBRANCH  19  20
ENDBRANCH  18  19
ENDBRANCH  17  18
ENDBRANCH   3  17
BRANCH   4  24
HETATM   24  O4  UNL     1      -3.834   3.233   9.881  1.00  0.00    -0.390 OA
ATOM     25  H4  UNL     1      -4.697   3.462   9.556  1.00  0.00     0.210 HD
ENDBRANCH   4  24
TORSDOF 9
ENDMDL
MODEL 5
REMARK VINA RESULT: -6.710288585      3.249      5.764
REMARK  9 active torsions:
REMARK  status: ('A' for Active; 'I' for Inactive)
REMARK    1  A    between atoms: N1_1  and  C1_4 
REMARK    2  A    between atoms: N2_9  and  C4_10 
REMARK    3  A    between atoms: C5_12  and  C6_13 
REMARK    4  A    between atoms: C6_13  and  S2_14 
REMARK    5  A    between atoms: S2_14  and  C7_15 
REMARK    6  A    between atoms: C7_15  and  C8_16 
REMARK    7  A    between atoms: C8_16  and  C9_17 
REMARK    8  A    between atoms: C10_20  and  O4_21 
REMARK    9  A    between atoms: C11_23  and  O5_24 
ROOT
HETATM    1  C4  UNL     1      -4.908   0.928  13.620  1.00  0.00     0.261 C 
HETATM    2  O1  UNL     1      -4.656   2.271  13.539  1.00  0.00    -0.355 OA
HETATM    3  C5  UNL     1      -3.577   2.517  14.385  1.00  0.00     0.165 C 
HETATM    4  C10 UNL     1      -3.942   1.720  15.582  1.00  0.00     0.180 C 
HETATM    5  C11 UNL     1      -4.252   0.378  14.869  1.00  0.00     0.198 C 
ENDROOT
BRANCH   1   6
HETATM    6  N2  UNL     1      -4.440   0.208  12.415  1.00  0.00    -0.304 N 
HETATM    7  C1  UNL     1      -4.735   0.686  11.212  1.00  0.00     0.149 A 
HETATM    8  S1  UNL     1      -4.010  -0.440  10.154  1.00  0.00    -0.023 SA
HETATM    9  C2  UNL     1      -3.353  -1.487  11.326  1.00  0.00     0.176 A 
HETATM   10  F1  UNL     1      -2.618  -2.638  11.154  1.00  0.00    -0.197 F 
HETATM   11  C3  UNL     1      -3.739  -0.895  12.498  1.00  0.00     0.146 A 
BRANCH   7  12
HETATM   12  N1  UNL     1      -5.422   1.771  10.916  1.00  0.00    -0.379 N 
ATOM     13  H12 UNL     1      -5.226   2.733  11.192  1.00  0.00     0.158 HD
ATOM     14  H11 UNL     1      -6.272   1.855  10.358  1.00  0.00     0.158 HD
ENDBRANCH   7  12
ENDBRANCH   1   6
BRANCH   5  15
HETATM   15  O5  UNL     1      -5.104  -0.350  15.656  1.00  0.00    -0.388 OA
ATOM     16  H5  UNL     1      -4.903  -1.279  15.671  1.00  0.00     0.210 HD
ENDBRANCH   5  15
BRANCH   3  17
HETATM   17  C6  UNL     1      -3.193   3.923  14.555  1.00  0.00     0.108 C 
BRANCH  17  18
HETATM   18  S2  UNL     1      -3.799   5.129  13.415  1.00  0.00    -0.166 SA
BRANCH  18  19
HETATM   19  C7  UNL     1      -3.301   4.950  11.709  1.00  0.00     0.084 C 
BRANCH  19  20
HETATM   20  C8  UNL     1      -1.902   4.321  11.702  1.00  0.00     0.123 C 
BRANCH  20  21
HETATM   21  C9  UNL     1      -1.932   2.990  11.072  1.00  0.00     0.173 C 
HETATM   22  O2  UNL     1      -2.483   2.884   9.934  1.00  0.00    -0.648 OA
HETATM   23  O3  UNL     1      -1.400   1.866  11.644  1.00  0.00    -0.648 OA
ENDBRANCH  20  21
ENDBRANCH  19  20
ENDBRANCH  18  19
ENDBRANCH  17  18
ENDBRANCH   3  17
BRANCH   4  24
HETATM   24  O4  UNL     1      -2.956   1.584  16.521  1.00  0.00    -0.390 OA
ATOM     25  H4  UNL     1      -3.080   0.878  17.145  1.00  0.00     0.210 HD
ENDBRANCH   4  24
TORSDOF 9
ENDMDL
