MODEL 1
REMARK VINA RESULT: -7.428021559      0.000      0.000
REMARK  12 active torsions:
REMARK  status: ('A' for Active; 'I' for Inactive)
REMARK    1  A    between atoms: C2_2  and  C3_3 
REMARK    2  A    between atoms: C3_3  and  N2_8 
REMARK    3  A    between atoms: N1_4  and  O1_6 
REMARK       I    between atoms: N2_8  and  C5_10 
REMARK    4  A    between atoms: C5_10  and  O3_12 
REMARK    5  A    between atoms: O3_12  and  C6_13 
REMARK    6  A    between atoms: C6_13  and  O4_14 
REMARK    7  A    between atoms: C6_13  and  C11_22 
REMARK    8  A    between atoms: O4_14  and  C7_15 
REMARK       I    between atoms: C7_15  and  N3_17 
REMARK    9  A    between atoms: N3_17  and  C8_19 
REMARK   10  A    between atoms: C11_22  and  C13_25 
REMARK   11  A    between atoms: C13_25  and  N4_26 
REMARK   12  A    between atoms: C13_25  and  O6_30 
ROOT
HETATM    1  C6  UNL     1      -4.524   3.568  14.273  1.00  0.00     0.326 C 
ENDROOT
BRANCH   1   2
HETATM    2  O3  UNL     1      -5.324   2.937  13.290  1.00  0.00    -0.268 OA
BRANCH   2   3
HETATM    3  C5  UNL     1      -4.832   2.066  12.324  1.00  0.00     0.368 C 
HETATM    4  N2  UNL     1      -3.954   1.006  12.614  1.00  0.00    -0.290 N 
ATOM      5  H2  UNL     1      -3.670   0.878  13.585  1.00  0.00     0.172 HD
HETATM    6  O2  UNL     1      -5.209   2.264  11.154  1.00  0.00    -0.238 OA
BRANCH   4   7
HETATM    7  C3  UNL     1      -3.445   0.114  11.661  1.00  0.00     0.105 C 
HETATM    8  N1  UNL     1      -2.429   0.448  10.939  1.00  0.00    -0.255 N 
ATOM      9  H1  UNL     1      -2.078  -0.219  10.252  1.00  0.00     0.195 HD
BRANCH   7  10
HETATM   10  C2  UNL     1      -4.039  -1.219  11.451  1.00  0.00     0.074 C 
HETATM   11  C1  UNL     1      -2.977  -2.305  11.401  1.00  0.00     0.013 C 
ENDBRANCH   7  10
BRANCH   8  12
HETATM   12  O1  UNL     1      -1.803   1.666  11.056  1.00  0.00    -0.284 OA
HETATM   13  C4  UNL     1      -1.468   2.474   9.971  1.00  0.00     0.237 C 
ENDBRANCH   8  12
ENDBRANCH   4   7
ENDBRANCH   2   3
ENDBRANCH   1   2
BRANCH   1  14
HETATM   14  O4  UNL     1      -3.701   2.551  14.849  1.00  0.00    -0.268 OA
BRANCH  14  15
HETATM   15  C7  UNL     1      -4.147   1.745  15.873  1.00  0.00     0.363 C 
HETATM   16  O5  UNL     1      -3.436   0.823  16.320  1.00  0.00    -0.238 OA
HETATM   17  N3  UNL     1      -5.434   1.974  16.421  1.00  0.00    -0.333 N 
ATOM     18  H3  UNL     1      -6.006   2.732  16.047  1.00  0.00     0.165 HD
BRANCH  17  19
HETATM   19  C8  UNL     1      -5.963   1.157  17.505  1.00  0.00     0.078 C 
HETATM   20  C9  UNL     1      -7.320   0.658  17.055  1.00  0.00     0.032 C 
HETATM   21  C10 UNL     1      -6.135   2.029  18.707  1.00  0.00     0.032 C 
ENDBRANCH  17  19
ENDBRANCH  14  15
ENDBRANCH   1  14
BRANCH   1  22
HETATM   22  C11 UNL     1      -3.571   4.579  13.679  1.00  0.00     0.201 C 
HETATM   23  C12 UNL     1      -3.613   5.822  14.535  1.00  0.00     0.062 C 
HETATM   24  F1  UNL     1      -4.088   4.892  12.414  1.00  0.00    -0.233 F 
BRANCH  22  25
HETATM   25  C13 UNL     1      -2.204   3.996  13.558  1.00  0.00     0.361 C 
BRANCH  25  26
HETATM   26  N4  UNL     1      -1.469   4.704  12.538  1.00  0.00    -0.050 N 
ATOM     27  H43 UNL     1      -1.986   4.764  11.661  1.00  0.00     0.277 HD
ATOM     28  H42 UNL     1      -1.401   5.703  12.734  1.00  0.00     0.277 HD
ATOM     29  H41 UNL     1      -0.554   4.272  12.418  1.00  0.00     0.277 HD
ENDBRANCH  25  26
BRANCH  25  30
HETATM   30  O6  UNL     1      -1.469   4.079  14.731  1.00  0.00    -0.367 OA
ATOM     31  H6  UNL     1      -0.636   4.521  14.620  1.00  0.00     0.212 HD
ENDBRANCH  25  30
ENDBRANCH  22  25
ENDBRANCH   1  22
TORSDOF 12
ENDMDL
MODEL 2
REMARK VINA RESULT: -7.169497948      1.219      1.623
REMARK  12 active torsions:
REMARK  status: ('A' for Active; 'I' for Inactive)
REMARK    1  A    between atoms: C2_2  and  C3_3 
REMARK    2  A    between atoms: C3_3  and  N2_8 
REMARK    3  A    between atoms: N1_4  and  O1_6 
REMARK       I    between atoms: N2_8  and  C5_10 
REMARK    4  A    between atoms: C5_10  and  O3_12 
REMARK    5  A    between atoms: O3_12  and  C6_13 
REMARK    6  A    between atoms: C6_13  and  O4_14 
REMARK    7  A    between atoms: C6_13  and  C11_22 
REMARK    8  A    between atoms: O4_14  and  C7_15 
REMARK       I    between atoms: C7_15  and  N3_17 
REMARK    9  A    between atoms: N3_17  and  C8_19 
REMARK   10  A    between atoms: C11_22  and  C13_25 
REMARK   11  A    between atoms: C13_25  and  N4_26 
REMARK   12  A    between atoms: C13_25  and  O6_30 
ROOT
HETATM    1  C6  UNL     1      -4.656   3.611  13.932  1.00  0.00     0.326 C 
ENDROOT
BRANCH   1   2
HETATM    2  O3  UNL     1      -5.068   3.122  12.670  1.00  0.00    -0.268 OA
BRANCH   2   3
HETATM    3  C5  UNL     1      -4.296   2.295  11.862  1.00  0.00     0.368 C 
HETATM    4  N2  UNL     1      -3.759   1.072  12.300  1.00  0.00    -0.290 N 
ATOM      5  H2  UNL     1      -3.950   0.786  13.260  1.00  0.00     0.172 HD
HETATM    6  O2  UNL     1      -4.092   2.688  10.698  1.00  0.00    -0.238 OA
BRANCH   4   7
HETATM    7  C3  UNL     1      -2.979   0.219  11.507  1.00  0.00     0.105 C 
HETATM    8  N1  UNL     1      -1.740   0.499  11.279  1.00  0.00    -0.255 N 
ATOM      9  H1  UNL     1      -1.194  -0.138  10.699  1.00  0.00     0.195 HD
BRANCH   7  10
HETATM   10  C2  UNL     1      -3.534  -1.012  10.914  1.00  0.00     0.074 C 
HETATM   11  C1  UNL     1      -2.818  -2.252  11.421  1.00  0.00     0.013 C 
ENDBRANCH   7  10
BRANCH   8  12
HETATM   12  O1  UNL     1      -1.127   1.620  11.785  1.00  0.00    -0.284 OA
HETATM   13  C4  UNL     1      -0.507   2.588  10.997  1.00  0.00     0.237 C 
ENDBRANCH   8  12
ENDBRANCH   4   7
ENDBRANCH   2   3
ENDBRANCH   1   2
BRANCH   1  14
HETATM   14  O4  UNL     1      -3.778   2.629  14.487  1.00  0.00    -0.268 OA
BRANCH  14  15
HETATM   15  C7  UNL     1      -4.102   1.922  15.624  1.00  0.00     0.363 C 
HETATM   16  O5  UNL     1      -3.265   1.182  16.179  1.00  0.00    -0.238 OA
HETATM   17  N3  UNL     1      -5.407   2.042  16.165  1.00  0.00    -0.333 N 
ATOM     18  H3  UNL     1      -6.082   2.651  15.702  1.00  0.00     0.165 HD
BRANCH  17  19
HETATM   19  C8  UNL     1      -5.809   1.320  17.364  1.00  0.00     0.078 C 
HETATM   20  C9  UNL     1      -7.045   0.524  17.001  1.00  0.00     0.032 C 
HETATM   21  C10 UNL     1      -6.163   2.323  18.416  1.00  0.00     0.032 C 
ENDBRANCH  17  19
ENDBRANCH  14  15
ENDBRANCH   1  14
BRANCH   1  22
HETATM   22  C11 UNL     1      -3.837   4.877  13.822  1.00  0.00     0.201 C 
HETATM   23  C12 UNL     1      -2.437   4.495  13.407  1.00  0.00     0.062 C 
HETATM   24  F1  UNL     1      -3.786   5.410  15.119  1.00  0.00    -0.233 F 
BRANCH  22  25
HETATM   25  C13 UNL     1      -4.487   5.836  12.886  1.00  0.00     0.361 C 
BRANCH  25  26
HETATM   26  N4  UNL     1      -3.977   5.626  11.552  1.00  0.00    -0.050 N 
ATOM     27  H43 UNL     1      -4.633   5.111  10.965  1.00  0.00     0.277 HD
ATOM     28  H42 UNL     1      -3.944   6.489  11.011  1.00  0.00     0.277 HD
ATOM     29  H41 UNL     1      -3.066   5.169  11.605  1.00  0.00     0.277 HD
ENDBRANCH  25  26
BRANCH  25  30
HETATM   30  O6  UNL     1      -5.865   5.696  12.829  1.00  0.00    -0.367 OA
ATOM     31  H6  UNL     1      -6.289   6.372  12.314  1.00  0.00     0.212 HD
ENDBRANCH  25  30
ENDBRANCH  22  25
ENDBRANCH   1  22
TORSDOF 12
ENDMDL
MODEL 3
REMARK VINA RESULT: -6.917937040      2.117      4.353
REMARK  12 active torsions:
REMARK  status: ('A' for Active; 'I' for Inactive)
REMARK    1  A    between atoms: C2_2  and  C3_3 
REMARK    2  A    between atoms: C3_3  and  N2_8 
REMARK    3  A    between atoms: N1_4  and  O1_6 
REMARK       I    between atoms: N2_8  and  C5_10 
REMARK    4  A    between atoms: C5_10  and  O3_12 
REMARK    5  A    between atoms: O3_12  and  C6_13 
REMARK    6  A    between atoms: C6_13  and  O4_14 
REMARK    7  A    between atoms: C6_13  and  C11_22 
REMARK    8  A    between atoms: O4_14  and  C7_15 
REMARK       I    between atoms: C7_15  and  N3_17 
REMARK    9  A    between atoms: N3_17  and  C8_19 
REMARK   10  A    between atoms: C11_22  and  C13_25 
REMARK   11  A    between atoms: C13_25  and  N4_26 
REMARK   12  A    between atoms: C13_25  and  O6_30 
ROOT
HETATM    1  C6  UNL     1      -3.794   0.569  12.954  1.00  0.00     0.326 C 
ENDROOT
BRANCH   1   2
HETATM    2  O3  UNL     1      -4.300   1.887  12.855  1.00  0.00    -0.268 OA
BRANCH   2   3
HETATM    3  C5  UNL     1      -3.512   3.013  12.650  1.00  0.00     0.368 C 
HETATM    4  N2  UNL     1      -2.534   3.448  13.562  1.00  0.00    -0.290 N 
ATOM      5  H2  UNL     1      -2.404   2.903  14.414  1.00  0.00     0.172 HD
HETATM    6  O2  UNL     1      -3.709   3.645  11.595  1.00  0.00    -0.238 OA
BRANCH   4   7
HETATM    7  C3  UNL     1      -1.726   4.579  13.380  1.00  0.00     0.105 C 
HETATM    8  N1  UNL     1      -0.684   4.515  12.622  1.00  0.00    -0.255 N 
ATOM      9  H1  UNL     1      -0.112   5.351  12.506  1.00  0.00     0.195 HD
BRANCH   7  10
HETATM   10  C2  UNL     1      -2.030   5.863  14.038  1.00  0.00     0.074 C 
HETATM   11  C1  UNL     1      -3.461   5.906  14.549  1.00  0.00     0.013 C 
ENDBRANCH   7  10
BRANCH   8  12
HETATM   12  O1  UNL     1      -0.314   3.366  11.964  1.00  0.00    -0.284 OA
HETATM   13  C4  UNL     1       0.146   3.341  10.648  1.00  0.00     0.237 C 
ENDBRANCH   8  12
ENDBRANCH   4   7
ENDBRANCH   2   3
ENDBRANCH   1   2
BRANCH   1  14
HETATM   14  O4  UNL     1      -4.500  -0.065  14.022  1.00  0.00    -0.268 OA
BRANCH  14  15
HETATM   15  C7  UNL     1      -4.659   0.538  15.250  1.00  0.00     0.363 C 
HETATM   16  O5  UNL     1      -3.855   0.323  16.178  1.00  0.00    -0.238 OA
HETATM   17  N3  UNL     1      -5.755   1.414  15.453  1.00  0.00    -0.333 N 
ATOM     18  H3  UNL     1      -6.406   1.582  14.686  1.00  0.00     0.165 HD
BRANCH  17  19
HETATM   19  C8  UNL     1      -5.977   2.081  16.729  1.00  0.00     0.078 C 
HETATM   20  C9  UNL     1      -6.854   1.164  17.556  1.00  0.00     0.032 C 
HETATM   21  C10 UNL     1      -6.712   3.357  16.467  1.00  0.00     0.032 C 
ENDBRANCH  17  19
ENDBRANCH  14  15
ENDBRANCH   1  14
BRANCH   1  22
HETATM   22  C11 UNL     1      -4.087  -0.257  11.722  1.00  0.00     0.201 C 
HETATM   23  C12 UNL     1      -5.099   0.489  10.888  1.00  0.00     0.062 C 
HETATM   24  F1  UNL     1      -4.680  -1.438  12.189  1.00  0.00    -0.233 F 
BRANCH  22  25
HETATM   25  C13 UNL     1      -2.827  -0.558  10.986  1.00  0.00     0.361 C 
BRANCH  25  26
HETATM   26  N4  UNL     1      -1.812   0.397  11.361  1.00  0.00    -0.050 N 
ATOM     27  H43 UNL     1      -1.018   0.388  10.721  1.00  0.00     0.277 HD
ATOM     28  H42 UNL     1      -2.112   1.360  11.206  1.00  0.00     0.277 HD
ATOM     29  H41 UNL     1      -1.531   0.232  12.327  1.00  0.00     0.277 HD
ENDBRANCH  25  26
BRANCH  25  30
HETATM   30  O6  UNL     1      -2.325  -1.822  11.256  1.00  0.00    -0.367 OA
ATOM     31  H6  UNL     1      -1.595  -1.813  11.863  1.00  0.00     0.212 HD
ENDBRANCH  25  30
ENDBRANCH  22  25
ENDBRANCH   1  22
TORSDOF 12
ENDMDL
MODEL 4
REMARK VINA RESULT: -6.907343053      2.472      4.679
REMARK  12 active torsions:
REMARK  status: ('A' for Active; 'I' for Inactive)
REMARK    1  A    between atoms: C2_2  and  C3_3 
REMARK    2  A    between atoms: C3_3  and  N2_8 
REMARK    3  A    between atoms: N1_4  and  O1_6 
REMARK       I    between atoms: N2_8  and  C5_10 
REMARK    4  A    between atoms: C5_10  and  O3_12 
REMARK    5  A    between atoms: O3_12  and  C6_13 
REMARK    6  A    between atoms: C6_13  and  O4_14 
REMARK    7  A    between atoms: C6_13  and  C11_22 
REMARK    8  A    between atoms: O4_14  and  C7_15 
REMARK       I    between atoms: C7_15  and  N3_17 
REMARK    9  A    between atoms: N3_17  and  C8_19 
REMARK   10  A    between atoms: C11_22  and  C13_25 
REMARK   11  A    between atoms: C13_25  and  N4_26 
REMARK   12  A    between atoms: C13_25  and  O6_30 
ROOT
HETATM    1  C6  UNL     1      -3.951   0.728  12.903  1.00  0.00     0.326 C 
ENDROOT
BRANCH   1   2
HETATM    2  O3  UNL     1      -4.757   1.887  12.801  1.00  0.00    -0.268 OA
BRANCH   2   3
HETATM    3  C5  UNL     1      -4.258   3.181  12.716  1.00  0.00     0.368 C 
HETATM    4  N2  UNL     1      -4.770   4.257  13.463  1.00  0.00    -0.290 N 
ATOM      5  H2  UNL     1      -5.547   4.068  14.097  1.00  0.00     0.172 HD
HETATM    6  O2  UNL     1      -3.309   3.361  11.930  1.00  0.00    -0.238 OA
BRANCH   4   7
HETATM    7  C3  UNL     1      -4.285   5.570  13.398  1.00  0.00     0.105 C 
HETATM    8  N1  UNL     1      -4.669   6.356  12.449  1.00  0.00    -0.255 N 
ATOM      9  H1  UNL     1      -4.302   7.307  12.424  1.00  0.00     0.195 HD
BRANCH   7  10
HETATM   10  C2  UNL     1      -3.334   6.097  14.395  1.00  0.00     0.074 C 
HETATM   11  C1  UNL     1      -1.903   6.050  13.884  1.00  0.00     0.013 C 
ENDBRANCH   7  10
BRANCH   8  12
HETATM   12  O1  UNL     1      -5.552   5.964  11.471  1.00  0.00    -0.284 OA
HETATM   13  C4  UNL     1      -5.276   6.028  10.106  1.00  0.00     0.237 C 
ENDBRANCH   8  12
ENDBRANCH   4   7
ENDBRANCH   2   3
ENDBRANCH   1   2
BRANCH   1  14
HETATM   14  O4  UNL     1      -4.455  -0.028  14.007  1.00  0.00    -0.268 OA
BRANCH  14  15
HETATM   15  C7  UNL     1      -4.654   0.537  15.247  1.00  0.00     0.363 C 
HETATM   16  O5  UNL     1      -3.851   0.338  16.179  1.00  0.00    -0.238 OA
HETATM   17  N3  UNL     1      -5.792   1.356  15.458  1.00  0.00    -0.333 N 
ATOM     18  H3  UNL     1      -6.442   1.512  14.687  1.00  0.00     0.165 HD
BRANCH  17  19
HETATM   19  C8  UNL     1      -6.058   1.981  16.746  1.00  0.00     0.078 C 
HETATM   20  C9  UNL     1      -7.050   1.092  17.468  1.00  0.00     0.032 C 
HETATM   21  C10 UNL     1      -6.687   3.315  16.497  1.00  0.00     0.032 C 
ENDBRANCH  17  19
ENDBRANCH  14  15
ENDBRANCH   1  14
BRANCH   1  22
HETATM   22  C11 UNL     1      -4.080  -0.173  11.697  1.00  0.00     0.201 C 
HETATM   23  C12 UNL     1      -5.119   0.419  10.777  1.00  0.00     0.062 C 
HETATM   24  F1  UNL     1      -4.563  -1.396  12.186  1.00  0.00    -0.233 F 
BRANCH  22  25
HETATM   25  C13 UNL     1      -2.754  -0.358  11.042  1.00  0.00     0.361 C 
BRANCH  25  26
HETATM   26  N4  UNL     1      -1.864   0.702  11.453  1.00  0.00    -0.050 N 
ATOM     27  H43 UNL     1      -1.994   1.550  10.901  1.00  0.00     0.277 HD
ATOM     28  H42 UNL     1      -2.113   1.083  12.365  1.00  0.00     0.277 HD
ATOM     29  H41 UNL     1      -0.902   0.367  11.424  1.00  0.00     0.277 HD
ENDBRANCH  25  26
BRANCH  25  30
HETATM   30  O6  UNL     1      -2.145  -1.560  11.371  1.00  0.00    -0.367 OA
ATOM     31  H6  UNL     1      -1.727  -1.982  10.630  1.00  0.00     0.212 HD
ENDBRANCH  25  30
ENDBRANCH  22  25
ENDBRANCH   1  22
TORSDOF 12
ENDMDL
MODEL 5
REMARK VINA RESULT: -6.873073574      2.422      4.846
REMARK  12 active torsions:
REMARK  status: ('A' for Active; 'I' for Inactive)
REMARK    1  A    between atoms: C2_2  and  C3_3 
REMARK    2  A    between atoms: C3_3  and  N2_8 
REMARK    3  A    between atoms: N1_4  and  O1_6 
REMARK       I    between atoms: N2_8  and  C5_10 
REMARK    4  A    between atoms: C5_10  and  O3_12 
REMARK    5  A    between atoms: O3_12  and  C6_13 
REMARK    6  A    between atoms: C6_13  and  O4_14 
REMARK    7  A    between atoms: C6_13  and  C11_22 
REMARK    8  A    between atoms: O4_14  and  C7_15 
REMARK       I    between atoms: C7_15  and  N3_17 
REMARK    9  A    between atoms: N3_17  and  C8_19 
REMARK   10  A    between atoms: C11_22  and  C13_25 
REMARK   11  A    between atoms: C13_25  and  N4_26 
REMARK   12  A    between atoms: C13_25  and  O6_30 
ROOT
HETATM    1  C6  UNL     1      -3.705   2.116  12.892  1.00  0.00     0.326 C 
ENDROOT
BRANCH   1   2
HETATM    2  O3  UNL     1      -4.862   2.910  13.074  1.00  0.00    -0.268 OA
BRANCH   2   3
HETATM    3  C5  UNL     1      -4.865   4.301  13.060  1.00  0.00     0.368 C 
HETATM    4  N2  UNL     1      -4.042   5.066  12.214  1.00  0.00    -0.290 N 
ATOM      5  H2  UNL     1      -3.415   4.566  11.583  1.00  0.00     0.172 HD
HETATM    6  O2  UNL     1      -5.648   4.864  13.847  1.00  0.00    -0.238 OA
BRANCH   4   7
HETATM    7  C3  UNL     1      -4.025   6.467  12.177  1.00  0.00     0.105 C 
HETATM    8  N1  UNL     1      -5.010   7.113  11.652  1.00  0.00    -0.255 N 
ATOM      9  H1  UNL     1      -4.973   8.132  11.637  1.00  0.00     0.195 HD
BRANCH   7  10
HETATM   10  C2  UNL     1      -2.899   7.243  12.730  1.00  0.00     0.074 C 
HETATM   11  C1  UNL     1      -2.552   6.800  14.142  1.00  0.00     0.013 C 
ENDBRANCH   7  10
BRANCH   8  12
HETATM   12  O1  UNL     1      -6.106   6.485  11.110  1.00  0.00    -0.284 OA
HETATM   13  C4  UNL     1      -6.610   6.762   9.840  1.00  0.00     0.237 C 
ENDBRANCH   8  12
ENDBRANCH   4   7
ENDBRANCH   2   3
ENDBRANCH   1   2
BRANCH   1  14
HETATM   14  O4  UNL     1      -3.740   1.101  13.899  1.00  0.00    -0.268 OA
BRANCH  14  15
HETATM   15  C7  UNL     1      -4.150   1.367  15.187  1.00  0.00     0.363 C 
HETATM   16  O5  UNL     1      -3.327   1.427  16.122  1.00  0.00    -0.238 OA
HETATM   17  N3  UNL     1      -5.529   1.574  15.444  1.00  0.00    -0.333 N 
ATOM     18  H3  UNL     1      -6.192   1.523  14.671  1.00  0.00     0.165 HD
BRANCH  17  19
HETATM   19  C8  UNL     1      -6.024   1.858  16.785  1.00  0.00     0.078 C 
HETATM   20  C9  UNL     1      -6.947   0.717  17.161  1.00  0.00     0.032 C 
HETATM   21  C10 UNL     1      -6.811   3.128  16.732  1.00  0.00     0.032 C 
ENDBRANCH  17  19
ENDBRANCH  14  15
ENDBRANCH   1  14
BRANCH   1  22
HETATM   22  C11 UNL     1      -3.711   1.382  11.571  1.00  0.00     0.201 C 
HETATM   23  C12 UNL     1      -2.353   0.752  11.379  1.00  0.00     0.062 C 
HETATM   24  F1  UNL     1      -3.887   2.368  10.590  1.00  0.00    -0.233 F 
BRANCH  22  25
HETATM   25  C13 UNL     1      -4.826   0.395  11.530  1.00  0.00     0.361 C 
BRANCH  25  26
HETATM   26  N4  UNL     1      -5.201   0.151  10.157  1.00  0.00    -0.050 N 
ATOM     27  H43 UNL     1      -6.058   0.638   9.899  1.00  0.00     0.277 HD
ATOM     28  H42 UNL     1      -4.570   0.606   9.498  1.00  0.00     0.277 HD
ATOM     29  H41 UNL     1      -5.265  -0.855   9.997  1.00  0.00     0.277 HD
ENDBRANCH  25  26
BRANCH  25  30
HETATM   30  O6  UNL     1      -4.495  -0.829  12.092  1.00  0.00    -0.367 OA
ATOM     31  H6  UNL     1      -3.599  -1.091  11.917  1.00  0.00     0.212 HD
ENDBRANCH  25  30
ENDBRANCH  22  25
ENDBRANCH   1  22
TORSDOF 12
ENDMDL
