MODEL 1
REMARK VINA RESULT: -7.619821873      0.000      0.000
REMARK  8 active torsions:
REMARK  status: ('A' for Active; 'I' for Inactive)
REMARK    1  A    between atoms: O1_1  and  C1_3 
REMARK    2  A    between atoms: C2_4  and  C3_5 
REMARK    3  A    between atoms: N1_7  and  C5_8 
REMARK    4  A    between atoms: C5_8  and  C6_9 
REMARK    5  A    between atoms: C6_9  and  C7_10 
REMARK    6  A    between atoms: C7_10  and  C8_11 
REMARK    7  A    between atoms: C9_18  and  N4_19 
REMARK    8  A    between atoms: C16_30  and  O3_31 
ROOT
HETATM    1  C1  UNL     1      -3.266   2.026  11.264  1.00  0.00     0.186 C 
HETATM    2  C2  UNL     1      -2.968   3.512  11.340  1.00  0.00     0.208 C 
HETATM    3  O2  UNL     1      -3.181   3.891  12.655  1.00  0.00    -0.349 OA
HETATM    4  C9  UNL     1      -3.829   2.899  13.334  1.00  0.00     0.262 C 
HETATM    5  C16 UNL     1      -4.414   1.964  12.284  1.00  0.00     0.199 C 
ENDROOT
BRANCH   2   6
HETATM    6  C3  UNL     1      -1.610   3.823  10.844  1.00  0.00     0.075 A 
HETATM    7  C4  UNL     1      -0.590   4.402  11.574  1.00  0.00     0.140 A 
HETATM    8  N1  UNL     1       0.515   4.537  10.786  1.00  0.00    -0.287 N 
HETATM    9  N2  UNL     1       0.178   4.058   9.623  1.00  0.00    -0.241 N 
HETATM   10  N3  UNL     1      -1.083   3.623   9.622  1.00  0.00    -0.286 N 
ATOM     11  H2  UNL     1       0.800   4.021   8.815  1.00  0.00     0.208 HD
ATOM     12  H3  UNL     1      -1.567   3.208   8.826  1.00  0.00     0.188 HD
BRANCH   8  13
HETATM   13  C5  UNL     1       1.798   5.088  11.138  1.00  0.00     0.150 C 
BRANCH  13  14
HETATM   14  C6  UNL     1       1.694   6.359  11.924  1.00  0.00     0.024 C 
BRANCH  14  15
HETATM   15  C7  UNL     1       2.987   6.915  12.408  1.00  0.00     0.033 C 
BRANCH  15  16
HETATM   16  C8  UNL     1       3.988   5.896  12.841  1.00  0.00     0.222 C 
HETATM   17  F1  UNL     1       4.423   6.210  14.116  1.00  0.00    -0.255 F 
ENDBRANCH  15  16
ENDBRANCH  14  15
ENDBRANCH  13  14
ENDBRANCH   8  13
ENDBRANCH   2   6
BRANCH   1  18
HETATM   18  O1  UNL     1      -2.173   1.284  11.758  1.00  0.00    -0.390 OA
ATOM     19  H1  UNL     1      -2.174   0.410  11.385  1.00  0.00     0.210 HD
ENDBRANCH   1  18
BRANCH   5  20
HETATM   20  O3  UNL     1      -4.629   0.697  12.744  1.00  0.00    -0.388 OA
ATOM     21  H3  UNL     1      -5.552   0.512  12.869  1.00  0.00     0.210 HD
ENDBRANCH   5  20
BRANCH   4  22
HETATM   22  N4  UNL     1      -4.846   3.336  14.254  1.00  0.00    -0.298 N 
HETATM   23  C10 UNL     1      -5.434   4.542  14.253  1.00  0.00     0.187 A 
HETATM   24  N5  UNL     1      -6.333   4.599  15.249  1.00  0.00    -0.352 N 
HETATM   25  C11 UNL     1      -6.336   3.430  15.905  1.00  0.00     0.054 A 
ATOM     26  H5  UNL     1      -6.920   5.403  15.471  1.00  0.00     0.166 HD
HETATM   27  C12 UNL     1      -5.400   2.637  15.278  1.00  0.00     0.129 A 
HETATM   28  C15 UNL     1      -7.114   2.960  17.063  1.00  0.00     0.062 C 
HETATM   29  N6  UNL     1      -5.197   1.332  15.775  1.00  0.00    -0.374 N 
HETATM   30  C13 UNL     1      -5.669   0.981  17.087  1.00  0.00     0.121 C 
ATOM     31  H6  UNL     1      -4.716   0.638  15.203  1.00  0.00     0.161 HD
HETATM   32  C14 UNL     1      -7.098   1.467  17.214  1.00  0.00     0.026 C 
ENDBRANCH   4  22
TORSDOF 8
ENDMDL
MODEL 2
REMARK VINA RESULT: -7.595974715      1.129      1.330
REMARK  8 active torsions:
REMARK  status: ('A' for Active; 'I' for Inactive)
REMARK    1  A    between atoms: O1_1  and  C1_3 
REMARK    2  A    between atoms: C2_4  and  C3_5 
REMARK    3  A    between atoms: N1_7  and  C5_8 
REMARK    4  A    between atoms: C5_8  and  C6_9 
REMARK    5  A    between atoms: C6_9  and  C7_10 
REMARK    6  A    between atoms: C7_10  and  C8_11 
REMARK    7  A    between atoms: C9_18  and  N4_19 
REMARK    8  A    between atoms: C16_30  and  O3_31 
ROOT
HETATM    1  C1  UNL     1      -3.050   2.264  11.356  1.00  0.00     0.186 C 
HETATM    2  C2  UNL     1      -2.603   3.681  11.663  1.00  0.00     0.208 C 
HETATM    3  O2  UNL     1      -2.902   3.910  12.997  1.00  0.00    -0.349 OA
HETATM    4  C9  UNL     1      -3.716   2.923  13.474  1.00  0.00     0.262 C 
HETATM    5  C16 UNL     1      -4.293   2.209  12.259  1.00  0.00     0.199 C 
ENDROOT
BRANCH   2   6
HETATM    6  C3  UNL     1      -1.177   3.889  11.330  1.00  0.00     0.075 A 
HETATM    7  C4  UNL     1      -0.673   4.234  10.091  1.00  0.00     0.140 A 
HETATM    8  N1  UNL     1       0.686   4.336  10.164  1.00  0.00    -0.287 N 
HETATM    9  N2  UNL     1       0.993   4.063  11.399  1.00  0.00    -0.241 N 
HETATM   10  N3  UNL     1      -0.094   3.792  12.124  1.00  0.00    -0.286 N 
ATOM     11  H2  UNL     1       1.944   4.058  11.767  1.00  0.00     0.208 HD
ATOM     12  H3  UNL     1      -0.103   3.552  13.115  1.00  0.00     0.188 HD
BRANCH   8  13
HETATM   13  C5  UNL     1       1.611   4.673   9.113  1.00  0.00     0.150 C 
BRANCH  13  14
HETATM   14  C6  UNL     1       3.043   4.561   9.537  1.00  0.00     0.024 C 
BRANCH  14  15
HETATM   15  C7  UNL     1       3.694   5.844   9.924  1.00  0.00     0.033 C 
BRANCH  15  16
HETATM   16  C8  UNL     1       4.589   5.762  11.116  1.00  0.00     0.222 C 
HETATM   17  F1  UNL     1       3.838   5.374  12.211  1.00  0.00    -0.255 F 
ENDBRANCH  15  16
ENDBRANCH  14  15
ENDBRANCH  13  14
ENDBRANCH   8  13
ENDBRANCH   2   6
BRANCH   1  18
HETATM   18  O1  UNL     1      -2.097   1.339  11.831  1.00  0.00    -0.390 OA
ATOM     19  H1  UNL     1      -1.977   0.638  11.200  1.00  0.00     0.210 HD
ENDBRANCH   1  18
BRANCH   5  20
HETATM   20  O3  UNL     1      -4.687   0.928  12.518  1.00  0.00    -0.388 OA
ATOM     21  H3  UNL     1      -3.959   0.373  12.774  1.00  0.00     0.210 HD
ENDBRANCH   5  20
BRANCH   4  22
HETATM   22  N4  UNL     1      -4.766   3.356  14.358  1.00  0.00    -0.298 N 
HETATM   23  C10 UNL     1      -5.336   4.572  14.358  1.00  0.00     0.187 A 
HETATM   24  N5  UNL     1      -6.276   4.621  15.316  1.00  0.00    -0.352 N 
HETATM   25  C11 UNL     1      -6.325   3.439  15.946  1.00  0.00     0.054 A 
ATOM     26  H5  UNL     1      -6.861   5.430  15.529  1.00  0.00     0.166 HD
HETATM   27  C12 UNL     1      -5.375   2.644  15.343  1.00  0.00     0.129 A 
HETATM   28  C15 UNL     1      -7.160   2.956  17.058  1.00  0.00     0.062 C 
HETATM   29  N6  UNL     1      -5.212   1.327  15.819  1.00  0.00    -0.374 N 
HETATM   30  C13 UNL     1      -5.746   0.955  17.101  1.00  0.00     0.121 C 
ATOM     31  H6  UNL     1      -4.717   0.638  15.253  1.00  0.00     0.161 HD
HETATM   32  C14 UNL     1      -7.172   1.460  17.177  1.00  0.00     0.026 C 
ENDBRANCH   4  22
TORSDOF 8
ENDMDL
MODEL 3
REMARK VINA RESULT: -7.575807964      1.968      2.219
REMARK  8 active torsions:
REMARK  status: ('A' for Active; 'I' for Inactive)
REMARK    1  A    between atoms: O1_1  and  C1_3 
REMARK    2  A    between atoms: C2_4  and  C3_5 
REMARK    3  A    between atoms: N1_7  and  C5_8 
REMARK    4  A    between atoms: C5_8  and  C6_9 
REMARK    5  A    between atoms: C6_9  and  C7_10 
REMARK    6  A    between atoms: C7_10  and  C8_11 
REMARK    7  A    between atoms: C9_18  and  N4_19 
REMARK    8  A    between atoms: C16_30  and  O3_31 
ROOT
HETATM    1  C1  UNL     1      -3.071   2.241  11.345  1.00  0.00     0.186 C 
HETATM    2  C2  UNL     1      -2.665   3.680  11.605  1.00  0.00     0.208 C 
HETATM    3  O2  UNL     1      -2.961   3.941  12.933  1.00  0.00    -0.349 OA
HETATM    4  C9  UNL     1      -3.743   2.946  13.447  1.00  0.00     0.262 C 
HETATM    5  C16 UNL     1      -4.306   2.178  12.259  1.00  0.00     0.199 C 
ENDROOT
BRANCH   2   6
HETATM    6  C3  UNL     1      -1.248   3.919  11.255  1.00  0.00     0.075 A 
HETATM    7  C4  UNL     1      -0.764   4.252  10.005  1.00  0.00     0.140 A 
HETATM    8  N1  UNL     1       0.592   4.392  10.063  1.00  0.00    -0.287 N 
HETATM    9  N2  UNL     1       0.917   4.154  11.300  1.00  0.00    -0.241 N 
HETATM   10  N3  UNL     1      -0.156   3.869  12.041  1.00  0.00    -0.286 N 
ATOM     11  H2  UNL     1       1.871   4.181  11.660  1.00  0.00     0.208 HD
ATOM     12  H3  UNL     1      -0.150   3.649  13.036  1.00  0.00     0.188 HD
BRANCH   8  13
HETATM   13  C5  UNL     1       1.499   4.732   8.997  1.00  0.00     0.150 C 
BRANCH  13  14
HETATM   14  C6  UNL     1       2.922   4.382   9.306  1.00  0.00     0.024 C 
BRANCH  14  15
HETATM   15  C7  UNL     1       3.846   4.389   8.138  1.00  0.00     0.033 C 
BRANCH  15  16
HETATM   16  C8  UNL     1       5.224   3.891   8.423  1.00  0.00     0.222 C 
HETATM   17  F1  UNL     1       5.201   2.508   8.454  1.00  0.00    -0.255 F 
ENDBRANCH  15  16
ENDBRANCH  14  15
ENDBRANCH  13  14
ENDBRANCH   8  13
ENDBRANCH   2   6
BRANCH   1  18
HETATM   18  O1  UNL     1      -2.089   1.360  11.840  1.00  0.00    -0.390 OA
ATOM     19  H1  UNL     1      -1.665   1.735  12.603  1.00  0.00     0.210 HD
ENDBRANCH   1  18
BRANCH   5  20
HETATM   20  O3  UNL     1      -4.660   0.895  12.560  1.00  0.00    -0.388 OA
ATOM     21  H3  UNL     1      -5.580   0.820  12.786  1.00  0.00     0.210 HD
ENDBRANCH   5  20
BRANCH   4  22
HETATM   22  N4  UNL     1      -4.799   3.375  14.326  1.00  0.00    -0.298 N 
HETATM   23  C10 UNL     1      -5.388   4.581  14.308  1.00  0.00     0.187 A 
HETATM   24  N5  UNL     1      -6.329   4.630  15.266  1.00  0.00    -0.352 N 
HETATM   25  C11 UNL     1      -6.359   3.456  15.912  1.00  0.00     0.054 A 
ATOM     26  H5  UNL     1      -6.925   5.432  15.468  1.00  0.00     0.166 HD
HETATM   27  C12 UNL     1      -5.396   2.668  15.320  1.00  0.00     0.129 A 
HETATM   28  C15 UNL     1      -7.186   2.976  17.032  1.00  0.00     0.062 C 
HETATM   29  N6  UNL     1      -5.213   1.360  15.815  1.00  0.00    -0.374 N 
HETATM   30  C13 UNL     1      -5.740   0.998  17.103  1.00  0.00     0.121 C 
ATOM     31  H6  UNL     1      -4.707   0.671  15.259  1.00  0.00     0.161 HD
HETATM   32  C14 UNL     1      -7.174   1.482  17.172  1.00  0.00     0.026 C 
ENDBRANCH   4  22
TORSDOF 8
ENDMDL
MODEL 4
REMARK VINA RESULT: -7.525894610      2.696      3.155
REMARK  8 active torsions:
REMARK  status: ('A' for Active; 'I' for Inactive)
REMARK    1  A    between atoms: O1_1  and  C1_3 
REMARK    2  A    between atoms: C2_4  and  C3_5 
REMARK    3  A    between atoms: N1_7  and  C5_8 
REMARK    4  A    between atoms: C5_8  and  C6_9 
REMARK    5  A    between atoms: C6_9  and  C7_10 
REMARK    6  A    between atoms: C7_10  and  C8_11 
REMARK    7  A    between atoms: C9_18  and  N4_19 
REMARK    8  A    between atoms: C16_30  and  O3_31 
ROOT
HETATM    1  C1  UNL     1      -3.049   2.291  11.354  1.00  0.00     0.186 C 
HETATM    2  C2  UNL     1      -2.590   3.701  11.680  1.00  0.00     0.208 C 
HETATM    3  O2  UNL     1      -2.892   3.915  13.016  1.00  0.00    -0.349 OA
HETATM    4  C9  UNL     1      -3.717   2.930  13.477  1.00  0.00     0.262 C 
HETATM    5  C16 UNL     1      -4.296   2.236  12.252  1.00  0.00     0.199 C 
ENDROOT
BRANCH   2   6
HETATM    6  C3  UNL     1      -1.162   3.900  11.355  1.00  0.00     0.075 A 
HETATM    7  C4  UNL     1      -0.643   4.181  10.106  1.00  0.00     0.140 A 
HETATM    8  N1  UNL     1       0.713   4.296  10.190  1.00  0.00    -0.287 N 
HETATM    9  N2  UNL     1       1.006   4.092  11.442  1.00  0.00    -0.241 N 
HETATM   10  N3  UNL     1      -0.089   3.853  12.166  1.00  0.00    -0.286 N 
ATOM     11  H2  UNL     1       1.953   4.112  11.822  1.00  0.00     0.208 HD
ATOM     12  H3  UNL     1      -0.109   3.666  13.169  1.00  0.00     0.188 HD
BRANCH   8  13
HETATM   13  C5  UNL     1       1.651   4.582   9.135  1.00  0.00     0.150 C 
BRANCH  13  14
HETATM   14  C6  UNL     1       0.997   5.140   7.908  1.00  0.00     0.024 C 
BRANCH  14  15
HETATM   15  C7  UNL     1       0.938   4.214   6.743  1.00  0.00     0.033 C 
BRANCH  15  16
HETATM   16  C8  UNL     1       1.052   4.873   5.408  1.00  0.00     0.222 C 
HETATM   17  F1  UNL     1      -0.077   4.574   4.665  1.00  0.00    -0.255 F 
ENDBRANCH  15  16
ENDBRANCH  14  15
ENDBRANCH  13  14
ENDBRANCH   8  13
ENDBRANCH   2   6
BRANCH   1  18
HETATM   18  O1  UNL     1      -2.106   1.352  11.820  1.00  0.00    -0.390 OA
ATOM     19  H1  UNL     1      -1.248   1.541  11.459  1.00  0.00     0.210 HD
ENDBRANCH   1  18
BRANCH   5  20
HETATM   20  O3  UNL     1      -4.702   0.956  12.493  1.00  0.00    -0.388 OA
ATOM     21  H3  UNL     1      -4.015   0.323  12.321  1.00  0.00     0.210 HD
ENDBRANCH   5  20
BRANCH   4  22
HETATM   22  N4  UNL     1      -4.766   3.362  14.364  1.00  0.00    -0.298 N 
HETATM   23  C10 UNL     1      -5.335   4.577  14.367  1.00  0.00     0.187 A 
HETATM   24  N5  UNL     1      -6.275   4.625  15.326  1.00  0.00    -0.352 N 
HETATM   25  C11 UNL     1      -6.324   3.441  15.952  1.00  0.00     0.054 A 
ATOM     26  H5  UNL     1      -6.858   5.433  15.542  1.00  0.00     0.166 HD
HETATM   27  C12 UNL     1      -5.375   2.647  15.346  1.00  0.00     0.129 A 
HETATM   28  C15 UNL     1      -7.159   2.955  17.063  1.00  0.00     0.062 C 
HETATM   29  N6  UNL     1      -5.214   1.328  15.818  1.00  0.00    -0.374 N 
HETATM   30  C13 UNL     1      -5.746   0.953  17.100  1.00  0.00     0.121 C 
ATOM     31  H6  UNL     1      -4.719   0.640  15.250  1.00  0.00     0.161 HD
HETATM   32  C14 UNL     1      -7.172   1.459  17.178  1.00  0.00     0.026 C 
ENDBRANCH   4  22
TORSDOF 8
ENDMDL
MODEL 5
REMARK VINA RESULT: -7.233809732      5.292      7.979
REMARK  8 active torsions:
REMARK  status: ('A' for Active; 'I' for Inactive)
REMARK    1  A    between atoms: O1_1  and  C1_3 
REMARK    2  A    between atoms: C2_4  and  C3_5 
REMARK    3  A    between atoms: N1_7  and  C5_8 
REMARK    4  A    between atoms: C5_8  and  C6_9 
REMARK    5  A    between atoms: C6_9  and  C7_10 
REMARK    6  A    between atoms: C7_10  and  C8_11 
REMARK    7  A    between atoms: C9_18  and  N4_19 
REMARK    8  A    between atoms: C16_30  and  O3_31 
ROOT
HETATM    1  C1  UNL     1      -3.429   4.530  10.264  1.00  0.00     0.186 C 
HETATM    2  C2  UNL     1      -3.543   5.160  11.640  1.00  0.00     0.208 C 
HETATM    3  O2  UNL     1      -4.610   6.042  11.584  1.00  0.00    -0.349 OA
HETATM    4  C9  UNL     1      -4.993   6.238  10.288  1.00  0.00     0.262 C 
HETATM    5  C16 UNL     1      -3.848   5.742   9.416  1.00  0.00     0.199 C 
ENDROOT
BRANCH   2   6
HETATM    6  C3  UNL     1      -3.672   4.137  12.700  1.00  0.00     0.075 A 
HETATM    7  C4  UNL     1      -4.374   4.275  13.882  1.00  0.00     0.140 A 
HETATM    8  N1  UNL     1      -4.268   3.127  14.611  1.00  0.00    -0.287 N 
HETATM    9  N2  UNL     1      -3.530   2.325  13.900  1.00  0.00    -0.241 N 
HETATM   10  N3  UNL     1      -3.157   2.895  12.752  1.00  0.00    -0.286 N 
ATOM     11  H2  UNL     1      -3.270   1.380  14.183  1.00  0.00     0.208 HD
ATOM     12  H3  UNL     1      -2.578   2.461  12.034  1.00  0.00     0.188 HD
BRANCH   8  13
HETATM   13  C5  UNL     1      -4.841   2.834  15.900  1.00  0.00     0.150 C 
BRANCH  13  14
HETATM   14  C6  UNL     1      -4.779   1.380  16.251  1.00  0.00     0.024 C 
BRANCH  14  15
HETATM   15  C7  UNL     1      -5.796   0.920  17.238  1.00  0.00     0.033 C 
BRANCH  15  16
HETATM   16  C8  UNL     1      -6.947   1.850  17.435  1.00  0.00     0.222 C 
HETATM   17  F1  UNL     1      -8.028   1.383  16.710  1.00  0.00    -0.255 F 
ENDBRANCH  15  16
ENDBRANCH  14  15
ENDBRANCH  13  14
ENDBRANCH   8  13
ENDBRANCH   2   6
BRANCH   1  18
HETATM   18  O1  UNL     1      -4.390   3.510  10.113  1.00  0.00    -0.390 OA
ATOM     19  H1  UNL     1      -4.094   2.714  10.539  1.00  0.00     0.210 HD
ENDBRANCH   1  18
BRANCH   5  20
HETATM   20  O3  UNL     1      -4.238   5.382   8.159  1.00  0.00    -0.388 OA
ATOM     21  H3  UNL     1      -4.464   6.134   7.624  1.00  0.00     0.210 HD
ENDBRANCH   5  20
BRANCH   4  22
HETATM   22  N4  UNL     1      -5.351   7.589   9.943  1.00  0.00    -0.298 N 
HETATM   23  C10 UNL     1      -4.635   8.686  10.234  1.00  0.00     0.187 A 
HETATM   24  N5  UNL     1      -5.270   9.770   9.759  1.00  0.00    -0.352 N 
HETATM   25  C11 UNL     1      -6.403   9.386   9.155  1.00  0.00     0.054 A 
ATOM     26  H5  UNL     1      -4.941  10.732   9.845  1.00  0.00     0.166 HD
HETATM   27  C12 UNL     1      -6.453   8.014   9.271  1.00  0.00     0.129 A 
HETATM   28  C15 UNL     1      -7.459  10.154   8.477  1.00  0.00     0.062 C 
HETATM   29  N6  UNL     1      -7.559   7.341   8.712  1.00  0.00    -0.374 N 
HETATM   30  C13 UNL     1      -8.749   8.073   8.371  1.00  0.00     0.121 C 
ATOM     31  H6  UNL     1      -7.516   6.334   8.551  1.00  0.00     0.161 HD
HETATM   32  C14 UNL     1      -8.330   9.306   7.597  1.00  0.00     0.026 C 
ENDBRANCH   4  22
TORSDOF 8
ENDMDL
