MODEL 1
REMARK VINA RESULT: -7.599782410      0.000      0.000
REMARK  9 active torsions:
REMARK  status: ('A' for Active; 'I' for Inactive)
REMARK    1  A    between atoms: C2_2  and  C3_3 
REMARK    2  A    between atoms: C3_3  and  O1_4 
REMARK    3  A    between atoms: O1_4  and  N1_5 
REMARK    4  A    between atoms: C4_6  and  O2_7 
REMARK    5  A    between atoms: C6_10  and  C7_11 
REMARK    6  A    between atoms: C7_11  and  O3_12 
REMARK    7  A    between atoms: C7_11  and  N2_14 
REMARK    8  A    between atoms: N2_14  and  C8_16 
REMARK    9  A    between atoms: C9_21  and  N5_22 
ROOT
HETATM    1  C7  UNL     1      -4.000   2.709  10.985  1.00  0.00     0.258 C 
ENDROOT
BRANCH   1   2
HETATM    2  C6  UNL     1      -4.281   2.418  12.404  1.00  0.00     0.052 A 
HETATM    3  C5  UNL     1      -4.293   1.137  12.908  1.00  0.00     0.074 A 
HETATM    4  C4  UNL     1      -4.587   1.232  14.265  1.00  0.00     0.171 A 
HETATM    5  N1  UNL     1      -4.751   2.524  14.587  1.00  0.00    -0.171 N 
HETATM    6  C14 UNL     1      -4.567   3.248  13.459  1.00  0.00     0.227 A 
HETATM    7  F1  UNL     1      -4.655   4.576  13.392  1.00  0.00    -0.183 F 
BRANCH   4   8
HETATM    8  O2  UNL     1      -4.676   0.101  15.095  1.00  0.00    -0.344 OA
ATOM      9  H2  UNL     1      -5.453  -0.332  15.427  1.00  0.00     0.219 HD
ENDBRANCH   4   8
BRANCH   5  10
HETATM   10  O1  UNL     1      -5.043   2.970  15.848  1.00  0.00    -0.265 OA
BRANCH  10  11
HETATM   11  C3  UNL     1      -6.371   3.426  16.141  1.00  0.00     0.229 C 
BRANCH  11  12
HETATM   12  C2  UNL     1      -6.999   2.674  17.226  1.00  0.00    -0.009 C 
HETATM   13  C1  UNL     1      -7.294   1.406  17.096  1.00  0.00     0.009 C 
ENDBRANCH  11  12
ENDBRANCH  10  11
ENDBRANCH   5  10
ENDBRANCH   1   2
BRANCH   1  14
HETATM   14  O3  UNL     1      -5.058   2.178  10.249  1.00  0.00    -0.372 OA
ATOM     15  H3  UNL     1      -5.616   2.908  10.006  1.00  0.00     0.212 HD
ENDBRANCH   1  14
BRANCH   1  16
HETATM   16  N2  UNL     1      -2.784   2.114  10.502  1.00  0.00    -0.339 N 
ATOM     17  H2  UNL     1      -2.779   1.236   9.982  1.00  0.00     0.164 HD
BRANCH  16  18
HETATM   18  C8  UNL     1      -1.680   2.771  10.772  1.00  0.00     0.165 A 
HETATM   19  N3  UNL     1      -1.096   2.970  11.965  1.00  0.00    -0.278 N 
HETATM   20  N4  UNL     1      -0.022   3.640  12.013  1.00  0.00    -0.278 N 
ATOM     21  H3  UNL     1      -1.510   2.589  12.815  1.00  0.00     0.189 HD
HETATM   22  C9  UNL     1       0.530   4.139  10.926  1.00  0.00     0.165 A 
ATOM     23  H4  UNL     1       0.427   3.796  12.916  1.00  0.00     0.189 HD
HETATM   24  S1  UNL     1      -0.604   3.595   9.731  1.00  0.00    -0.015 SA
BRANCH  22  25
HETATM   25  N5  UNL     1       1.691   4.912  10.683  1.00  0.00    -0.356 N 
HETATM   26  C10 UNL     1       2.040   6.010  11.593  1.00  0.00     0.151 C 
HETATM   27  C11 UNL     1       3.371   5.567  12.202  1.00  0.00     0.187 C 
HETATM   28  O4  UNL     1       4.286   5.370  11.194  1.00  0.00    -0.388 OA
HETATM   29  C12 UNL     1       3.831   5.560   9.915  1.00  0.00     0.187 C 
HETATM   30  C13 UNL     1       2.598   4.693   9.585  1.00  0.00     0.151 C 
ENDBRANCH  22  25
ENDBRANCH  16  18
ENDBRANCH   1  16
TORSDOF 9
ENDMDL
MODEL 2
REMARK VINA RESULT: -7.406237286      1.492      1.823
REMARK  9 active torsions:
REMARK  status: ('A' for Active; 'I' for Inactive)
REMARK    1  A    between atoms: C2_2  and  C3_3 
REMARK    2  A    between atoms: C3_3  and  O1_4 
REMARK    3  A    between atoms: O1_4  and  N1_5 
REMARK    4  A    between atoms: C4_6  and  O2_7 
REMARK    5  A    between atoms: C6_10  and  C7_11 
REMARK    6  A    between atoms: C7_11  and  O3_12 
REMARK    7  A    between atoms: C7_11  and  N2_14 
REMARK    8  A    between atoms: N2_14  and  C8_16 
REMARK    9  A    between atoms: C9_21  and  N5_22 
ROOT
HETATM    1  C7  UNL     1      -4.105   2.040  10.848  1.00  0.00     0.258 C 
ENDROOT
BRANCH   1   2
HETATM    2  C6  UNL     1      -4.343   1.949  12.301  1.00  0.00     0.052 A 
HETATM    3  C5  UNL     1      -4.335   0.751  12.977  1.00  0.00     0.074 A 
HETATM    4  C4  UNL     1      -4.589   1.032  14.316  1.00  0.00     0.171 A 
HETATM    5  N1  UNL     1      -4.751   2.357  14.460  1.00  0.00    -0.171 N 
HETATM    6  C14 UNL     1      -4.603   2.917  13.238  1.00  0.00     0.227 A 
HETATM    7  F1  UNL     1      -4.699   4.223  12.989  1.00  0.00    -0.183 F 
BRANCH   4   8
HETATM    8  O2  UNL     1      -4.649   0.028  15.297  1.00  0.00    -0.344 OA
ATOM      9  H2  UNL     1      -5.304  -0.650  15.415  1.00  0.00     0.219 HD
ENDBRANCH   4   8
BRANCH   5  10
HETATM   10  O1  UNL     1      -5.008   2.973  15.655  1.00  0.00    -0.265 OA
BRANCH  10  11
HETATM   11  C3  UNL     1      -6.332   3.455  15.925  1.00  0.00     0.229 C 
BRANCH  11  12
HETATM   12  C2  UNL     1      -6.949   2.796  17.074  1.00  0.00    -0.009 C 
HETATM   13  C1  UNL     1      -7.314   1.540  17.027  1.00  0.00     0.009 C 
ENDBRANCH  11  12
ENDBRANCH  10  11
ENDBRANCH   5  10
ENDBRANCH   1   2
BRANCH   1  14
HETATM   14  O3  UNL     1      -4.894   1.060  10.248  1.00  0.00    -0.372 OA
ATOM     15  H3  UNL     1      -5.284   1.455   9.477  1.00  0.00     0.212 HD
ENDBRANCH   1  14
BRANCH   1  16
HETATM   16  N2  UNL     1      -2.740   1.799  10.469  1.00  0.00    -0.339 N 
ATOM     17  H2  UNL     1      -2.462   0.975   9.936  1.00  0.00     0.164 HD
BRANCH  16  18
HETATM   18  C8  UNL     1      -1.872   2.708  10.851  1.00  0.00     0.165 A 
HETATM   19  N3  UNL     1      -0.862   2.582  11.727  1.00  0.00    -0.278 N 
HETATM   20  N4  UNL     1      -0.131   3.589  11.962  1.00  0.00    -0.278 N 
ATOM     21  H3  UNL     1      -0.688   1.693  12.195  1.00  0.00     0.189 HD
HETATM   22  C9  UNL     1      -0.337   4.746  11.368  1.00  0.00     0.165 A 
ATOM     23  H4  UNL     1       0.638   3.502  12.628  1.00  0.00     0.189 HD
HETATM   24  S1  UNL     1      -1.710   4.344  10.386  1.00  0.00    -0.015 SA
BRANCH  22  25
HETATM   25  N5  UNL     1       0.296   6.011  11.436  1.00  0.00    -0.356 N 
HETATM   26  C10 UNL     1      -0.474   7.228  11.153  1.00  0.00     0.151 C 
HETATM   27  C11 UNL     1      -0.460   7.983  12.483  1.00  0.00     0.187 C 
HETATM   28  O4  UNL     1       0.843   8.225  12.851  1.00  0.00    -0.388 OA
HETATM   29  C12 UNL     1       1.812   7.729  12.019  1.00  0.00     0.187 C 
HETATM   30  C13 UNL     1       1.680   6.209  11.787  1.00  0.00     0.151 C 
ENDBRANCH  22  25
ENDBRANCH  16  18
ENDBRANCH   1  16
TORSDOF 9
ENDMDL
MODEL 3
REMARK VINA RESULT: -7.348820128      1.321      1.456
REMARK  9 active torsions:
REMARK  status: ('A' for Active; 'I' for Inactive)
REMARK    1  A    between atoms: C2_2  and  C3_3 
REMARK    2  A    between atoms: C3_3  and  O1_4 
REMARK    3  A    between atoms: O1_4  and  N1_5 
REMARK    4  A    between atoms: C4_6  and  O2_7 
REMARK    5  A    between atoms: C6_10  and  C7_11 
REMARK    6  A    between atoms: C7_11  and  O3_12 
REMARK    7  A    between atoms: C7_11  and  N2_14 
REMARK    8  A    between atoms: N2_14  and  C8_16 
REMARK    9  A    between atoms: C9_21  and  N5_22 
ROOT
HETATM    1  C7  UNL     1      -3.765   4.332  12.407  1.00  0.00     0.258 C 
ENDROOT
BRANCH   1   2
HETATM    2  C6  UNL     1      -3.973   3.266  13.406  1.00  0.00     0.052 A 
HETATM    3  C5  UNL     1      -4.288   1.974  13.053  1.00  0.00     0.074 A 
HETATM    4  C4  UNL     1      -4.407   1.244  14.232  1.00  0.00     0.171 A 
HETATM    5  N1  UNL     1      -4.177   2.057  15.274  1.00  0.00    -0.171 N 
HETATM    6  C14 UNL     1      -3.913   3.287  14.776  1.00  0.00     0.227 A 
HETATM    7  F1  UNL     1      -3.638   4.358  15.519  1.00  0.00    -0.183 F 
BRANCH   4   8
HETATM    8  O2  UNL     1      -4.722  -0.126  14.239  1.00  0.00    -0.344 OA
ATOM      9  H2  UNL     1      -4.850  -0.710  13.501  1.00  0.00     0.219 HD
ENDBRANCH   4   8
BRANCH   5  10
HETATM   10  O1  UNL     1      -4.208   1.655  16.583  1.00  0.00    -0.265 OA
BRANCH  10  11
HETATM   11  C3  UNL     1      -5.461   1.283  17.173  1.00  0.00     0.229 C 
BRANCH  11  12
HETATM   12  C2  UNL     1      -6.184   2.426  17.730  1.00  0.00    -0.009 C 
HETATM   13  C1  UNL     1      -6.959   3.172  16.986  1.00  0.00     0.009 C 
ENDBRANCH  11  12
ENDBRANCH  10  11
ENDBRANCH   5  10
ENDBRANCH   1   2
BRANCH   1  14
HETATM   14  O3  UNL     1      -5.029   4.725  11.969  1.00  0.00    -0.372 OA
ATOM     15  H3  UNL     1      -5.646   4.468  12.645  1.00  0.00     0.212 HD
ENDBRANCH   1  14
BRANCH   1  16
HETATM   16  N2  UNL     1      -3.012   3.909  11.258  1.00  0.00    -0.339 N 
ATOM     17  H2  UNL     1      -3.461   3.511  10.432  1.00  0.00     0.164 HD
BRANCH  16  18
HETATM   18  C8  UNL     1      -1.711   4.067  11.337  1.00  0.00     0.165 A 
HETATM   19  N3  UNL     1      -0.812   3.295  11.968  1.00  0.00    -0.278 N 
HETATM   20  N4  UNL     1       0.410   3.624  11.926  1.00  0.00    -0.278 N 
ATOM     21  H3  UNL     1      -1.108   2.460  12.472  1.00  0.00     0.189 HD
HETATM   22  C9  UNL     1       0.814   4.698  11.279  1.00  0.00     0.165 A 
ATOM     23  H4  UNL     1       1.099   3.043  12.404  1.00  0.00     0.189 HD
HETATM   24  S1  UNL     1      -0.706   5.284  10.682  1.00  0.00    -0.015 SA
BRANCH  22  25
HETATM   25  N5  UNL     1       2.079   5.299  11.070  1.00  0.00    -0.356 N 
HETATM   26  C10 UNL     1       2.585   6.285  12.033  1.00  0.00     0.151 C 
HETATM   27  C11 UNL     1       3.831   5.618  12.615  1.00  0.00     0.187 C 
HETATM   28  O4  UNL     1       4.711   5.338  11.596  1.00  0.00    -0.388 OA
HETATM   29  C12 UNL     1       4.295   5.657  10.330  1.00  0.00     0.187 C 
HETATM   30  C13 UNL     1       2.948   5.003   9.960  1.00  0.00     0.151 C 
ENDBRANCH  22  25
ENDBRANCH  16  18
ENDBRANCH   1  16
TORSDOF 9
ENDMDL
MODEL 4
REMARK VINA RESULT: -7.309070429      0.888      1.057
REMARK  9 active torsions:
REMARK  status: ('A' for Active; 'I' for Inactive)
REMARK    1  A    between atoms: C2_2  and  C3_3 
REMARK    2  A    between atoms: C3_3  and  O1_4 
REMARK    3  A    between atoms: O1_4  and  N1_5 
REMARK    4  A    between atoms: C4_6  and  O2_7 
REMARK    5  A    between atoms: C6_10  and  C7_11 
REMARK    6  A    between atoms: C7_11  and  O3_12 
REMARK    7  A    between atoms: C7_11  and  N2_14 
REMARK    8  A    between atoms: N2_14  and  C8_16 
REMARK    9  A    between atoms: C9_21  and  N5_22 
ROOT
HETATM    1  C7  UNL     1      -4.007   2.489  10.955  1.00  0.00     0.258 C 
ENDROOT
BRANCH   1   2
HETATM    2  C6  UNL     1      -4.287   2.265  12.385  1.00  0.00     0.052 A 
HETATM    3  C5  UNL     1      -4.294   1.009  12.949  1.00  0.00     0.074 A 
HETATM    4  C4  UNL     1      -4.588   1.167  14.300  1.00  0.00     0.171 A 
HETATM    5  N1  UNL     1      -4.759   2.472  14.560  1.00  0.00    -0.171 N 
HETATM    6  C14 UNL     1      -4.578   3.143  13.400  1.00  0.00     0.227 A 
HETATM    7  F1  UNL     1      -4.672   4.465  13.270  1.00  0.00    -0.183 F 
BRANCH   4   8
HETATM    8  O2  UNL     1      -4.673   0.076  15.183  1.00  0.00    -0.344 OA
ATOM      9  H2  UNL     1      -4.484   0.048  16.113  1.00  0.00     0.219 HD
ENDBRANCH   4   8
BRANCH   5  10
HETATM   10  O1  UNL     1      -5.054   2.976  15.799  1.00  0.00    -0.265 OA
BRANCH  10  11
HETATM   11  C3  UNL     1      -6.380   3.454  16.064  1.00  0.00     0.229 C 
BRANCH  11  12
HETATM   12  C2  UNL     1      -7.033   2.730  17.154  1.00  0.00    -0.009 C 
HETATM   13  C1  UNL     1      -7.319   1.457  17.053  1.00  0.00     0.009 C 
ENDBRANCH  11  12
ENDBRANCH  10  11
ENDBRANCH   5  10
ENDBRANCH   1   2
BRANCH   1  14
HETATM   14  O3  UNL     1      -5.008   1.833  10.241  1.00  0.00    -0.372 OA
ATOM     15  H3  UNL     1      -4.738   0.925  10.161  1.00  0.00     0.212 HD
ENDBRANCH   1  14
BRANCH   1  16
HETATM   16  N2  UNL     1      -2.741   1.964  10.523  1.00  0.00    -0.339 N 
ATOM     17  H2  UNL     1      -2.656   1.049  10.081  1.00  0.00     0.164 HD
BRANCH  16  18
HETATM   18  C8  UNL     1      -1.700   2.737  10.734  1.00  0.00     0.165 A 
HETATM   19  N3  UNL     1      -0.906   2.792  11.815  1.00  0.00    -0.278 N 
HETATM   20  N4  UNL     1       0.057   3.615  11.823  1.00  0.00    -0.278 N 
ATOM     21  H3  UNL     1      -1.075   2.183  12.616  1.00  0.00     0.189 HD
HETATM   22  C9  UNL     1       0.293   4.410  10.799  1.00  0.00     0.165 A 
ATOM     23  H4  UNL     1       0.664   3.664  12.642  1.00  0.00     0.189 HD
HETATM   24  S1  UNL     1      -0.988   3.926   9.735  1.00  0.00    -0.015 SA
BRANCH  22  25
HETATM   25  N5  UNL     1       1.264   5.406  10.535  1.00  0.00    -0.356 N 
HETATM   26  C10 UNL     1       2.654   5.201  10.962  1.00  0.00     0.151 C 
HETATM   27  C11 UNL     1       3.433   5.151   9.647  1.00  0.00     0.187 C 
HETATM   28  O4  UNL     1       3.233   6.324   8.959  1.00  0.00    -0.388 OA
HETATM   29  C12 UNL     1       2.387   7.233   9.539  1.00  0.00     0.187 C 
HETATM   30  C13 UNL     1       0.995   6.642   9.845  1.00  0.00     0.151 C 
ENDBRANCH  22  25
ENDBRANCH  16  18
ENDBRANCH   1  16
TORSDOF 9
ENDMDL
MODEL 5
REMARK VINA RESULT: -7.276260835      2.488      2.859
REMARK  9 active torsions:
REMARK  status: ('A' for Active; 'I' for Inactive)
REMARK    1  A    between atoms: C2_2  and  C3_3 
REMARK    2  A    between atoms: C3_3  and  O1_4 
REMARK    3  A    between atoms: O1_4  and  N1_5 
REMARK    4  A    between atoms: C4_6  and  O2_7 
REMARK    5  A    between atoms: C6_10  and  C7_11 
REMARK    6  A    between atoms: C7_11  and  O3_12 
REMARK    7  A    between atoms: C7_11  and  N2_14 
REMARK    8  A    between atoms: N2_14  and  C8_16 
REMARK    9  A    between atoms: C9_21  and  N5_22 
ROOT
HETATM    1  C7  UNL     1      -3.912   2.460  11.067  1.00  0.00     0.258 C 
ENDROOT
BRANCH   1   2
HETATM    2  C6  UNL     1      -4.227   2.202  12.485  1.00  0.00     0.052 A 
HETATM    3  C5  UNL     1      -4.226   0.936  13.024  1.00  0.00     0.074 A 
HETATM    4  C4  UNL     1      -4.560   1.061  14.370  1.00  0.00     0.171 A 
HETATM    5  N1  UNL     1      -4.762   2.358  14.650  1.00  0.00    -0.171 N 
HETATM    6  C14 UNL     1      -4.561   3.054  13.508  1.00  0.00     0.227 A 
HETATM    7  F1  UNL     1      -4.675   4.378  13.401  1.00  0.00    -0.183 F 
BRANCH   4   8
HETATM    8  O2  UNL     1      -4.649  -0.048  15.228  1.00  0.00    -0.344 OA
ATOM      9  H2  UNL     1      -5.072  -0.885  15.077  1.00  0.00     0.219 HD
ENDBRANCH   4   8
BRANCH   5  10
HETATM   10  O1  UNL     1      -5.099   2.832  15.889  1.00  0.00    -0.265 OA
BRANCH  10  11
HETATM   11  C3  UNL     1      -6.395   3.413  16.090  1.00  0.00     0.229 C 
BRANCH  11  12
HETATM   12  C2  UNL     1      -7.184   2.700  17.093  1.00  0.00    -0.009 C 
HETATM   13  C1  UNL     1      -7.200   1.393  17.146  1.00  0.00     0.009 C 
ENDBRANCH  11  12
ENDBRANCH  10  11
ENDBRANCH   5  10
ENDBRANCH   1   2
BRANCH   1  14
HETATM   14  O3  UNL     1      -4.358   1.352  10.349  1.00  0.00    -0.372 OA
ATOM     15  H3  UNL     1      -4.863   1.685   9.616  1.00  0.00     0.212 HD
ENDBRANCH   1  14
BRANCH   1  16
HETATM   16  N2  UNL     1      -2.508   2.620  10.806  1.00  0.00    -0.339 N 
ATOM     17  H2  UNL     1      -1.989   1.970  10.215  1.00  0.00     0.164 HD
BRANCH  16  18
HETATM   18  C8  UNL     1      -1.935   3.656  11.375  1.00  0.00     0.165 A 
HETATM   19  N3  UNL     1      -0.944   3.669  12.280  1.00  0.00    -0.278 N 
HETATM   20  N4  UNL     1      -0.527   4.785  12.710  1.00  0.00    -0.278 N 
ATOM     21  H3  UNL     1      -0.534   2.798  12.615  1.00  0.00     0.189 HD
HETATM   22  C9  UNL     1      -1.041   5.923  12.290  1.00  0.00     0.165 A 
ATOM     23  H4  UNL     1       0.226   4.803  13.399  1.00  0.00     0.189 HD
HETATM   24  S1  UNL     1      -2.232   5.326  11.177  1.00  0.00    -0.015 SA
BRANCH  22  25
HETATM   25  N5  UNL     1      -0.788   7.283  12.590  1.00  0.00    -0.356 N 
HETATM   26  C10 UNL     1      -1.901   8.169  12.954  1.00  0.00     0.151 C 
HETATM   27  C11 UNL     1      -1.589   8.567  14.397  1.00  0.00     0.187 C 
HETATM   28  O4  UNL     1      -0.358   9.179  14.441  1.00  0.00    -0.388 OA
HETATM   29  C12 UNL     1       0.321   9.263  13.254  1.00  0.00     0.187 C 
HETATM   30  C13 UNL     1       0.520   7.889  12.580  1.00  0.00     0.151 C 
ENDBRANCH  22  25
ENDBRANCH  16  18
ENDBRANCH   1  16
TORSDOF 9
ENDMDL
