MODEL 1
REMARK VINA RESULT: -4.651386511      0.000      0.000
REMARK  1 active torsions:
REMARK  status: ('A' for Active; 'I' for Inactive)
REMARK    1  A    between atoms: C4_9  and  N3_10 
ROOT
HETATM    1  N1  UNL     1       6.071  -2.982  43.272  1.00  0.00    -0.387 N 
ATOM      2  H11 UNL     1       5.989  -3.686  44.005  1.00  0.00     0.157 HD
ATOM      3  H12 UNL     1       7.067  -2.879  43.075  1.00  0.00     0.157 HD
HETATM    4  C1  UNL     1       5.077  -2.365  42.726  1.00  0.00     0.105 A 
HETATM    5  N2  UNL     1       5.191  -1.385  41.705  1.00  0.00    -0.358 N 
ATOM      6  H2  UNL     1       6.085  -1.072  41.325  1.00  0.00     0.166 HD
HETATM    7  C2  UNL     1       4.074  -0.938  41.312  1.00  0.00     0.064 A 
HETATM    8  C3  UNL     1       2.996  -1.588  42.050  1.00  0.00     0.085 A 
HETATM    9  C4  UNL     1       3.649  -2.513  43.009  1.00  0.00     0.254 A 
ENDROOT
BRANCH   9  10
HETATM   10  N3  UNL     1       3.163  -3.852  42.782  1.00  0.00    -0.068 N 
ATOM     11  H33 UNL     1       3.924  -4.528  42.834  1.00  0.00     0.275 HD
ATOM     12  H32 UNL     1       2.600  -4.172  43.570  1.00  0.00     0.275 HD
ATOM     13  H31 UNL     1       2.650  -3.948  41.905  1.00  0.00     0.275 HD
ENDBRANCH   9  10
TORSDOF 1
ENDMDL
MODEL 2
REMARK VINA RESULT: -4.276988653      1.097      2.225
REMARK  1 active torsions:
REMARK  status: ('A' for Active; 'I' for Inactive)
REMARK    1  A    between atoms: C4_9  and  N3_10 
ROOT
HETATM    1  N1  UNL     1       3.051  -3.882  43.132  1.00  0.00    -0.387 N 
ATOM      2  H11 UNL     1       3.510  -4.785  43.256  1.00  0.00     0.157 HD
ATOM      3  H12 UNL     1       2.080  -4.006  43.419  1.00  0.00     0.157 HD
HETATM    4  C1  UNL     1       3.628  -2.815  42.693  1.00  0.00     0.105 A 
HETATM    5  N2  UNL     1       2.990  -1.558  42.521  1.00  0.00    -0.358 N 
ATOM      6  H2  UNL     1       2.001  -1.399  42.718  1.00  0.00     0.166 HD
HETATM    7  C2  UNL     1       3.768  -0.654  42.098  1.00  0.00     0.064 A 
HETATM    8  C3  UNL     1       5.108  -1.202  41.917  1.00  0.00     0.085 A 
HETATM    9  C4  UNL     1       5.022  -2.638  42.281  1.00  0.00     0.254 A 
ENDROOT
BRANCH   9  10
HETATM   10  N3  UNL     1       5.964  -2.918  43.336  1.00  0.00    -0.068 N 
ATOM     11  H33 UNL     1       6.524  -2.094  43.553  1.00  0.00     0.275 HD
ATOM     12  H32 UNL     1       5.485  -3.034  44.229  1.00  0.00     0.275 HD
ATOM     13  H31 UNL     1       6.561  -3.721  43.136  1.00  0.00     0.275 HD
ENDBRANCH   9  10
TORSDOF 1
ENDMDL
MODEL 3
REMARK VINA RESULT: -4.242957909      0.971      2.176
REMARK  1 active torsions:
REMARK  status: ('A' for Active; 'I' for Inactive)
REMARK    1  A    between atoms: C4_9  and  N3_10 
ROOT
HETATM    1  N1  UNL     1       6.267  -2.501  43.052  1.00  0.00    -0.387 N 
ATOM      2  H11 UNL     1       6.979  -1.778  42.943  1.00  0.00     0.157 HD
ATOM      3  H12 UNL     1       6.704  -3.265  43.569  1.00  0.00     0.157 HD
HETATM    4  C1  UNL     1       5.059  -2.422  42.606  1.00  0.00     0.105 A 
HETATM    5  N2  UNL     1       4.069  -3.429  42.759  1.00  0.00    -0.358 N 
ATOM      6  H2  UNL     1       4.241  -4.319  43.227  1.00  0.00     0.166 HD
HETATM    7  C2  UNL     1       2.951  -3.112  42.256  1.00  0.00     0.064 A 
HETATM    8  C3  UNL     1       3.036  -1.781  41.665  1.00  0.00     0.085 A 
HETATM    9  C4  UNL     1       4.433  -1.326  41.866  1.00  0.00     0.254 A 
ENDROOT
BRANCH   9  10
HETATM   10  N3  UNL     1       4.427  -0.081  42.594  1.00  0.00    -0.068 N 
ATOM     11  H33 UNL     1       3.526   0.072  43.046  1.00  0.00     0.275 HD
ATOM     12  H32 UNL     1       5.021  -0.142  43.422  1.00  0.00     0.275 HD
ATOM     13  H31 UNL     1       4.686   0.721  42.019  1.00  0.00     0.275 HD
ENDBRANCH   9  10
TORSDOF 1
ENDMDL
MODEL 4
REMARK VINA RESULT: -4.227897383      1.378      2.361
REMARK  1 active torsions:
REMARK  status: ('A' for Active; 'I' for Inactive)
REMARK    1  A    between atoms: C4_9  and  N3_10 
ROOT
HETATM    1  N1  UNL     1       2.952  -0.151  41.929  1.00  0.00    -0.387 N 
ATOM      2  H11 UNL     1       1.957  -0.178  42.153  1.00  0.00     0.157 HD
ATOM      3  H12 UNL     1       3.128   0.754  41.492  1.00  0.00     0.157 HD
HETATM    4  C1  UNL     1       3.790  -1.102  42.170  1.00  0.00     0.105 A 
HETATM    5  N2  UNL     1       5.175  -1.063  41.858  1.00  0.00    -0.358 N 
ATOM      6  H2  UNL     1       5.624  -0.273  41.394  1.00  0.00     0.166 HD
HETATM    7  C2  UNL     1       5.797  -2.107  42.211  1.00  0.00     0.064 A 
HETATM    8  C3  UNL     1       4.873  -3.042  42.844  1.00  0.00     0.085 A 
HETATM    9  C4  UNL     1       3.536  -2.400  42.796  1.00  0.00     0.254 A 
ENDROOT
BRANCH   9  10
HETATM   10  N3  UNL     1       3.015  -2.289  44.137  1.00  0.00    -0.068 N 
ATOM     11  H33 UNL     1       2.312  -1.552  44.194  1.00  0.00     0.275 HD
ATOM     12  H32 UNL     1       2.432  -3.094  44.367  1.00  0.00     0.275 HD
ATOM     13  H31 UNL     1       3.742  -2.153  44.839  1.00  0.00     0.275 HD
ENDBRANCH   9  10
TORSDOF 1
ENDMDL
MODEL 5
REMARK VINA RESULT: -3.983019312      1.449      2.456
REMARK  1 active torsions:
REMARK  status: ('A' for Active; 'I' for Inactive)
REMARK    1  A    between atoms: C4_9  and  N3_10 
ROOT
HETATM    1  N1  UNL     1       2.954  -2.648  44.217  1.00  0.00    -0.387 N 
ATOM      2  H11 UNL     1       2.115  -2.105  44.419  1.00  0.00     0.157 HD
ATOM      3  H12 UNL     1       2.873  -3.518  44.745  1.00  0.00     0.157 HD
HETATM    4  C1  UNL     1       3.910  -2.269  43.438  1.00  0.00     0.105 A 
HETATM    5  N2  UNL     1       5.078  -3.025  43.157  1.00  0.00    -0.358 N 
ATOM      6  H2  UNL     1       5.268  -3.939  43.569  1.00  0.00     0.166 HD
HETATM    7  C2  UNL     1       5.862  -2.454  42.343  1.00  0.00     0.064 A 
HETATM    8  C3  UNL     1       5.304  -1.167  41.942  1.00  0.00     0.085 A 
HETATM    9  C4  UNL     1       4.026  -1.021  42.681  1.00  0.00     0.254 A 
ENDROOT
BRANCH   9  10
HETATM   10  N3  UNL     1       2.951  -0.829  41.738  1.00  0.00    -0.068 N 
ATOM     11  H33 UNL     1       2.045  -0.940  42.193  1.00  0.00     0.275 HD
ATOM     12  H32 UNL     1       2.881   0.150  41.462  1.00  0.00     0.275 HD
ATOM     13  H31 UNL     1       3.024  -1.434  40.920  1.00  0.00     0.275 HD
ENDBRANCH   9  10
TORSDOF 1
ENDMDL
