MODEL 1
REMARK VINA RESULT: -4.557447989      0.000      0.000
REMARK  0 active torsions:
REMARK  status: ('A' for Active; 'I' for Inactive)
ROOT
HETATM    1  C1  UNL     1      11.584   4.730  44.922  1.00  0.00     0.173 C 
HETATM    2  N1  UNL     1      10.310   4.019  44.822  1.00  0.00    -0.304 N 
HETATM    3  N2  UNL     1       9.338   4.249  44.032  1.00  0.00    -0.231 N 
ATOM      4  H2  UNL     1       9.315   4.991  43.334  1.00  0.00     0.205 HD
HETATM    5  N3  UNL     1       8.305   3.332  44.264  1.00  0.00    -0.014 NA
HETATM    6  N4  UNL     1       8.970   2.218  44.797  1.00  0.00    -0.104 NA
HETATM    7  C2  UNL     1       9.933   2.892  45.645  1.00  0.00     0.275 C 
ENDROOT
TORSDOF 0
ENDMDL
MODEL 2
REMARK VINA RESULT: -4.296075362      1.282      1.935
REMARK  0 active torsions:
REMARK  status: ('A' for Active; 'I' for Inactive)
ROOT
HETATM    1  C1  UNL     1      11.015   3.329  47.217  1.00  0.00     0.173 C 
HETATM    2  N1  UNL     1      10.151   3.181  46.046  1.00  0.00    -0.304 N 
HETATM    3  N2  UNL     1       9.171   2.384  45.884  1.00  0.00    -0.231 N 
ATOM      4  H2  UNL     1       8.843   1.712  46.577  1.00  0.00     0.205 HD
HETATM    5  N3  UNL     1       8.611   2.566  44.613  1.00  0.00    -0.014 NA
HETATM    6  N4  UNL     1       8.932   3.894  44.301  1.00  0.00    -0.104 NA
HETATM    7  C2  UNL     1      10.281   3.950  44.829  1.00  0.00     0.275 C 
ENDROOT
TORSDOF 0
ENDMDL
MODEL 3
REMARK VINA RESULT: -4.205071267      1.848      2.357
REMARK  0 active torsions:
REMARK  status: ('A' for Active; 'I' for Inactive)
ROOT
HETATM    1  C1  UNL     1      10.761   4.312  44.288  1.00  0.00     0.173 C 
HETATM    2  N1  UNL     1      10.488   3.596  45.532  1.00  0.00    -0.304 N 
HETATM    3  N2  UNL     1      10.967   3.816  46.691  1.00  0.00    -0.231 N 
ATOM      4  H2  UNL     1      11.634   4.553  46.918  1.00  0.00     0.205 HD
HETATM    5  N3  UNL     1      10.442   2.898  47.609  1.00  0.00    -0.014 NA
HETATM    6  N4  UNL     1       9.210   2.540  47.046  1.00  0.00    -0.104 NA
HETATM    7  C2  UNL     1       9.591   2.467  45.649  1.00  0.00     0.275 C 
ENDROOT
TORSDOF 0
ENDMDL
MODEL 4
REMARK VINA RESULT: -4.071527439      1.809      2.185
REMARK  0 active torsions:
REMARK  status: ('A' for Active; 'I' for Inactive)
ROOT
HETATM    1  C1  UNL     1      11.072   4.314  44.112  1.00  0.00     0.173 C 
HETATM    2  N1  UNL     1      10.570   3.738  45.358  1.00  0.00    -0.304 N 
HETATM    3  N2  UNL     1       9.648   2.873  45.512  1.00  0.00    -0.231 N 
ATOM      4  H2  UNL     1       9.113   2.447  44.755  1.00  0.00     0.205 HD
HETATM    5  N3  UNL     1       9.478   2.592  46.873  1.00  0.00    -0.014 NA
HETATM    6  N4  UNL     1      10.732   2.882  47.427  1.00  0.00    -0.104 NA
HETATM    7  C2  UNL     1      11.060   4.078  46.675  1.00  0.00     0.275 C 
ENDROOT
TORSDOF 0
ENDMDL
MODEL 5
REMARK VINA RESULT: -3.921827175      7.381      7.792
REMARK  0 active torsions:
REMARK  status: ('A' for Active; 'I' for Inactive)
ROOT
HETATM    1  C1  UNL     1       6.357   3.477  52.378  1.00  0.00     0.173 C 
HETATM    2  N1  UNL     1       6.380   2.232  51.612  1.00  0.00    -0.304 N 
HETATM    3  N2  UNL     1       7.178   1.893  50.679  1.00  0.00    -0.231 N 
ATOM      4  H2  UNL     1       7.942   2.469  50.325  1.00  0.00     0.205 HD
HETATM    5  N3  UNL     1       6.853   0.614  50.211  1.00  0.00    -0.014 NA
HETATM    6  N4  UNL     1       6.227   0.012  51.311  1.00  0.00    -0.104 NA
HETATM    7  C2  UNL     1       5.453   1.137  51.797  1.00  0.00     0.275 C 
ENDROOT
TORSDOF 0
ENDMDL
