MODEL 1
REMARK VINA RESULT: -4.271820191      0.000      0.000
REMARK  0 active torsions:
REMARK  status: ('A' for Active; 'I' for Inactive)
ROOT
HETATM    1  C1  UNL     1       2.951  -3.399  43.626  1.00  0.00     0.179 C 
HETATM    2  N1  UNL     1       3.592  -2.303  42.888  1.00  0.00    -0.282 N 
HETATM    3  N2  UNL     1       3.002  -1.270  42.320  1.00  0.00    -0.308 N 
ATOM      4  H2  UNL     1       1.996  -1.105  42.327  1.00  0.00     0.186 HD
HETATM    5  C2  UNL     1       3.899  -0.463  41.731  1.00  0.00     0.111 A 
HETATM    6  C3  UNL     1       5.135  -1.037  41.949  1.00  0.00     0.068 A 
HETATM    7  C4  UNL     1       4.912  -2.183  42.673  1.00  0.00     0.116 A 
HETATM    8  N3  UNL     1       5.831  -3.009  43.079  1.00  0.00    -0.384 N 
ATOM      9  H31 UNL     1       6.834  -2.918  42.915  1.00  0.00     0.157 HD
ATOM     10  H32 UNL     1       5.666  -3.860  43.616  1.00  0.00     0.157 HD
ENDROOT
TORSDOF 0
ENDMDL
MODEL 2
REMARK VINA RESULT: -3.861525923      1.457      2.499
REMARK  0 active torsions:
REMARK  status: ('A' for Active; 'I' for Inactive)
ROOT
HETATM    1  C1  UNL     1       2.951  -0.486  41.566  1.00  0.00     0.179 C 
HETATM    2  N1  UNL     1       4.052  -1.315  42.072  1.00  0.00    -0.282 N 
HETATM    3  N2  UNL     1       5.265  -1.426  41.570  1.00  0.00    -0.308 N 
ATOM      4  H2  UNL     1       5.594  -0.930  40.741  1.00  0.00     0.186 HD
HETATM    5  C2  UNL     1       6.013  -2.276  42.291  1.00  0.00     0.111 A 
HETATM    6  C3  UNL     1       5.205  -2.726  43.315  1.00  0.00     0.068 A 
HETATM    7  C4  UNL     1       3.987  -2.109  43.152  1.00  0.00     0.116 A 
HETATM    8  N3  UNL     1       2.951  -2.273  43.921  1.00  0.00    -0.384 N 
ATOM      9  H31 UNL     1       2.902  -2.877  44.742  1.00  0.00     0.157 HD
ATOM     10  H32 UNL     1       2.047  -1.816  43.801  1.00  0.00     0.157 HD
ENDROOT
TORSDOF 0
ENDMDL
MODEL 3
REMARK VINA RESULT: -3.765919732      0.792      2.194
REMARK  0 active torsions:
REMARK  status: ('A' for Active; 'I' for Inactive)
ROOT
HETATM    1  C1  UNL     1       2.951  -3.026  44.094  1.00  0.00     0.179 C 
HETATM    2  N1  UNL     1       4.053  -2.517  43.268  1.00  0.00    -0.282 N 
HETATM    3  N2  UNL     1       5.269  -3.017  43.162  1.00  0.00    -0.308 N 
ATOM      4  H2  UNL     1       5.597  -3.845  43.658  1.00  0.00     0.186 HD
HETATM    5  C2  UNL     1       6.018  -2.293  42.315  1.00  0.00     0.111 A 
HETATM    6  C3  UNL     1       5.209  -1.271  41.863  1.00  0.00     0.068 A 
HETATM    7  C4  UNL     1       3.990  -1.436  42.475  1.00  0.00     0.116 A 
HETATM    8  N3  UNL     1       2.953  -0.670  42.308  1.00  0.00    -0.384 N 
ATOM      9  H31 UNL     1       2.905   0.152  41.705  1.00  0.00     0.157 HD
ATOM     10  H32 UNL     1       2.048  -0.792  42.762  1.00  0.00     0.157 HD
ENDROOT
TORSDOF 0
ENDMDL
MODEL 4
REMARK VINA RESULT: -3.684032716      1.136      2.324
REMARK  0 active torsions:
REMARK  status: ('A' for Active; 'I' for Inactive)
ROOT
HETATM    1  C1  UNL     1       3.182  -0.238  41.275  1.00  0.00     0.179 C 
HETATM    2  N1  UNL     1       3.659  -1.258  42.217  1.00  0.00    -0.282 N 
HETATM    3  N2  UNL     1       2.951  -1.899  43.126  1.00  0.00    -0.308 N 
ATOM      4  H2  UNL     1       1.954  -1.758  43.286  1.00  0.00     0.186 HD
HETATM    5  C2  UNL     1       3.714  -2.764  43.814  1.00  0.00     0.111 A 
HETATM    6  C3  UNL     1       4.987  -2.651  43.294  1.00  0.00     0.068 A 
HETATM    7  C4  UNL     1       4.922  -1.704  42.301  1.00  0.00     0.116 A 
HETATM    8  N3  UNL     1       5.922  -1.311  41.567  1.00  0.00    -0.384 N 
ATOM      9  H31 UNL     1       6.882  -1.649  41.630  1.00  0.00     0.157 HD
ATOM     10  H32 UNL     1       5.874  -0.608  40.830  1.00  0.00     0.157 HD
ENDROOT
TORSDOF 0
ENDMDL
MODEL 5
REMARK VINA RESULT: -3.513819953      8.316      9.130
REMARK  0 active torsions:
REMARK  status: ('A' for Active; 'I' for Inactive)
ROOT
HETATM    1  C1  UNL     1      11.005   3.278  47.796  1.00  0.00     0.179 C 
HETATM    2  N1  UNL     1      10.809   3.634  46.386  1.00  0.00    -0.282 N 
HETATM    3  N2  UNL     1      11.437   4.571  45.703  1.00  0.00    -0.308 N 
ATOM      4  H2  UNL     1      12.160   5.179  46.089  1.00  0.00     0.186 HD
HETATM    5  C2  UNL     1      11.002   4.621  44.434  1.00  0.00     0.111 A 
HETATM    6  C3  UNL     1      10.034   3.645  44.320  1.00  0.00     0.068 A 
HETATM    7  C4  UNL     1       9.935   3.046  45.554  1.00  0.00     0.116 A 
HETATM    8  N3  UNL     1       9.127   2.073  45.856  1.00  0.00    -0.384 N 
ATOM      9  H31 UNL     1       8.463   1.626  45.223  1.00  0.00     0.157 HD
ATOM     10  H32 UNL     1       9.052   1.629  46.771  1.00  0.00     0.157 HD
ENDROOT
TORSDOF 0
ENDMDL
