MODEL 1
REMARK VINA RESULT: -3.940353794      0.000      0.000
REMARK  1 active torsions:
REMARK  status: ('A' for Active; 'I' for Inactive)
REMARK    1  A    between atoms: N1_1  and  C1_5 
ROOT
HETATM    1  C1  UNL     1       3.987  -2.018  42.894  1.00  0.00     0.209 C 
HETATM    2  C2  UNL     1       5.106  -1.468  41.976  1.00  0.00     0.061 C 
HETATM    3  C3  UNL     1       4.277  -0.219  42.201  1.00  0.00     0.103 A 
HETATM    4  N2  UNL     1       3.039   0.090  41.708  1.00  0.00    -0.407 N 
ATOM      5  H2  UNL     1       2.425   0.844  41.397  1.00  0.00     0.154 HD
HETATM    6  C4  UNL     1       3.152  -1.261  41.897  1.00  0.00     0.129 A 
ENDROOT
BRANCH   1   7
HETATM    7  N1  UNL     1       3.940  -3.431  42.773  1.00  0.00    -0.073 N 
ATOM      8  H13 UNL     1       4.043  -3.741  41.807  1.00  0.00     0.274 HD
ATOM      9  H12 UNL     1       4.771  -3.880  43.157  1.00  0.00     0.274 HD
ATOM     10  H11 UNL     1       3.080  -3.774  43.200  1.00  0.00     0.274 HD
ENDBRANCH   1   7
TORSDOF 1
ENDMDL
MODEL 2
REMARK VINA RESULT: -3.756980002      1.203      1.753
REMARK  1 active torsions:
REMARK  status: ('A' for Active; 'I' for Inactive)
REMARK    1  A    between atoms: N1_1  and  C1_5 
ROOT
HETATM    1  C1  UNL     1       4.792  -2.585  42.495  1.00  0.00     0.209 C 
HETATM    2  C2  UNL     1       3.597  -2.631  43.478  1.00  0.00     0.061 C 
HETATM    3  C3  UNL     1       2.992  -1.853  42.328  1.00  0.00     0.103 A 
HETATM    4  N2  UNL     1       3.252  -0.570  41.929  1.00  0.00    -0.407 N 
ATOM      5  H2  UNL     1       2.860   0.272  41.505  1.00  0.00     0.154 HD
HETATM    6  C4  UNL     1       4.377  -1.139  42.463  1.00  0.00     0.129 A 
ENDROOT
BRANCH   1   7
HETATM    7  N1  UNL     1       5.989  -2.856  43.205  1.00  0.00    -0.073 N 
ATOM      8  H13 UNL     1       5.811  -3.232  44.136  1.00  0.00     0.274 HD
ATOM      9  H12 UNL     1       6.494  -3.655  42.822  1.00  0.00     0.274 HD
ATOM     10  H11 UNL     1       6.560  -2.011  43.232  1.00  0.00     0.274 HD
ENDBRANCH   1   7
TORSDOF 1
ENDMDL
MODEL 3
REMARK VINA RESULT: -3.699975115      0.758      2.557
REMARK  1 active torsions:
REMARK  status: ('A' for Active; 'I' for Inactive)
REMARK    1  A    between atoms: N1_1  and  C1_5 
ROOT
HETATM    1  C1  UNL     1       3.683  -1.259  41.859  1.00  0.00     0.209 C 
HETATM    2  C2  UNL     1       5.197  -0.944  41.944  1.00  0.00     0.061 C 
HETATM    3  C3  UNL     1       5.190  -2.417  42.299  1.00  0.00     0.103 A 
HETATM    4  N2  UNL     1       4.748  -3.022  43.443  1.00  0.00    -0.407 N 
ATOM      5  H2  UNL     1       4.884  -3.806  44.083  1.00  0.00     0.154 HD
HETATM    6  C4  UNL     1       4.006  -1.902  43.181  1.00  0.00     0.129 A 
ENDROOT
BRANCH   1   7
HETATM    7  N1  UNL     1       2.951  -0.047  41.938  1.00  0.00    -0.073 N 
ATOM      8  H13 UNL     1       1.980  -0.198  42.212  1.00  0.00     0.274 HD
ATOM      9  H12 UNL     1       3.236   0.527  42.732  1.00  0.00     0.274 HD
ATOM     10  H11 UNL     1       3.030   0.449  41.051  1.00  0.00     0.274 HD
ENDBRANCH   1   7
TORSDOF 1
ENDMDL
MODEL 4
REMARK VINA RESULT: -3.676572447      1.265      2.879
REMARK  1 active torsions:
REMARK  status: ('A' for Active; 'I' for Inactive)
REMARK    1  A    between atoms: N1_1  and  C1_5 
ROOT
HETATM    1  C1  UNL     1       4.366  -1.094  42.244  1.00  0.00     0.209 C 
HETATM    2  C2  UNL     1       3.402  -2.297  42.386  1.00  0.00     0.061 C 
HETATM    3  C3  UNL     1       4.378  -2.577  43.511  1.00  0.00     0.103 A 
HETATM    4  N2  UNL     1       5.679  -2.994  43.434  1.00  0.00    -0.407 N 
ATOM      5  H2  UNL     1       6.412  -3.539  43.889  1.00  0.00     0.154 HD
HETATM    6  C4  UNL     1       5.366  -2.213  42.355  1.00  0.00     0.129 A 
ENDROOT
BRANCH   1   7
HETATM    7  N1  UNL     1       4.224  -0.534  40.949  1.00  0.00    -0.073 N 
ATOM      8  H13 UNL     1       4.247  -1.243  40.216  1.00  0.00     0.274 HD
ATOM      9  H12 UNL     1       3.281  -0.184  40.779  1.00  0.00     0.274 HD
ATOM     10  H11 UNL     1       4.936   0.184  40.816  1.00  0.00     0.274 HD
ENDBRANCH   1   7
TORSDOF 1
ENDMDL
MODEL 5
REMARK VINA RESULT: -3.306692052      1.465      2.475
REMARK  1 active torsions:
REMARK  status: ('A' for Active; 'I' for Inactive)
REMARK    1  A    between atoms: N1_1  and  C1_5 
ROOT
HETATM    1  C1  UNL     1       4.204  -1.719  41.834  1.00  0.00     0.209 C 
HETATM    2  C2  UNL     1       5.322  -2.462  42.607  1.00  0.00     0.061 C 
HETATM    3  C3  UNL     1       4.092  -2.945  43.347  1.00  0.00     0.103 A 
HETATM    4  N2  UNL     1       3.278  -2.252  44.203  1.00  0.00    -0.407 N 
ATOM      5  H2  UNL     1       2.678  -2.318  45.025  1.00  0.00     0.154 HD
HETATM    6  C4  UNL     1       3.787  -1.414  43.247  1.00  0.00     0.129 A 
ENDROOT
BRANCH   1   7
HETATM    7  N1  UNL     1       4.774  -0.633  41.123  1.00  0.00    -0.073 N 
ATOM      8  H13 UNL     1       4.071  -0.076  40.638  1.00  0.00     0.274 HD
ATOM      9  H12 UNL     1       5.128   0.094  41.745  1.00  0.00     0.274 HD
ATOM     10  H11 UNL     1       5.492  -0.987  40.491  1.00  0.00     0.274 HD
ENDBRANCH   1   7
TORSDOF 1
ENDMDL
