MODEL 1
REMARK VINA RESULT: -4.123501738      0.000      0.000
REMARK  1 active torsions:
REMARK  status: ('A' for Active; 'I' for Inactive)
REMARK    1  A    between atoms: N2_6  and  N3_8 
ROOT
HETATM    1  C1  UNL     1       3.220  -0.105  41.301  1.00  0.00     0.040 C 
HETATM    2  C2  UNL     1       4.413  -0.517  42.132  1.00  0.00     0.147 A 
HETATM    3  N1  UNL     1       5.358  -1.452  41.606  1.00  0.00    -0.366 N 
ATOM      4  H1  UNL     1       6.098  -1.682  40.942  1.00  0.00     0.161 HD
HETATM    5  C3  UNL     1       4.482  -1.840  42.728  1.00  0.00     0.114 A 
HETATM    6  N2  UNL     1       4.125  -2.749  43.563  1.00  0.00    -0.294 N 
ATOM      7  H2  UNL     1       4.587  -3.658  43.532  1.00  0.00     0.187 HD
ENDROOT
BRANCH   6   8
HETATM    8  N3  UNL     1       3.123  -2.531  44.512  1.00  0.00    -0.344 N 
ATOM      9  H32 UNL     1       2.523  -1.714  44.396  1.00  0.00     0.176 HD
ATOM     10  H31 UNL     1       2.982  -3.159  45.304  1.00  0.00     0.176 HD
ENDBRANCH   6   8
TORSDOF 1
ENDMDL
MODEL 2
REMARK VINA RESULT: -4.087835750      1.817      2.835
REMARK  1 active torsions:
REMARK  status: ('A' for Active; 'I' for Inactive)
REMARK    1  A    between atoms: N2_6  and  N3_8 
ROOT
HETATM    1  C1  UNL     1       2.951  -3.207  43.817  1.00  0.00     0.040 C 
HETATM    2  C2  UNL     1       3.896  -2.854  42.692  1.00  0.00     0.147 A 
HETATM    3  N1  UNL     1       5.284  -2.650  42.967  1.00  0.00    -0.366 N 
ATOM      4  H1  UNL     1       6.195  -3.021  43.238  1.00  0.00     0.161 HD
HETATM    5  C3  UNL     1       4.436  -1.510  42.569  1.00  0.00     0.114 A 
HETATM    6  N2  UNL     1       4.352  -0.253  42.322  1.00  0.00    -0.294 N 
ATOM      7  H2  UNL     1       5.189   0.324  42.406  1.00  0.00     0.187 HD
ENDROOT
BRANCH   6   8
HETATM    8  N3  UNL     1       3.149   0.350  41.942  1.00  0.00    -0.344 N 
ATOM      9  H32 UNL     1       2.281  -0.144  42.147  1.00  0.00     0.176 HD
ATOM     10  H31 UNL     1       3.123   1.255  41.473  1.00  0.00     0.176 HD
ENDBRANCH   6   8
TORSDOF 1
ENDMDL
MODEL 3
REMARK VINA RESULT: -3.636900634      1.524      2.056
REMARK  1 active torsions:
REMARK  status: ('A' for Active; 'I' for Inactive)
REMARK    1  A    between atoms: N2_6  and  N3_8 
ROOT
HETATM    1  C1  UNL     1       4.382  -0.027  41.940  1.00  0.00     0.040 C 
HETATM    2  C2  UNL     1       3.972  -1.482  41.934  1.00  0.00     0.147 A 
HETATM    3  N1  UNL     1       2.951  -1.937  42.826  1.00  0.00    -0.366 N 
ATOM      4  H1  UNL     1       1.973  -1.954  43.114  1.00  0.00     0.161 HD
HETATM    5  C3  UNL     1       4.349  -2.364  43.025  1.00  0.00     0.114 A 
HETATM    6  N2  UNL     1       5.189  -3.045  43.720  1.00  0.00    -0.294 N 
ATOM      7  H2  UNL     1       4.851  -3.572  44.525  1.00  0.00     0.187 HD
ENDROOT
BRANCH   6   8
HETATM    8  N3  UNL     1       6.550  -3.087  43.405  1.00  0.00    -0.344 N 
ATOM      9  H32 UNL     1       6.834  -3.613  42.579  1.00  0.00     0.176 HD
ATOM     10  H31 UNL     1       7.251  -2.611  43.973  1.00  0.00     0.176 HD
ENDBRANCH   6   8
TORSDOF 1
ENDMDL
MODEL 4
REMARK VINA RESULT: -3.617383189      1.846      3.004
REMARK  1 active torsions:
REMARK  status: ('A' for Active; 'I' for Inactive)
REMARK    1  A    between atoms: N2_6  and  N3_8 
ROOT
HETATM    1  C1  UNL     1       5.917  -2.651  42.933  1.00  0.00     0.040 C 
HETATM    2  C2  UNL     1       4.460  -2.553  43.322  1.00  0.00     0.147 A 
HETATM    3  N1  UNL     1       3.496  -3.401  42.692  1.00  0.00    -0.366 N 
ATOM      4  H1  UNL     1       3.102  -4.329  42.540  1.00  0.00     0.161 HD
HETATM    5  C3  UNL     1       3.490  -1.950  42.423  1.00  0.00     0.114 A 
HETATM    6  N2  UNL     1       2.951  -0.962  41.803  1.00  0.00    -0.294 N 
ATOM      7  H2  UNL     1       2.157  -1.139  41.187  1.00  0.00     0.187 HD
ENDROOT
BRANCH   6   8
HETATM    8  N3  UNL     1       3.418   0.347  41.946  1.00  0.00    -0.344 N 
ATOM      9  H32 UNL     1       2.833   1.011  42.453  1.00  0.00     0.176 HD
ATOM     10  H31 UNL     1       4.314   0.647  41.562  1.00  0.00     0.176 HD
ENDBRANCH   6   8
TORSDOF 1
ENDMDL
MODEL 5
REMARK VINA RESULT: -3.563929654      2.121      2.860
REMARK  1 active torsions:
REMARK  status: ('A' for Active; 'I' for Inactive)
REMARK    1  A    between atoms: N2_6  and  N3_8 
ROOT
HETATM    1  C1  UNL     1       2.951  -3.932  43.014  1.00  0.00     0.040 C 
HETATM    2  C2  UNL     1       3.625  -2.655  43.463  1.00  0.00     0.147 A 
HETATM    3  N1  UNL     1       3.791  -1.576  42.541  1.00  0.00    -0.366 N 
ATOM      4  H1  UNL     1       3.389  -0.830  41.972  1.00  0.00     0.161 HD
HETATM    5  C3  UNL     1       4.968  -2.328  43.016  1.00  0.00     0.114 A 
HETATM    6  N2  UNL     1       6.242  -2.485  42.982  1.00  0.00    -0.294 N 
ATOM      7  H2  UNL     1       6.801  -1.868  42.393  1.00  0.00     0.187 HD
ENDROOT
BRANCH   6   8
HETATM    8  N3  UNL     1       6.887  -3.477  43.726  1.00  0.00    -0.344 N 
ATOM      9  H32 UNL     1       6.314  -4.085  44.311  1.00  0.00     0.176 HD
ATOM     10  H31 UNL     1       7.899  -3.602  43.698  1.00  0.00     0.176 HD
ENDBRANCH   6   8
TORSDOF 1
ENDMDL
