MODEL 1
REMARK VINA RESULT: -6.972215464      0.000      0.000
REMARK  1 active torsions:
REMARK  status: ('A' for Active; 'I' for Inactive)
REMARK    1  A    between atoms: C6_7  and  C7_8 
ROOT
HETATM    1  C7  UNL     1      -2.517  61.910  31.726  1.00  0.00     0.117 A 
HETATM    2  N1  UNL     1      -1.862  63.015  32.127  1.00  0.00    -0.272 N 
ATOM      3  H1  UNL     1      -0.887  63.042  32.426  1.00  0.00     0.190 HD
HETATM    4  N2  UNL     1      -2.672  64.068  32.073  1.00  0.00    -0.227 N 
ATOM      5  H2  UNL     1      -2.445  65.031  32.318  1.00  0.00     0.210 HD
HETATM    6  N3  UNL     1      -3.832  63.613  31.638  1.00  0.00    -0.227 N 
ATOM      7  H3  UNL     1      -4.666  64.180  31.488  1.00  0.00     0.210 HD
HETATM    8  N4  UNL     1      -3.748  62.289  31.422  1.00  0.00    -0.272 N 
ATOM      9  H4  UNL     1      -4.498  61.686  31.084  1.00  0.00     0.190 HD
ENDROOT
BRANCH   1  10
HETATM   10  C6  UNL     1      -1.850  60.580  31.686  1.00  0.00     0.059 C 
HETATM   11  C5  UNL     1      -2.867  59.531  31.539  1.00  0.00     0.012 C 
HETATM   12  C4  UNL     1      -2.980  58.918  30.176  1.00  0.00     0.001 C 
HETATM   13  C3  UNL     1      -2.023  57.774  30.082  1.00  0.00     0.003 C 
HETATM   14  C2  UNL     1      -0.725  58.138  30.765  1.00  0.00     0.037 C 
HETATM   15  C1  UNL     1      -0.134  59.403  30.259  1.00  0.00     0.171 C 
HETATM   16  F1  UNL     1      -0.037  59.288  28.864  1.00  0.00    -0.249 F 
HETATM   17  C8  UNL     1      -0.787  60.650  30.649  1.00  0.00     0.049 C 
ENDBRANCH   1  10
TORSDOF 1
ENDMDL
MODEL 2
REMARK VINA RESULT: -6.593737760      2.041      3.138
REMARK  1 active torsions:
REMARK  status: ('A' for Active; 'I' for Inactive)
REMARK    1  A    between atoms: C6_7  and  C7_8 
ROOT
HETATM    1  C7  UNL     1      -3.672  60.142  30.215  1.00  0.00     0.117 A 
HETATM    2  N1  UNL     1      -4.640  59.209  30.143  1.00  0.00    -0.272 N 
ATOM      3  H1  UNL     1      -4.497  58.237  29.870  1.00  0.00     0.190 HD
HETATM    4  N2  UNL     1      -5.810  59.742  30.483  1.00  0.00    -0.227 N 
ATOM      5  H2  UNL     1      -6.712  59.269  30.518  1.00  0.00     0.210 HD
HETATM    6  N3  UNL     1      -5.565  61.008  30.765  1.00  0.00    -0.227 N 
ATOM      7  H3  UNL     1      -6.264  61.688  31.062  1.00  0.00     0.210 HD
HETATM    8  N4  UNL     1      -4.256  61.265  30.604  1.00  0.00    -0.272 N 
ATOM      9  H4  UNL     1      -3.796  62.162  30.755  1.00  0.00     0.190 HD
ENDROOT
BRANCH   1  10
HETATM   10  C6  UNL     1      -2.256  59.822  29.886  1.00  0.00     0.059 C 
HETATM   11  C5  UNL     1      -1.367  60.655  30.707  1.00  0.00     0.012 C 
HETATM   12  C4  UNL     1      -0.698  59.962  31.854  1.00  0.00     0.001 C 
HETATM   13  C3  UNL     1       0.582  59.360  31.371  1.00  0.00     0.003 C 
HETATM   14  C2  UNL     1       0.380  58.766  29.997  1.00  0.00     0.037 C 
HETATM   15  C1  UNL     1      -0.746  57.801  29.938  1.00  0.00     0.171 C 
HETATM   16  F1  UNL     1      -0.534  56.852  30.949  1.00  0.00    -0.249 F 
HETATM   17  C8  UNL     1      -2.100  58.347  29.994  1.00  0.00     0.049 C 
ENDBRANCH   1  10
TORSDOF 1
ENDMDL
MODEL 3
REMARK VINA RESULT: -6.584823258      2.727      3.756
REMARK  1 active torsions:
REMARK  status: ('A' for Active; 'I' for Inactive)
REMARK    1  A    between atoms: C6_7  and  C7_8 
ROOT
HETATM    1  C7  UNL     1      -4.747  59.149  30.379  1.00  0.00     0.117 A 
HETATM    2  N1  UNL     1      -5.692  60.107  30.343  1.00  0.00    -0.272 N 
ATOM      3  H1  UNL     1      -5.535  61.075  30.063  1.00  0.00     0.190 HD
HETATM    4  N2  UNL     1      -6.862  59.604  30.727  1.00  0.00    -0.227 N 
ATOM      5  H2  UNL     1      -7.750  60.100  30.796  1.00  0.00     0.210 HD
HETATM    6  N3  UNL     1      -6.640  58.333  30.999  1.00  0.00    -0.227 N 
ATOM      7  H3  UNL     1      -7.345  57.669  31.321  1.00  0.00     0.210 HD
HETATM    8  N4  UNL     1      -5.344  58.042  30.790  1.00  0.00    -0.272 N 
ATOM      9  H4  UNL     1      -4.902  57.133  30.923  1.00  0.00     0.190 HD
ENDROOT
BRANCH   1  10
HETATM   10  C6  UNL     1      -3.336  59.433  30.000  1.00  0.00     0.059 C 
HETATM   11  C5  UNL     1      -2.820  60.529  30.830  1.00  0.00     0.012 C 
HETATM   12  C4  UNL     1      -1.883  60.130  31.928  1.00  0.00     0.001 C 
HETATM   13  C3  UNL     1      -0.490  60.106  31.386  1.00  0.00     0.003 C 
HETATM   14  C2  UNL     1      -0.495  59.519  29.994  1.00  0.00     0.037 C 
HETATM   15  C1  UNL     1      -1.143  58.185  29.925  1.00  0.00     0.171 C 
HETATM   16  F1  UNL     1      -0.528  57.373  30.888  1.00  0.00    -0.249 F 
HETATM   17  C8  UNL     1      -2.599  58.142  30.040  1.00  0.00     0.049 C 
ENDBRANCH   1  10
TORSDOF 1
ENDMDL
MODEL 4
REMARK VINA RESULT: -6.515369846      2.516      3.468
REMARK  1 active torsions:
REMARK  status: ('A' for Active; 'I' for Inactive)
REMARK    1  A    between atoms: C6_7  and  C7_8 
ROOT
HETATM    1  C7  UNL     1      -4.338  59.209  30.746  1.00  0.00     0.117 A 
HETATM    2  N1  UNL     1      -5.114  58.111  30.817  1.00  0.00    -0.272 N 
ATOM      3  H1  UNL     1      -4.813  57.203  31.170  1.00  0.00     0.190 HD
HETATM    4  N2  UNL     1      -6.332  58.386  30.359  1.00  0.00    -0.227 N 
ATOM      5  H2  UNL     1      -7.122  57.746  30.295  1.00  0.00     0.210 HD
HETATM    6  N3  UNL     1      -6.309  59.657  30.005  1.00  0.00    -0.227 N 
ATOM      7  H3  UNL     1      -7.098  60.171  29.613  1.00  0.00     0.210 HD
HETATM    8  N4  UNL     1      -5.090  60.172  30.237  1.00  0.00    -0.272 N 
ATOM      9  H4  UNL     1      -4.798  61.132  30.055  1.00  0.00     0.190 HD
ENDROOT
BRANCH   1  10
HETATM   10  C6  UNL     1      -2.918  59.190  31.193  1.00  0.00     0.059 C 
HETATM   11  C5  UNL     1      -2.257  57.993  30.658  1.00  0.00     0.012 C 
HETATM   12  C4  UNL     1      -1.332  58.220  29.502  1.00  0.00     0.001 C 
HETATM   13  C3  UNL     1       0.031  58.535  30.031  1.00  0.00     0.003 C 
HETATM   14  C2  UNL     1      -0.087  59.435  31.238  1.00  0.00     0.037 C 
HETATM   15  C1  UNL     1      -0.881  60.663  30.975  1.00  0.00     0.171 C 
HETATM   16  F1  UNL     1      -0.325  61.284  29.846  1.00  0.00    -0.249 F 
HETATM   17  C8  UNL     1      -2.327  60.509  30.843  1.00  0.00     0.049 C 
ENDBRANCH   1  10
TORSDOF 1
ENDMDL
MODEL 5
REMARK VINA RESULT: -6.446903807      1.590      2.425
REMARK  1 active torsions:
REMARK  status: ('A' for Active; 'I' for Inactive)
REMARK    1  A    between atoms: C6_7  and  C7_8 
ROOT
HETATM    1  C7  UNL     1      -3.591  60.967  30.593  1.00  0.00     0.117 A 
HETATM    2  N1  UNL     1      -3.517  62.126  31.274  1.00  0.00    -0.272 N 
ATOM      3  H1  UNL     1      -2.657  62.640  31.463  1.00  0.00     0.190 HD
HETATM    4  N2  UNL     1      -4.731  62.503  31.662  1.00  0.00    -0.227 N 
ATOM      5  H2  UNL     1      -4.974  63.339  32.193  1.00  0.00     0.210 HD
HETATM    6  N3  UNL     1      -5.559  61.575  31.220  1.00  0.00    -0.227 N 
ATOM      7  H3  UNL     1      -6.570  61.577  31.357  1.00  0.00     0.210 HD
HETATM    8  N4  UNL     1      -4.870  60.627  30.563  1.00  0.00    -0.272 N 
ATOM      9  H4  UNL     1      -5.262  59.796  30.120  1.00  0.00     0.190 HD
ENDROOT
BRANCH   1  10
HETATM   10  C6  UNL     1      -2.376  60.310  30.038  1.00  0.00     0.059 C 
HETATM   11  C5  UNL     1      -1.184  60.859  30.696  1.00  0.00     0.012 C 
HETATM   12  C4  UNL     1      -0.540  59.978  31.722  1.00  0.00     0.001 C 
HETATM   13  C3  UNL     1       0.449  59.089  31.039  1.00  0.00     0.003 C 
HETATM   14  C2  UNL     1      -0.117  58.615  29.721  1.00  0.00     0.037 C 
HETATM   15  C1  UNL     1      -1.448  57.970  29.855  1.00  0.00     0.171 C 
HETATM   16  F1  UNL     1      -1.327  56.963  30.823  1.00  0.00    -0.249 F 
HETATM   17  C8  UNL     1      -2.588  58.840  30.129  1.00  0.00     0.049 C 
ENDBRANCH   1  10
TORSDOF 1
ENDMDL
