MODEL 1
REMARK VINA RESULT: -5.214722290      0.000      0.000
REMARK  4 active torsions:
REMARK  status: ('A' for Active; 'I' for Inactive)
REMARK    1  A    between atoms: C2_2  and  C3_4 
REMARK    2  A    between atoms: C3_4  and  N2_9 
REMARK    3  A    between atoms: N1_5  and  O1_7 
REMARK    4  A    between atoms: N2_9  and  C4_11 
ROOT
HETATM    1  C3  UNL     1      -5.827  58.991  30.398  1.00  0.00     0.142 C 
HETATM    2  N1  UNL     1      -5.608  57.850  30.919  1.00  0.00    -0.252 N 
ATOM      3  H1  UNL     1      -4.631  57.571  31.011  1.00  0.00     0.196 HD
ENDROOT
BRANCH   1   4
HETATM    4  C2  UNL     1      -7.203  59.444  30.239  1.00  0.00     0.070 C 
HETATM    5  C1  UNL     1      -7.734  60.254  31.128  1.00  0.00     0.041 C 
HETATM    6 CL1  UNL     1      -8.160  58.921  28.872  1.00  0.00    -0.081 Cl
ENDBRANCH   1   4
BRANCH   1   7
HETATM    7  N2  UNL     1      -4.735  59.820  29.973  1.00  0.00    -0.369 N 
ATOM      8  H2  UNL     1      -4.814  60.410  29.144  1.00  0.00     0.161 HD
BRANCH   7   9
HETATM    9  C4  UNL     1      -3.542  59.792  30.742  1.00  0.00     0.083 C 
HETATM   10  C5  UNL     1      -2.974  61.135  31.064  1.00  0.00     0.025 C 
HETATM   11  C6  UNL     1      -1.623  60.772  31.647  1.00  0.00     0.002 C 
HETATM   12  C7  UNL     1      -1.191  59.578  30.839  1.00  0.00     0.002 C 
HETATM   13  C8  UNL     1      -2.386  59.094  30.068  1.00  0.00     0.025 C 
ENDBRANCH   7   9
ENDBRANCH   1   7
BRANCH   2  14
HETATM   14  O1  UNL     1      -6.529  56.968  31.363  1.00  0.00    -0.288 OA
ATOM     15  H1  UNL     1      -6.503  56.472  32.173  1.00  0.00     0.244 HD
ENDBRANCH   2  14
TORSDOF 4
ENDMDL
MODEL 2
REMARK VINA RESULT: -5.167119940      4.158      4.855
REMARK  4 active torsions:
REMARK  status: ('A' for Active; 'I' for Inactive)
REMARK    1  A    between atoms: C2_2  and  C3_4 
REMARK    2  A    between atoms: C3_4  and  N2_9 
REMARK    3  A    between atoms: N1_5  and  O1_7 
REMARK    4  A    between atoms: N2_9  and  C4_11 
ROOT
HETATM    1  C3  UNL     1      -2.453  62.324  31.916  1.00  0.00     0.142 C 
HETATM    2  N1  UNL     1      -1.728  63.283  32.337  1.00  0.00    -0.252 N 
ATOM      3  H1  UNL     1      -0.845  63.026  32.778  1.00  0.00     0.196 HD
ENDROOT
BRANCH   1   4
HETATM    4  C2  UNL     1      -3.728  62.628  31.278  1.00  0.00     0.070 C 
HETATM    5  C1  UNL     1      -4.500  61.651  30.856  1.00  0.00     0.041 C 
HETATM    6 CL1  UNL     1      -4.246  64.284  31.068  1.00  0.00    -0.081 Cl
ENDBRANCH   1   4
BRANCH   1   7
HETATM    7  N2  UNL     1      -2.023  60.964  32.067  1.00  0.00    -0.369 N 
ATOM      8  H2  UNL     1      -2.325  60.401  32.862  1.00  0.00     0.161 HD
BRANCH   7   9
HETATM    9  C4  UNL     1      -1.162  60.425  31.072  1.00  0.00     0.083 C 
HETATM   10  C5  UNL     1      -1.745  59.297  30.286  1.00  0.00     0.025 C 
HETATM   11  C6  UNL     1      -0.538  58.797  29.517  1.00  0.00     0.002 C 
HETATM   12  C7  UNL     1       0.602  58.968  30.484  1.00  0.00     0.002 C 
HETATM   13  C8  UNL     1       0.114  59.829  31.614  1.00  0.00     0.025 C 
ENDBRANCH   7   9
ENDBRANCH   1   7
BRANCH   2  14
HETATM   14  O1  UNL     1      -2.002  64.602  32.263  1.00  0.00    -0.288 OA
ATOM     15  H1  UNL     1      -2.843  65.003  32.076  1.00  0.00     0.244 HD
ENDBRANCH   2  14
TORSDOF 4
ENDMDL
MODEL 3
REMARK VINA RESULT: -5.162829023      1.801      2.389
REMARK  4 active torsions:
REMARK  status: ('A' for Active; 'I' for Inactive)
REMARK    1  A    between atoms: C2_2  and  C3_4 
REMARK    2  A    between atoms: C3_4  and  N2_9 
REMARK    3  A    between atoms: N1_5  and  O1_7 
REMARK    4  A    between atoms: N2_9  and  C4_11 
ROOT
HETATM    1  C3  UNL     1      -4.969  59.014  30.565  1.00  0.00     0.142 C 
HETATM    2  N1  UNL     1      -4.933  60.285  30.641  1.00  0.00    -0.252 N 
ATOM      3  H1  UNL     1      -4.008  60.714  30.658  1.00  0.00     0.196 HD
ENDROOT
BRANCH   1   4
HETATM    4  C2  UNL     1      -6.262  58.343  30.540  1.00  0.00     0.070 C 
HETATM    5  C1  UNL     1      -6.469  57.288  31.296  1.00  0.00     0.041 C 
HETATM    6 CL1  UNL     1      -7.548  58.927  29.509  1.00  0.00    -0.081 Cl
ENDBRANCH   1   4
BRANCH   1   7
HETATM    7  N2  UNL     1      -3.754  58.253  30.507  1.00  0.00    -0.369 N 
ATOM      8  H2  UNL     1      -3.756  57.246  30.674  1.00  0.00     0.161 HD
BRANCH   7   9
HETATM    9  C4  UNL     1      -2.550  58.945  30.210  1.00  0.00     0.083 C 
HETATM   10  C5  UNL     1      -1.388  58.066  29.883  1.00  0.00     0.025 C 
HETATM   11  C6  UNL     1      -0.241  59.057  29.867  1.00  0.00     0.002 C 
HETATM   12  C7  UNL     1      -0.590  60.030  30.962  1.00  0.00     0.002 C 
HETATM   13  C8  UNL     1      -2.022  59.787  31.346  1.00  0.00     0.025 C 
ENDBRANCH   7   9
ENDBRANCH   1   7
BRANCH   2  14
HETATM   14  O1  UNL     1      -5.987  61.126  30.701  1.00  0.00    -0.288 OA
ATOM     15  H1  UNL     1      -6.054  61.923  31.213  1.00  0.00     0.244 HD
ENDBRANCH   2  14
TORSDOF 4
ENDMDL
MODEL 4
REMARK VINA RESULT: -5.056572308      4.851      5.631
REMARK  4 active torsions:
REMARK  status: ('A' for Active; 'I' for Inactive)
REMARK    1  A    between atoms: C2_2  and  C3_4 
REMARK    2  A    between atoms: C3_4  and  N2_9 
REMARK    3  A    between atoms: N1_5  and  O1_7 
REMARK    4  A    between atoms: N2_9  and  C4_11 
ROOT
HETATM    1  C3  UNL     1      -3.449  64.407  31.656  1.00  0.00     0.142 C 
HETATM    2  N1  UNL     1      -2.318  64.880  32.003  1.00  0.00    -0.252 N 
ATOM      3  H1  UNL     1      -1.666  64.226  32.438  1.00  0.00     0.196 HD
ENDROOT
BRANCH   1   4
HETATM    4  C2  UNL     1      -4.424  65.293  31.032  1.00  0.00     0.070 C 
HETATM    5  C1  UNL     1      -5.488  65.675  31.703  1.00  0.00     0.041 C 
HETATM    6 CL1  UNL     1      -4.194  65.856  29.393  1.00  0.00    -0.081 Cl
ENDBRANCH   1   4
BRANCH   1   7
HETATM    7  N2  UNL     1      -3.760  63.024  31.876  1.00  0.00    -0.369 N 
ATOM      8  H2  UNL     1      -4.499  62.747  32.523  1.00  0.00     0.161 HD
BRANCH   7   9
HETATM    9  C4  UNL     1      -3.007  62.053  31.163  1.00  0.00     0.083 C 
HETATM   10  C5  UNL     1      -3.803  60.897  30.652  1.00  0.00     0.025 C 
HETATM   11  C6  UNL     1      -2.715  59.952  30.182  1.00  0.00     0.002 C 
HETATM   12  C7  UNL     1      -1.610  60.148  31.186  1.00  0.00     0.002 C 
HETATM   13  C8  UNL     1      -1.931  61.381  31.981  1.00  0.00     0.025 C 
ENDBRANCH   7   9
ENDBRANCH   1   7
BRANCH   2  14
HETATM   14  O1  UNL     1      -1.889  66.151  31.860  1.00  0.00    -0.288 OA
ATOM     15  H1  UNL     1      -0.992  66.461  31.903  1.00  0.00     0.244 HD
ENDBRANCH   2  14
TORSDOF 4
ENDMDL
MODEL 5
REMARK VINA RESULT: -5.034697295      3.627      4.603
REMARK  4 active torsions:
REMARK  status: ('A' for Active; 'I' for Inactive)
REMARK    1  A    between atoms: C2_2  and  C3_4 
REMARK    2  A    between atoms: C3_4  and  N2_9 
REMARK    3  A    between atoms: N1_5  and  O1_7 
REMARK    4  A    between atoms: N2_9  and  C4_11 
ROOT
HETATM    1  C3  UNL     1      -1.805  59.841  30.808  1.00  0.00     0.142 C 
HETATM    2  N1  UNL     1      -0.715  59.940  30.159  1.00  0.00    -0.252 N 
ATOM      3  H1  UNL     1      -0.111  60.726  30.399  1.00  0.00     0.196 HD
ENDROOT
BRANCH   1   4
HETATM    4  C2  UNL     1      -2.710  58.738  30.508  1.00  0.00     0.070 C 
HETATM    5  C1  UNL     1      -4.007  58.948  30.457  1.00  0.00     0.041 C 
HETATM    6 CL1  UNL     1      -2.088  57.131  30.215  1.00  0.00    -0.081 Cl
ENDBRANCH   1   4
BRANCH   1   7
HETATM    7  N2  UNL     1      -2.141  60.800  31.821  1.00  0.00    -0.369 N 
ATOM      8  H2  UNL     1      -2.173  60.537  32.806  1.00  0.00     0.161 HD
BRANCH   7   9
HETATM    9  C4  UNL     1      -2.427  62.129  31.408  1.00  0.00     0.083 C 
HETATM   10  C5  UNL     1      -1.968  63.190  32.353  1.00  0.00     0.025 C 
HETATM   11  C6  UNL     1      -2.624  64.428  31.775  1.00  0.00     0.002 C 
HETATM   12  C7  UNL     1      -3.950  63.930  31.266  1.00  0.00     0.002 C 
HETATM   13  C8  UNL     1      -3.899  62.428  31.260  1.00  0.00     0.025 C 
ENDBRANCH   7   9
ENDBRANCH   1   7
BRANCH   2  14
HETATM   14  O1  UNL     1      -0.270  59.117  29.186  1.00  0.00    -0.288 OA
ATOM     15  H1  UNL     1       0.634  58.930  28.963  1.00  0.00     0.244 HD
ENDBRANCH   2  14
TORSDOF 4
ENDMDL
