MODEL 1
REMARK VINA RESULT: -3.771625957      0.000      0.000
REMARK  1 active torsions:
REMARK  status: ('A' for Active; 'I' for Inactive)
REMARK    1  A    between atoms: N1_2  and  C2_4 
ROOT
HETATM    1  C2  UNL     1      -7.414  59.214  30.451  1.00  0.00     0.158 C 
HETATM    2  C3  UNL     1      -7.066  57.871  30.953  1.00  0.00     0.094 C 
HETATM    3  N2  UNL     1      -6.781  56.795  31.334  1.00  0.00    -0.194 NA
HETATM    4  C4  UNL     1      -8.356  59.050  29.276  1.00  0.00     0.087 C 
HETATM    5  C5  UNL     1      -9.593  59.800  29.677  1.00  0.00     0.059 C 
HETATM    6  C6  UNL     1     -10.755  58.901  29.974  1.00  0.00     0.045 C 
HETATM    7  C7  UNL     1     -10.000  60.696  28.502  1.00  0.00     0.045 C 
HETATM    8  O1  UNL     1      -9.249  60.628  30.729  1.00  0.00    -0.357 OA
HETATM    9  C8  UNL     1      -8.273  59.944  31.440  1.00  0.00     0.260 C 
HETATM   10 CL1  UNL     1      -9.110  58.720  32.427  1.00  0.00    -0.091 Cl
ENDROOT
BRANCH   1  11
HETATM   11  N1  UNL     1      -6.196  59.877  30.132  1.00  0.00    -0.402 N 
HETATM   12  C1  UNL     1      -5.007  59.217  30.545  1.00  0.00     0.141 C 
ATOM     13  H1  UNL     1      -6.177  60.769  29.639  1.00  0.00     0.154 HD
ENDBRANCH   1  11
TORSDOF 1
ENDMDL
MODEL 2
REMARK VINA RESULT: -3.706999748      2.330      4.019
REMARK  1 active torsions:
REMARK  status: ('A' for Active; 'I' for Inactive)
REMARK    1  A    between atoms: N1_2  and  C2_4 
ROOT
HETATM    1  C2  UNL     1      -9.532  59.326  29.599  1.00  0.00     0.158 C 
HETATM    2  C3  UNL     1      -9.887  60.517  28.804  1.00  0.00     0.094 C 
HETATM    3  N2  UNL     1     -10.163  61.457  28.152  1.00  0.00    -0.194 NA
HETATM    4  C4  UNL     1      -8.081  58.990  29.326  1.00  0.00     0.087 C 
HETATM    5  C5  UNL     1      -7.421  59.047  30.672  1.00  0.00     0.059 C 
HETATM    6  C6  UNL     1      -6.503  60.223  30.829  1.00  0.00     0.045 C 
HETATM    7  C7  UNL     1      -6.569  57.783  30.832  1.00  0.00     0.045 C 
HETATM    8  O1  UNL     1      -8.422  58.995  31.624  1.00  0.00    -0.357 OA
HETATM    9  C8  UNL     1      -9.507  59.653  31.063  1.00  0.00     0.260 C 
HETATM   10 CL1  UNL     1      -9.191  61.400  31.214  1.00  0.00    -0.091 Cl
ENDROOT
BRANCH   1  11
HETATM   11  N1  UNL     1     -10.445  58.293  29.246  1.00  0.00    -0.402 N 
HETATM   12  C1  UNL     1     -10.327  57.789  27.923  1.00  0.00     0.141 C 
ATOM     13  H1  UNL     1     -11.141  57.937  29.902  1.00  0.00     0.154 HD
ENDBRANCH   1  11
TORSDOF 1
ENDMDL
MODEL 3
REMARK VINA RESULT: -3.678104168      2.759      3.784
REMARK  1 active torsions:
REMARK  status: ('A' for Active; 'I' for Inactive)
REMARK    1  A    between atoms: N1_2  and  C2_4 
ROOT
HETATM    1  C2  UNL     1      -8.661  56.462  32.500  1.00  0.00     0.158 C 
HETATM    2  C3  UNL     1      -9.581  55.333  32.265  1.00  0.00     0.094 C 
HETATM    3  N2  UNL     1     -10.298  54.420  32.071  1.00  0.00    -0.194 NA
HETATM    4  C4  UNL     1      -7.884  56.714  31.225  1.00  0.00     0.087 C 
HETATM    5  C5  UNL     1      -8.196  58.137  30.866  1.00  0.00     0.059 C 
HETATM    6  C6  UNL     1      -9.072  58.261  29.657  1.00  0.00     0.045 C 
HETATM    7  C7  UNL     1      -6.873  58.840  30.543  1.00  0.00     0.045 C 
HETATM    8  O1  UNL     1      -8.720  58.739  31.994  1.00  0.00    -0.357 OA
HETATM    9  C8  UNL     1      -9.424  57.744  32.658  1.00  0.00     0.260 C 
HETATM   10 CL1  UNL     1     -10.977  57.550  31.807  1.00  0.00    -0.091 Cl
ENDROOT
BRANCH   1  11
HETATM   11  N1  UNL     1      -7.850  56.123  33.619  1.00  0.00    -0.402 N 
HETATM   12  C1  UNL     1      -8.539  55.929  34.847  1.00  0.00     0.141 C 
ATOM     13  H1  UNL     1      -6.837  56.025  33.545  1.00  0.00     0.154 HD
ENDBRANCH   1  11
TORSDOF 1
ENDMDL
MODEL 4
REMARK VINA RESULT: -3.669281997      5.198      6.427
REMARK  1 active torsions:
REMARK  status: ('A' for Active; 'I' for Inactive)
REMARK    1  A    between atoms: N1_2  and  C2_4 
ROOT
HETATM    1  C2  UNL     1      -1.811  60.664  30.854  1.00  0.00     0.158 C 
HETATM    2  C3  UNL     1      -2.052  61.739  31.835  1.00  0.00     0.094 C 
HETATM    3  N2  UNL     1      -2.230  62.587  32.631  1.00  0.00    -0.194 NA
HETATM    4  C4  UNL     1      -2.121  59.339  31.517  1.00  0.00     0.087 C 
HETATM    5  C5  UNL     1      -3.194  58.730  30.662  1.00  0.00     0.059 C 
HETATM    6  C6  UNL     1      -4.536  58.705  31.330  1.00  0.00     0.045 C 
HETATM    7  C7  UNL     1      -2.800  57.276  30.379  1.00  0.00     0.045 C 
HETATM    8  O1  UNL     1      -3.188  59.403  29.455  1.00  0.00    -0.357 OA
HETATM    9  C8  UNL     1      -2.832  60.710  29.755  1.00  0.00     0.260 C 
HETATM   10 CL1  UNL     1      -4.285  61.507  30.410  1.00  0.00    -0.091 Cl
ENDROOT
BRANCH   1  11
HETATM   11  N1  UNL     1      -0.466  60.791  30.407  1.00  0.00    -0.402 N 
HETATM   12  C1  UNL     1       0.347  59.635  30.557  1.00  0.00     0.141 C 
ATOM     13  H1  UNL     1      -0.107  61.657  30.004  1.00  0.00     0.154 HD
ENDBRANCH   1  11
TORSDOF 1
ENDMDL
MODEL 5
REMARK VINA RESULT: -3.663942985      7.757      8.576
REMARK  1 active torsions:
REMARK  status: ('A' for Active; 'I' for Inactive)
REMARK    1  A    between atoms: N1_2  and  C2_4 
ROOT
HETATM    1  C2  UNL     1      -5.597  66.675  31.121  1.00  0.00     0.158 C 
HETATM    2  C3  UNL     1      -4.887  67.590  32.034  1.00  0.00     0.094 C 
HETATM    3  N2  UNL     1      -4.335  68.316  32.778  1.00  0.00    -0.194 NA
HETATM    4  C4  UNL     1      -7.049  67.100  31.059  1.00  0.00     0.087 C 
HETATM    5  C5  UNL     1      -7.296  67.389  29.607  1.00  0.00     0.059 C 
HETATM    6  C6  UNL     1      -7.471  68.850  29.319  1.00  0.00     0.045 C 
HETATM    7  C7  UNL     1      -8.598  66.688  29.203  1.00  0.00     0.045 C 
HETATM    8  O1  UNL     1      -6.270  66.802  28.891  1.00  0.00    -0.357 OA
HETATM    9  C8  UNL     1      -5.149  66.885  29.705  1.00  0.00     0.260 C 
HETATM   10 CL1  UNL     1      -4.538  68.554  29.580  1.00  0.00    -0.091 Cl
ENDROOT
BRANCH   1  11
HETATM   11  N1  UNL     1      -5.398  65.352  31.607  1.00  0.00    -0.402 N 
HETATM   12  C1  UNL     1      -4.225  64.694  31.147  1.00  0.00     0.141 C 
ATOM     13  H1  UNL     1      -6.056  64.904  32.245  1.00  0.00     0.154 HD
ENDBRANCH   1  11
TORSDOF 1
ENDMDL
