MODEL 1
REMARK VINA RESULT: -4.300839879      0.000      0.000
REMARK  0 active torsions:
REMARK  status: ('A' for Active; 'I' for Inactive)
ROOT
HETATM    1  N1  UNL     1      -3.299  63.496  31.892  1.00  0.00    -0.374 N 
ATOM      2  H11 UNL     1      -4.113  64.017  31.566  1.00  0.00     0.158 HD
ATOM      3  H12 UNL     1      -2.781  64.147  32.481  1.00  0.00     0.158 HD
HETATM    4  C1  UNL     1      -2.953  62.302  31.652  1.00  0.00     0.181 C 
HETATM    5  O1  UNL     1      -1.859  61.601  32.089  1.00  0.00    -0.291 OA
HETATM    6  C2  UNL     1      -1.551  60.478  31.384  1.00  0.00     0.072 C 
HETATM    7  C3  UNL     1      -0.347  60.045  31.051  1.00  0.00     0.089 C 
HETATM    8 BR1  UNL     1      -0.049  58.447  30.057  1.00  0.00    -0.061 Br
HETATM    9  C4  UNL     1      -2.781  59.707  30.983  1.00  0.00     0.148 C 
HETATM   10  S1  UNL     1      -3.860  61.163  30.621  1.00  0.00    -0.080 SA
ENDROOT
TORSDOF 0
ENDMDL
MODEL 2
REMARK VINA RESULT: -4.139135465      1.670      2.090
REMARK  0 active torsions:
REMARK  status: ('A' for Active; 'I' for Inactive)
ROOT
HETATM    1  N1  UNL     1      -4.491  63.108  31.604  1.00  0.00    -0.374 N 
ATOM      2  H11 UNL     1      -4.398  63.827  32.323  1.00  0.00     0.158 HD
ATOM      3  H12 UNL     1      -5.420  63.247  31.206  1.00  0.00     0.158 HD
HETATM    4  C1  UNL     1      -3.672  62.214  31.242  1.00  0.00     0.181 C 
HETATM    5  O1  UNL     1      -3.798  61.249  30.276  1.00  0.00    -0.291 OA
HETATM    6  C2  UNL     1      -2.925  60.208  30.359  1.00  0.00     0.072 C 
HETATM    7  C3  UNL     1      -3.181  58.929  30.142  1.00  0.00     0.089 C 
HETATM    8 BR1  UNL     1      -1.863  57.561  30.291  1.00  0.00    -0.061 Br
HETATM    9  C4  UNL     1      -1.541  60.659  30.744  1.00  0.00     0.148 C 
HETATM   10  S1  UNL     1      -2.049  61.972  31.940  1.00  0.00    -0.080 SA
ENDROOT
TORSDOF 0
ENDMDL
MODEL 3
REMARK VINA RESULT: -4.076425569      2.198      2.366
REMARK  0 active torsions:
REMARK  status: ('A' for Active; 'I' for Inactive)
ROOT
HETATM    1  N1  UNL     1      -5.240  60.448  30.622  1.00  0.00    -0.374 N 
ATOM      2  H11 UNL     1      -5.832  61.023  31.221  1.00  0.00     0.158 HD
ATOM      3  H12 UNL     1      -5.884  59.878  30.075  1.00  0.00     0.158 HD
HETATM    4  C1  UNL     1      -3.978  60.407  30.531  1.00  0.00     0.181 C 
HETATM    5  O1  UNL     1      -3.182  59.635  29.725  1.00  0.00    -0.291 OA
HETATM    6  C2  UNL     1      -1.877  59.532  30.099  1.00  0.00     0.072 C 
HETATM    7  C3  UNL     1      -1.114  58.454  30.056  1.00  0.00     0.089 C 
HETATM    8 BR1  UNL     1       0.709  58.442  30.613  1.00  0.00    -0.061 Br
HETATM    9  C4  UNL     1      -1.329  60.841  30.604  1.00  0.00     0.148 C 
HETATM   10  S1  UNL     1      -2.851  61.404  31.487  1.00  0.00    -0.080 SA
ENDROOT
TORSDOF 0
ENDMDL
MODEL 4
REMARK VINA RESULT: -4.032242298      1.359      1.388
REMARK  0 active torsions:
REMARK  status: ('A' for Active; 'I' for Inactive)
ROOT
HETATM    1  N1  UNL     1      -2.157  64.706  32.308  1.00  0.00    -0.374 N 
ATOM      2  H11 UNL     1      -2.688  65.548  32.083  1.00  0.00     0.158 HD
ATOM      3  H12 UNL     1      -1.358  65.031  32.852  1.00  0.00     0.158 HD
HETATM    4  C1  UNL     1      -2.388  63.499  32.006  1.00  0.00     0.181 C 
HETATM    5  O1  UNL     1      -1.674  62.368  32.308  1.00  0.00    -0.291 OA
HETATM    6  C2  UNL     1      -1.948  61.271  31.550  1.00  0.00     0.072 C 
HETATM    7  C3  UNL     1      -1.087  60.385  31.080  1.00  0.00     0.089 C 
HETATM    8 BR1  UNL     1      -1.602  58.885  30.025  1.00  0.00    -0.061 Br
HETATM    9  C4  UNL     1      -3.421  61.134  31.266  1.00  0.00     0.148 C 
HETATM   10  S1  UNL     1      -3.785  62.933  31.054  1.00  0.00    -0.080 SA
ENDROOT
TORSDOF 0
ENDMDL
MODEL 5
REMARK VINA RESULT: -3.915538637      2.289      2.709
REMARK  0 active torsions:
REMARK  status: ('A' for Active; 'I' for Inactive)
ROOT
HETATM    1  N1  UNL     1      -2.177  66.048  31.989  1.00  0.00    -0.374 N 
ATOM      2  H11 UNL     1      -2.548  66.917  31.605  1.00  0.00     0.158 HD
ATOM      3  H12 UNL     1      -1.347  66.320  32.516  1.00  0.00     0.158 HD
HETATM    4  C1  UNL     1      -2.605  64.863  31.872  1.00  0.00     0.181 C 
HETATM    5  O1  UNL     1      -2.106  63.695  32.388  1.00  0.00    -0.291 OA
HETATM    6  C2  UNL     1      -2.547  62.549  31.801  1.00  0.00     0.072 C 
HETATM    7  C3  UNL     1      -1.840  61.466  31.526  1.00  0.00     0.089 C 
HETATM    8 BR1  UNL     1      -2.581  59.918  30.698  1.00  0.00    -0.061 Br
HETATM    9  C4  UNL     1      -4.014  62.613  31.466  1.00  0.00     0.148 C 
HETATM   10  S1  UNL     1      -4.056  64.387  30.951  1.00  0.00    -0.080 SA
ENDROOT
TORSDOF 0
ENDMDL
