MODEL 1
REMARK VINA RESULT: -5.664588531      0.000      0.000
REMARK  2 active torsions:
REMARK  status: ('A' for Active; 'I' for Inactive)
REMARK    1  A    between atoms: C2_2  and  O1_5 
REMARK    2  A    between atoms: O1_5  and  N1_6 
ROOT
HETATM    1  N1  UNL     1      -4.173  58.802  30.182  1.00  0.00    -0.249 N 
ATOM      2  H1  UNL     1      -4.375  58.077  29.493  1.00  0.00     0.196 HD
HETATM    3  C3  UNL     1      -2.998  58.853  30.661  1.00  0.00     0.097 C 
HETATM    4  C4  UNL     1      -2.804  59.947  31.658  1.00  0.00     0.078 C 
HETATM    5  C5  UNL     1      -1.354  60.426  31.638  1.00  0.00     0.007 C 
HETATM    6  C6  UNL     1      -0.905  60.329  30.184  1.00  0.00     0.002 C 
HETATM    7  C7  UNL     1       0.016  59.146  30.010  1.00  0.00     0.020 C 
HETATM    8  C8  UNL     1      -0.670  57.853  30.305  1.00  0.00     0.121 C 
HETATM    9  N2  UNL     1      -2.093  57.890  30.180  1.00  0.00    -0.378 N 
ATOM     10  H2  UNL     1      -2.510  57.110  29.671  1.00  0.00     0.160 HD
ENDROOT
BRANCH   1  11
HETATM   11  O1  UNL     1      -5.191  59.657  30.529  1.00  0.00    -0.203 OA
BRANCH  11  12
HETATM   12  C2  UNL     1      -6.508  59.131  30.488  1.00  0.00     0.370 C 
HETATM   13  C1  UNL     1      -6.557  57.718  31.024  1.00  0.00     0.128 C 
HETATM   14  F1  UNL     1      -7.293  59.982  31.247  1.00  0.00    -0.174 F 
HETATM   15  F2  UNL     1      -6.900  59.146  29.159  1.00  0.00    -0.174 F 
ENDBRANCH  11  12
ENDBRANCH   1  11
TORSDOF 2
ENDMDL
MODEL 2
REMARK VINA RESULT: -5.590097006      2.641      5.376
REMARK  2 active torsions:
REMARK  status: ('A' for Active; 'I' for Inactive)
REMARK    1  A    between atoms: C2_2  and  O1_5 
REMARK    2  A    between atoms: O1_5  and  N1_6 
ROOT
HETATM    1  N1  UNL     1      -4.119  60.119  30.054  1.00  0.00    -0.249 N 
ATOM      2  H1  UNL     1      -3.962  61.110  29.866  1.00  0.00     0.196 HD
HETATM    3  C3  UNL     1      -5.226  59.782  30.577  1.00  0.00     0.097 C 
HETATM    4  C4  UNL     1      -5.357  58.314  30.810  1.00  0.00     0.078 C 
HETATM    5  C5  UNL     1      -6.823  57.896  30.723  1.00  0.00     0.007 C 
HETATM    6  C6  UNL     1      -7.442  58.780  29.647  1.00  0.00     0.002 C 
HETATM    7  C7  UNL     1      -8.309  59.837  30.287  1.00  0.00     0.020 C 
HETATM    8  C8  UNL     1      -7.518  60.759  31.157  1.00  0.00     0.121 C 
HETATM    9  N2  UNL     1      -6.127  60.829  30.842  1.00  0.00    -0.378 N 
ATOM     10  H2  UNL     1      -5.732  61.770  30.803  1.00  0.00     0.160 HD
ENDROOT
BRANCH   1  11
HETATM   11  O1  UNL     1      -3.116  59.239  29.724  1.00  0.00    -0.203 OA
BRANCH  11  12
HETATM   12  C2  UNL     1      -1.903  59.351  30.453  1.00  0.00     0.370 C 
HETATM   13  C1  UNL     1      -0.944  58.235  30.108  1.00  0.00     0.128 C 
HETATM   14  F1  UNL     1      -1.368  60.587  30.134  1.00  0.00    -0.174 F 
HETATM   15  F2  UNL     1      -2.240  59.286  31.795  1.00  0.00    -0.174 F 
ENDBRANCH  11  12
ENDBRANCH   1  11
TORSDOF 2
ENDMDL
MODEL 3
REMARK VINA RESULT: -5.563777545      2.817      5.358
REMARK  2 active torsions:
REMARK  status: ('A' for Active; 'I' for Inactive)
REMARK    1  A    between atoms: C2_2  and  O1_5 
REMARK    2  A    between atoms: O1_5  and  N1_6 
ROOT
HETATM    1  N1  UNL     1      -3.903  59.890  30.008  1.00  0.00    -0.249 N 
ATOM      2  H1  UNL     1      -3.676  60.860  29.788  1.00  0.00     0.196 HD
HETATM    3  C3  UNL     1      -5.023  59.655  30.561  1.00  0.00     0.097 C 
HETATM    4  C4  UNL     1      -5.260  58.208  30.842  1.00  0.00     0.078 C 
HETATM    5  C5  UNL     1      -6.756  57.903  30.793  1.00  0.00     0.007 C 
HETATM    6  C6  UNL     1      -7.328  58.801  29.702  1.00  0.00     0.002 C 
HETATM    7  C7  UNL     1      -8.098  59.939  30.326  1.00  0.00     0.020 C 
HETATM    8  C8  UNL     1      -7.221  60.822  31.152  1.00  0.00     0.121 C 
HETATM    9  N2  UNL     1      -5.835  60.776  30.810  1.00  0.00    -0.378 N 
ATOM     10  H2  UNL     1      -5.370  61.681  30.735  1.00  0.00     0.160 HD
ENDROOT
BRANCH   1  11
HETATM   11  O1  UNL     1      -2.978  58.926  29.688  1.00  0.00    -0.203 OA
BRANCH  11  12
HETATM   12  C2  UNL     1      -1.699  59.044  30.291  1.00  0.00     0.370 C 
HETATM   13  C1  UNL     1      -1.721  60.014  31.451  1.00  0.00     0.128 C 
HETATM   14  F1  UNL     1      -1.345  57.772  30.708  1.00  0.00    -0.174 F 
HETATM   15  F2  UNL     1      -0.838  59.503  29.308  1.00  0.00    -0.174 F 
ENDBRANCH  11  12
ENDBRANCH   1  11
TORSDOF 2
ENDMDL
MODEL 4
REMARK VINA RESULT: -5.503958403      3.874      4.744
REMARK  2 active torsions:
REMARK  status: ('A' for Active; 'I' for Inactive)
REMARK    1  A    between atoms: C2_2  and  O1_5 
REMARK    2  A    between atoms: O1_5  and  N1_6 
ROOT
HETATM    1  N1  UNL     1      -4.048  62.904  30.824  1.00  0.00    -0.249 N 
ATOM      2  H1  UNL     1      -4.820  62.942  30.158  1.00  0.00     0.196 HD
HETATM    3  C3  UNL     1      -3.592  61.760  31.137  1.00  0.00     0.097 C 
HETATM    4  C4  UNL     1      -2.465  61.812  32.114  1.00  0.00     0.078 C 
HETATM    5  C5  UNL     1      -1.530  60.622  31.902  1.00  0.00     0.007 C 
HETATM    6  C6  UNL     1      -1.519  60.367  30.399  1.00  0.00     0.002 C 
HETATM    7  C7  UNL     1      -2.332  59.135  30.082  1.00  0.00     0.020 C 
HETATM    8  C8  UNL     1      -3.770  59.303  30.449  1.00  0.00     0.121 C 
HETATM    9  N2  UNL     1      -4.213  60.659  30.521  1.00  0.00    -0.378 N 
ATOM     10  H2  UNL     1      -5.104  60.856  30.063  1.00  0.00     0.160 HD
ENDROOT
BRANCH   1  11
HETATM   11  O1  UNL     1      -3.570  64.093  31.321  1.00  0.00    -0.203 OA
BRANCH  11  12
HETATM   12  C2  UNL     1      -4.349  65.251  31.061  1.00  0.00     0.370 C 
HETATM   13  C1  UNL     1      -3.753  66.476  31.717  1.00  0.00     0.128 C 
HETATM   14  F1  UNL     1      -4.394  65.391  29.685  1.00  0.00    -0.174 F 
HETATM   15  F2  UNL     1      -5.610  65.004  31.578  1.00  0.00    -0.174 F 
ENDBRANCH  11  12
ENDBRANCH   1  11
TORSDOF 2
ENDMDL
MODEL 5
REMARK VINA RESULT: -5.320554134      2.376      3.131
REMARK  2 active torsions:
REMARK  status: ('A' for Active; 'I' for Inactive)
REMARK    1  A    between atoms: C2_2  and  O1_5 
REMARK    2  A    between atoms: O1_5  and  N1_6 
ROOT
HETATM    1  N1  UNL     1      -5.744  58.694  30.890  1.00  0.00    -0.249 N 
ATOM      2  H1  UNL     1      -6.569  59.260  31.089  1.00  0.00     0.196 HD
HETATM    3  C3  UNL     1      -4.677  59.299  30.558  1.00  0.00     0.097 C 
HETATM    4  C4  UNL     1      -3.528  58.384  30.288  1.00  0.00     0.078 C 
HETATM    5  C5  UNL     1      -2.211  59.084  30.617  1.00  0.00     0.007 C 
HETATM    6  C6  UNL     1      -2.502  59.970  31.823  1.00  0.00     0.002 C 
HETATM    7  C7  UNL     1      -2.575  61.415  31.392  1.00  0.00     0.020 C 
HETATM    8  C8  UNL     1      -3.696  61.659  30.437  1.00  0.00     0.121 C 
HETATM    9  N2  UNL     1      -4.755  60.702  30.503  1.00  0.00    -0.378 N 
ATOM     10  H2  UNL     1      -5.699  61.091  30.511  1.00  0.00     0.160 HD
ENDROOT
BRANCH   1  11
HETATM   11  O1  UNL     1      -5.861  57.329  30.998  1.00  0.00    -0.203 OA
BRANCH  11  12
HETATM   12  C2  UNL     1      -7.055  56.836  31.585  1.00  0.00     0.370 C 
HETATM   13  C1  UNL     1      -8.174  57.849  31.501  1.00  0.00     0.128 C 
HETATM   14  F1  UNL     1      -7.376  55.676  30.902  1.00  0.00    -0.174 F 
HETATM   15  F2  UNL     1      -6.761  56.567  32.912  1.00  0.00    -0.174 F 
ENDBRANCH  11  12
ENDBRANCH   1  11
TORSDOF 2
ENDMDL
