MODEL 1
REMARK VINA RESULT: -6.464654298      0.000      0.000
REMARK  1 active torsions:
REMARK  status: ('A' for Active; 'I' for Inactive)
REMARK    1  A    between atoms: C5_6  and  C6_7 
ROOT
HETATM    1 CL1  UNL     1       0.301  58.524  30.220  1.00  0.00    -0.125 Cl
HETATM    2  C1  UNL     1      -0.979  59.720  30.333  1.00  0.00     0.083 C 
HETATM    3  C2  UNL     1      -1.027  60.373  31.718  1.00  0.00     0.020 C 
HETATM    4  C3  UNL     1      -2.006  61.487  31.653  1.00  0.00     0.002 C 
HETATM    5  C4  UNL     1      -3.325  61.185  31.088  1.00  0.00     0.012 C 
HETATM    6  C5  UNL     1      -3.443  60.064  30.137  1.00  0.00     0.057 C 
HETATM    7  C7  UNL     1      -2.335  59.061  30.172  1.00  0.00     0.032 C 
ENDROOT
BRANCH   6   8
HETATM    8  C6  UNL     1      -4.717  59.316  30.386  1.00  0.00     0.111 A 
HETATM    9  N1  UNL     1      -4.880  58.048  30.802  1.00  0.00    -0.274 N 
HETATM   10  N2  UNL     1      -6.172  57.756  30.902  1.00  0.00    -0.007 NA
ATOM     11  H1  UNL     1      -4.119  57.401  31.011  1.00  0.00     0.185 HD
HETATM   12  N3  UNL     1      -6.845  58.839  30.549  1.00  0.00    -0.007 NA
HETATM   13  N4  UNL     1      -5.977  59.789  30.235  1.00  0.00    -0.274 N 
ATOM     14  H4  UNL     1      -6.220  60.730  29.926  1.00  0.00     0.185 HD
ENDBRANCH   6   8
TORSDOF 1
ENDMDL
MODEL 2
REMARK VINA RESULT: -6.459528956      0.028      1.026
REMARK  1 active torsions:
REMARK  status: ('A' for Active; 'I' for Inactive)
REMARK    1  A    between atoms: C5_6  and  C6_7 
ROOT
HETATM    1 CL1  UNL     1       0.288  58.530  30.205  1.00  0.00    -0.125 Cl
HETATM    2  C1  UNL     1      -0.983  59.734  30.322  1.00  0.00     0.083 C 
HETATM    3  C2  UNL     1      -1.026  60.384  31.709  1.00  0.00     0.020 C 
HETATM    4  C3  UNL     1      -1.997  61.504  31.648  1.00  0.00     0.002 C 
HETATM    5  C4  UNL     1      -3.319  61.212  31.083  1.00  0.00     0.012 C 
HETATM    6  C5  UNL     1      -3.446  60.095  30.130  1.00  0.00     0.057 C 
HETATM    7  C7  UNL     1      -2.345  59.085  30.161  1.00  0.00     0.032 C 
ENDROOT
BRANCH   6   8
HETATM    8  C6  UNL     1      -4.724  59.355  30.378  1.00  0.00     0.111 A 
HETATM    9  N1  UNL     1      -5.989  59.790  30.243  1.00  0.00    -0.274 N 
HETATM   10  N2  UNL     1      -6.847  58.828  30.562  1.00  0.00    -0.007 NA
ATOM     11  H1  UNL     1      -6.252  60.728  29.938  1.00  0.00     0.185 HD
HETATM   12  N3  UNL     1      -6.134  57.767  30.905  1.00  0.00    -0.007 NA
HETATM   13  N4  UNL     1      -4.849  58.073  30.799  1.00  0.00    -0.274 N 
ATOM     14  H4  UNL     1      -4.074  57.442  31.002  1.00  0.00     0.185 HD
ENDBRANCH   6   8
TORSDOF 1
ENDMDL
MODEL 3
REMARK VINA RESULT: -6.096058542      2.945      3.882
REMARK  1 active torsions:
REMARK  status: ('A' for Active; 'I' for Inactive)
REMARK    1  A    between atoms: C5_6  and  C6_7 
ROOT
HETATM    1 CL1  UNL     1       1.150  58.843  30.128  1.00  0.00    -0.125 Cl
HETATM    2  C1  UNL     1      -0.483  58.928  30.768  1.00  0.00     0.083 C 
HETATM    3  C2  UNL     1      -1.525  58.525  29.721  1.00  0.00     0.020 C 
HETATM    4  C3  UNL     1      -2.840  58.450  30.406  1.00  0.00     0.002 C 
HETATM    5  C4  UNL     1      -3.231  59.600  31.228  1.00  0.00     0.012 C 
HETATM    6  C5  UNL     1      -2.171  60.454  31.793  1.00  0.00     0.057 C 
HETATM    7  C7  UNL     1      -0.835  60.359  31.130  1.00  0.00     0.032 C 
ENDROOT
BRANCH   6   8
HETATM    8  C6  UNL     1      -2.587  61.891  31.732  1.00  0.00     0.111 A 
HETATM    9  N1  UNL     1      -1.910  62.982  32.134  1.00  0.00    -0.274 N 
HETATM   10  N2  UNL     1      -2.623  64.079  31.908  1.00  0.00    -0.007 NA
ATOM     11  H1  UNL     1      -0.981  62.967  32.554  1.00  0.00     0.185 HD
HETATM   12  N3  UNL     1      -3.764  63.697  31.358  1.00  0.00    -0.007 NA
HETATM   13  N4  UNL     1      -3.755  62.377  31.247  1.00  0.00    -0.274 N 
ATOM     14  H4  UNL     1      -4.510  61.813  30.856  1.00  0.00     0.185 HD
ENDBRANCH   6   8
TORSDOF 1
ENDMDL
MODEL 4
REMARK VINA RESULT: -6.087698027      2.935      3.914
REMARK  1 active torsions:
REMARK  status: ('A' for Active; 'I' for Inactive)
REMARK    1  A    between atoms: C5_6  and  C6_7 
ROOT
HETATM    1 CL1  UNL     1       1.159  58.833  30.142  1.00  0.00    -0.125 Cl
HETATM    2  C1  UNL     1      -0.478  58.907  30.773  1.00  0.00     0.083 C 
HETATM    3  C2  UNL     1      -1.511  58.485  29.725  1.00  0.00     0.020 C 
HETATM    4  C3  UNL     1      -2.828  58.403  30.403  1.00  0.00     0.002 C 
HETATM    5  C4  UNL     1      -3.235  59.554  31.215  1.00  0.00     0.012 C 
HETATM    6  C5  UNL     1      -2.187  60.423  31.780  1.00  0.00     0.057 C 
HETATM    7  C7  UNL     1      -0.847  60.336  31.123  1.00  0.00     0.032 C 
ENDROOT
BRANCH   6   8
HETATM    8  C6  UNL     1      -2.617  61.855  31.706  1.00  0.00     0.111 A 
HETATM    9  N1  UNL     1      -3.758  62.368  31.213  1.00  0.00    -0.274 N 
HETATM   10  N2  UNL     1      -3.761  63.691  31.330  1.00  0.00    -0.007 NA
ATOM     11  H1  UNL     1      -4.515  61.817  30.806  1.00  0.00     0.185 HD
HETATM   12  N3  UNL     1      -2.618  64.035  31.900  1.00  0.00    -0.007 NA
HETATM   13  N4  UNL     1      -1.917  62.934  32.132  1.00  0.00    -0.274 N 
ATOM     14  H4  UNL     1      -0.993  62.904  32.564  1.00  0.00     0.185 HD
ENDBRANCH   6   8
TORSDOF 1
ENDMDL
MODEL 5
REMARK VINA RESULT: -5.838903571      3.373      4.306
REMARK  1 active torsions:
REMARK  status: ('A' for Active; 'I' for Inactive)
REMARK    1  A    between atoms: C5_6  and  C6_7 
ROOT
HETATM    1 CL1  UNL     1       0.465  59.252  30.922  1.00  0.00    -0.125 Cl
HETATM    2  C1  UNL     1      -1.232  59.626  31.170  1.00  0.00     0.083 C 
HETATM    3  C2  UNL     1      -2.051  59.426  29.892  1.00  0.00     0.020 C 
HETATM    4  C3  UNL     1      -3.483  59.584  30.249  1.00  0.00     0.002 C 
HETATM    5  C4  UNL     1      -3.852  60.778  31.016  1.00  0.00     0.012 C 
HETATM    6  C5  UNL     1      -2.824  61.422  31.854  1.00  0.00     0.057 C 
HETATM    7  C7  UNL     1      -1.406  61.093  31.512  1.00  0.00     0.032 C 
ENDROOT
BRANCH   6   8
HETATM    8  C6  UNL     1      -2.958  62.912  31.770  1.00  0.00     0.111 A 
HETATM    9  N1  UNL     1      -2.058  63.857  32.095  1.00  0.00    -0.274 N 
HETATM   10  N2  UNL     1      -2.559  65.068  31.877  1.00  0.00    -0.007 NA
ATOM     11  H1  UNL     1      -1.123  63.670  32.458  1.00  0.00     0.185 HD
HETATM   12  N3  UNL     1      -3.786  64.904  31.410  1.00  0.00    -0.007 NA
HETATM   13  N4  UNL     1      -4.039  63.605  31.342  1.00  0.00    -0.274 N 
ATOM     14  H4  UNL     1      -4.913  63.192  31.016  1.00  0.00     0.185 HD
ENDBRANCH   6   8
TORSDOF 1
ENDMDL
