MODEL 1
REMARK VINA RESULT: -7.475180208      0.000      0.000
REMARK  4 active torsions:
REMARK  status: ('A' for Active; 'I' for Inactive)
REMARK    1  A    between atoms: N1_1  and  N2_4 
REMARK       I    between atoms: N2_4  and  C1_6 
REMARK    2  A    between atoms: C1_6  and  C2_8 
REMARK    3  A    between atoms: C4_10  and  C5_11 
REMARK    4  A    between atoms: C6_12  and  C7_13 
ROOT
HETATM    1  C2  UNL     1      12.590  27.639  74.718  1.00  0.00     0.119 A 
HETATM    2  C3  UNL     1      13.769  27.236  75.298  1.00  0.00     0.067 A 
HETATM    3  C4  UNL     1      13.471  26.504  76.417  1.00  0.00     0.050 A 
HETATM    4  N6  UNL     1      12.134  26.467  76.507  1.00  0.00    -0.300 N 
ATOM      5  H6  UNL     1      11.606  25.993  77.240  1.00  0.00     0.187 HD
HETATM    6  N7  UNL     1      11.608  27.142  75.500  1.00  0.00    -0.295 N 
ATOM      7  H7  UNL     1      10.609  27.267  75.337  1.00  0.00     0.187 HD
ENDROOT
BRANCH   3   8
HETATM    8  C5  UNL     1      14.420  25.866  77.360  1.00  0.00     0.035 C 
HETATM    9  C6  UNL     1      15.676  26.197  77.339  1.00  0.00     0.051 C 
BRANCH   9  10
HETATM   10  C7  UNL     1      16.686  25.644  78.207  1.00  0.00     0.109 A 
HETATM   11  N3  UNL     1      16.998  24.309  78.177  1.00  0.00    -0.294 N 
HETATM   12  C8  UNL     1      17.935  23.771  78.975  1.00  0.00     0.326 A 
ATOM     13  H3  UNL     1      16.500  23.702  77.525  1.00  0.00     0.172 HD
HETATM   14  O2  UNL     1      18.225  22.551  78.954  1.00  0.00    -0.247 OA
HETATM   15  N4  UNL     1      18.575  24.588  79.821  1.00  0.00    -0.305 N 
HETATM   16  C9  UNL     1      18.295  25.921  79.880  1.00  0.00     0.186 A 
ATOM     17  H4  UNL     1      19.291  24.204  80.438  1.00  0.00     0.171 HD
HETATM   18  N5  UNL     1      17.342  26.439  79.062  1.00  0.00    -0.338 N 
ATOM     19  H5  UNL     1      17.125  27.435  79.099  1.00  0.00     0.168 HD
ENDBRANCH   9  10
ENDBRANCH   3   8
BRANCH   1  20
HETATM   20  C1  UNL     1      12.413  28.446  73.499  1.00  0.00     0.287 C 
HETATM   21  N2  UNL     1      13.466  29.255  73.001  1.00  0.00    -0.271 N 
ATOM     22  H2  UNL     1      14.356  29.274  73.498  1.00  0.00     0.189 HD
HETATM   23  O1  UNL     1      11.306  28.401  72.912  1.00  0.00    -0.264 OA
BRANCH  21  24
HETATM   24  N1  UNL     1      13.315  30.025  71.848  1.00  0.00    -0.342 N 
ATOM     25  H12 UNL     1      13.292  31.040  71.946  1.00  0.00     0.176 HD
ATOM     26  H11 UNL     1      13.228  29.597  70.926  1.00  0.00     0.176 HD
ENDBRANCH  21  24
ENDBRANCH   1  20
TORSDOF 4
ENDMDL
MODEL 2
REMARK VINA RESULT: -7.402329498      1.060      1.530
REMARK  4 active torsions:
REMARK  status: ('A' for Active; 'I' for Inactive)
REMARK    1  A    between atoms: N1_1  and  N2_4 
REMARK       I    between atoms: N2_4  and  C1_6 
REMARK    2  A    between atoms: C1_6  and  C2_8 
REMARK    3  A    between atoms: C4_10  and  C5_11 
REMARK    4  A    between atoms: C6_12  and  C7_13 
ROOT
HETATM    1  C2  UNL     1      12.577  27.658  74.713  1.00  0.00     0.119 A 
HETATM    2  C3  UNL     1      13.752  27.273  75.312  1.00  0.00     0.067 A 
HETATM    3  C4  UNL     1      13.447  26.519  76.415  1.00  0.00     0.050 A 
HETATM    4  N6  UNL     1      12.110  26.453  76.477  1.00  0.00    -0.300 N 
ATOM      5  H6  UNL     1      11.576  25.958  77.192  1.00  0.00     0.187 HD
HETATM    6  N7  UNL     1      11.590  27.130  75.467  1.00  0.00    -0.295 N 
ATOM      7  H7  UNL     1      10.592  27.237  75.285  1.00  0.00     0.187 HD
ENDROOT
BRANCH   3   8
HETATM    8  C5  UNL     1      14.389  25.889  77.369  1.00  0.00     0.035 C 
HETATM    9  C6  UNL     1      15.657  26.164  77.306  1.00  0.00     0.051 C 
BRANCH   9  10
HETATM   10  C7  UNL     1      16.663  25.613  78.179  1.00  0.00     0.109 A 
HETATM   11  N3  UNL     1      17.413  26.416  78.999  1.00  0.00    -0.294 N 
HETATM   12  C8  UNL     1      18.356  25.926  79.820  1.00  0.00     0.326 A 
ATOM     13  H3  UNL     1      17.249  27.423  78.984  1.00  0.00     0.172 HD
HETATM   14  O2  UNL     1      19.047  26.655  80.572  1.00  0.00    -0.247 OA
HETATM   15  N4  UNL     1      18.552  24.601  79.822  1.00  0.00    -0.305 N 
HETATM   16  C9  UNL     1      17.826  23.768  79.023  1.00  0.00     0.186 A 
ATOM     17  H4  UNL     1      19.262  24.204  80.437  1.00  0.00     0.171 HD
HETATM   18  N5  UNL     1      16.879  24.291  78.201  1.00  0.00    -0.338 N 
ATOM     19  H5  UNL     1      16.331  23.676  77.599  1.00  0.00     0.168 HD
ENDBRANCH   9  10
ENDBRANCH   3   8
BRANCH   1  20
HETATM   20  C1  UNL     1      12.408  28.478  73.501  1.00  0.00     0.287 C 
HETATM   21  N2  UNL     1      13.485  29.239  72.979  1.00  0.00    -0.271 N 
ATOM     22  H2  UNL     1      14.388  29.214  73.454  1.00  0.00     0.189 HD
HETATM   23  O1  UNL     1      11.286  28.487  72.942  1.00  0.00    -0.264 OA
BRANCH  21  24
HETATM   24  N1  UNL     1      13.342  30.020  71.832  1.00  0.00    -0.342 N 
ATOM     25  H12 UNL     1      14.120  30.619  71.558  1.00  0.00     0.176 HD
ATOM     26  H11 UNL     1      12.488  30.001  71.275  1.00  0.00     0.176 HD
ENDBRANCH  21  24
ENDBRANCH   1  20
TORSDOF 4
ENDMDL
MODEL 3
REMARK VINA RESULT: -7.392676208      1.298      1.324
REMARK  4 active torsions:
REMARK  status: ('A' for Active; 'I' for Inactive)
REMARK    1  A    between atoms: N1_1  and  N2_4 
REMARK       I    between atoms: N2_4  and  C1_6 
REMARK    2  A    between atoms: C1_6  and  C2_8 
REMARK    3  A    between atoms: C4_10  and  C5_11 
REMARK    4  A    between atoms: C6_12  and  C7_13 
ROOT
HETATM    1  C2  UNL     1      12.613  27.695  74.697  1.00  0.00     0.119 A 
HETATM    2  C3  UNL     1      13.798  27.389  75.321  1.00  0.00     0.067 A 
HETATM    3  C4  UNL     1      13.518  26.650  76.440  1.00  0.00     0.050 A 
HETATM    4  N6  UNL     1      12.186  26.514  76.487  1.00  0.00    -0.300 N 
ATOM      5  H6  UNL     1      11.669  26.010  77.209  1.00  0.00     0.187 HD
HETATM    6  N7  UNL     1      11.644  27.135  75.453  1.00  0.00    -0.295 N 
ATOM      7  H7  UNL     1      10.645  27.184  75.256  1.00  0.00     0.187 HD
ENDROOT
BRANCH   3   8
HETATM    8  C5  UNL     1      14.480  26.096  77.422  1.00  0.00     0.035 C 
HETATM    9  C6  UNL     1      14.777  24.832  77.397  1.00  0.00     0.051 C 
BRANCH   9  10
HETATM   10  C7  UNL     1      15.696  24.185  78.300  1.00  0.00     0.109 A 
HETATM   11  N3  UNL     1      16.864  23.626  77.848  1.00  0.00    -0.294 N 
HETATM   12  C8  UNL     1      17.735  23.018  78.669  1.00  0.00     0.326 A 
ATOM     13  H3  UNL     1      17.079  23.674  76.851  1.00  0.00     0.172 HD
HETATM   14  O2  UNL     1      18.805  22.503  78.262  1.00  0.00    -0.247 OA
HETATM   15  N4  UNL     1      17.432  22.969  79.973  1.00  0.00    -0.305 N 
HETATM   16  C9  UNL     1      16.282  23.514  80.461  1.00  0.00     0.186 A 
ATOM     17  H4  UNL     1      18.078  22.512  80.616  1.00  0.00     0.171 HD
HETATM   18  N5  UNL     1      15.417  24.122  79.608  1.00  0.00    -0.338 N 
ATOM     19  H5  UNL     1      14.553  24.532  79.964  1.00  0.00     0.168 HD
ENDBRANCH   9  10
ENDBRANCH   3   8
BRANCH   1  20
HETATM   20  C1  UNL     1      12.416  28.472  73.461  1.00  0.00     0.287 C 
HETATM   21  N2  UNL     1      13.449  29.298  72.948  1.00  0.00    -0.271 N 
ATOM     22  H2  UNL     1      14.337  29.352  73.447  1.00  0.00     0.189 HD
HETATM   23  O1  UNL     1      11.313  28.385  72.873  1.00  0.00    -0.264 OA
BRANCH  21  24
HETATM   24  N1  UNL     1      13.280  30.040  71.779  1.00  0.00    -0.342 N 
ATOM     25  H12 UNL     1      13.159  29.535  70.901  1.00  0.00     0.176 HD
ATOM     26  H11 UNL     1      13.275  31.060  71.788  1.00  0.00     0.176 HD
ENDBRANCH  21  24
ENDBRANCH   1  20
TORSDOF 4
ENDMDL
MODEL 4
REMARK VINA RESULT: -7.281837725      2.675      3.617
REMARK  4 active torsions:
REMARK  status: ('A' for Active; 'I' for Inactive)
REMARK    1  A    between atoms: N1_1  and  N2_4 
REMARK       I    between atoms: N2_4  and  C1_6 
REMARK    2  A    between atoms: C1_6  and  C2_8 
REMARK    3  A    between atoms: C4_10  and  C5_11 
REMARK    4  A    between atoms: C6_12  and  C7_13 
ROOT
HETATM    1  C2  UNL     1      12.736  28.189  74.735  1.00  0.00     0.119 A 
HETATM    2  C3  UNL     1      13.920  27.841  75.338  1.00  0.00     0.067 A 
HETATM    3  C4  UNL     1      14.950  28.224  74.519  1.00  0.00     0.050 A 
HETATM    4  N6  UNL     1      14.392  28.794  73.442  1.00  0.00    -0.300 N 
ATOM      5  H6  UNL     1      14.903  29.182  72.649  1.00  0.00     0.187 HD
HETATM    6  N7  UNL     1      13.076  28.773  73.566  1.00  0.00    -0.295 N 
ATOM      7  H7  UNL     1      12.416  29.144  72.882  1.00  0.00     0.187 HD
ENDROOT
BRANCH   3   8
HETATM    8  C5  UNL     1      16.403  28.056  74.754  1.00  0.00     0.035 C 
HETATM    9  C6  UNL     1      16.824  27.535  75.867  1.00  0.00     0.051 C 
BRANCH   9  10
HETATM   10  C7  UNL     1      18.210  27.323  76.204  1.00  0.00     0.109 A 
HETATM   11  N3  UNL     1      18.573  26.526  77.259  1.00  0.00    -0.294 N 
HETATM   12  C8  UNL     1      19.856  26.313  77.592  1.00  0.00     0.326 A 
ATOM     13  H3  UNL     1      17.841  26.077  77.811  1.00  0.00     0.172 HD
HETATM   14  O2  UNL     1      20.196  25.586  78.556  1.00  0.00    -0.247 OA
HETATM   15  N4  UNL     1      20.799  26.912  76.852  1.00  0.00    -0.305 N 
HETATM   16  C9  UNL     1      20.478  27.711  75.794  1.00  0.00     0.186 A 
ATOM     17  H4  UNL     1      21.780  26.767  77.085  1.00  0.00     0.171 HD
HETATM   18  N5  UNL     1      19.172  27.910  75.480  1.00  0.00    -0.338 N 
ATOM     19  H5  UNL     1      18.922  28.506  74.691  1.00  0.00     0.168 HD
ENDBRANCH   9  10
ENDBRANCH   3   8
BRANCH   1  20
HETATM   20  C1  UNL     1      11.368  27.976  75.239  1.00  0.00     0.287 C 
HETATM   21  N2  UNL     1      11.037  28.261  76.589  1.00  0.00    -0.271 N 
ATOM     22  H2  UNL     1      11.761  28.617  77.214  1.00  0.00     0.189 HD
HETATM   23  O1  UNL     1      10.503  27.537  74.446  1.00  0.00    -0.264 OA
BRANCH  21  24
HETATM   24  N1  UNL     1       9.747  28.065  77.083  1.00  0.00    -0.342 N 
ATOM     25  H12 UNL     1       8.960  28.318  76.486  1.00  0.00     0.176 HD
ATOM     26  H11 UNL     1       9.583  27.682  78.014  1.00  0.00     0.176 HD
ENDBRANCH  21  24
ENDBRANCH   1  20
TORSDOF 4
ENDMDL
MODEL 5
REMARK VINA RESULT: -7.227954703      3.253      4.038
REMARK  4 active torsions:
REMARK  status: ('A' for Active; 'I' for Inactive)
REMARK    1  A    between atoms: N1_1  and  N2_4 
REMARK       I    between atoms: N2_4  and  C1_6 
REMARK    2  A    between atoms: C1_6  and  C2_8 
REMARK    3  A    between atoms: C4_10  and  C5_11 
REMARK    4  A    between atoms: C6_12  and  C7_13 
ROOT
HETATM    1  C2  UNL     1      11.254  28.362  75.792  1.00  0.00     0.119 A 
HETATM    2  C3  UNL     1      12.592  28.656  75.892  1.00  0.00     0.067 A 
HETATM    3  C4  UNL     1      13.282  27.819  75.055  1.00  0.00     0.050 A 
HETATM    4  N6  UNL     1      12.372  27.034  74.462  1.00  0.00    -0.300 N 
ATOM      5  H6  UNL     1      12.578  26.304  73.780  1.00  0.00     0.187 HD
HETATM    6  N7  UNL     1      11.166  27.354  74.899  1.00  0.00    -0.295 N 
ATOM      7  H7  UNL     1      10.298  26.905  74.604  1.00  0.00     0.187 HD
ENDROOT
BRANCH   3   8
HETATM    8  C5  UNL     1      14.746  27.770  74.829  1.00  0.00     0.035 C 
HETATM    9  C6  UNL     1      15.561  27.903  75.832  1.00  0.00     0.051 C 
BRANCH   9  10
HETATM   10  C7  UNL     1      16.999  27.871  75.732  1.00  0.00     0.109 A 
HETATM   11  N3  UNL     1      17.757  27.124  76.596  1.00  0.00    -0.294 N 
HETATM   12  C8  UNL     1      19.097  27.079  76.524  1.00  0.00     0.326 A 
ATOM     13  H3  UNL     1      17.286  26.582  77.321  1.00  0.00     0.172 HD
HETATM   14  O2  UNL     1      19.797  26.398  77.311  1.00  0.00    -0.247 OA
HETATM   15  N4  UNL     1      19.693  27.797  75.563  1.00  0.00    -0.305 N 
HETATM   16  C9  UNL     1      18.975  28.552  74.684  1.00  0.00     0.186 A 
ATOM     17  H4  UNL     1      20.710  27.780  75.487  1.00  0.00     0.171 HD
HETATM   18  N5  UNL     1      17.620  28.581  74.780  1.00  0.00    -0.338 N 
ATOM     19  H5  UNL     1      17.074  29.143  74.127  1.00  0.00     0.168 HD
ENDBRANCH   9  10
ENDBRANCH   3   8
BRANCH   1  20
HETATM   20  C1  UNL     1      10.133  28.999  76.504  1.00  0.00     0.287 C 
HETATM   21  N2  UNL     1      10.318  30.211  77.217  1.00  0.00    -0.271 N 
ATOM     22  H2  UNL     1      11.243  30.642  77.235  1.00  0.00     0.189 HD
HETATM   23  O1  UNL     1       9.011  28.444  76.464  1.00  0.00    -0.264 OA
BRANCH  21  24
HETATM   24  N1  UNL     1       9.267  30.828  77.896  1.00  0.00    -0.342 N 
ATOM     25  H12 UNL     1       8.632  30.241  78.436  1.00  0.00     0.176 HD
ATOM     26  H11 UNL     1       9.128  31.838  77.861  1.00  0.00     0.176 HD
ENDBRANCH  21  24
ENDBRANCH   1  20
TORSDOF 4
ENDMDL
