MODEL 1
REMARK VINA RESULT: -8.084524581      0.000      0.000
REMARK  4 active torsions:
REMARK  status: ('A' for Active; 'I' for Inactive)
REMARK    1  A    between atoms: N1_1  and  C1_4 
REMARK    2  A    between atoms: C2_11  and  N5_12 
REMARK    3  A    between atoms: N5_12  and  C3_14 
REMARK    4  A    between atoms: C6_17  and  C7_18 
ROOT
HETATM    1  C1  UNL     1       9.896  29.296  76.196  1.00  0.00     0.706 A 
HETATM    2  N2  UNL     1       9.715  28.465  77.238  1.00  0.00    -0.117 N 
ATOM      3  H2  UNL     1       9.051  28.704  77.975  1.00  0.00     0.207 HD
HETATM    4  N3  UNL     1      10.402  27.338  77.300  1.00  0.00    -0.214 N 
ATOM      5  H3  UNL     1      10.263  26.709  78.091  1.00  0.00     0.209 HD
HETATM    6  N4  UNL     1      11.280  27.007  76.341  1.00  0.00    -0.116 N 
ATOM      7  H4  UNL     1      11.796  26.130  76.418  1.00  0.00     0.207 HD
HETATM    8  C2  UNL     1      11.495  27.804  75.280  1.00  0.00     0.713 A 
HETATM    9  N6  UNL     1      10.791  28.947  75.228  1.00  0.00    -0.020 N 
ATOM     10  H6  UNL     1      10.931  29.575  74.437  1.00  0.00     0.203 HD
ENDROOT
BRANCH   8  11
HETATM   11  N5  UNL     1      12.330  27.462  74.391  1.00  0.00    -0.190 N 
ATOM     12  H5  UNL     1      11.982  26.862  73.644  1.00  0.00     0.184 HD
BRANCH  11  13
HETATM   13  C3  UNL     1      13.683  27.824  74.330  1.00  0.00     0.049 A 
HETATM   14  C4  UNL     1      14.587  27.493  75.321  1.00  0.00     0.031 A 
HETATM   15  C5  UNL     1      15.921  27.858  75.246  1.00  0.00     0.020 A 
HETATM   16  C6  UNL     1      16.394  28.567  74.176  1.00  0.00     0.041 A 
HETATM   17  C8  UNL     1      15.517  28.910  73.177  1.00  0.00     0.020 A 
HETATM   18  C9  UNL     1      14.177  28.539  73.258  1.00  0.00     0.031 A 
BRANCH  16  19
HETATM   19  C7  UNL     1      17.809  28.952  74.103  1.00  0.00     0.209 C 
HETATM   20  O1  UNL     1      18.685  28.225  74.637  1.00  0.00    -0.644 OA
HETATM   21  O2  UNL     1      18.160  30.122  73.443  1.00  0.00    -0.644 OA
ENDBRANCH  16  19
ENDBRANCH  11  13
ENDBRANCH   8  11
BRANCH   1  22
HETATM   22  N1  UNL     1       9.233  30.393  76.126  1.00  0.00    -0.233 N 
ATOM     23  H12 UNL     1       8.295  30.470  76.517  1.00  0.00     0.174 HD
ATOM     24  H11 UNL     1       9.643  31.209  75.673  1.00  0.00     0.174 HD
ENDBRANCH   1  22
TORSDOF 4
ENDMDL
MODEL 2
REMARK VINA RESULT: -8.072699507      0.052      1.142
REMARK  4 active torsions:
REMARK  status: ('A' for Active; 'I' for Inactive)
REMARK    1  A    between atoms: N1_1  and  C1_4 
REMARK    2  A    between atoms: C2_11  and  N5_12 
REMARK    3  A    between atoms: N5_12  and  C3_14 
REMARK    4  A    between atoms: C6_17  and  C7_18 
ROOT
HETATM    1  C1  UNL     1       9.874  29.291  76.210  1.00  0.00     0.706 A 
HETATM    2  N2  UNL     1       9.702  28.475  77.264  1.00  0.00    -0.117 N 
ATOM      3  H2  UNL     1       9.046  28.725  78.005  1.00  0.00     0.207 HD
HETATM    4  N3  UNL     1      10.389  27.348  77.336  1.00  0.00    -0.214 N 
ATOM      5  H3  UNL     1      10.256  26.731  78.137  1.00  0.00     0.209 HD
HETATM    6  N4  UNL     1      11.257  27.002  76.373  1.00  0.00    -0.116 N 
ATOM      7  H4  UNL     1      11.772  26.125  76.458  1.00  0.00     0.207 HD
HETATM    8  C2  UNL     1      11.462  27.784  75.299  1.00  0.00     0.713 A 
HETATM    9  N6  UNL     1      10.760  28.927  75.238  1.00  0.00    -0.020 N 
ATOM     10  H6  UNL     1      10.892  29.544  74.437  1.00  0.00     0.203 HD
ENDROOT
BRANCH   8  11
HETATM   11  N5  UNL     1      12.288  27.429  74.407  1.00  0.00    -0.190 N 
ATOM     12  H5  UNL     1      11.938  26.801  73.684  1.00  0.00     0.184 HD
BRANCH  11  13
HETATM   13  C3  UNL     1      13.634  27.810  74.312  1.00  0.00     0.049 A 
HETATM   14  C4  UNL     1      14.129  28.534  73.245  1.00  0.00     0.031 A 
HETATM   15  C5  UNL     1      15.461  28.902  73.166  1.00  0.00     0.020 A 
HETATM   16  C6  UNL     1      16.343  28.558  74.153  1.00  0.00     0.041 A 
HETATM   17  C8  UNL     1      15.879  27.838  75.225  1.00  0.00     0.020 A 
HETATM   18  C9  UNL     1      14.537  27.471  75.300  1.00  0.00     0.031 A 
BRANCH  16  19
HETATM   19  C7  UNL     1      17.755  28.952  74.062  1.00  0.00     0.209 C 
HETATM   20  O1  UNL     1      18.643  28.224  74.574  1.00  0.00    -0.644 OA
HETATM   21  O2  UNL     1      18.089  30.130  73.410  1.00  0.00    -0.644 OA
ENDBRANCH  16  19
ENDBRANCH  11  13
ENDBRANCH   8  11
BRANCH   1  22
HETATM   22  N1  UNL     1       9.212  30.388  76.131  1.00  0.00    -0.233 N 
ATOM     23  H12 UNL     1       8.694  30.752  76.931  1.00  0.00     0.174 HD
ATOM     24  H11 UNL     1       9.198  30.914  75.258  1.00  0.00     0.174 HD
ENDBRANCH   1  22
TORSDOF 4
ENDMDL
MODEL 3
REMARK VINA RESULT: -8.052522301      1.480      2.422
REMARK  4 active torsions:
REMARK  status: ('A' for Active; 'I' for Inactive)
REMARK    1  A    between atoms: N1_1  and  C1_4 
REMARK    2  A    between atoms: C2_11  and  N5_12 
REMARK    3  A    between atoms: N5_12  and  C3_14 
REMARK    4  A    between atoms: C6_17  and  C7_18 
ROOT
HETATM    1  C1  UNL     1      10.583  28.655  76.405  1.00  0.00     0.706 A 
HETATM    2  N2  UNL     1      10.070  28.182  75.256  1.00  0.00    -0.117 N 
ATOM      3  H2  UNL     1       9.204  28.570  74.882  1.00  0.00     0.207 HD
HETATM    4  N3  UNL     1      10.696  27.211  74.613  1.00  0.00    -0.214 N 
ATOM      5  H3  UNL     1      10.305  26.854  73.741  1.00  0.00     0.209 HD
HETATM    6  N4  UNL     1      11.836  26.687  75.088  1.00  0.00    -0.116 N 
ATOM      7  H4  UNL     1      12.294  25.937  74.568  1.00  0.00     0.207 HD
HETATM    8  C2  UNL     1      12.388  27.126  76.231  1.00  0.00     0.713 A 
HETATM    9  N6  UNL     1      11.744  28.113  76.876  1.00  0.00    -0.020 N 
ATOM     10  H6  UNL     1      12.135  28.470  77.747  1.00  0.00     0.203 HD
ENDROOT
BRANCH   8  11
HETATM   11  N5  UNL     1      13.466  26.611  76.652  1.00  0.00    -0.190 N 
ATOM     12  H5  UNL     1      13.377  25.841  77.314  1.00  0.00     0.184 HD
BRANCH  11  13
HETATM   13  C3  UNL     1      14.769  26.992  76.300  1.00  0.00     0.049 A 
HETATM   14  C4  UNL     1      15.041  27.792  75.208  1.00  0.00     0.031 A 
HETATM   15  C5  UNL     1      16.333  28.159  74.873  1.00  0.00     0.020 A 
HETATM   16  C6  UNL     1      17.398  27.737  75.622  1.00  0.00     0.041 A 
HETATM   17  C8  UNL     1      17.157  26.939  76.713  1.00  0.00     0.020 A 
HETATM   18  C9  UNL     1      15.853  26.574  77.044  1.00  0.00     0.031 A 
BRANCH  16  19
HETATM   19  C7  UNL     1      18.766  28.128  75.261  1.00  0.00     0.209 C 
HETATM   20  O1  UNL     1      18.955  29.070  74.450  1.00  0.00    -0.644 OA
HETATM   21  O2  UNL     1      19.836  27.447  75.823  1.00  0.00    -0.644 OA
ENDBRANCH  16  19
ENDBRANCH  11  13
ENDBRANCH   8  11
BRANCH   1  22
HETATM   22  N1  UNL     1       9.984  29.598  77.036  1.00  0.00    -0.233 N 
ATOM     23  H12 UNL     1       9.926  30.540  76.650  1.00  0.00     0.174 HD
ATOM     24  H11 UNL     1       9.554  29.413  77.942  1.00  0.00     0.174 HD
ENDBRANCH   1  22
TORSDOF 4
ENDMDL
MODEL 4
REMARK VINA RESULT: -8.044405911      1.477      2.147
REMARK  4 active torsions:
REMARK  status: ('A' for Active; 'I' for Inactive)
REMARK    1  A    between atoms: N1_1  and  C1_4 
REMARK    2  A    between atoms: C2_11  and  N5_12 
REMARK    3  A    between atoms: N5_12  and  C3_14 
REMARK    4  A    between atoms: C6_17  and  C7_18 
ROOT
HETATM    1  C1  UNL     1      10.572  28.651  76.405  1.00  0.00     0.706 A 
HETATM    2  N2  UNL     1      10.063  28.184  75.251  1.00  0.00    -0.117 N 
ATOM      3  H2  UNL     1       9.203  28.580  74.872  1.00  0.00     0.207 HD
HETATM    4  N3  UNL     1      10.684  27.208  74.613  1.00  0.00    -0.214 N 
ATOM      5  H3  UNL     1      10.297  26.855  73.737  1.00  0.00     0.209 HD
HETATM    6  N4  UNL     1      11.816  26.673  75.095  1.00  0.00    -0.116 N 
ATOM      7  H4  UNL     1      12.272  25.920  74.578  1.00  0.00     0.207 HD
HETATM    8  C2  UNL     1      12.364  27.106  76.243  1.00  0.00     0.713 A 
HETATM    9  N6  UNL     1      11.723  28.098  76.884  1.00  0.00    -0.020 N 
ATOM     10  H6  UNL     1      12.111  28.450  77.759  1.00  0.00     0.203 HD
ENDROOT
BRANCH   8  11
HETATM   11  N5  UNL     1      13.433  26.581  76.672  1.00  0.00    -0.190 N 
ATOM     12  H5  UNL     1      13.333  25.806  77.327  1.00  0.00     0.184 HD
BRANCH  11  13
HETATM   13  C3  UNL     1      14.743  26.956  76.337  1.00  0.00     0.049 A 
HETATM   14  C4  UNL     1      15.844  26.539  77.059  1.00  0.00     0.031 A 
HETATM   15  C5  UNL     1      17.130  26.918  76.716  1.00  0.00     0.020 A 
HETATM   16  C6  UNL     1      17.358  27.729  75.637  1.00  0.00     0.041 A 
HETATM   17  C8  UNL     1      16.282  28.159  74.902  1.00  0.00     0.020 A 
HETATM   18  C9  UNL     1      14.989  27.773  75.252  1.00  0.00     0.031 A 
BRANCH  16  19
HETATM   19  C7  UNL     1      18.724  28.128  75.279  1.00  0.00     0.209 C 
HETATM   20  O1  UNL     1      18.911  29.092  74.494  1.00  0.00    -0.644 OA
HETATM   21  O2  UNL     1      19.797  27.429  75.816  1.00  0.00    -0.644 OA
ENDBRANCH  16  19
ENDBRANCH  11  13
ENDBRANCH   8  11
BRANCH   1  22
HETATM   22  N1  UNL     1       9.976  29.599  77.033  1.00  0.00    -0.233 N 
ATOM     23  H12 UNL     1      10.498  30.383  77.424  1.00  0.00     0.174 HD
ATOM     24  H11 UNL     1       8.963  29.578  77.148  1.00  0.00     0.174 HD
ENDBRANCH   1  22
TORSDOF 4
ENDMDL
MODEL 5
REMARK VINA RESULT: -8.000037643      1.849      2.526
REMARK  4 active torsions:
REMARK  status: ('A' for Active; 'I' for Inactive)
REMARK    1  A    between atoms: N1_1  and  C1_4 
REMARK    2  A    between atoms: C2_11  and  N5_12 
REMARK    3  A    between atoms: N5_12  and  C3_14 
REMARK    4  A    between atoms: C6_17  and  C7_18 
ROOT
HETATM    1  C1  UNL     1      10.759  29.045  76.104  1.00  0.00     0.706 A 
HETATM    2  N2  UNL     1       9.988  28.051  75.631  1.00  0.00    -0.117 N 
ATOM      3  H2  UNL     1       9.027  27.947  75.956  1.00  0.00     0.207 HD
HETATM    4  N3  UNL     1      10.484  27.208  74.741  1.00  0.00    -0.214 N 
ATOM      5  H3  UNL     1       9.897  26.455  74.383  1.00  0.00     0.209 HD
HETATM    6  N4  UNL     1      11.746  27.327  74.301  1.00  0.00    -0.116 N 
ATOM      7  H4  UNL     1      12.099  26.660  73.614  1.00  0.00     0.207 HD
HETATM    8  C2  UNL     1      12.555  28.305  74.744  1.00  0.00     0.713 A 
HETATM    9  N6  UNL     1      12.040  29.155  75.648  1.00  0.00    -0.020 N 
ATOM     10  H6  UNL     1      12.627  29.908  76.005  1.00  0.00     0.203 HD
ENDROOT
BRANCH   8  11
HETATM   11  N5  UNL     1      13.741  28.390  74.308  1.00  0.00    -0.190 N 
ATOM     12  H5  UNL     1      13.859  28.800  73.381  1.00  0.00     0.184 HD
BRANCH  11  13
HETATM   13  C3  UNL     1      14.908  27.979  74.968  1.00  0.00     0.049 A 
HETATM   14  C4  UNL     1      14.882  27.186  76.098  1.00  0.00     0.031 A 
HETATM   15  C5  UNL     1      16.043  26.788  76.739  1.00  0.00     0.020 A 
HETATM   16  C6  UNL     1      17.269  27.173  76.270  1.00  0.00     0.041 A 
HETATM   17  C8  UNL     1      17.324  27.963  75.149  1.00  0.00     0.020 A 
HETATM   18  C9  UNL     1      16.152  28.359  74.508  1.00  0.00     0.031 A 
BRANCH  16  19
HETATM   19  C7  UNL     1      18.497  26.749  76.955  1.00  0.00     0.209 C 
HETATM   20  O1  UNL     1      19.532  27.457  76.882  1.00  0.00    -0.644 OA
HETATM   21  O2  UNL     1      18.495  25.563  77.676  1.00  0.00    -0.644 OA
ENDBRANCH  16  19
ENDBRANCH  11  13
ENDBRANCH   8  11
BRANCH   1  22
HETATM   22  N1  UNL     1      10.287  29.869  76.968  1.00  0.00    -0.233 N 
ATOM     23  H12 UNL     1       9.282  30.010  77.070  1.00  0.00     0.174 HD
ATOM     24  H11 UNL     1      10.920  30.397  77.569  1.00  0.00     0.174 HD
ENDBRANCH   1  22
TORSDOF 4
ENDMDL
