MODEL 1
REMARK VINA RESULT: -7.180350329      0.000      0.000
REMARK  5 active torsions:
REMARK  status: ('A' for Active; 'I' for Inactive)
REMARK    1  A    between atoms: N1_1  and  C1_4 
REMARK    2  A    between atoms: C4_9  and  N3_10 
REMARK    3  A    between atoms: N3_10  and  N4_12 
REMARK       I    between atoms: N4_12  and  C5_14 
REMARK    4  A    between atoms: C5_14  and  C6_16 
REMARK    5  A    between atoms: C8_18  and  C9_19 
ROOT
HETATM    1  N3  UNL     1      16.513  28.103  74.732  1.00  0.00    -0.282 N 
ATOM      2  H3  UNL     1      16.761  28.605  73.880  1.00  0.00     0.188 HD
ENDROOT
BRANCH   1   3
HETATM    3  C4  UNL     1      17.470  27.719  75.470  1.00  0.00     0.136 A 
HETATM    4  C3  UNL     1      18.757  28.122  75.188  1.00  0.00     0.068 A 
HETATM    5  C2  UNL     1      19.827  27.721  75.974  1.00  0.00     0.110 A 
HETATM    6  N2  UNL     1      19.613  26.912  77.048  1.00  0.00    -0.202 N 
HETATM    7  C1  UNL     1      18.352  26.531  77.306  1.00  0.00     0.677 A 
ATOM      8  H2  UNL     1      20.387  26.606  77.639  1.00  0.00     0.183 HD
HETATM    9  N6  UNL     1      17.301  26.917  76.544  1.00  0.00    -0.176 N 
ATOM     10  H6  UNL     1      16.363  26.596  76.786  1.00  0.00     0.186 HD
BRANCH   7  11
HETATM   11  N1  UNL     1      18.137  25.769  78.313  1.00  0.00    -0.234 N 
ATOM     12  H12 UNL     1      18.769  24.986  78.480  1.00  0.00     0.174 HD
ATOM     13  H11 UNL     1      17.341  25.973  78.917  1.00  0.00     0.174 HD
ENDBRANCH   7  11
ENDBRANCH   1   3
BRANCH   1  14
HETATM   14  N4  UNL     1      15.171  27.906  74.971  1.00  0.00    -0.263 N 
HETATM   15  C5  UNL     1      14.125  28.478  74.210  1.00  0.00     0.288 C 
HETATM   16  O1  UNL     1      14.415  29.220  73.246  1.00  0.00    -0.264 OA
ATOM     17  H4  UNL     1      14.913  27.304  75.752  1.00  0.00     0.190 HD
BRANCH  15  18
HETATM   18  C6  UNL     1      12.735  28.212  74.541  1.00  0.00     0.127 A 
HETATM   19  C7  UNL     1      11.970  28.779  75.548  1.00  0.00     0.079 A 
HETATM   20  C8  UNL     1      10.698  28.243  75.515  1.00  0.00     0.138 A 
HETATM   21  O3  UNL     1      10.724  27.389  74.518  1.00  0.00    -0.234 OA
HETATM   22  N5  UNL     1      11.884  27.349  73.938  1.00  0.00    -0.255 N 
ATOM     23  H5  UNL     1      12.121  26.754  73.143  1.00  0.00     0.195 HD
BRANCH  20  24
HETATM   24  C9  UNL     1       9.596  28.573  76.402  1.00  0.00     0.297 C 
HETATM   25  O2  UNL     1       9.228  29.746  76.620  1.00  0.00    -0.299 OA
ENDBRANCH  20  24
ENDBRANCH  15  18
ENDBRANCH   1  14
TORSDOF 5
ENDMDL
MODEL 2
REMARK VINA RESULT: -7.160245365      3.771      7.304
REMARK  5 active torsions:
REMARK  status: ('A' for Active; 'I' for Inactive)
REMARK    1  A    between atoms: N1_1  and  C1_4 
REMARK    2  A    between atoms: C4_9  and  N3_10 
REMARK    3  A    between atoms: N3_10  and  N4_12 
REMARK       I    between atoms: N4_12  and  C5_14 
REMARK    4  A    between atoms: C5_14  and  C6_16 
REMARK    5  A    between atoms: C8_18  and  C9_19 
ROOT
HETATM    1  N3  UNL     1      13.623  26.100  76.624  1.00  0.00    -0.282 N 
ATOM      2  H3  UNL     1      13.737  25.141  76.298  1.00  0.00     0.188 HD
ENDROOT
BRANCH   1   3
HETATM    3  C4  UNL     1      12.632  26.746  76.169  1.00  0.00     0.136 A 
HETATM    4  C3  UNL     1      12.588  27.084  74.834  1.00  0.00     0.068 A 
HETATM    5  C2  UNL     1      11.519  27.790  74.302  1.00  0.00     0.110 A 
HETATM    6  N2  UNL     1      10.486  28.162  75.107  1.00  0.00    -0.202 N 
HETATM    7  C1  UNL     1      10.547  27.823  76.405  1.00  0.00     0.677 A 
ATOM      8  H2  UNL     1       9.691  28.682  74.736  1.00  0.00     0.183 HD
HETATM    9  N6  UNL     1      11.587  27.134  76.933  1.00  0.00    -0.176 N 
ATOM     10  H6  UNL     1      11.581  26.904  77.927  1.00  0.00     0.186 HD
BRANCH   7  11
HETATM   11  N1  UNL     1       9.582  28.168  77.173  1.00  0.00    -0.234 N 
ATOM     12  H12 UNL     1       9.559  27.803  78.125  1.00  0.00     0.174 HD
ATOM     13  H11 UNL     1       8.869  28.798  76.807  1.00  0.00     0.174 HD
ENDBRANCH   7  11
ENDBRANCH   1   3
BRANCH   1  14
HETATM   14  N4  UNL     1      14.561  26.569  77.517  1.00  0.00    -0.263 N 
HETATM   15  C5  UNL     1      15.841  27.055  77.161  1.00  0.00     0.288 C 
HETATM   16  O1  UNL     1      16.167  27.069  75.954  1.00  0.00    -0.264 OA
ATOM     17  H4  UNL     1      14.315  26.567  78.507  1.00  0.00     0.190 HD
BRANCH  15  18
HETATM   18  C6  UNL     1      16.764  27.530  78.178  1.00  0.00     0.127 A 
HETATM   19  C7  UNL     1      17.665  28.579  78.095  1.00  0.00     0.079 A 
HETATM   20  C8  UNL     1      18.350  28.690  79.289  1.00  0.00     0.138 A 
HETATM   21  O3  UNL     1      17.861  27.733  80.043  1.00  0.00    -0.234 OA
HETATM   22  N5  UNL     1      16.945  27.047  79.430  1.00  0.00    -0.255 N 
ATOM     23  H5  UNL     1      16.436  26.260  79.832  1.00  0.00     0.195 HD
BRANCH  20  24
HETATM   24  C9  UNL     1      19.380  29.664  79.609  1.00  0.00     0.297 C 
HETATM   25  O2  UNL     1      19.366  30.348  80.653  1.00  0.00    -0.299 OA
ENDBRANCH  20  24
ENDBRANCH  15  18
ENDBRANCH   1  14
TORSDOF 5
ENDMDL
MODEL 3
REMARK VINA RESULT: -7.156908528      0.816      1.513
REMARK  5 active torsions:
REMARK  status: ('A' for Active; 'I' for Inactive)
REMARK    1  A    between atoms: N1_1  and  C1_4 
REMARK    2  A    between atoms: C4_9  and  N3_10 
REMARK    3  A    between atoms: N3_10  and  N4_12 
REMARK       I    between atoms: N4_12  and  C5_14 
REMARK    4  A    between atoms: C5_14  and  C6_16 
REMARK    5  A    between atoms: C8_18  and  C9_19 
ROOT
HETATM    1  N3  UNL     1      16.533  28.143  74.700  1.00  0.00    -0.282 N 
ATOM      2  H3  UNL     1      16.777  28.647  73.848  1.00  0.00     0.188 HD
ENDROOT
BRANCH   1   3
HETATM    3  C4  UNL     1      17.492  27.760  75.435  1.00  0.00     0.136 A 
HETATM    4  C3  UNL     1      17.237  27.007  76.559  1.00  0.00     0.068 A 
HETATM    5  C2  UNL     1      18.263  26.572  77.386  1.00  0.00     0.110 A 
HETATM    6  N2  UNL     1      19.553  26.890  77.088  1.00  0.00    -0.202 N 
HETATM    7  C1  UNL     1      19.781  27.625  75.988  1.00  0.00     0.677 A 
ATOM      8  H2  UNL     1      20.322  26.581  77.683  1.00  0.00     0.183 HD
HETATM    9  N6  UNL     1      18.785  28.054  75.176  1.00  0.00    -0.176 N 
ATOM     10  H6  UNL     1      19.017  28.611  74.352  1.00  0.00     0.186 HD
BRANCH   7  11
HETATM   11  N1  UNL     1      20.990  27.932  75.697  1.00  0.00    -0.234 N 
ATOM     12  H12 UNL     1      21.425  28.720  76.176  1.00  0.00     0.174 HD
ATOM     13  H11 UNL     1      21.479  27.376  74.995  1.00  0.00     0.174 HD
ENDBRANCH   7  11
ENDBRANCH   1   3
BRANCH   1  14
HETATM   14  N4  UNL     1      15.192  27.942  74.942  1.00  0.00    -0.263 N 
HETATM   15  C5  UNL     1      14.142  28.484  74.164  1.00  0.00     0.288 C 
HETATM   16  O1  UNL     1      14.427  29.201  73.181  1.00  0.00    -0.264 OA
ATOM     17  H4  UNL     1      14.937  27.359  75.740  1.00  0.00     0.190 HD
BRANCH  15  18
HETATM   18  C6  UNL     1      12.754  28.215  74.500  1.00  0.00     0.127 A 
HETATM   19  C7  UNL     1      11.994  28.774  75.516  1.00  0.00     0.079 A 
HETATM   20  C8  UNL     1      10.723  28.239  75.485  1.00  0.00     0.138 A 
HETATM   21  O3  UNL     1      10.742  27.393  74.481  1.00  0.00    -0.234 OA
HETATM   22  N5  UNL     1      11.900  27.357  73.894  1.00  0.00    -0.255 N 
ATOM     23  H5  UNL     1      12.132  26.770  73.093  1.00  0.00     0.195 HD
BRANCH  20  24
HETATM   24  C9  UNL     1       9.625  28.561  76.380  1.00  0.00     0.297 C 
HETATM   25  O2  UNL     1       9.266  29.733  76.619  1.00  0.00    -0.299 OA
ENDBRANCH  20  24
ENDBRANCH  15  18
ENDBRANCH   1  14
TORSDOF 5
ENDMDL
MODEL 4
REMARK VINA RESULT: -7.109600694      4.301      7.647
REMARK  5 active torsions:
REMARK  status: ('A' for Active; 'I' for Inactive)
REMARK    1  A    between atoms: N1_1  and  C1_4 
REMARK    2  A    between atoms: C4_9  and  N3_10 
REMARK    3  A    between atoms: N3_10  and  N4_12 
REMARK       I    between atoms: N4_12  and  C5_14 
REMARK    4  A    between atoms: C5_14  and  C6_16 
REMARK    5  A    between atoms: C8_18  and  C9_19 
ROOT
HETATM    1  N3  UNL     1      14.089  27.663  77.055  1.00  0.00    -0.282 N 
ATOM      2  H3  UNL     1      14.636  28.524  77.067  1.00  0.00     0.188 HD
ENDROOT
BRANCH   1   3
HETATM    3  C4  UNL     1      13.058  27.650  76.317  1.00  0.00     0.136 A 
HETATM    4  C3  UNL     1      13.179  27.355  74.977  1.00  0.00     0.068 A 
HETATM    5  C2  UNL     1      12.073  27.331  74.139  1.00  0.00     0.110 A 
HETATM    6  N2  UNL     1      10.838  27.603  74.643  1.00  0.00    -0.202 N 
HETATM    7  C1  UNL     1      10.741  27.887  75.951  1.00  0.00     0.677 A 
ATOM      8  H2  UNL     1      10.012  27.591  74.044  1.00  0.00     0.183 HD
HETATM    9  N6  UNL     1      11.815  27.913  76.775  1.00  0.00    -0.176 N 
ATOM     10  H6  UNL     1      11.683  28.137  77.762  1.00  0.00     0.186 HD
BRANCH   7  11
HETATM   11  N1  UNL     1       9.584  28.146  76.437  1.00  0.00    -0.234 N 
ATOM     12  H12 UNL     1       8.758  27.932  75.878  1.00  0.00     0.174 HD
ATOM     13  H11 UNL     1       9.528  28.556  77.369  1.00  0.00     0.174 HD
ENDBRANCH   7  11
ENDBRANCH   1   3
BRANCH   1  14
HETATM   14  N4  UNL     1      14.540  26.628  77.843  1.00  0.00    -0.263 N 
HETATM   15  C5  UNL     1      15.775  25.961  77.669  1.00  0.00     0.288 C 
HETATM   16  O1  UNL     1      16.529  26.321  76.739  1.00  0.00    -0.264 OA
ATOM     17  H4  UNL     1      13.940  26.319  78.608  1.00  0.00     0.190 HD
BRANCH  15  18
HETATM   18  C6  UNL     1      16.164  24.876  78.554  1.00  0.00     0.127 A 
HETATM   19  C7  UNL     1      17.419  24.309  78.714  1.00  0.00     0.079 A 
HETATM   20  C8  UNL     1      17.349  23.302  79.657  1.00  0.00     0.138 A 
HETATM   21  O3  UNL     1      16.091  23.285  80.032  1.00  0.00    -0.234 OA
HETATM   22  N5  UNL     1      15.384  24.181  79.414  1.00  0.00    -0.255 N 
ATOM     23  H5  UNL     1      14.386  24.338  79.555  1.00  0.00     0.195 HD
BRANCH  20  24
HETATM   24  C9  UNL     1      18.445  22.464  80.111  1.00  0.00     0.297 C 
HETATM   25  O2  UNL     1      19.554  22.427  79.537  1.00  0.00    -0.299 OA
ENDBRANCH  20  24
ENDBRANCH  15  18
ENDBRANCH   1  14
TORSDOF 5
ENDMDL
MODEL 5
REMARK VINA RESULT: -7.083294005      1.797      2.742
REMARK  5 active torsions:
REMARK  status: ('A' for Active; 'I' for Inactive)
REMARK    1  A    between atoms: N1_1  and  C1_4 
REMARK    2  A    between atoms: C4_9  and  N3_10 
REMARK    3  A    between atoms: N3_10  and  N4_12 
REMARK       I    between atoms: N4_12  and  C5_14 
REMARK    4  A    between atoms: C5_14  and  C6_16 
REMARK    5  A    between atoms: C8_18  and  C9_19 
ROOT
HETATM    1  N3  UNL     1      16.751  27.677  75.039  1.00  0.00    -0.282 N 
ATOM      2  H3  UNL     1      17.217  26.783  74.891  1.00  0.00     0.188 HD
ENDROOT
BRANCH   1   3
HETATM    3  C4  UNL     1      17.483  28.712  75.034  1.00  0.00     0.136 A 
HETATM    4  C3  UNL     1      17.975  29.210  76.220  1.00  0.00     0.068 A 
HETATM    5  C2  UNL     1      18.779  30.340  76.251  1.00  0.00     0.110 A 
HETATM    6  N2  UNL     1      19.094  30.979  75.091  1.00  0.00    -0.202 N 
HETATM    7  C1  UNL     1      18.605  30.478  73.946  1.00  0.00     0.677 A 
ATOM      8  H2  UNL     1      19.683  31.812  75.092  1.00  0.00     0.183 HD
HETATM    9  N6  UNL     1      17.819  29.376  73.906  1.00  0.00    -0.176 N 
ATOM     10  H6  UNL     1      17.475  29.040  73.006  1.00  0.00     0.186 HD
BRANCH   7  11
HETATM   11  N1  UNL     1      18.893  31.070  72.847  1.00  0.00    -0.234 N 
ATOM     12  H12 UNL     1      19.811  30.913  72.431  1.00  0.00     0.174 HD
ATOM     13  H11 UNL     1      18.193  31.679  72.423  1.00  0.00     0.174 HD
ENDBRANCH   7  11
ENDBRANCH   1   3
BRANCH   1  14
HETATM   14  N4  UNL     1      15.387  27.645  75.226  1.00  0.00    -0.263 N 
HETATM   15  C5  UNL     1      14.438  28.204  74.339  1.00  0.00     0.288 C 
HETATM   16  O1  UNL     1      14.843  28.775  73.304  1.00  0.00    -0.264 OA
ATOM     17  H4  UNL     1      15.036  27.184  76.066  1.00  0.00     0.190 HD
BRANCH  15  18
HETATM   18  C6  UNL     1      13.015  28.120  74.625  1.00  0.00     0.127 A 
HETATM   19  C7  UNL     1      12.264  28.915  75.476  1.00  0.00     0.079 A 
HETATM   20  C8  UNL     1      10.949  28.493  75.454  1.00  0.00     0.138 A 
HETATM   21  O3  UNL     1      10.938  27.484  74.615  1.00  0.00    -0.234 OA
HETATM   22  N5  UNL     1      12.114  27.245  74.121  1.00  0.00    -0.255 N 
ATOM     23  H5  UNL     1      12.328  26.506  73.451  1.00  0.00     0.195 HD
BRANCH  20  24
HETATM   24  C9  UNL     1       9.845  29.064  76.206  1.00  0.00     0.297 C 
HETATM   25  O2  UNL     1       9.303  28.477  77.166  1.00  0.00    -0.299 OA
ENDBRANCH  20  24
ENDBRANCH  15  18
ENDBRANCH   1  14
TORSDOF 5
ENDMDL
