MODEL 1
REMARK VINA RESULT: -6.856198171      0.000      0.000
REMARK  4 active torsions:
REMARK  status: ('A' for Active; 'I' for Inactive)
REMARK    1  A    between atoms: N1_1  and  C1_4 
REMARK    2  A    between atoms: C2_11  and  C3_12 
REMARK       I    between atoms: C3_12  and  N5_14 
REMARK    3  A    between atoms: N5_14  and  N6_16 
REMARK    4  A    between atoms: C4_18  and  C5_19 
ROOT
HETATM    1  C3  UNL     1      13.309  28.198  75.756  1.00  0.00     0.291 C 
HETATM    2  O1  UNL     1      13.752  29.174  75.134  1.00  0.00    -0.264 OA
HETATM    3  N5  UNL     1      14.179  27.157  76.190  1.00  0.00    -0.265 N 
ATOM      4  H5  UNL     1      13.815  26.353  76.701  1.00  0.00     0.190 HD
ENDROOT
BRANCH   1   5
HETATM    5  C2  UNL     1      11.865  28.108  76.053  1.00  0.00     0.164 A 
HETATM    6  C1  UNL     1      10.786  28.596  75.377  1.00  0.00     0.149 A 
HETATM    7  N2  UNL     1       9.655  28.241  76.071  1.00  0.00    -0.269 N 
HETATM    8  N3  UNL     1      10.050  27.566  77.120  1.00  0.00    -0.240 N 
ATOM      9  H2  UNL     1       8.692  28.461  75.817  1.00  0.00     0.190 HD
HETATM   10  N4  UNL     1      11.354  27.464  77.148  1.00  0.00    -0.278 N 
ATOM     11  H3  UNL     1       9.425  27.171  77.823  1.00  0.00     0.208 HD
ATOM     12  H4  UNL     1      11.899  26.984  77.865  1.00  0.00     0.189 HD
BRANCH   6  13
HETATM   13  N1  UNL     1      10.778  29.271  74.288  1.00  0.00    -0.382 N 
ATOM     14  H12 UNL     1      10.258  30.124  74.083  1.00  0.00     0.157 HD
ATOM     15  H11 UNL     1      11.316  29.023  73.458  1.00  0.00     0.157 HD
ENDBRANCH   6  13
ENDBRANCH   1   5
BRANCH   3  16
HETATM   16  N6  UNL     1      15.531  27.259  75.903  1.00  0.00    -0.308 N 
HETATM   17  C4  UNL     1      16.406  27.170  76.841  1.00  0.00     0.119 C 
ATOM     18  H6  UNL     1      15.834  27.408  74.940  1.00  0.00     0.186 HD
BRANCH  17  19
HETATM   19  C5  UNL     1      17.865  27.276  76.564  1.00  0.00    -0.012 A 
HETATM   20  C6  UNL     1      18.350  27.975  75.526  1.00  0.00     0.020 A 
HETATM   21  C7  UNL     1      19.714  28.002  75.372  1.00  0.00     0.050 A 
HETATM   22  S1  UNL     1      20.271  27.055  76.671  1.00  0.00    -0.113 SA
HETATM   23  C8  UNL     1      18.775  26.650  77.376  1.00  0.00     0.062 A 
ENDBRANCH  17  19
ENDBRANCH   3  16
TORSDOF 4
ENDMDL
MODEL 2
REMARK VINA RESULT: -6.835483938      0.683      1.124
REMARK  4 active torsions:
REMARK  status: ('A' for Active; 'I' for Inactive)
REMARK    1  A    between atoms: N1_1  and  C1_4 
REMARK    2  A    between atoms: C2_11  and  C3_12 
REMARK       I    between atoms: C3_12  and  N5_14 
REMARK    3  A    between atoms: N5_14  and  N6_16 
REMARK    4  A    between atoms: C4_18  and  C5_19 
ROOT
HETATM    1  C3  UNL     1      13.294  28.443  76.100  1.00  0.00     0.291 C 
HETATM    2  O1  UNL     1      13.784  29.153  75.209  1.00  0.00    -0.264 OA
HETATM    3  N5  UNL     1      14.130  27.798  77.056  1.00  0.00    -0.265 N 
ATOM      4  H5  UNL     1      13.729  27.213  77.788  1.00  0.00     0.190 HD
ENDROOT
BRANCH   1   5
HETATM    5  C2  UNL     1      11.831  28.261  76.175  1.00  0.00     0.164 A 
HETATM    6  C1  UNL     1      10.846  28.596  75.294  1.00  0.00     0.149 A 
HETATM    7  N2  UNL     1       9.644  28.212  75.835  1.00  0.00    -0.269 N 
HETATM    8  N3  UNL     1       9.906  27.668  76.996  1.00  0.00    -0.240 N 
ATOM      9  H2  UNL     1       8.722  28.327  75.412  1.00  0.00     0.190 HD
HETATM   10  N4  UNL     1      11.192  27.677  77.237  1.00  0.00    -0.278 N 
ATOM     11  H3  UNL     1       9.203  27.288  77.628  1.00  0.00     0.208 HD
ATOM     12  H4  UNL     1      11.644  27.311  78.076  1.00  0.00     0.189 HD
BRANCH   6  13
HETATM   13  N1  UNL     1      10.971  29.167  74.154  1.00  0.00    -0.382 N 
ATOM     14  H12 UNL     1      10.574  28.876  73.260  1.00  0.00     0.157 HD
ATOM     15  H11 UNL     1      11.506  30.022  73.998  1.00  0.00     0.157 HD
ENDBRANCH   6  13
ENDBRANCH   1   5
BRANCH   3  16
HETATM   16  N6  UNL     1      15.501  27.981  76.969  1.00  0.00    -0.308 N 
HETATM   17  C4  UNL     1      16.253  27.057  76.484  1.00  0.00     0.119 C 
ATOM     18  H6  UNL     1      15.917  28.854  77.293  1.00  0.00     0.186 HD
BRANCH  17  19
HETATM   19  C5  UNL     1      17.730  27.224  76.379  1.00  0.00    -0.012 A 
HETATM   20  C6  UNL     1      18.581  26.629  77.228  1.00  0.00     0.020 A 
HETATM   21  C7  UNL     1      19.921  26.856  77.032  1.00  0.00     0.050 A 
HETATM   22  S1  UNL     1      19.947  27.887  75.678  1.00  0.00    -0.113 SA
HETATM   23  C8  UNL     1      18.273  28.006  75.393  1.00  0.00     0.062 A 
ENDBRANCH  17  19
ENDBRANCH   3  16
TORSDOF 4
ENDMDL
MODEL 3
REMARK VINA RESULT: -6.647645605      2.075      2.622
REMARK  4 active torsions:
REMARK  status: ('A' for Active; 'I' for Inactive)
REMARK    1  A    between atoms: N1_1  and  C1_4 
REMARK    2  A    between atoms: C2_11  and  C3_12 
REMARK       I    between atoms: C3_12  and  N5_14 
REMARK    3  A    between atoms: N5_14  and  N6_16 
REMARK    4  A    between atoms: C4_18  and  C5_19 
ROOT
HETATM    1  C3  UNL     1      13.178  27.064  76.189  1.00  0.00     0.291 C 
HETATM    2  O1  UNL     1      13.965  27.349  75.274  1.00  0.00    -0.264 OA
HETATM    3  N5  UNL     1      13.585  26.215  77.258  1.00  0.00    -0.265 N 
ATOM      4  H5  UNL     1      12.938  25.979  78.010  1.00  0.00     0.190 HD
ENDROOT
BRANCH   1   5
HETATM    5  C2  UNL     1      11.805  27.605  76.174  1.00  0.00     0.164 A 
HETATM    6  C1  UNL     1      11.163  28.378  75.251  1.00  0.00     0.149 A 
HETATM    7  N2  UNL     1       9.889  28.614  75.708  1.00  0.00    -0.269 N 
HETATM    8  N3  UNL     1       9.780  28.003  76.859  1.00  0.00    -0.240 N 
ATOM      9  H2  UNL     1       9.167  29.160  75.239  1.00  0.00     0.190 HD
HETATM   10  N4  UNL     1      10.894  27.392  77.174  1.00  0.00    -0.278 N 
ATOM     11  H3  UNL     1       8.938  28.002  77.436  1.00  0.00     0.208 HD
ATOM     12  H4  UNL     1      11.056  26.848  78.022  1.00  0.00     0.189 HD
BRANCH   6  13
HETATM   13  N1  UNL     1      11.623  28.827  74.143  1.00  0.00    -0.382 N 
ATOM     14  H12 UNL     1      12.579  28.769  73.791  1.00  0.00     0.157 HD
ATOM     15  H11 UNL     1      11.061  29.320  73.449  1.00  0.00     0.157 HD
ENDBRANCH   6  13
ENDBRANCH   1   5
BRANCH   3  16
HETATM   16  N6  UNL     1      14.877  25.717  77.255  1.00  0.00    -0.308 N 
HETATM   17  C4  UNL     1      15.436  25.347  78.353  1.00  0.00     0.119 C 
ATOM     18  H6  UNL     1      15.390  25.644  76.376  1.00  0.00     0.186 HD
BRANCH  17  19
HETATM   19  C5  UNL     1      16.825  24.808  78.383  1.00  0.00    -0.012 A 
HETATM   20  C6  UNL     1      17.084  23.501  78.535  1.00  0.00     0.020 A 
HETATM   21  C7  UNL     1      18.403  23.122  78.547  1.00  0.00     0.050 A 
HETATM   22  S1  UNL     1      19.233  24.594  78.348  1.00  0.00    -0.113 SA
HETATM   23  C8  UNL     1      17.900  25.649  78.254  1.00  0.00     0.062 A 
ENDBRANCH  17  19
ENDBRANCH   3  16
TORSDOF 4
ENDMDL
MODEL 4
REMARK VINA RESULT: -6.583632983      1.838      2.046
REMARK  4 active torsions:
REMARK  status: ('A' for Active; 'I' for Inactive)
REMARK    1  A    between atoms: N1_1  and  C1_4 
REMARK    2  A    between atoms: C2_11  and  C3_12 
REMARK       I    between atoms: C3_12  and  N5_14 
REMARK    3  A    between atoms: N5_14  and  N6_16 
REMARK    4  A    between atoms: C4_18  and  C5_19 
ROOT
HETATM    1  C3  UNL     1      13.223  27.110  76.149  1.00  0.00     0.291 C 
HETATM    2  O1  UNL     1      13.937  27.397  75.177  1.00  0.00    -0.264 OA
HETATM    3  N5  UNL     1      13.751  26.362  77.241  1.00  0.00    -0.265 N 
ATOM      4  H5  UNL     1      13.164  26.124  78.041  1.00  0.00     0.190 HD
ENDROOT
BRANCH   1   5
HETATM    5  C2  UNL     1      11.813  27.544  76.180  1.00  0.00     0.164 A 
HETATM    6  C1  UNL     1      11.060  28.191  75.246  1.00  0.00     0.149 A 
HETATM    7  N2  UNL     1       9.799  28.366  75.763  1.00  0.00    -0.269 N 
HETATM    8  N3  UNL     1       9.805  27.842  76.961  1.00  0.00    -0.240 N 
ATOM      9  H2  UNL     1       9.010  28.818  75.301  1.00  0.00     0.190 HD
HETATM   10  N4  UNL     1      10.981  27.343  77.250  1.00  0.00    -0.278 N 
ATOM     11  H3  UNL     1       9.001  27.824  77.589  1.00  0.00     0.208 HD
ATOM     12  H4  UNL     1      11.234  26.881  78.123  1.00  0.00     0.189 HD
BRANCH   6  13
HETATM   13  N1  UNL     1      11.419  28.584  74.080  1.00  0.00    -0.382 N 
ATOM     14  H12 UNL     1      12.322  28.964  73.797  1.00  0.00     0.157 HD
ATOM     15  H11 UNL     1      10.814  28.562  73.258  1.00  0.00     0.157 HD
ENDBRANCH   6  13
ENDBRANCH   1   5
BRANCH   3  16
HETATM   16  N6  UNL     1      15.077  25.964  77.193  1.00  0.00    -0.308 N 
HETATM   17  C4  UNL     1      15.744  25.787  78.278  1.00  0.00     0.119 C 
ATOM     18  H6  UNL     1      15.528  25.810  76.291  1.00  0.00     0.186 HD
BRANCH  17  19
HETATM   19  C5  UNL     1      17.171  25.360  78.260  1.00  0.00    -0.012 A 
HETATM   20  C6  UNL     1      18.160  26.180  77.874  1.00  0.00     0.020 A 
HETATM   21  C7  UNL     1      19.437  25.675  77.900  1.00  0.00     0.050 A 
HETATM   22  S1  UNL     1      19.215  24.083  78.457  1.00  0.00    -0.113 SA
HETATM   23  C8  UNL     1      17.522  24.092  78.644  1.00  0.00     0.062 A 
ENDBRANCH  17  19
ENDBRANCH   3  16
TORSDOF 4
ENDMDL
MODEL 5
REMARK VINA RESULT: -6.565900979      1.195      1.420
REMARK  4 active torsions:
REMARK  status: ('A' for Active; 'I' for Inactive)
REMARK    1  A    between atoms: N1_1  and  C1_4 
REMARK    2  A    between atoms: C2_11  and  C3_12 
REMARK       I    between atoms: C3_12  and  N5_14 
REMARK    3  A    between atoms: N5_14  and  N6_16 
REMARK    4  A    between atoms: C4_18  and  C5_19 
ROOT
HETATM    1  C3  UNL     1      14.023  28.022  74.960  1.00  0.00     0.291 C 
HETATM    2  O1  UNL     1      14.532  28.807  74.146  1.00  0.00    -0.264 OA
HETATM    3  N5  UNL     1      14.844  27.204  75.790  1.00  0.00    -0.265 N 
ATOM      4  H5  UNL     1      14.427  26.557  76.459  1.00  0.00     0.190 HD
ENDROOT
BRANCH   1   5
HETATM    5  C2  UNL     1      12.555  27.928  75.075  1.00  0.00     0.164 A 
HETATM    6  C1  UNL     1      11.681  28.593  75.884  1.00  0.00     0.149 A 
HETATM    7  N2  UNL     1      10.414  28.142  75.602  1.00  0.00    -0.269 N 
HETATM    8  N3  UNL     1      10.533  27.243  74.659  1.00  0.00    -0.240 N 
ATOM      9  H2  UNL     1       9.548  28.450  76.043  1.00  0.00     0.190 HD
HETATM   10  N4  UNL     1      11.786  27.085  74.317  1.00  0.00    -0.278 N 
ATOM     11  H3  UNL     1       9.753  26.732  74.245  1.00  0.00     0.208 HD
ATOM     12  H4  UNL     1      12.133  26.441  73.605  1.00  0.00     0.189 HD
BRANCH   6  13
HETATM   13  N1  UNL     1      11.946  29.485  76.764  1.00  0.00    -0.382 N 
ATOM     14  H12 UNL     1      12.769  30.084  76.821  1.00  0.00     0.157 HD
ATOM     15  H11 UNL     1      11.335  29.713  77.549  1.00  0.00     0.157 HD
ENDBRANCH   6  13
ENDBRANCH   1   5
BRANCH   3  16
HETATM   16  N6  UNL     1      16.220  27.306  75.669  1.00  0.00    -0.308 N 
HETATM   17  C4  UNL     1      16.983  27.065  76.676  1.00  0.00     0.119 C 
ATOM     18  H6  UNL     1      16.631  27.574  74.775  1.00  0.00     0.186 HD
BRANCH  17  19
HETATM   19  C5  UNL     1      18.466  27.167  76.577  1.00  0.00    -0.012 A 
HETATM   20  C6  UNL     1      19.073  27.928  75.654  1.00  0.00     0.020 A 
HETATM   21  C7  UNL     1      20.446  27.943  75.661  1.00  0.00     0.050 A 
HETATM   22  S1  UNL     1      20.841  26.899  76.945  1.00  0.00    -0.113 SA
HETATM   23  C8  UNL     1      19.270  26.471  77.442  1.00  0.00     0.062 A 
ENDBRANCH  17  19
ENDBRANCH   3  16
TORSDOF 4
ENDMDL
