MODEL 1
REMARK VINA RESULT: -6.122635187      0.000      0.000
REMARK  3 active torsions:
REMARK  status: ('A' for Active; 'I' for Inactive)
REMARK    1  A    between atoms: N5_10  and  C4_11 
REMARK    2  A    between atoms: N6_12  and  N7_13 
REMARK    3  A    between atoms: N6_12  and  O1_16 
ROOT
HETATM    1  C1  UNL     1     -12.952 -30.110 -26.178  1.00  0.00     0.181 C 
HETATM    2  N1  UNL     1     -12.164 -29.414 -27.201  1.00  0.00    -0.263 N 
HETATM    3  C2  UNL     1     -12.856 -28.392 -27.921  1.00  0.00     0.223 C 
HETATM    4  N2  UNL     1     -14.212 -28.086 -27.651  1.00  0.00    -0.060 NA
HETATM    5  N3  UNL     1     -12.191 -27.749 -28.838  1.00  0.00    -0.275 N 
ATOM      6  H3  UNL     1     -12.646 -27.011 -29.377  1.00  0.00     0.189 HD
HETATM    7  N4  UNL     1     -10.877 -28.065 -29.079  1.00  0.00    -0.314 N 
ATOM      8  H4  UNL     1     -10.331 -27.405 -29.633  1.00  0.00     0.182 HD
HETATM    9  C3  UNL     1     -10.202 -29.255 -28.613  1.00  0.00     0.289 C 
HETATM   10  N5  UNL     1     -10.833 -29.767 -27.414  1.00  0.00    -0.261 N 
ENDROOT
BRANCH  10  11
HETATM   11  C4  UNL     1     -10.182 -30.586 -26.470  1.00  0.00     0.254 C 
HETATM   12  N6  UNL     1      -9.387 -30.149 -25.563  1.00  0.00    -0.164 N 
BRANCH  12  13
HETATM   13  N7  UNL     1      -9.083 -28.775 -25.422  1.00  0.00    -0.318 N 
ATOM     14  H72 UNL     1      -8.112 -28.525 -25.612  1.00  0.00     0.179 HD
ATOM     15  H71 UNL     1      -9.784 -28.086 -25.150  1.00  0.00     0.179 HD
ENDBRANCH  12  13
BRANCH  12  16
HETATM   16  O1  UNL     1      -8.769 -30.978 -24.658  1.00  0.00    -0.267 OA
ATOM     17  H1  UNL     1      -8.914 -30.913 -23.721  1.00  0.00     0.247 HD
ENDBRANCH  12  16
ENDBRANCH  10  11
TORSDOF 3
ENDMDL
MODEL 2
REMARK VINA RESULT: -5.692147156      2.464      3.945
REMARK  3 active torsions:
REMARK  status: ('A' for Active; 'I' for Inactive)
REMARK    1  A    between atoms: N5_10  and  C4_11 
REMARK    2  A    between atoms: N6_12  and  N7_13 
REMARK    3  A    between atoms: N6_12  and  O1_16 
ROOT
HETATM    1  C1  UNL     1     -11.524 -30.772 -25.833  1.00  0.00     0.181 C 
HETATM    2  N1  UNL     1     -11.199 -29.715 -26.796  1.00  0.00    -0.263 N 
HETATM    3  C2  UNL     1      -9.806 -29.456 -26.981  1.00  0.00     0.223 C 
HETATM    4  N2  UNL     1      -8.819 -30.183 -26.272  1.00  0.00    -0.060 NA
HETATM    5  N3  UNL     1      -9.476 -28.523 -27.829  1.00  0.00    -0.275 N 
ATOM      6  H3  UNL     1      -8.492 -28.305 -27.991  1.00  0.00     0.189 HD
HETATM    7  N4  UNL     1     -10.453 -27.835 -28.503  1.00  0.00    -0.314 N 
ATOM      8  H4  UNL     1     -10.163 -27.281 -29.308  1.00  0.00     0.182 HD
HETATM    9  C3  UNL     1     -11.859 -27.829 -28.167  1.00  0.00     0.289 C 
HETATM   10  N5  UNL     1     -12.222 -29.039 -27.459  1.00  0.00    -0.261 N 
ENDROOT
BRANCH  10  11
HETATM   11  C4  UNL     1     -13.531 -29.559 -27.409  1.00  0.00     0.254 C 
HETATM   12  N6  UNL     1     -14.417 -29.201 -26.553  1.00  0.00    -0.164 N 
BRANCH  12  13
HETATM   13  N7  UNL     1     -14.157 -28.229 -25.557  1.00  0.00    -0.318 N 
ATOM     14  H72 UNL     1     -14.463 -27.284 -25.787  1.00  0.00     0.179 HD
ATOM     15  H71 UNL     1     -13.699 -28.461 -24.676  1.00  0.00     0.179 HD
ENDBRANCH  12  13
BRANCH  12  16
HETATM   16  O1  UNL     1     -15.684 -29.730 -26.533  1.00  0.00    -0.267 OA
ATOM     17  H1  UNL     1     -16.269 -29.634 -25.790  1.00  0.00     0.247 HD
ENDBRANCH  12  16
ENDBRANCH  10  11
TORSDOF 3
ENDMDL
MODEL 3
REMARK VINA RESULT: -5.338738142      2.789      4.338
REMARK  3 active torsions:
REMARK  status: ('A' for Active; 'I' for Inactive)
REMARK    1  A    between atoms: N5_10  and  C4_11 
REMARK    2  A    between atoms: N6_12  and  N7_13 
REMARK    3  A    between atoms: N6_12  and  O1_16 
ROOT
HETATM    1  C1  UNL     1     -12.895 -26.595 -25.894  1.00  0.00     0.181 C 
HETATM    2  N1  UNL     1     -14.168 -27.168 -26.343  1.00  0.00    -0.263 N 
HETATM    3  C2  UNL     1     -15.338 -26.633 -25.721  1.00  0.00     0.223 C 
HETATM    4  N2  UNL     1     -15.254 -25.617 -24.738  1.00  0.00    -0.060 NA
HETATM    5  N3  UNL     1     -16.490 -27.116 -26.093  1.00  0.00    -0.275 N 
ATOM      6  H3  UNL     1     -17.351 -26.763 -25.675  1.00  0.00     0.189 HD
HETATM    7  N4  UNL     1     -16.542 -28.099 -27.049  1.00  0.00    -0.314 N 
ATOM      8  H4  UNL     1     -17.450 -28.292 -27.472  1.00  0.00     0.182 HD
HETATM    9  C3  UNL     1     -15.419 -28.887 -27.506  1.00  0.00     0.289 C 
HETATM   10  N5  UNL     1     -14.177 -28.166 -27.315  1.00  0.00    -0.261 N 
ENDROOT
BRANCH  10  11
HETATM   11  C4  UNL     1     -13.001 -28.417 -28.050  1.00  0.00     0.254 C 
HETATM   12  N6  UNL     1     -12.246 -29.439 -27.875  1.00  0.00    -0.164 N 
BRANCH  12  13
HETATM   13  N7  UNL     1     -12.528 -30.432 -26.907  1.00  0.00    -0.318 N 
ATOM     14  H72 UNL     1     -11.715 -30.936 -26.555  1.00  0.00     0.179 HD
ATOM     15  H71 UNL     1     -13.477 -30.626 -26.585  1.00  0.00     0.179 HD
ENDBRANCH  12  13
BRANCH  12  16
HETATM   16  O1  UNL     1     -11.105 -29.651 -28.610  1.00  0.00    -0.267 OA
ATOM     17  H1  UNL     1     -10.521 -30.384 -28.451  1.00  0.00     0.247 HD
ENDBRANCH  12  16
ENDBRANCH  10  11
TORSDOF 3
ENDMDL
MODEL 4
REMARK VINA RESULT: -5.323442312      3.093      4.376
REMARK  3 active torsions:
REMARK  status: ('A' for Active; 'I' for Inactive)
REMARK    1  A    between atoms: N5_10  and  C4_11 
REMARK    2  A    between atoms: N6_12  and  N7_13 
REMARK    3  A    between atoms: N6_12  and  O1_16 
ROOT
HETATM    1  C1  UNL     1     -15.710 -29.337 -26.421  1.00  0.00     0.181 C 
HETATM    2  N1  UNL     1     -15.038 -28.211 -25.765  1.00  0.00    -0.263 N 
HETATM    3  C2  UNL     1     -15.610 -27.790 -24.525  1.00  0.00     0.223 C 
HETATM    4  N2  UNL     1     -16.749 -28.431 -23.981  1.00  0.00    -0.060 NA
HETATM    5  N3  UNL     1     -15.041 -26.792 -23.910  1.00  0.00    -0.275 N 
ATOM      6  H3  UNL     1     -15.416 -26.458 -23.021  1.00  0.00     0.189 HD
HETATM    7  N4  UNL     1     -13.937 -26.189 -24.459  1.00  0.00    -0.314 N 
ATOM      8  H4  UNL     1     -13.393 -25.573 -23.856  1.00  0.00     0.182 HD
HETATM    9  C3  UNL     1     -13.481 -26.355 -25.821  1.00  0.00     0.289 C 
HETATM   10  N5  UNL     1     -13.920 -27.627 -26.358  1.00  0.00    -0.261 N 
ENDROOT
BRANCH  10  11
HETATM   11  C4  UNL     1     -13.286 -28.291 -27.426  1.00  0.00     0.254 C 
HETATM   12  N6  UNL     1     -12.321 -29.125 -27.286  1.00  0.00    -0.164 N 
BRANCH  12  13
HETATM   13  N7  UNL     1     -11.793 -29.464 -26.018  1.00  0.00    -0.318 N 
ATOM     14  H72 UNL     1     -12.330 -29.123 -25.221  1.00  0.00     0.179 HD
ATOM     15  H71 UNL     1     -10.937 -30.008 -25.912  1.00  0.00     0.179 HD
ENDBRANCH  12  13
BRANCH  12  16
HETATM   16  O1  UNL     1     -11.726 -29.755 -28.352  1.00  0.00    -0.267 OA
ATOM     17  H1  UNL     1     -12.147 -29.836 -29.200  1.00  0.00     0.247 HD
ENDBRANCH  12  16
ENDBRANCH  10  11
TORSDOF 3
ENDMDL
MODEL 5
REMARK VINA RESULT: -5.213457546      2.698      4.105
REMARK  3 active torsions:
REMARK  status: ('A' for Active; 'I' for Inactive)
REMARK    1  A    between atoms: N5_10  and  C4_11 
REMARK    2  A    between atoms: N6_12  and  N7_13 
REMARK    3  A    between atoms: N6_12  and  O1_16 
ROOT
HETATM    1  C1  UNL     1     -14.101 -25.950 -25.242  1.00  0.00     0.181 C 
HETATM    2  N1  UNL     1     -14.724 -26.958 -26.107  1.00  0.00    -0.263 N 
HETATM    3  C2  UNL     1     -16.153 -26.968 -26.110  1.00  0.00     0.223 C 
HETATM    4  N2  UNL     1     -16.900 -26.057 -25.325  1.00  0.00    -0.060 NA
HETATM    5  N3  UNL     1     -16.745 -27.849 -26.866  1.00  0.00    -0.275 N 
ATOM      6  H3  UNL     1     -17.764 -27.892 -26.899  1.00  0.00     0.189 HD
HETATM    7  N4  UNL     1     -15.996 -28.719 -27.617  1.00  0.00    -0.314 N 
ATOM      8  H4  UNL     1     -16.477 -29.235 -28.354  1.00  0.00     0.182 HD
HETATM    9  C3  UNL     1     -14.581 -28.968 -27.452  1.00  0.00     0.289 C 
HETATM   10  N5  UNL     1     -13.927 -27.823 -26.853  1.00  0.00    -0.261 N 
ENDROOT
BRANCH  10  11
HETATM   11  C4  UNL     1     -12.551 -27.545 -26.985  1.00  0.00     0.254 C 
HETATM   12  N6  UNL     1     -11.616 -28.301 -26.539  1.00  0.00    -0.164 N 
BRANCH  12  13
HETATM   13  N7  UNL     1     -11.883 -29.513 -25.858  1.00  0.00    -0.318 N 
ATOM     14  H72 UNL     1     -12.871 -29.704 -25.687  1.00  0.00     0.179 HD
ATOM     15  H71 UNL     1     -11.141 -30.147 -25.562  1.00  0.00     0.179 HD
ENDBRANCH  12  13
BRANCH  12  16
HETATM   16  O1  UNL     1     -10.285 -27.998 -26.686  1.00  0.00    -0.267 OA
ATOM     17  H1  UNL     1      -9.640 -28.178 -26.011  1.00  0.00     0.247 HD
ENDBRANCH  12  16
ENDBRANCH  10  11
TORSDOF 3
ENDMDL
