MODEL 1
REMARK VINA RESULT: -6.882962681      0.000      0.000
REMARK  4 active torsions:
REMARK  status: ('A' for Active; 'I' for Inactive)
REMARK    1  A    between atoms: C3_6  and  C4_7 
REMARK    2  A    between atoms: N4_9  and  O1_11 
REMARK    3  A    between atoms: N5_13  and  N6_14 
REMARK    4  A    between atoms: C5_17  and  N7_18 
ROOT
HETATM    1  C1  UNL     1     -14.899 -28.273 -27.561  1.00  0.00     0.176 C 
HETATM    2  N1  UNL     1     -13.581 -28.758 -27.179  1.00  0.00    -0.182 N 
HETATM    3  C2  UNL     1     -13.262 -30.062 -27.360  1.00  0.00     0.202 A 
HETATM    4  N2  UNL     1     -12.035 -30.443 -26.986  1.00  0.00    -0.333 N 
ATOM      5  H2  UNL     1     -11.777 -31.421 -27.114  1.00  0.00     0.168 HD
HETATM    6  C3  UNL     1     -11.125 -29.613 -26.454  1.00  0.00     0.189 A 
HETATM    7  N5  UNL     1     -11.488 -28.330 -26.294  1.00  0.00    -0.073 N 
HETATM    8  C5  UNL     1     -12.715 -27.874 -26.650  1.00  0.00     0.701 A 
ENDROOT
BRANCH   6   9
HETATM    9  C4  UNL     1      -9.792 -30.066 -26.057  1.00  0.00     0.182 C 
HETATM   10  N3  UNL     1      -8.604 -29.440 -26.465  1.00  0.00    -0.077 NA
HETATM   11  N4  UNL     1      -9.730 -31.101 -25.291  1.00  0.00    -0.252 N 
ATOM     12  H4  UNL     1     -10.592 -31.558 -24.993  1.00  0.00     0.195 HD
BRANCH  11  13
HETATM   13  O1  UNL     1      -8.521 -31.597 -24.868  1.00  0.00    -0.288 OA
ATOM     14  H1  UNL     1      -7.805 -31.014 -24.643  1.00  0.00     0.244 HD
ENDBRANCH  11  13
ENDBRANCH   6   9
BRANCH   7  15
HETATM   15  N6  UNL     1     -10.587 -27.443 -25.752  1.00  0.00    -0.322 N 
ATOM     16  H62 UNL     1     -10.101 -27.703 -24.893  1.00  0.00     0.178 HD
ATOM     17  H61 UNL     1     -10.427 -26.551 -26.220  1.00  0.00     0.178 HD
ENDBRANCH   7  15
BRANCH   8  18
HETATM   18  N7  UNL     1     -13.017 -26.619 -26.474  1.00  0.00    -0.233 N 
ATOM     19  H72 UNL     1     -13.953 -26.285 -26.705  1.00  0.00     0.174 HD
ATOM     20  H71 UNL     1     -12.348 -25.941 -26.109  1.00  0.00     0.174 HD
ENDBRANCH   8  18
TORSDOF 4
ENDMDL
MODEL 2
REMARK VINA RESULT: -6.772731120      1.629      2.689
REMARK  4 active torsions:
REMARK  status: ('A' for Active; 'I' for Inactive)
REMARK    1  A    between atoms: C3_6  and  C4_7 
REMARK    2  A    between atoms: N4_9  and  O1_11 
REMARK    3  A    between atoms: N5_13  and  N6_14 
REMARK    4  A    between atoms: C5_17  and  N7_18 
ROOT
HETATM    1  C1  UNL     1     -15.904 -27.092 -26.018  1.00  0.00     0.176 C 
HETATM    2  N1  UNL     1     -14.509 -27.483 -26.157  1.00  0.00    -0.182 N 
HETATM    3  C2  UNL     1     -13.527 -26.579 -25.927  1.00  0.00     0.202 A 
HETATM    4  N2  UNL     1     -12.267 -27.003 -26.073  1.00  0.00    -0.333 N 
ATOM      5  H2  UNL     1     -11.513 -26.337 -25.906  1.00  0.00     0.168 HD
HETATM    6  C3  UNL     1     -11.936 -28.255 -26.427  1.00  0.00     0.189 A 
HETATM    7  N5  UNL     1     -12.945 -29.115 -26.644  1.00  0.00    -0.073 N 
HETATM    8  C5  UNL     1     -14.246 -28.754 -26.515  1.00  0.00     0.701 A 
ENDROOT
BRANCH   6   9
HETATM    9  C4  UNL     1     -10.546 -28.683 -26.577  1.00  0.00     0.182 C 
HETATM   10  N3  UNL     1     -10.043 -29.307 -27.728  1.00  0.00    -0.077 NA
HETATM   11  N4  UNL     1      -9.757 -28.464 -25.580  1.00  0.00    -0.252 N 
ATOM     12  H4  UNL     1     -10.120 -28.011 -24.742  1.00  0.00     0.195 HD
BRANCH  11  13
HETATM   13  O1  UNL     1      -8.434 -28.831 -25.632  1.00  0.00    -0.288 OA
ATOM     14  H1  UNL     1      -8.113 -29.576 -25.137  1.00  0.00     0.244 HD
ENDBRANCH  11  13
ENDBRANCH   6   9
BRANCH   7  15
HETATM   15  N6  UNL     1     -12.653 -30.409 -27.009  1.00  0.00    -0.322 N 
ATOM     16  H62 UNL     1     -12.323 -30.588 -27.958  1.00  0.00     0.178 HD
ATOM     17  H61 UNL     1     -12.772 -31.155 -26.323  1.00  0.00     0.178 HD
ENDBRANCH   7  15
BRANCH   8  18
HETATM   18  N7  UNL     1     -15.187 -29.627 -26.736  1.00  0.00    -0.233 N 
ATOM     19  H72 UNL     1     -15.974 -29.700 -26.091  1.00  0.00     0.174 HD
ATOM     20  H71 UNL     1     -15.174 -30.254 -27.541  1.00  0.00     0.174 HD
ENDBRANCH   8  18
TORSDOF 4
ENDMDL
MODEL 3
REMARK VINA RESULT: -6.297135301      1.218      1.306
REMARK  4 active torsions:
REMARK  status: ('A' for Active; 'I' for Inactive)
REMARK    1  A    between atoms: C3_6  and  C4_7 
REMARK    2  A    between atoms: N4_9  and  O1_11 
REMARK    3  A    between atoms: N5_13  and  N6_14 
REMARK    4  A    between atoms: C5_17  and  N7_18 
ROOT
HETATM    1  C1  UNL     1     -14.506 -28.320 -27.879  1.00  0.00     0.176 C 
HETATM    2  N1  UNL     1     -13.246 -28.793 -27.324  1.00  0.00    -0.182 N 
HETATM    3  C2  UNL     1     -13.249 -29.632 -26.260  1.00  0.00     0.202 A 
HETATM    4  N2  UNL     1     -12.057 -30.028 -25.799  1.00  0.00    -0.333 N 
ATOM      5  H2  UNL     1     -12.038 -30.659 -24.998  1.00  0.00     0.168 HD
HETATM    6  C3  UNL     1     -10.885 -29.644 -26.328  1.00  0.00     0.189 A 
HETATM    7  N5  UNL     1     -10.935 -28.812 -27.382  1.00  0.00    -0.073 N 
HETATM    8  C5  UNL     1     -12.106 -28.370 -27.902  1.00  0.00     0.701 A 
ENDROOT
BRANCH   6   9
HETATM    9  C4  UNL     1      -9.601 -30.099 -25.796  1.00  0.00     0.182 C 
HETATM   10  N3  UNL     1      -8.418 -29.348 -25.869  1.00  0.00    -0.077 NA
HETATM   11  N4  UNL     1      -9.579 -31.259 -25.234  1.00  0.00    -0.252 N 
ATOM     12  H4  UNL     1     -10.438 -31.808 -25.181  1.00  0.00     0.195 HD
BRANCH  11  13
HETATM   13  O1  UNL     1      -8.418 -31.768 -24.705  1.00  0.00    -0.288 OA
ATOM     14  H1  UNL     1      -8.433 -32.326 -23.938  1.00  0.00     0.244 HD
ENDBRANCH  11  13
ENDBRANCH   6   9
BRANCH   7  15
HETATM   15  N6  UNL     1      -9.757 -28.393 -27.957  1.00  0.00    -0.322 N 
ATOM     16  H62 UNL     1      -9.090 -29.096 -28.275  1.00  0.00     0.178 HD
ATOM     17  H61 UNL     1      -9.581 -27.392 -28.051  1.00  0.00     0.178 HD
ENDBRANCH   7  15
BRANCH   8  18
HETATM   18  N7  UNL     1     -12.099 -27.564 -28.926  1.00  0.00    -0.233 N 
ATOM     19  H72 UNL     1     -12.972 -27.147 -29.250  1.00  0.00     0.174 HD
ATOM     20  H71 UNL     1     -11.244 -27.325 -29.428  1.00  0.00     0.174 HD
ENDBRANCH   8  18
TORSDOF 4
ENDMDL
MODEL 4
REMARK VINA RESULT: -6.267243760      2.377      2.978
REMARK  4 active torsions:
REMARK  status: ('A' for Active; 'I' for Inactive)
REMARK    1  A    between atoms: C3_6  and  C4_7 
REMARK    2  A    between atoms: N4_9  and  O1_11 
REMARK    3  A    between atoms: N5_13  and  N6_14 
REMARK    4  A    between atoms: C5_17  and  N7_18 
ROOT
HETATM    1  C1  UNL     1     -16.507 -27.112 -25.422  1.00  0.00     0.176 C 
HETATM    2  N1  UNL     1     -15.327 -27.488 -26.187  1.00  0.00    -0.182 N 
HETATM    3  C2  UNL     1     -15.462 -28.194 -27.334  1.00  0.00     0.202 A 
HETATM    4  N2  UNL     1     -14.338 -28.508 -27.988  1.00  0.00    -0.333 N 
ATOM      5  H2  UNL     1     -14.419 -29.040 -28.855  1.00  0.00     0.168 HD
HETATM    6  C3  UNL     1     -13.110 -28.163 -27.571  1.00  0.00     0.189 A 
HETATM    7  N5  UNL     1     -13.028 -27.464 -26.427  1.00  0.00    -0.073 N 
HETATM    8  C5  UNL     1     -14.125 -27.112 -25.712  1.00  0.00     0.701 A 
ENDROOT
BRANCH   6   9
HETATM    9  C4  UNL     1     -11.903 -28.524 -28.314  1.00  0.00     0.182 C 
HETATM   10  N3  UNL     1     -11.271 -27.673 -29.233  1.00  0.00    -0.077 NA
HETATM   11  N4  UNL     1     -11.410 -29.696 -28.095  1.00  0.00    -0.252 N 
ATOM     12  H4  UNL     1     -11.868 -30.317 -27.428  1.00  0.00     0.195 HD
BRANCH  11  13
HETATM   13  O1  UNL     1     -10.278 -30.120 -28.747  1.00  0.00    -0.288 OA
ATOM     14  H1  UNL     1      -9.675 -30.727 -28.336  1.00  0.00     0.244 HD
ENDBRANCH  11  13
ENDBRANCH   6   9
BRANCH   7  15
HETATM   15  N6  UNL     1     -11.788 -27.089 -25.962  1.00  0.00    -0.322 N 
ATOM     16  H62 UNL     1     -11.059 -27.799 -25.885  1.00  0.00     0.178 HD
ATOM     17  H61 UNL     1     -11.630 -26.114 -25.705  1.00  0.00     0.178 HD
ENDBRANCH   7  15
BRANCH   8  18
HETATM   18  N7  UNL     1     -13.990 -26.432 -24.609  1.00  0.00    -0.233 N 
ATOM     19  H72 UNL     1     -13.224 -26.646 -23.971  1.00  0.00     0.174 HD
ATOM     20  H71 UNL     1     -14.628 -25.680 -24.348  1.00  0.00     0.174 HD
ENDBRANCH   8  18
TORSDOF 4
ENDMDL
MODEL 5
REMARK VINA RESULT: -6.060563760      2.345      2.962
REMARK  4 active torsions:
REMARK  status: ('A' for Active; 'I' for Inactive)
REMARK    1  A    between atoms: C3_6  and  C4_7 
REMARK    2  A    between atoms: N4_9  and  O1_11 
REMARK    3  A    between atoms: N5_13  and  N6_14 
REMARK    4  A    between atoms: C5_17  and  N7_18 
ROOT
HETATM    1  C1  UNL     1     -16.055 -26.684 -25.697  1.00  0.00     0.176 C 
HETATM    2  N1  UNL     1     -14.926 -27.326 -26.354  1.00  0.00    -0.182 N 
HETATM    3  C2  UNL     1     -15.143 -28.244 -27.327  1.00  0.00     0.202 A 
HETATM    4  N2  UNL     1     -14.062 -28.796 -27.889  1.00  0.00    -0.333 N 
ATOM      5  H2  UNL     1     -14.204 -29.490 -28.623  1.00  0.00     0.168 HD
HETATM    6  C3  UNL     1     -12.801 -28.491 -27.545  1.00  0.00     0.189 A 
HETATM    7  N5  UNL     1     -12.638 -27.575 -26.576  1.00  0.00    -0.073 N 
HETATM    8  C5  UNL     1     -13.687 -26.975 -25.961  1.00  0.00     0.701 A 
ENDROOT
BRANCH   6   9
HETATM    9  C4  UNL     1     -11.643 -29.116 -28.184  1.00  0.00     0.182 C 
HETATM   10  N3  UNL     1     -10.592 -29.715 -27.474  1.00  0.00    -0.077 NA
HETATM   11  N4  UNL     1     -11.609 -29.103 -29.473  1.00  0.00    -0.252 N 
ATOM     12  H4  UNL     1     -12.372 -28.667 -29.991  1.00  0.00     0.195 HD
BRANCH  11  13
HETATM   13  O1  UNL     1     -10.561 -29.667 -30.158  1.00  0.00    -0.288 OA
ATOM     14  H1  UNL     1      -9.678 -29.332 -30.064  1.00  0.00     0.244 HD
ENDBRANCH  11  13
ENDBRANCH   6   9
BRANCH   7  15
HETATM   15  N6  UNL     1     -11.363 -27.231 -26.190  1.00  0.00    -0.322 N 
ATOM     16  H62 UNL     1     -10.710 -27.974 -25.940  1.00  0.00     0.178 HD
ATOM     17  H61 UNL     1     -11.103 -26.245 -26.165  1.00  0.00     0.178 HD
ENDBRANCH   7  15
BRANCH   8  18
HETATM   18  N7  UNL     1     -13.475 -26.092 -25.027  1.00  0.00    -0.233 N 
ATOM     19  H72 UNL     1     -14.123 -25.314 -24.906  1.00  0.00     0.174 HD
ATOM     20  H71 UNL     1     -12.673 -26.144 -24.398  1.00  0.00     0.174 HD
ENDBRANCH   8  18
TORSDOF 4
ENDMDL
