MODEL 1
REMARK VINA RESULT: -5.781949623      0.000      0.000
REMARK  6 active torsions:
REMARK  status: ('A' for Active; 'I' for Inactive)
REMARK    1  A    between atoms: N1_1  and  O1_4 
REMARK    2  A    between atoms: O1_4  and  C1_5 
REMARK    3  A    between atoms: C1_5  and  N2_6 
REMARK    4  A    between atoms: C1_5  and  C2_10 
REMARK    5  A    between atoms: C2_10  and  O2_11 
REMARK    6  A    between atoms: N3_17  and  N4_18 
ROOT
HETATM    1  C2  UNL     1     -11.680 -28.411 -27.849  1.00  0.00     0.223 C 
HETATM    2  C3  UNL     1     -11.456 -27.652 -26.532  1.00  0.00     0.234 C 
HETATM    3  O3  UNL     1     -12.546 -26.823 -26.285  1.00  0.00    -0.384 OA
HETATM    4  C4  UNL     1     -13.690 -27.562 -26.064  1.00  0.00     0.189 C 
HETATM    5  C5  UNL     1     -14.031 -28.303 -27.363  1.00  0.00     0.172 C 
HETATM    6  N3  UNL     1     -12.912 -29.102 -27.717  1.00  0.00    -0.292 N 
ENDROOT
BRANCH   1   7
HETATM    7  C1  UNL     1     -10.502 -29.274 -28.116  1.00  0.00     0.405 C 
BRANCH   7   8
HETATM    8  O1  UNL     1     -10.147 -29.133 -29.457  1.00  0.00    -0.248 OA
BRANCH   8   9
HETATM    9  N1  UNL     1     -10.874 -29.983 -30.197  1.00  0.00    -0.309 N 
ATOM     10  H12 UNL     1     -10.580 -30.926 -30.452  1.00  0.00     0.184 HD
ATOM     11  H11 UNL     1     -11.753 -29.535 -30.455  1.00  0.00     0.184 HD
ENDBRANCH   8   9
ENDBRANCH   7   8
BRANCH   7  12
HETATM   12  N2  UNL     1      -9.413 -28.764 -27.259  1.00  0.00    -0.045 N 
ATOM     13  H23 UNL     1      -9.075 -29.470 -26.606  1.00  0.00     0.277 HD
ATOM     14  H22 UNL     1      -8.548 -28.621 -27.781  1.00  0.00     0.277 HD
ATOM     15  H21 UNL     1      -9.720 -27.916 -26.783  1.00  0.00     0.277 HD
ENDBRANCH   7  12
ENDBRANCH   1   7
BRANCH   1  16
HETATM   16  O2  UNL     1     -11.835 -27.424 -28.823  1.00  0.00    -0.364 OA
ATOM     17  H2  UNL     1     -10.999 -27.069 -29.104  1.00  0.00     0.213 HD
ENDBRANCH   1  16
BRANCH   6  18
HETATM   18  N4  UNL     1     -12.866 -30.364 -27.210  1.00  0.00    -0.344 N 
ATOM     19  H42 UNL     1     -12.100 -30.581 -26.572  1.00  0.00     0.176 HD
ATOM     20  H41 UNL     1     -13.159 -31.124 -27.824  1.00  0.00     0.176 HD
ENDBRANCH   6  18
TORSDOF 6
ENDMDL
MODEL 2
REMARK VINA RESULT: -5.556688617      1.688      3.955
REMARK  6 active torsions:
REMARK  status: ('A' for Active; 'I' for Inactive)
REMARK    1  A    between atoms: N1_1  and  O1_4 
REMARK    2  A    between atoms: O1_4  and  C1_5 
REMARK    3  A    between atoms: C1_5  and  N2_6 
REMARK    4  A    between atoms: C1_5  and  C2_10 
REMARK    5  A    between atoms: C2_10  and  O2_11 
REMARK    6  A    between atoms: N3_17  and  N4_18 
ROOT
HETATM    1  C2  UNL     1     -12.324 -28.258 -26.695  1.00  0.00     0.223 C 
HETATM    2  C3  UNL     1     -12.059 -27.958 -28.179  1.00  0.00     0.234 C 
HETATM    3  O3  UNL     1     -10.688 -27.970 -28.414  1.00  0.00    -0.384 OA
HETATM    4  C4  UNL     1     -10.164 -29.232 -28.220  1.00  0.00     0.189 C 
HETATM    5  C5  UNL     1     -10.323 -29.586 -26.736  1.00  0.00     0.172 C 
HETATM    6  N3  UNL     1     -11.702 -29.501 -26.413  1.00  0.00    -0.292 N 
ENDROOT
BRANCH   1   7
HETATM    7  C1  UNL     1     -13.788 -28.218 -26.449  1.00  0.00     0.405 C 
BRANCH   7   8
HETATM    8  O1  UNL     1     -14.096 -27.016 -25.813  1.00  0.00    -0.248 OA
BRANCH   8   9
HETATM    9  N1  UNL     1     -14.416 -27.264 -24.535  1.00  0.00    -0.309 N 
ATOM     10  H12 UNL     1     -13.836 -27.014 -23.733  1.00  0.00     0.184 HD
ATOM     11  H11 UNL     1     -15.319 -27.735 -24.500  1.00  0.00     0.184 HD
ENDBRANCH   8   9
ENDBRANCH   7   8
BRANCH   7  12
HETATM   12  N2  UNL     1     -14.432 -28.255 -27.777  1.00  0.00    -0.045 N 
ATOM     13  H23 UNL     1     -15.446 -28.158 -27.716  1.00  0.00     0.277 HD
ATOM     14  H22 UNL     1     -14.238 -27.414 -28.323  1.00  0.00     0.277 HD
ATOM     15  H21 UNL     1     -14.157 -29.104 -28.269  1.00  0.00     0.277 HD
ENDBRANCH   7  12
ENDBRANCH   1   7
BRANCH   1  16
HETATM   16  O2  UNL     1     -11.651 -27.261 -25.990  1.00  0.00    -0.364 OA
ATOM     17  H2  UNL     1     -12.051 -27.092 -25.145  1.00  0.00     0.213 HD
ENDBRANCH   1  16
BRANCH   6  18
HETATM   18  N4  UNL     1     -12.450 -30.624 -26.585  1.00  0.00    -0.344 N 
ATOM     19  H42 UNL     1     -12.850 -31.049 -25.748  1.00  0.00     0.176 HD
ATOM     20  H41 UNL     1     -12.154 -31.275 -27.313  1.00  0.00     0.176 HD
ENDBRANCH   6  18
TORSDOF 6
ENDMDL
MODEL 3
REMARK VINA RESULT: -5.547584661      1.171      1.171
REMARK  6 active torsions:
REMARK  status: ('A' for Active; 'I' for Inactive)
REMARK    1  A    between atoms: N1_1  and  O1_4 
REMARK    2  A    between atoms: O1_4  and  C1_5 
REMARK    3  A    between atoms: C1_5  and  N2_6 
REMARK    4  A    between atoms: C1_5  and  C2_10 
REMARK    5  A    between atoms: C2_10  and  O2_11 
REMARK    6  A    between atoms: N3_17  and  N4_18 
ROOT
HETATM    1  C2  UNL     1     -11.800 -28.277 -27.091  1.00  0.00     0.223 C 
HETATM    2  C3  UNL     1     -12.178 -27.236 -26.026  1.00  0.00     0.234 C 
HETATM    3  O3  UNL     1     -13.336 -26.572 -26.419  1.00  0.00    -0.384 OA
HETATM    4  C4  UNL     1     -14.413 -27.434 -26.454  1.00  0.00     0.189 C 
HETATM    5  C5  UNL     1     -14.150 -28.474 -27.550  1.00  0.00     0.172 C 
HETATM    6  N3  UNL     1     -12.926 -29.125 -27.249  1.00  0.00    -0.292 N 
ENDROOT
BRANCH   1   7
HETATM    7  C1  UNL     1     -10.551 -28.962 -26.674  1.00  0.00     0.405 C 
BRANCH   7   8
HETATM    8  O1  UNL     1      -9.691 -29.016 -27.771  1.00  0.00    -0.248 OA
BRANCH   8   9
HETATM    9  N1  UNL     1      -9.997 -30.086 -28.519  1.00  0.00    -0.309 N 
ATOM     10  H12 UNL     1     -10.886 -30.221 -29.001  1.00  0.00     0.184 HD
ATOM     11  H11 UNL     1      -9.205 -30.728 -28.524  1.00  0.00     0.184 HD
ENDBRANCH   8   9
ENDBRANCH   7   8
BRANCH   7  12
HETATM   12  N2  UNL     1      -9.952 -28.125 -25.616  1.00  0.00    -0.045 N 
ATOM     13  H23 UNL     1      -9.233 -28.624 -25.092  1.00  0.00     0.277 HD
ATOM     14  H22 UNL     1      -9.366 -27.382 -25.998  1.00  0.00     0.277 HD
ATOM     15  H21 UNL     1     -10.687 -27.762 -25.010  1.00  0.00     0.277 HD
ENDBRANCH   7  12
ENDBRANCH   1   7
BRANCH   1  16
HETATM   16  O2  UNL     1     -11.629 -27.553 -28.271  1.00  0.00    -0.364 OA
ATOM     17  H2  UNL     1     -11.087 -28.020 -28.897  1.00  0.00     0.213 HD
ENDBRANCH   1  16
BRANCH   6  18
HETATM   18  N4  UNL     1     -12.989 -30.229 -26.456  1.00  0.00    -0.344 N 
ATOM     19  H42 UNL     1     -12.792 -31.129 -26.895  1.00  0.00     0.176 HD
ATOM     20  H41 UNL     1     -13.703 -30.240 -25.727  1.00  0.00     0.176 HD
ENDBRANCH   6  18
TORSDOF 6
ENDMDL
MODEL 4
REMARK VINA RESULT: -5.480482530      1.801      2.162
REMARK  6 active torsions:
REMARK  status: ('A' for Active; 'I' for Inactive)
REMARK    1  A    between atoms: N1_1  and  O1_4 
REMARK    2  A    between atoms: O1_4  and  C1_5 
REMARK    3  A    between atoms: C1_5  and  N2_6 
REMARK    4  A    between atoms: C1_5  and  C2_10 
REMARK    5  A    between atoms: C2_10  and  O2_11 
REMARK    6  A    between atoms: N3_17  and  N4_18 
ROOT
HETATM    1  C2  UNL     1     -10.811 -28.691 -26.782  1.00  0.00     0.223 C 
HETATM    2  C3  UNL     1     -11.551 -27.454 -26.250  1.00  0.00     0.234 C 
HETATM    3  O3  UNL     1     -12.529 -27.073 -27.164  1.00  0.00    -0.384 OA
HETATM    4  C4  UNL     1     -13.509 -28.039 -27.272  1.00  0.00     0.189 C 
HETATM    5  C5  UNL     1     -12.867 -29.298 -27.868  1.00  0.00     0.172 C 
HETATM    6  N3  UNL     1     -11.796 -29.684 -27.021  1.00  0.00    -0.292 N 
ENDROOT
BRANCH   1   7
HETATM    7  C1  UNL     1      -9.754 -29.075 -25.812  1.00  0.00     0.405 C 
BRANCH   7   8
HETATM    8  O1  UNL     1      -8.605 -29.415 -26.525  1.00  0.00    -0.248 OA
BRANCH   8   9
HETATM    9  N1  UNL     1      -8.585 -30.741 -26.723  1.00  0.00    -0.309 N 
ATOM     10  H12 UNL     1      -7.754 -31.328 -26.637  1.00  0.00     0.184 HD
ATOM     11  H11 UNL     1      -9.522 -31.057 -26.968  1.00  0.00     0.184 HD
ENDBRANCH   8   9
ENDBRANCH   7   8
BRANCH   7  12
HETATM   12  N2  UNL     1      -9.491 -27.878 -24.990  1.00  0.00    -0.045 N 
ATOM     13  H23 UNL     1      -9.518 -27.020 -25.541  1.00  0.00     0.277 HD
ATOM     14  H22 UNL     1     -10.263 -27.669 -24.357  1.00  0.00     0.277 HD
ATOM     15  H21 UNL     1      -8.607 -27.989 -24.495  1.00  0.00     0.277 HD
ENDBRANCH   7  12
ENDBRANCH   1   7
BRANCH   1  16
HETATM   16  O2  UNL     1     -10.275 -28.303 -28.010  1.00  0.00    -0.364 OA
ATOM     17  H2  UNL     1     -10.887 -27.777 -28.513  1.00  0.00     0.213 HD
ENDBRANCH   1  16
BRANCH   6  18
HETATM   18  N4  UNL     1     -12.090 -30.528 -25.994  1.00  0.00    -0.344 N 
ATOM     19  H42 UNL     1     -11.422 -30.574 -25.224  1.00  0.00     0.176 HD
ATOM     20  H41 UNL     1     -12.555 -31.405 -26.230  1.00  0.00     0.176 HD
ENDBRANCH   6  18
TORSDOF 6
ENDMDL
MODEL 5
REMARK VINA RESULT: -5.441142446      2.337      3.281
REMARK  6 active torsions:
REMARK  status: ('A' for Active; 'I' for Inactive)
REMARK    1  A    between atoms: N1_1  and  O1_4 
REMARK    2  A    between atoms: O1_4  and  C1_5 
REMARK    3  A    between atoms: C1_5  and  N2_6 
REMARK    4  A    between atoms: C1_5  and  C2_10 
REMARK    5  A    between atoms: C2_10  and  O2_11 
REMARK    6  A    between atoms: N3_17  and  N4_18 
ROOT
HETATM    1  C2  UNL     1     -10.654 -29.478 -26.759  1.00  0.00     0.223 C 
HETATM    2  C3  UNL     1     -10.282 -29.287 -28.237  1.00  0.00     0.234 C 
HETATM    3  O3  UNL     1     -11.443 -29.221 -29.001  1.00  0.00    -0.384 OA
HETATM    4  C4  UNL     1     -12.180 -28.097 -28.684  1.00  0.00     0.189 C 
HETATM    5  C5  UNL     1     -12.656 -28.238 -27.233  1.00  0.00     0.172 C 
HETATM    6  N3  UNL     1     -11.511 -28.402 -26.412  1.00  0.00    -0.292 N 
ENDROOT
BRANCH   1   7
HETATM    7  C1  UNL     1      -9.408 -29.572 -25.956  1.00  0.00     0.405 C 
BRANCH   7   8
HETATM    8  O1  UNL     1      -8.969 -30.896 -25.977  1.00  0.00    -0.248 OA
BRANCH   8   9
HETATM    9  N1  UNL     1      -9.080 -31.416 -24.747  1.00  0.00    -0.309 N 
ATOM     10  H12 UNL     1      -8.423 -32.081 -24.337  1.00  0.00     0.184 HD
ATOM     11  H11 UNL     1      -9.915 -31.041 -24.298  1.00  0.00     0.184 HD
ENDBRANCH   8   9
ENDBRANCH   7   8
BRANCH   7  12
HETATM   12  N2  UNL     1      -8.416 -28.710 -26.629  1.00  0.00    -0.045 N 
ATOM     13  H23 UNL     1      -8.348 -28.909 -27.627  1.00  0.00     0.277 HD
ATOM     14  H22 UNL     1      -8.729 -27.741 -26.693  1.00  0.00     0.277 HD
ATOM     15  H21 UNL     1      -7.515 -28.793 -26.158  1.00  0.00     0.277 HD
ENDBRANCH   7  12
ENDBRANCH   1   7
BRANCH   1  16
HETATM   16  O2  UNL     1     -11.394 -30.659 -26.712  1.00  0.00    -0.364 OA
ATOM     17  H2  UNL     1     -10.914 -31.362 -26.290  1.00  0.00     0.213 HD
ENDBRANCH   1  16
BRANCH   6  18
HETATM   18  N4  UNL     1     -10.926 -27.271 -25.930  1.00  0.00    -0.344 N 
ATOM     19  H42 UNL     1      -9.990 -27.364 -25.535  1.00  0.00     0.176 HD
ATOM     20  H41 UNL     1     -11.533 -26.591 -25.473  1.00  0.00     0.176 HD
ENDBRANCH   6  18
TORSDOF 6
ENDMDL
