MODEL 1
REMARK VINA RESULT: -6.836017263      0.000      0.000
REMARK  5 active torsions:
REMARK  status: ('A' for Active; 'I' for Inactive)
REMARK    1  A    between atoms: C2_2  and  O3_27 
REMARK    2  A    between atoms: N1_3  and  N2_5 
REMARK    3  A    between atoms: N2_5  and  C3_7 
REMARK    4  A    between atoms: C6_14  and  N5_15 
REMARK    5  A    between atoms: O3_27  and  N8_28 
ROOT
HETATM    1  C3  UNL     1      17.481  11.398  27.442  1.00  0.00     0.138 C 
HETATM    2  C4  UNL     1      17.912  11.176  28.731  1.00  0.00     0.139 C 
HETATM    3  N3  UNL     1      18.787  11.893  29.495  1.00  0.00    -0.347 N 
ATOM      4  H3  UNL     1      18.792  11.705  30.497  1.00  0.00     0.167 HD
HETATM    5  C5  UNL     1      19.650  12.832  29.038  1.00  0.00     0.142 A 
HETATM    6  N4  UNL     1      20.475  13.277  30.002  1.00  0.00    -0.176 N 
ATOM      7  H4  UNL     1      20.375  12.884  30.938  1.00  0.00     0.186 HD
HETATM    8  C6  UNL     1      21.425  14.211  29.806  1.00  0.00     0.680 A 
HETATM    9  N6  UNL     1      21.568  14.739  28.584  1.00  0.00    -0.155 N 
ATOM     10  H6  UNL     1      22.281  15.449  28.412  1.00  0.00     0.187 HD
HETATM   11  C7  UNL     1      20.756  14.322  27.572  1.00  0.00     0.279 A 
HETATM   12  O1  UNL     1      20.869  14.801  26.416  1.00  0.00    -0.266 OA
HETATM   13  C8  UNL     1      19.787  13.368  27.775  1.00  0.00     0.145 A 
HETATM   14  C9  UNL     1      19.061  13.065  26.655  1.00  0.00     0.266 C 
HETATM   15  O2  UNL     1      19.395  13.697  25.608  1.00  0.00    -0.267 OA
HETATM   16  N7  UNL     1      18.030  12.182  26.502  1.00  0.00    -0.306 N 
ATOM     17  H7  UNL     1      17.632  12.111  25.566  1.00  0.00     0.170 HD
ENDROOT
BRANCH   1  18
HETATM   18  N2  UNL     1      16.414  10.790  27.044  1.00  0.00    -0.282 N 
ATOM     19  H2  UNL     1      16.402   9.769  27.033  1.00  0.00     0.188 HD
BRANCH  18  20
HETATM   20  N1  UNL     1      15.280  11.480  26.631  1.00  0.00    -0.280 N 
HETATM   21  C2  UNL     1      14.141  10.893  26.601  1.00  0.00     0.159 C 
HETATM   22  C1  UNL     1      12.941  11.658  26.154  1.00  0.00     0.101 C 
ATOM     23  H1  UNL     1      15.355  12.457  26.350  1.00  0.00     0.189 HD
BRANCH  21  24
HETATM   24  O3  UNL     1      14.076   9.565  26.989  1.00  0.00    -0.208 OA
BRANCH  24  25
HETATM   25  N8  UNL     1      13.181   8.691  26.403  1.00  0.00    -0.207 N 
HETATM   26  N9  UNL     1      13.321   8.208  25.259  1.00  0.00    -0.325 N 
ATOM     27  H92 UNL     1      14.153   8.488  24.739  1.00  0.00     0.178 HD
ATOM     28  H91 UNL     1      12.660   7.563  24.826  1.00  0.00     0.178 HD
ATOM     29  H8  UNL     1      12.354   8.423  26.937  1.00  0.00     0.216 HD
ENDBRANCH  24  25
ENDBRANCH  21  24
ENDBRANCH  18  20
ENDBRANCH   1  18
BRANCH   8  30
HETATM   30  N5  UNL     1      22.191  14.608  30.752  1.00  0.00    -0.234 N 
ATOM     31  H52 UNL     1      21.798  14.754  31.682  1.00  0.00     0.174 HD
ATOM     32  H51 UNL     1      23.185  14.781  30.605  1.00  0.00     0.174 HD
ENDBRANCH   8  30
TORSDOF 5
ENDMDL
MODEL 2
REMARK VINA RESULT: -6.814592652      1.925      2.176
REMARK  5 active torsions:
REMARK  status: ('A' for Active; 'I' for Inactive)
REMARK    1  A    between atoms: C2_2  and  O3_27 
REMARK    2  A    between atoms: N1_3  and  N2_5 
REMARK    3  A    between atoms: N2_5  and  C3_7 
REMARK    4  A    between atoms: C6_14  and  N5_15 
REMARK    5  A    between atoms: O3_27  and  N8_28 
ROOT
HETATM    1  C3  UNL     1      16.112  11.088  28.087  1.00  0.00     0.138 C 
HETATM    2  C4  UNL     1      16.383  11.755  29.260  1.00  0.00     0.139 C 
HETATM    3  N3  UNL     1      17.335  12.694  29.532  1.00  0.00    -0.347 N 
ATOM      4  H3  UNL     1      17.221  13.239  30.387  1.00  0.00     0.167 HD
HETATM    5  C5  UNL     1      18.420  12.965  28.767  1.00  0.00     0.142 A 
HETATM    6  N4  UNL     1      19.247  13.849  29.351  1.00  0.00    -0.176 N 
ATOM      7  H4  UNL     1      18.990  14.212  30.269  1.00  0.00     0.186 HD
HETATM    8  C6  UNL     1      20.395  14.283  28.798  1.00  0.00     0.680 A 
HETATM    9  N6  UNL     1      20.746  13.818  27.593  1.00  0.00    -0.155 N 
ATOM     10  H6  UNL     1      21.612  14.133  27.153  1.00  0.00     0.187 HD
HETATM   11  C7  UNL     1      19.941  12.921  26.957  1.00  0.00     0.279 A 
HETATM   12  O1  UNL     1      20.247  12.468  25.826  1.00  0.00    -0.266 OA
HETATM   13  C8  UNL     1      18.770  12.478  27.525  1.00  0.00     0.145 A 
HETATM   14  C9  UNL     1      18.082  11.579  26.755  1.00  0.00     0.266 C 
HETATM   15  O2  UNL     1      18.628  11.287  25.650  1.00  0.00    -0.267 OA
HETATM   16  N7  UNL     1      16.894  10.954  27.005  1.00  0.00    -0.306 N 
ATOM     17  H7  UNL     1      16.563  10.311  26.286  1.00  0.00     0.170 HD
ENDROOT
BRANCH   1  18
HETATM   18  N2  UNL     1      14.969  10.499  27.971  1.00  0.00    -0.282 N 
ATOM     19  H2  UNL     1      14.395  10.369  28.803  1.00  0.00     0.188 HD
BRANCH  18  20
HETATM   20  N1  UNL     1      14.496  10.036  26.748  1.00  0.00    -0.280 N 
HETATM   21  C2  UNL     1      13.312  10.334  26.358  1.00  0.00     0.159 C 
HETATM   22  C1  UNL     1      12.831   9.824  25.042  1.00  0.00     0.101 C 
ATOM     23  H1  UNL     1      15.094   9.457  26.158  1.00  0.00     0.189 HD
BRANCH  21  24
HETATM   24  O3  UNL     1      12.528  11.122  27.183  1.00  0.00    -0.208 OA
BRANCH  24  25
HETATM   25  N8  UNL     1      11.598  12.001  26.662  1.00  0.00    -0.207 N 
HETATM   26  N9  UNL     1      10.397  12.033  27.003  1.00  0.00    -0.325 N 
ATOM     27  H92 UNL     1      10.100  11.362  27.711  1.00  0.00     0.178 HD
ATOM     28  H91 UNL     1       9.710  12.682  26.617  1.00  0.00     0.178 HD
ATOM     29  H8  UNL     1      11.913  12.665  25.953  1.00  0.00     0.216 HD
ENDBRANCH  24  25
ENDBRANCH  21  24
ENDBRANCH  18  20
ENDBRANCH   1  18
BRANCH   8  30
HETATM   30  N5  UNL     1      21.156  15.126  29.388  1.00  0.00    -0.234 N 
ATOM     31  H52 UNL     1      20.796  16.056  29.604  1.00  0.00     0.174 HD
ATOM     32  H51 UNL     1      22.114  14.897  29.652  1.00  0.00     0.174 HD
ENDBRANCH   8  30
TORSDOF 5
ENDMDL
MODEL 3
REMARK VINA RESULT: -6.788817934      1.555      1.707
REMARK  5 active torsions:
REMARK  status: ('A' for Active; 'I' for Inactive)
REMARK    1  A    between atoms: C2_2  and  O3_27 
REMARK    2  A    between atoms: N1_3  and  N2_5 
REMARK    3  A    between atoms: N2_5  and  C3_7 
REMARK    4  A    between atoms: C6_14  and  N5_15 
REMARK    5  A    between atoms: O3_27  and  N8_28 
ROOT
HETATM    1  C3  UNL     1      16.578  12.133  28.076  1.00  0.00     0.138 C 
HETATM    2  C4  UNL     1      17.139  11.937  29.319  1.00  0.00     0.139 C 
HETATM    3  N3  UNL     1      18.245  12.509  29.878  1.00  0.00    -0.347 N 
ATOM      4  H3  UNL     1      18.358  12.414  30.887  1.00  0.00     0.167 HD
HETATM    5  C5  UNL     1      19.206  13.191  29.209  1.00  0.00     0.142 A 
HETATM    6  N4  UNL     1      20.237  13.527  30.004  1.00  0.00    -0.176 N 
ATOM      7  H4  UNL     1      20.197  13.250  30.985  1.00  0.00     0.186 HD
HETATM    8  C6  UNL     1      21.319  14.208  29.583  1.00  0.00     0.680 A 
HETATM    9  N6  UNL     1      21.388  14.581  28.299  1.00  0.00    -0.155 N 
ATOM     10  H6  UNL     1      22.198  15.098  27.957  1.00  0.00     0.187 HD
HETATM   11  C7  UNL     1      20.367  14.265  27.452  1.00  0.00     0.279 A 
HETATM   12  O1  UNL     1      20.406  14.603  26.243  1.00  0.00    -0.266 OA
HETATM   13  C8  UNL     1      19.264  13.569  27.885  1.00  0.00     0.145 A 
HETATM   14  C9  UNL     1      18.335  13.335  26.908  1.00  0.00     0.266 C 
HETATM   15  O2  UNL     1      18.633  13.782  25.761  1.00  0.00    -0.267 OA
HETATM   16  N7  UNL     1      17.133  12.691  26.990  1.00  0.00    -0.306 N 
ATOM     17  H7  UNL     1      16.596  12.626  26.126  1.00  0.00     0.170 HD
ENDROOT
BRANCH   1  18
HETATM   18  N2  UNL     1      15.362  11.741  27.889  1.00  0.00    -0.282 N 
ATOM     19  H2  UNL     1      14.693  11.827  28.655  1.00  0.00     0.188 HD
BRANCH  18  20
HETATM   20  N1  UNL     1      14.935  11.208  26.678  1.00  0.00    -0.280 N 
HETATM   21  C2  UNL     1      13.683  11.127  26.414  1.00  0.00     0.159 C 
HETATM   22  C1  UNL     1      13.254  10.551  25.106  1.00  0.00     0.101 C 
ATOM     23  H1  UNL     1      15.620  10.880  25.998  1.00  0.00     0.189 HD
BRANCH  21  24
HETATM   24  O3  UNL     1      12.781  11.581  27.360  1.00  0.00    -0.208 OA
BRANCH  24  25
HETATM   25  N8  UNL     1      11.708  12.375  27.002  1.00  0.00    -0.207 N 
HETATM   26  N9  UNL     1      10.519  11.992  27.016  1.00  0.00    -0.325 N 
ATOM     27  H92 UNL     1      10.347  11.031  27.312  1.00  0.00     0.178 HD
ATOM     28  H91 UNL     1       9.726  12.578  26.752  1.00  0.00     0.178 HD
ATOM     29  H8  UNL     1      11.899  13.333  26.709  1.00  0.00     0.216 HD
ENDBRANCH  24  25
ENDBRANCH  21  24
ENDBRANCH  18  20
ENDBRANCH   1  18
BRANCH   8  30
HETATM   30  N5  UNL     1      22.281  14.508  30.373  1.00  0.00    -0.234 N 
ATOM     31  H52 UNL     1      22.068  14.871  31.302  1.00  0.00     0.174 HD
ATOM     32  H51 UNL     1      23.258  14.395  30.102  1.00  0.00     0.174 HD
ENDBRANCH   8  30
TORSDOF 5
ENDMDL
MODEL 4
REMARK VINA RESULT: -6.684188246      2.806      8.280
REMARK  5 active torsions:
REMARK  status: ('A' for Active; 'I' for Inactive)
REMARK    1  A    between atoms: C2_2  and  O3_27 
REMARK    2  A    between atoms: N1_3  and  N2_5 
REMARK    3  A    between atoms: N2_5  and  C3_7 
REMARK    4  A    between atoms: C6_14  and  N5_15 
REMARK    5  A    between atoms: O3_27  and  N8_28 
ROOT
HETATM    1  C3  UNL     1      14.830  10.748  27.055  1.00  0.00     0.138 C 
HETATM    2  C4  UNL     1      14.148  11.707  26.340  1.00  0.00     0.139 C 
HETATM    3  N3  UNL     1      12.841  12.092  26.420  1.00  0.00    -0.347 N 
ATOM      4  H3  UNL     1      12.589  12.976  25.979  1.00  0.00     0.167 HD
HETATM    5  C5  UNL     1      11.850  11.402  27.035  1.00  0.00     0.142 A 
HETATM    6  N4  UNL     1      10.644  11.964  26.842  1.00  0.00    -0.176 N 
ATOM      7  H4  UNL     1      10.595  12.813  26.279  1.00  0.00     0.186 HD
HETATM    8  C6  UNL     1       9.497  11.473  27.347  1.00  0.00     0.680 A 
HETATM    9  N6  UNL     1       9.543  10.360  28.089  1.00  0.00    -0.155 N 
ATOM     10  H6  UNL     1       8.687   9.969  28.483  1.00  0.00     0.187 HD
HETATM   11  C7  UNL     1      10.742   9.753  28.316  1.00  0.00     0.279 A 
HETATM   12  O1  UNL     1      10.814   8.707  29.010  1.00  0.00    -0.266 OA
HETATM   13  C8  UNL     1      11.912  10.256  27.799  1.00  0.00     0.145 A 
HETATM   14  C9  UNL     1      13.023   9.526  28.121  1.00  0.00     0.266 C 
HETATM   15  O2  UNL     1      12.807   8.500  28.833  1.00  0.00    -0.267 OA
HETATM   16  N7  UNL     1      14.330   9.742  27.788  1.00  0.00    -0.306 N 
ATOM     17  H7  UNL     1      15.003   9.060  28.137  1.00  0.00     0.170 HD
ENDROOT
BRANCH   1  18
HETATM   18  N2  UNL     1      16.121  10.784  27.044  1.00  0.00    -0.282 N 
ATOM     19  H2  UNL     1      16.620  10.365  26.259  1.00  0.00     0.188 HD
BRANCH  18  20
HETATM   20  N1  UNL     1      16.853  11.376  28.068  1.00  0.00    -0.280 N 
HETATM   21  C2  UNL     1      17.814  12.178  27.795  1.00  0.00     0.159 C 
HETATM   22  C1  UNL     1      18.581  12.798  28.914  1.00  0.00     0.101 C 
ATOM     23  H1  UNL     1      16.623  11.170  29.040  1.00  0.00     0.189 HD
BRANCH  21  24
HETATM   24  O3  UNL     1      18.098  12.434  26.464  1.00  0.00    -0.208 OA
BRANCH  24  25
HETATM   25  N8  UNL     1      19.082  11.733  25.795  1.00  0.00    -0.207 N 
HETATM   26  N9  UNL     1      18.865  10.973  24.827  1.00  0.00    -0.325 N 
ATOM     27  H92 UNL     1      17.895  10.876  24.525  1.00  0.00     0.178 HD
ATOM     28  H91 UNL     1      19.591  10.455  24.332  1.00  0.00     0.178 HD
ATOM     29  H8  UNL     1      20.046  11.841  26.110  1.00  0.00     0.216 HD
ENDBRANCH  24  25
ENDBRANCH  21  24
ENDBRANCH  18  20
ENDBRANCH   1  18
BRANCH   8  30
HETATM   30  N5  UNL     1       8.367  12.039  27.139  1.00  0.00    -0.234 N 
ATOM     31  H52 UNL     1       8.338  13.044  26.969  1.00  0.00     0.174 HD
ATOM     32  H51 UNL     1       7.493  11.514  27.135  1.00  0.00     0.174 HD
ENDBRANCH   8  30
TORSDOF 5
ENDMDL
MODEL 5
REMARK VINA RESULT: -6.602712759      1.161      1.525
REMARK  5 active torsions:
REMARK  status: ('A' for Active; 'I' for Inactive)
REMARK    1  A    between atoms: C2_2  and  O3_27 
REMARK    2  A    between atoms: N1_3  and  N2_5 
REMARK    3  A    between atoms: N2_5  and  C3_7 
REMARK    4  A    between atoms: C6_14  and  N5_15 
REMARK    5  A    between atoms: O3_27  and  N8_28 
ROOT
HETATM    1  C3  UNL     1      17.494  11.256  27.535  1.00  0.00     0.138 C 
HETATM    2  C4  UNL     1      17.977  11.056  28.809  1.00  0.00     0.139 C 
HETATM    3  N3  UNL     1      18.850  11.808  29.541  1.00  0.00    -0.347 N 
ATOM      4  H3  UNL     1      18.896  11.624  30.543  1.00  0.00     0.167 HD
HETATM    5  C5  UNL     1      19.661  12.778  29.052  1.00  0.00     0.142 A 
HETATM    6  N4  UNL     1      20.501  13.257  29.986  1.00  0.00    -0.176 N 
ATOM      7  H4  UNL     1      20.448  12.863  30.925  1.00  0.00     0.186 HD
HETATM    8  C6  UNL     1      21.407  14.225  29.755  1.00  0.00     0.680 A 
HETATM    9  N6  UNL     1      21.489  14.753  28.528  1.00  0.00    -0.155 N 
ATOM     10  H6  UNL     1      22.168  15.489  28.329  1.00  0.00     0.187 HD
HETATM   11  C7  UNL     1      20.658  14.303  27.545  1.00  0.00     0.279 A 
HETATM   12  O1  UNL     1      20.713  14.782  26.385  1.00  0.00    -0.266 OA
HETATM   13  C8  UNL     1      19.734  13.314  27.784  1.00  0.00     0.145 A 
HETATM   14  C9  UNL     1      18.982  12.979  26.690  1.00  0.00     0.266 C 
HETATM   15  O2  UNL     1      19.255  13.619  25.631  1.00  0.00    -0.267 OA
HETATM   16  N7  UNL     1      17.980  12.058  26.576  1.00  0.00    -0.306 N 
ATOM     17  H7  UNL     1      17.553  11.968  25.654  1.00  0.00     0.170 HD
ENDROOT
BRANCH   1  18
HETATM   18  N2  UNL     1      16.437  10.607  27.176  1.00  0.00    -0.282 N 
ATOM     19  H2  UNL     1      16.389   9.604  27.357  1.00  0.00     0.188 HD
BRANCH  18  20
HETATM   20  N1  UNL     1      15.362  11.230  26.552  1.00  0.00    -0.280 N 
HETATM   21  C2  UNL     1      14.169  11.045  26.981  1.00  0.00     0.159 C 
HETATM   22  C1  UNL     1      13.036  11.727  26.292  1.00  0.00     0.101 C 
ATOM     23  H1  UNL     1      15.525  11.837  25.748  1.00  0.00     0.189 HD
BRANCH  21  24
HETATM   24  O3  UNL     1      13.986  10.215  28.074  1.00  0.00    -0.208 OA
BRANCH  24  25
HETATM   25  N8  UNL     1      13.695  10.729  29.322  1.00  0.00    -0.207 N 
HETATM   26  N9  UNL     1      14.559  11.101  30.145  1.00  0.00    -0.325 N 
ATOM     27  H92 UNL     1      15.535  11.011  29.862  1.00  0.00     0.178 HD
ATOM     28  H91 UNL     1      14.344  11.480  31.068  1.00  0.00     0.178 HD
ATOM     29  H8  UNL     1      12.713  10.811  29.589  1.00  0.00     0.216 HD
ENDBRANCH  24  25
ENDBRANCH  21  24
ENDBRANCH  18  20
ENDBRANCH   1  18
BRANCH   8  30
HETATM   30  N5  UNL     1      22.190  14.653  30.673  1.00  0.00    -0.234 N 
ATOM     31  H52 UNL     1      21.790  15.054  31.521  1.00  0.00     0.174 HD
ATOM     32  H51 UNL     1      23.205  14.606  30.583  1.00  0.00     0.174 HD
ENDBRANCH   8  30
TORSDOF 5
ENDMDL
