MODEL 1
REMARK VINA RESULT: -5.299177064      0.000      0.000
REMARK  6 active torsions:
REMARK  status: ('A' for Active; 'I' for Inactive)
REMARK       I    between atoms: C2_2  and  N1_4 
REMARK    1  A    between atoms: N1_4  and  C3_6 
REMARK    2  A    between atoms: C4_9  and  N3_10 
REMARK    3  A    between atoms: N5_20  and  O2_21 
REMARK    4  A    between atoms: O2_21  and  S1_22 
REMARK    5  A    between atoms: S1_22  and  N6_23 
REMARK    6  A    between atoms: S1_22  and  N7_26 
ROOT
HETATM    1  C3  UNL     1      17.199  12.324  27.960  1.00  0.00     0.709 C 
HETATM    2  N2  UNL     1      17.269  11.478  29.012  1.00  0.00    -0.171 N 
ATOM      3  H2  UNL     1      16.532  10.793  29.175  1.00  0.00     0.181 HD
HETATM    4  C4  UNL     1      18.391  11.556  29.892  1.00  0.00     0.499 C 
HETATM    5  N4  UNL     1      18.715  12.986  30.030  1.00  0.00     0.000 N 
ATOM      6  H41 UNL     1      19.300  13.207  30.836  1.00  0.00     0.284 HD
ATOM      7  H42 UNL     1      17.924  13.570  30.304  1.00  0.00     0.284 HD
HETATM    8  C5  UNL     1      19.316  13.349  28.724  1.00  0.00     0.239 C 
HETATM    9  C6  UNL     1      20.530  12.472  28.510  1.00  0.00     0.073 C 
HETATM   10  C7  UNL     1      19.801  14.779  28.840  1.00  0.00     0.073 C 
HETATM   11  N5  UNL     1      18.278  13.206  27.726  1.00  0.00    -0.034 N 
ENDROOT
BRANCH  11  12
HETATM   12  O2  UNL     1      18.369  13.923  26.613  1.00  0.00    -0.132 OA
BRANCH  12  13
HETATM   13  S1  UNL     1      19.230  13.398  25.332  1.00  0.00     0.248 S 
HETATM   14  O3  UNL     1      18.912  14.005  24.018  1.00  0.00    -0.197 OA
BRANCH  13  15
HETATM   15  N6  UNL     1      20.793  13.717  25.525  1.00  0.00    -0.322 N 
ATOM     16  H62 UNL     1      21.166  14.655  25.672  1.00  0.00     0.169 HD
ATOM     17  H61 UNL     1      21.346  12.862  25.478  1.00  0.00     0.169 HD
ENDBRANCH  13  15
BRANCH  13  18
HETATM   18  N7  UNL     1      19.231  11.645  25.255  1.00  0.00    -0.322 N 
ATOM     19  H72 UNL     1      18.605  11.054  25.802  1.00  0.00     0.169 HD
ATOM     20  H71 UNL     1      19.934  11.311  24.596  1.00  0.00     0.169 HD
ENDBRANCH  13  18
ENDBRANCH  12  13
ENDBRANCH  11  12
BRANCH   1  21
HETATM   21  N1  UNL     1      16.053  12.160  27.179  1.00  0.00    -0.158 N 
HETATM   22  C2  UNL     1      14.864  11.451  27.290  1.00  0.00     0.232 C 
HETATM   23  C1  UNL     1      13.819  11.568  26.180  1.00  0.00     0.118 C 
HETATM   24  O1  UNL     1      14.565  10.712  28.232  1.00  0.00    -0.273 OA
ATOM     25  H1  UNL     1      16.101  12.694  26.312  1.00  0.00     0.187 HD
ENDBRANCH   1  21
BRANCH   4  26
HETATM   26  N3  UNL     1      18.010  11.118  31.232  1.00  0.00    -0.032 N 
ATOM     27  H33 UNL     1      17.187  11.614  31.575  1.00  0.00     0.279 HD
ATOM     28  H32 UNL     1      17.624  10.174  31.229  1.00  0.00     0.279 HD
ATOM     29  H31 UNL     1      18.802  11.206  31.868  1.00  0.00     0.279 HD
ENDBRANCH   4  26
TORSDOF 6
ENDMDL
MODEL 2
REMARK VINA RESULT: -5.148393717      3.244      5.097
REMARK  6 active torsions:
REMARK  status: ('A' for Active; 'I' for Inactive)
REMARK       I    between atoms: C2_2  and  N1_4 
REMARK    1  A    between atoms: N1_4  and  C3_6 
REMARK    2  A    between atoms: C4_9  and  N3_10 
REMARK    3  A    between atoms: N5_20  and  O2_21 
REMARK    4  A    between atoms: O2_21  and  S1_22 
REMARK    5  A    between atoms: S1_22  and  N6_23 
REMARK    6  A    between atoms: S1_22  and  N7_26 
ROOT
HETATM    1  C3  UNL     1      15.952  10.510  27.506  1.00  0.00     0.709 C 
HETATM    2  N2  UNL     1      16.774  11.198  26.682  1.00  0.00    -0.171 N 
ATOM      3  H2  UNL     1      16.425  11.577  25.802  1.00  0.00     0.181 HD
HETATM    4  C4  UNL     1      18.138  11.387  27.061  1.00  0.00     0.499 C 
HETATM    5  N4  UNL     1      18.568  10.138  27.711  1.00  0.00     0.000 N 
ATOM      6  H41 UNL     1      19.580  10.027  27.774  1.00  0.00     0.284 HD
ATOM      7  H42 UNL     1      18.398   9.298  27.158  1.00  0.00     0.284 HD
HETATM    8  C5  UNL     1      17.874  10.155  29.022  1.00  0.00     0.239 C 
HETATM    9  C6  UNL     1      18.305  11.402  29.762  1.00  0.00     0.073 C 
HETATM   10  C7  UNL     1      18.378   8.962  29.807  1.00  0.00     0.073 C 
HETATM   11  N5  UNL     1      16.455  10.068  28.751  1.00  0.00    -0.034 N 
ENDROOT
BRANCH  11  12
HETATM   12  O2  UNL     1      15.663   9.561  29.687  1.00  0.00    -0.132 OA
BRANCH  12  13
HETATM   13  S1  UNL     1      14.597  10.494  30.494  1.00  0.00     0.248 S 
HETATM   14  O3  UNL     1      13.338  10.833  29.791  1.00  0.00    -0.197 OA
BRANCH  13  15
HETATM   15  N6  UNL     1      14.094   9.762  31.833  1.00  0.00    -0.322 N 
ATOM     16  H62 UNL     1      13.669   8.835  31.846  1.00  0.00     0.169 HD
ATOM     17  H61 UNL     1      14.258  10.348  32.651  1.00  0.00     0.169 HD
ENDBRANCH  13  15
BRANCH  13  18
HETATM   18  N7  UNL     1      15.383  11.923  31.144  1.00  0.00    -0.322 N 
ATOM     19  H72 UNL     1      16.100  12.450  30.646  1.00  0.00     0.169 HD
ATOM     20  H71 UNL     1      15.024  12.145  32.072  1.00  0.00     0.169 HD
ENDBRANCH  13  18
ENDBRANCH  12  13
ENDBRANCH  11  12
BRANCH   1  21
HETATM   21  N1  UNL     1      14.648  10.380  27.024  1.00  0.00    -0.158 N 
HETATM   22  C2  UNL     1      13.715  11.222  26.434  1.00  0.00     0.232 C 
HETATM   23  C1  UNL     1      12.358  10.657  26.016  1.00  0.00     0.118 C 
HETATM   24  O1  UNL     1      13.888  12.423  26.208  1.00  0.00    -0.273 OA
ATOM     25  H1  UNL     1      14.292   9.431  27.134  1.00  0.00     0.187 HD
ENDBRANCH   1  21
BRANCH   4  26
HETATM   26  N3  UNL     1      18.976  11.509  25.872  1.00  0.00    -0.032 N 
ATOM     27  H33 UNL     1      18.422  11.540  25.016  1.00  0.00     0.279 HD
ATOM     28  H32 UNL     1      19.410  12.430  25.803  1.00  0.00     0.279 HD
ATOM     29  H31 UNL     1      19.668  10.759  25.852  1.00  0.00     0.279 HD
ENDBRANCH   4  26
TORSDOF 6
ENDMDL
MODEL 3
REMARK VINA RESULT: -5.076422980      4.965      6.756
REMARK  6 active torsions:
REMARK  status: ('A' for Active; 'I' for Inactive)
REMARK       I    between atoms: C2_2  and  N1_4 
REMARK    1  A    between atoms: N1_4  and  C3_6 
REMARK    2  A    between atoms: C4_9  and  N3_10 
REMARK    3  A    between atoms: N5_20  and  O2_21 
REMARK    4  A    between atoms: O2_21  and  S1_22 
REMARK    5  A    between atoms: S1_22  and  N6_23 
REMARK    6  A    between atoms: S1_22  and  N7_26 
ROOT
HETATM    1  C3  UNL     1      12.453  10.683  28.889  1.00  0.00     0.709 C 
HETATM    2  N2  UNL     1      11.395  11.505  28.703  1.00  0.00    -0.171 N 
ATOM      3  H2  UNL     1      10.950  11.963  29.498  1.00  0.00     0.181 HD
HETATM    4  C4  UNL     1      10.910  11.722  27.378  1.00  0.00     0.499 C 
HETATM    5  N4  UNL     1      11.016  10.432  26.677  1.00  0.00     0.000 N 
ATOM      6  H41 UNL     1      10.451  10.368  25.830  1.00  0.00     0.284 HD
ATOM      7  H42 UNL     1      10.573   9.653  27.164  1.00  0.00     0.284 HD
HETATM    8  C5  UNL     1      12.472  10.261  26.453  1.00  0.00     0.239 C 
HETATM    9  C6  UNL     1      12.959  11.436  25.633  1.00  0.00     0.073 C 
HETATM   10  C7  UNL     1      12.648   9.014  25.610  1.00  0.00     0.073 C 
HETATM   11  N5  UNL     1      13.089  10.130  27.755  1.00  0.00    -0.034 N 
ENDROOT
BRANCH  11  12
HETATM   12  O2  UNL     1      14.241   9.477  27.845  1.00  0.00    -0.132 OA
BRANCH  12  13
HETATM   13  S1  UNL     1      15.645  10.265  28.098  1.00  0.00     0.248 S 
HETATM   14  O3  UNL     1      15.710  11.152  29.283  1.00  0.00    -0.197 OA
BRANCH  13  15
HETATM   15  N6  UNL     1      16.848   9.227  28.341  1.00  0.00    -0.322 N 
ATOM     16  H62 UNL     1      16.711   8.259  28.632  1.00  0.00     0.169 HD
ATOM     17  H61 UNL     1      17.750   9.669  28.165  1.00  0.00     0.169 HD
ENDBRANCH  13  15
BRANCH  13  18
HETATM   18  N7  UNL     1      16.173  11.087  26.641  1.00  0.00    -0.322 N 
ATOM     19  H72 UNL     1      15.709  10.992  25.738  1.00  0.00     0.169 HD
ATOM     20  H71 UNL     1      16.995  11.662  26.825  1.00  0.00     0.169 HD
ENDBRANCH  13  18
ENDBRANCH  12  13
ENDBRANCH  11  12
BRANCH   1  21
HETATM   21  N1  UNL     1      12.829  10.540  30.226  1.00  0.00    -0.158 N 
HETATM   22  C2  UNL     1      12.819  11.347  31.356  1.00  0.00     0.232 C 
HETATM   23  C1  UNL     1      13.315  10.776  32.685  1.00  0.00     0.118 C 
HETATM   24  O1  UNL     1      12.435  12.519  31.386  1.00  0.00    -0.273 OA
ATOM     25  H1  UNL     1      13.204   9.612  30.421  1.00  0.00     0.187 HD
ENDBRANCH   1  21
BRANCH   4  26
HETATM   26  N3  UNL     1       9.481  12.025  27.410  1.00  0.00    -0.032 N 
ATOM     27  H33 UNL     1       8.960  11.474  26.728  1.00  0.00     0.279 HD
ATOM     28  H32 UNL     1       9.036  11.673  28.258  1.00  0.00     0.279 HD
ATOM     29  H31 UNL     1       9.332  13.026  27.287  1.00  0.00     0.279 HD
ENDBRANCH   4  26
TORSDOF 6
ENDMDL
MODEL 4
REMARK VINA RESULT: -5.054060693      2.571      4.415
REMARK  6 active torsions:
REMARK  status: ('A' for Active; 'I' for Inactive)
REMARK       I    between atoms: C2_2  and  N1_4 
REMARK    1  A    between atoms: N1_4  and  C3_6 
REMARK    2  A    between atoms: C4_9  and  N3_10 
REMARK    3  A    between atoms: N5_20  and  O2_21 
REMARK    4  A    between atoms: O2_21  and  S1_22 
REMARK    5  A    between atoms: S1_22  and  N6_23 
REMARK    6  A    between atoms: S1_22  and  N7_26 
ROOT
HETATM    1  C3  UNL     1      17.722  11.271  27.518  1.00  0.00     0.709 C 
HETATM    2  N2  UNL     1      17.975  12.244  26.614  1.00  0.00    -0.171 N 
ATOM      3  H2  UNL     1      17.260  12.524  25.943  1.00  0.00     0.181 HD
HETATM    4  C4  UNL     1      19.257  12.872  26.610  1.00  0.00     0.499 C 
HETATM    5  N4  UNL     1      20.241  11.816  26.902  1.00  0.00     0.000 N 
ATOM      6  H41 UNL     1      21.200  12.057  26.653  1.00  0.00     0.284 HD
ATOM      7  H42 UNL     1      20.171  10.999  26.295  1.00  0.00     0.284 HD
HETATM    8  C5  UNL     1      20.040  11.522  28.342  1.00  0.00     0.239 C 
HETATM    9  C6  UNL     1      20.278  12.800  29.116  1.00  0.00     0.073 C 
HETATM   10  C7  UNL     1      21.116  10.537  28.748  1.00  0.00     0.073 C 
HETATM   11  N5  UNL     1      18.712  10.965  28.479  1.00  0.00    -0.034 N 
ENDROOT
BRANCH  11  12
HETATM   12  O2  UNL     1      18.465  10.167  29.511  1.00  0.00    -0.132 OA
BRANCH  12  13
HETATM   13  S1  UNL     1      17.572  10.669  30.778  1.00  0.00     0.248 S 
HETATM   14  O3  UNL     1      16.287  11.337  30.468  1.00  0.00    -0.197 OA
BRANCH  13  15
HETATM   15  N6  UNL     1      17.136   9.427  31.699  1.00  0.00    -0.322 N 
ATOM     16  H62 UNL     1      16.231   8.960  31.631  1.00  0.00     0.169 HD
ATOM     17  H61 UNL     1      17.881   9.177  32.349  1.00  0.00     0.169 HD
ENDBRANCH  13  15
BRANCH  13  18
HETATM   18  N7  UNL     1      18.544  11.614  31.893  1.00  0.00    -0.322 N 
ATOM     19  H72 UNL     1      18.511  12.632  31.949  1.00  0.00     0.169 HD
ATOM     20  H71 UNL     1      19.133  11.010  32.464  1.00  0.00     0.169 HD
ENDBRANCH  13  18
ENDBRANCH  12  13
ENDBRANCH  11  12
BRANCH   1  21
HETATM   21  N1  UNL     1      16.441  10.725  27.417  1.00  0.00    -0.158 N 
HETATM   22  C2  UNL     1      15.185  11.190  27.052  1.00  0.00     0.232 C 
HETATM   23  C1  UNL     1      14.001  10.223  27.053  1.00  0.00     0.118 C 
HETATM   24  O1  UNL     1      14.929  12.350  26.716  1.00  0.00    -0.273 OA
ATOM     25  H1  UNL     1      16.424   9.739  27.676  1.00  0.00     0.187 HD
ENDBRANCH   1  21
BRANCH   4  26
HETATM   26  N3  UNL     1      19.583  13.339  25.266  1.00  0.00    -0.032 N 
ATOM     27  H33 UNL     1      19.146  12.764  24.546  1.00  0.00     0.279 HD
ATOM     28  H32 UNL     1      19.127  14.225  25.048  1.00  0.00     0.279 HD
ATOM     29  H31 UNL     1      20.596  13.392  25.149  1.00  0.00     0.279 HD
ENDBRANCH   4  26
TORSDOF 6
ENDMDL
MODEL 5
REMARK VINA RESULT: -5.005640624      2.460      3.756
REMARK  6 active torsions:
REMARK  status: ('A' for Active; 'I' for Inactive)
REMARK       I    between atoms: C2_2  and  N1_4 
REMARK    1  A    between atoms: N1_4  and  C3_6 
REMARK    2  A    between atoms: C4_9  and  N3_10 
REMARK    3  A    between atoms: N5_20  and  O2_21 
REMARK    4  A    between atoms: O2_21  and  S1_22 
REMARK    5  A    between atoms: S1_22  and  N6_23 
REMARK    6  A    between atoms: S1_22  and  N7_26 
ROOT
HETATM    1  C3  UNL     1      17.275  12.591  27.763  1.00  0.00     0.709 C 
HETATM    2  N2  UNL     1      17.425  13.852  28.228  1.00  0.00    -0.171 N 
ATOM      3  H2  UNL     1      16.682  14.539  28.106  1.00  0.00     0.181 HD
HETATM    4  C4  UNL     1      18.638  14.208  28.891  1.00  0.00     0.499 C 
HETATM    5  N4  UNL     1      19.724  13.516  28.176  1.00  0.00     0.000 N 
ATOM      6  H41 UNL     1      20.653  13.896  28.358  1.00  0.00     0.284 HD
ATOM      7  H42 UNL     1      19.732  13.678  27.169  1.00  0.00     0.284 HD
HETATM    8  C5  UNL     1      19.561  12.093  28.563  1.00  0.00     0.239 C 
HETATM    9  C6  UNL     1      19.675  12.003  30.068  1.00  0.00     0.073 C 
HETATM   10  C7  UNL     1      20.733  11.336  27.971  1.00  0.00     0.073 C 
HETATM   11  N5  UNL     1      18.296  11.649  28.020  1.00  0.00    -0.034 N 
ENDROOT
BRANCH  11  12
HETATM   12  O2  UNL     1      18.136  10.355  27.768  1.00  0.00    -0.132 OA
BRANCH  12  13
HETATM   13  S1  UNL     1      17.593   9.328  28.911  1.00  0.00     0.248 S 
HETATM   14  O3  UNL     1      18.607   8.498  29.601  1.00  0.00    -0.197 OA
BRANCH  13  15
HETATM   15  N6  UNL     1      16.885  10.130  30.110  1.00  0.00    -0.322 N 
ATOM     16  H62 UNL     1      17.258  10.989  30.516  1.00  0.00     0.169 HD
ATOM     17  H61 UNL     1      16.026   9.664  30.402  1.00  0.00     0.169 HD
ENDBRANCH  13  15
BRANCH  13  18
HETATM   18  N7  UNL     1      16.265   8.357  28.300  1.00  0.00    -0.322 N 
ATOM     19  H72 UNL     1      15.522   7.980  28.889  1.00  0.00     0.169 HD
ATOM     20  H71 UNL     1      16.343   8.229  27.291  1.00  0.00     0.169 HD
ENDBRANCH  13  18
ENDBRANCH  12  13
ENDBRANCH  11  12
BRANCH   1  21
HETATM   21  N1  UNL     1      16.054  12.366  27.124  1.00  0.00    -0.158 N 
HETATM   22  C2  UNL     1      14.886  11.676  27.419  1.00  0.00     0.232 C 
HETATM   23  C1  UNL     1      13.730  11.702  26.420  1.00  0.00     0.118 C 
HETATM   24  O1  UNL     1      14.690  11.024  28.449  1.00  0.00    -0.273 OA
ATOM     25  H1  UNL     1      16.009  12.822  26.213  1.00  0.00     0.187 HD
ENDBRANCH   1  21
BRANCH   4  26
HETATM   26  N3  UNL     1      18.909  15.632  28.713  1.00  0.00    -0.032 N 
ATOM     27  H33 UNL     1      19.506  16.002  29.452  1.00  0.00     0.279 HD
ATOM     28  H32 UNL     1      19.526  15.807  27.920  1.00  0.00     0.279 HD
ATOM     29  H31 UNL     1      18.032  16.148  28.636  1.00  0.00     0.279 HD
ENDBRANCH   4  26
TORSDOF 6
ENDMDL
