MODEL 1
REMARK VINA RESULT: -6.386058946      0.000      0.000
REMARK  2 active torsions:
REMARK  status: ('A' for Active; 'I' for Inactive)
REMARK    1  A    between atoms: N3_13  and  O4_15 
REMARK    2  A    between atoms: O4_15  and  C4_16 
ROOT
HETATM    1  N1  UNL     1      12.783   9.052  24.916  1.00  0.00    -0.387 N 
ATOM      2  H11 UNL     1      12.975  10.016  24.645  1.00  0.00     0.157 HD
ATOM      3  H12 UNL     1      12.178   8.374  24.452  1.00  0.00     0.157 HD
HETATM    4  C1  UNL     1      13.378   8.617  25.989  1.00  0.00     0.116 C 
HETATM    5  C2  UNL     1      13.097   7.203  26.387  1.00  0.00     0.268 C 
HETATM    6  O1  UNL     1      14.212   6.403  26.271  1.00  0.00    -0.252 OA
HETATM    7  S1  UNL     1      15.187   6.430  27.622  1.00  0.00     0.376 S 
HETATM    8  O2  UNL     1      16.428   5.628  27.299  1.00  0.00    -0.175 OA
HETATM    9  O3  UNL     1      14.546   5.779  28.805  1.00  0.00    -0.175 OA
HETATM   10  N2  UNL     1      15.693   8.025  28.028  1.00  0.00    -0.092 N 
ATOM     11  H2  UNL     1      16.445   8.061  28.717  1.00  0.00     0.199 HD
HETATM   12  C3  UNL     1      15.255   9.306  27.576  1.00  0.00     0.714 C 
HETATM   13  N3  UNL     1      15.874  10.346  28.083  1.00  0.00    -0.093 N 
ATOM     14  H3  UNL     1      16.626  10.232  28.763  1.00  0.00     0.213 HD
HETATM   15  N6  UNL     1      14.222   9.562  26.637  1.00  0.00    -0.176 N 
ATOM     16  H6  UNL     1      14.065  10.542  26.397  1.00  0.00     0.185 HD
ENDROOT
BRANCH  13  17
HETATM   17  O4  UNL     1      15.476  11.585  27.671  1.00  0.00    -0.232 OA
BRANCH  17  18
HETATM   18  C4  UNL     1      16.347  12.687  27.809  1.00  0.00     0.315 C 
HETATM   19  C5  UNL     1      17.758  12.152  27.762  1.00  0.00     0.082 C 
HETATM   20  C6  UNL     1      18.751  13.214  27.350  1.00  0.00     0.137 C 
HETATM   21  N4  UNL     1      18.179  13.877  26.169  1.00  0.00    -0.120 NA
HETATM   22  N5  UNL     1      17.013  14.515  26.627  1.00  0.00     0.014 NA
HETATM   23  O5  UNL     1      16.075  13.558  26.762  1.00  0.00    -0.235 OA
ENDBRANCH  17  18
ENDBRANCH  13  17
TORSDOF 2
ENDMDL
MODEL 2
REMARK VINA RESULT: -6.351279200      3.470      6.326
REMARK  2 active torsions:
REMARK  status: ('A' for Active; 'I' for Inactive)
REMARK    1  A    between atoms: N3_13  and  O4_15 
REMARK    2  A    between atoms: O4_15  and  C4_16 
ROOT
HETATM    1  N1  UNL     1      19.027  10.895  24.792  1.00  0.00    -0.387 N 
ATOM      2  H11 UNL     1      18.205  10.438  24.397  1.00  0.00     0.157 HD
ATOM      3  H12 UNL     1      19.943  11.024  24.363  1.00  0.00     0.157 HD
HETATM    4  C1  UNL     1      18.906  11.379  25.994  1.00  0.00     0.116 C 
HETATM    5  C2  UNL     1      20.112  12.050  26.572  1.00  0.00     0.268 C 
HETATM    6  O1  UNL     1      19.917  13.403  26.745  1.00  0.00    -0.252 OA
HETATM    7  S1  UNL     1      19.195  13.784  28.198  1.00  0.00     0.376 S 
HETATM    8  O2  UNL     1      18.918  15.272  28.186  1.00  0.00    -0.175 OA
HETATM    9  O3  UNL     1      20.086  13.518  29.368  1.00  0.00    -0.175 OA
HETATM   10  N2  UNL     1      17.687  12.979  28.407  1.00  0.00    -0.092 N 
ATOM     11  H2  UNL     1      17.127  13.339  29.180  1.00  0.00     0.199 HD
HETATM   12  C3  UNL     1      17.077  11.901  27.696  1.00  0.00     0.714 C 
HETATM   13  N3  UNL     1      15.890  11.529  28.110  1.00  0.00    -0.093 N 
ATOM     14  H3  UNL     1      15.437  11.992  28.898  1.00  0.00     0.213 HD
HETATM   15  N6  UNL     1      17.628  11.200  26.592  1.00  0.00    -0.176 N 
ATOM     16  H6  UNL     1      17.036  10.480  26.177  1.00  0.00     0.185 HD
ENDROOT
BRANCH  13  17
HETATM   17  O4  UNL     1      15.281  10.500  27.451  1.00  0.00    -0.232 OA
BRANCH  17  18
HETATM   18  C4  UNL     1      14.170  10.755  26.620  1.00  0.00     0.315 C 
HETATM   19  C5  UNL     1      12.993  10.012  27.206  1.00  0.00     0.082 C 
HETATM   20  C6  UNL     1      11.674  10.611  26.771  1.00  0.00     0.137 C 
HETATM   21  N4  UNL     1      11.797  12.062  26.968  1.00  0.00    -0.120 NA
HETATM   22  N5  UNL     1      12.790  12.480  26.067  1.00  0.00     0.014 NA
HETATM   23  O5  UNL     1      13.975  12.130  26.605  1.00  0.00    -0.235 OA
ENDBRANCH  17  18
ENDBRANCH  13  17
TORSDOF 2
ENDMDL
MODEL 3
REMARK VINA RESULT: -6.340182115      2.070      2.303
REMARK  2 active torsions:
REMARK  status: ('A' for Active; 'I' for Inactive)
REMARK    1  A    between atoms: N3_13  and  O4_15 
REMARK    2  A    between atoms: O4_15  and  C4_16 
ROOT
HETATM    1  N1  UNL     1      11.713  11.998  26.241  1.00  0.00    -0.387 N 
ATOM      2  H11 UNL     1      12.082  12.863  25.846  1.00  0.00     0.157 HD
ATOM      3  H12 UNL     1      10.752  11.658  26.227  1.00  0.00     0.157 HD
HETATM    4  C1  UNL     1      12.565  11.221  26.844  1.00  0.00     0.116 C 
HETATM    5  C2  UNL     1      12.023   9.952  27.424  1.00  0.00     0.268 C 
HETATM    6  O1  UNL     1      12.508   8.840  26.774  1.00  0.00    -0.252 OA
HETATM    7  S1  UNL     1      13.971   8.311  27.373  1.00  0.00     0.376 S 
HETATM    8  O2  UNL     1      14.442   7.184  26.480  1.00  0.00    -0.175 OA
HETATM    9  O3  UNL     1      13.856   7.752  28.754  1.00  0.00    -0.175 OA
HETATM   10  N2  UNL     1      15.175   9.542  27.331  1.00  0.00    -0.092 N 
ATOM     11  H2  UNL     1      16.123   9.203  27.497  1.00  0.00     0.199 HD
HETATM   12  C3  UNL     1      15.089  10.949  27.106  1.00  0.00     0.714 C 
HETATM   13  N3  UNL     1      16.221  11.611  27.125  1.00  0.00    -0.093 N 
ATOM     14  H3  UNL     1      17.108  11.136  27.292  1.00  0.00     0.213 HD
HETATM   15  N6  UNL     1      13.906  11.695  26.865  1.00  0.00    -0.176 N 
ATOM     16  H6  UNL     1      14.032  12.691  26.684  1.00  0.00     0.185 HD
ENDROOT
BRANCH  13  17
HETATM   17  O4  UNL     1      16.172  12.959  26.914  1.00  0.00    -0.232 OA
BRANCH  17  18
HETATM   18  C4  UNL     1      17.223  13.783  27.370  1.00  0.00     0.315 C 
HETATM   19  C5  UNL     1      17.661  13.248  28.713  1.00  0.00     0.082 C 
HETATM   20  C6  UNL     1      19.077  13.658  29.049  1.00  0.00     0.137 C 
HETATM   21  N4  UNL     1      19.881  13.380  27.851  1.00  0.00    -0.120 NA
HETATM   22  N5  UNL     1      19.393  14.249  26.861  1.00  0.00     0.014 NA
HETATM   23  O5  UNL     1      18.234  13.722  26.420  1.00  0.00    -0.235 OA
ENDBRANCH  17  18
ENDBRANCH  13  17
TORSDOF 2
ENDMDL
MODEL 4
REMARK VINA RESULT: -6.269264878      2.112      2.432
REMARK  2 active torsions:
REMARK  status: ('A' for Active; 'I' for Inactive)
REMARK    1  A    between atoms: N3_13  and  O4_15 
REMARK    2  A    between atoms: O4_15  and  C4_16 
ROOT
HETATM    1  N1  UNL     1      12.030  12.383  26.653  1.00  0.00    -0.387 N 
ATOM      2  H11 UNL     1      12.548  13.208  26.348  1.00  0.00     0.157 HD
ATOM      3  H12 UNL     1      11.020  12.247  26.682  1.00  0.00     0.157 HD
HETATM    4  C1  UNL     1      12.736  11.368  27.060  1.00  0.00     0.116 C 
HETATM    5  C2  UNL     1      11.977  10.158  27.507  1.00  0.00     0.268 C 
HETATM    6  O1  UNL     1      12.175   9.086  26.666  1.00  0.00    -0.252 OA
HETATM    7  S1  UNL     1      13.529   8.191  27.047  1.00  0.00     0.376 S 
HETATM    8  O2  UNL     1      13.695   7.144  25.966  1.00  0.00    -0.175 OA
HETATM    9  O3  UNL     1      13.386   7.459  28.342  1.00  0.00    -0.175 OA
HETATM   10  N2  UNL     1      14.960   9.149  27.063  1.00  0.00    -0.092 N 
ATOM     11  H2  UNL     1      15.824   8.607  27.091  1.00  0.00     0.199 HD
HETATM   12  C3  UNL     1      15.158  10.563  27.045  1.00  0.00     0.714 C 
HETATM   13  N3  UNL     1      16.403  10.976  27.049  1.00  0.00    -0.093 N 
ATOM     14  H3  UNL     1      17.178  10.314  27.065  1.00  0.00     0.213 HD
HETATM   15  N6  UNL     1      14.145  11.557  27.021  1.00  0.00    -0.176 N 
ATOM     16  H6  UNL     1      14.467  12.524  26.969  1.00  0.00     0.185 HD
ENDROOT
BRANCH  13  17
HETATM   17  O4  UNL     1      16.626  12.323  27.032  1.00  0.00    -0.232 OA
BRANCH  17  18
HETATM   18  C4  UNL     1      17.912  12.829  27.311  1.00  0.00     0.315 C 
HETATM   19  C5  UNL     1      18.853  11.649  27.374  1.00  0.00     0.082 C 
HETATM   20  C6  UNL     1      20.287  12.055  27.117  1.00  0.00     0.137 C 
HETATM   21  N4  UNL     1      20.263  12.911  25.922  1.00  0.00    -0.120 NA
HETATM   22  N5  UNL     1      19.539  14.057  26.296  1.00  0.00     0.014 NA
HETATM   23  O5  UNL     1      18.237  13.712  26.289  1.00  0.00    -0.235 OA
ENDBRANCH  17  18
ENDBRANCH  13  17
TORSDOF 2
ENDMDL
MODEL 5
REMARK VINA RESULT: -6.263519989      2.925      3.349
REMARK  2 active torsions:
REMARK  status: ('A' for Active; 'I' for Inactive)
REMARK    1  A    between atoms: N3_13  and  O4_15 
REMARK    2  A    between atoms: O4_15  and  C4_16 
ROOT
HETATM    1  N1  UNL     1      13.134  10.313  25.048  1.00  0.00    -0.387 N 
ATOM      2  H11 UNL     1      14.119  10.224  24.800  1.00  0.00     0.157 HD
ATOM      3  H12 UNL     1      12.318  10.171  24.452  1.00  0.00     0.157 HD
HETATM    4  C1  UNL     1      12.868  10.651  26.277  1.00  0.00     0.116 C 
HETATM    5  C2  UNL     1      11.422  10.781  26.640  1.00  0.00     0.268 C 
HETATM    6  O1  UNL     1      11.028   9.817  27.541  1.00  0.00    -0.252 OA
HETATM    7  S1  UNL     1      11.309  10.243  29.127  1.00  0.00     0.376 S 
HETATM    8  O2  UNL     1      10.962   9.045  29.984  1.00  0.00    -0.175 OA
HETATM    9  O3  UNL     1      10.438  11.369  29.582  1.00  0.00    -0.175 OA
HETATM   10  N2  UNL     1      12.964  10.623  29.416  1.00  0.00    -0.092 N 
ATOM     11  H2  UNL     1      13.210  10.690  30.404  1.00  0.00     0.199 HD
HETATM   12  C3  UNL     1      14.055  10.861  28.527  1.00  0.00     0.714 C 
HETATM   13  N3  UNL     1      15.215  11.114  29.083  1.00  0.00    -0.093 N 
ATOM     14  H3  UNL     1      15.320  11.137  30.097  1.00  0.00     0.213 HD
HETATM   15  N6  UNL     1      14.005  10.849  27.108  1.00  0.00    -0.176 N 
ATOM     16  H6  UNL     1      14.892  11.001  26.627  1.00  0.00     0.185 HD
ENDROOT
BRANCH  13  17
HETATM   17  O4  UNL     1      16.278  11.347  28.258  1.00  0.00    -0.232 OA
BRANCH  17  18
HETATM   18  C4  UNL     1      16.793  12.653  28.122  1.00  0.00     0.315 C 
HETATM   19  C5  UNL     1      18.296  12.537  28.047  1.00  0.00     0.082 C 
HETATM   20  C6  UNL     1      18.922  13.734  27.367  1.00  0.00     0.137 C 
HETATM   21  N4  UNL     1      18.143  13.966  26.143  1.00  0.00    -0.120 NA
HETATM   22  N5  UNL     1      16.857  14.328  26.580  1.00  0.00     0.014 NA
HETATM   23  O5  UNL     1      16.244  13.191  26.964  1.00  0.00    -0.235 OA
ENDBRANCH  17  18
ENDBRANCH  13  17
TORSDOF 2
ENDMDL
