MODEL 1
REMARK VINA RESULT: -8.376619990      0.000      0.000
REMARK  18 active torsions:
REMARK  status: ('A' for Active; 'I' for Inactive)
REMARK    1  A    between atoms: C2_2  and  O1_5 
REMARK    2  A    between atoms: O1_5  and  C5_6 
REMARK       I    between atoms: C5_6  and  N1_8 
REMARK    3  A    between atoms: N1_8  and  C6_10 
REMARK    4  A    between atoms: C6_10  and  C7_11 
REMARK    5  A    between atoms: C6_10  and  C23_36 
REMARK       I    between atoms: C7_11  and  N2_13 
REMARK    6  A    between atoms: N2_13  and  C8_15 
REMARK    7  A    between atoms: C8_15  and  C9_16 
REMARK    8  A    between atoms: C9_16  and  O5_18 
REMARK    9  A    between atoms: O5_18  and  C10_19 
REMARK   10  A    between atoms: C10_19  and  C11_20 
REMARK   11  A    between atoms: C11_20  and  C12_21 
REMARK   12  A    between atoms: C12_21  and  C13_22 
REMARK   13  A    between atoms: C13_22  and  N3_23 
REMARK       I    between atoms: N4_26  and  C16_27 
REMARK   14  A    between atoms: C16_27  and  O7_29 
REMARK   15  A    between atoms: O7_29  and  C17_30 
REMARK   16  A    between atoms: C23_36  and  C26_39 
REMARK   17  A    between atoms: C26_39  and  N5_40 
REMARK       I    between atoms: N5_40  and  C27_41 
REMARK   18  A    between atoms: C27_41  and  C28_43 
ROOT
HETATM    1  C7  UNL     1      18.882  35.197  18.133  1.00  0.00     0.245 C 
HETATM    2  O3  UNL     1      18.342  35.058  19.298  1.00  0.00    -0.271 OA
HETATM    3  N2  UNL     1      18.424  34.338  17.173  1.00  0.00    -0.330 N 
ATOM      4  H2  UNL     1      18.791  34.570  16.251  1.00  0.00     0.168 HD
ENDROOT
BRANCH   1   5
HETATM    5  C6  UNL     1      19.915  36.245  18.008  1.00  0.00     0.193 C 
BRANCH   5   6
HETATM    6  N1  UNL     1      19.427  37.438  17.265  1.00  0.00    -0.322 N 
HETATM    7  C5  UNL     1      19.434  38.663  18.096  1.00  0.00     0.362 C 
HETATM    8  O2  UNL     1      19.593  38.636  19.252  1.00  0.00    -0.238 OA
ATOM      9  H1  UNL     1      19.123  37.415  16.292  1.00  0.00     0.165 HD
BRANCH   7  10
HETATM   10  O1  UNL     1      19.258  39.923  17.459  1.00  0.00    -0.294 OA
BRANCH  10  11
HETATM   11  C2  UNL     1      20.464  40.446  16.832  1.00  0.00     0.061 C 
HETATM   12  C1  UNL     1      20.817  39.637  15.613  1.00  0.00     0.046 C 
HETATM   13  C3  UNL     1      20.304  41.857  16.371  1.00  0.00     0.046 C 
HETATM   14  C4  UNL     1      21.657  40.370  17.746  1.00  0.00     0.046 C 
ENDBRANCH  10  11
ENDBRANCH   7  10
ENDBRANCH   5   6
BRANCH   5  15
HETATM   15  C23 UNL     1      21.188  35.799  17.343  1.00  0.00     0.026 C 
HETATM   16  C24 UNL     1      22.328  36.768  17.451  1.00  0.00     0.024 C 
HETATM   17  C25 UNL     1      21.797  34.772  18.482  1.00  0.00     0.024 C 
BRANCH  15  18
HETATM   18  C26 UNL     1      21.176  34.933  16.213  1.00  0.00     0.170 C 
BRANCH  18  19
HETATM   19  N5  UNL     1      21.251  33.633  15.956  1.00  0.00    -0.386 NA
HETATM   20  C27 UNL     1      21.316  32.244  15.709  1.00  0.00     0.298 C 
HETATM   21  O8  UNL     1      20.683  31.456  16.482  1.00  0.00    -0.256 OA
BRANCH  20  22
HETATM   22  C28 UNL     1      22.078  31.708  14.548  1.00  0.00     0.044 C 
HETATM   23  C29 UNL     1      21.271  32.187  13.312  1.00  0.00     0.026 C 
HETATM   24  C30 UNL     1      22.315  30.273  14.484  1.00  0.00     0.026 C 
HETATM   25  C31 UNL     1      23.391  32.508  14.487  1.00  0.00     0.026 C 
ENDBRANCH  20  22
ENDBRANCH  18  19
ENDBRANCH  15  18
ENDBRANCH   5  15
ENDBRANCH   1   5
BRANCH   3  26
HETATM   26  C8  UNL     1      17.580  33.224  17.132  1.00  0.00     0.173 C 
BRANCH  26  27
HETATM   27  C9  UNL     1      16.333  33.475  16.283  1.00  0.00     0.298 C 
HETATM   28  O4  UNL     1      15.645  34.414  16.250  1.00  0.00    -0.259 OA
BRANCH  27  29
HETATM   29  O5  UNL     1      16.017  32.326  15.404  1.00  0.00    -0.317 OA
BRANCH  29  30
HETATM   30  C10 UNL     1      17.171  31.405  15.554  1.00  0.00     0.179 C 
BRANCH  30  31
HETATM   31  C11 UNL     1      17.649  31.338  14.111  1.00  0.00     0.028 C 
BRANCH  31  32
HETATM   32  C12 UNL     1      18.468  30.005  14.004  1.00  0.00     0.032 C 
BRANCH  32  33
HETATM   33  C13 UNL     1      17.918  29.417  12.726  1.00  0.00     0.272 C 
BRANCH  33  34
HETATM   34  N3  UNL     1      18.424  28.054  12.591  1.00  0.00     0.091 N 
HETATM   35  C14 UNL     1      19.815  28.087  12.981  1.00  0.00     0.292 C 
HETATM   36  C15 UNL     1      20.764  28.434  11.789  1.00  0.00     0.158 C 
HETATM   37  N4  UNL     1      20.350  27.283  10.954  1.00  0.00    -0.325 N 
HETATM   38  C16 UNL     1      21.095  26.143  11.001  1.00  0.00     0.363 C 
HETATM   39  C21 UNL     1      19.125  27.529  10.260  1.00  0.00     0.158 C 
HETATM   40  O6  UNL     1      20.597  25.074  10.516  1.00  0.00    -0.238 OA
HETATM   41  C22 UNL     1      18.057  27.459  11.373  1.00  0.00     0.292 C 
BRANCH  38  42
HETATM   42  O7  UNL     1      22.354  26.030  11.516  1.00  0.00    -0.294 OA
BRANCH  42  43
HETATM   43  C17 UNL     1      23.525  26.093  10.722  1.00  0.00     0.061 C 
HETATM   44  C18 UNL     1      23.662  27.320   9.895  1.00  0.00     0.046 C 
HETATM   45  C19 UNL     1      23.732  24.801   9.978  1.00  0.00     0.046 C 
HETATM   46  C20 UNL     1      24.668  26.194  11.794  1.00  0.00     0.046 C 
ENDBRANCH  42  43
ENDBRANCH  38  42
ENDBRANCH  33  34
ENDBRANCH  32  33
ENDBRANCH  31  32
ENDBRANCH  30  31
ENDBRANCH  29  30
ENDBRANCH  27  29
ENDBRANCH  26  27
ENDBRANCH   3  26
TORSDOF 18
ENDMDL
MODEL 2
REMARK VINA RESULT: -8.375540667      3.063     11.521
REMARK  18 active torsions:
REMARK  status: ('A' for Active; 'I' for Inactive)
REMARK    1  A    between atoms: C2_2  and  O1_5 
REMARK    2  A    between atoms: O1_5  and  C5_6 
REMARK       I    between atoms: C5_6  and  N1_8 
REMARK    3  A    between atoms: N1_8  and  C6_10 
REMARK    4  A    between atoms: C6_10  and  C7_11 
REMARK    5  A    between atoms: C6_10  and  C23_36 
REMARK       I    between atoms: C7_11  and  N2_13 
REMARK    6  A    between atoms: N2_13  and  C8_15 
REMARK    7  A    between atoms: C8_15  and  C9_16 
REMARK    8  A    between atoms: C9_16  and  O5_18 
REMARK    9  A    between atoms: O5_18  and  C10_19 
REMARK   10  A    between atoms: C10_19  and  C11_20 
REMARK   11  A    between atoms: C11_20  and  C12_21 
REMARK   12  A    between atoms: C12_21  and  C13_22 
REMARK   13  A    between atoms: C13_22  and  N3_23 
REMARK       I    between atoms: N4_26  and  C16_27 
REMARK   14  A    between atoms: C16_27  and  O7_29 
REMARK   15  A    between atoms: O7_29  and  C17_30 
REMARK   16  A    between atoms: C23_36  and  C26_39 
REMARK   17  A    between atoms: C26_39  and  N5_40 
REMARK       I    between atoms: N5_40  and  C27_41 
REMARK   18  A    between atoms: C27_41  and  C28_43 
ROOT
HETATM    1  C7  UNL     1      18.548  26.174  11.344  1.00  0.00     0.245 C 
HETATM    2  O3  UNL     1      17.959  25.349  12.145  1.00  0.00    -0.271 OA
HETATM    3  N2  UNL     1      18.466  27.491  11.702  1.00  0.00    -0.330 N 
ATOM      4  H2  UNL     1      19.046  28.082  11.107  1.00  0.00     0.168 HD
ENDROOT
BRANCH   1   5
HETATM    5  C6  UNL     1      19.209  25.584  10.162  1.00  0.00     0.193 C 
BRANCH   5   6
HETATM    6  N1  UNL     1      20.533  26.202   9.883  1.00  0.00    -0.322 N 
HETATM    7  C5  UNL     1      21.659  25.329  10.285  1.00  0.00     0.362 C 
HETATM    8  O2  UNL     1      21.510  24.375  10.939  1.00  0.00    -0.238 OA
ATOM      9  H1  UNL     1      20.652  27.124   9.463  1.00  0.00     0.165 HD
BRANCH   7  10
HETATM   10  O1  UNL     1      22.970  25.656   9.839  1.00  0.00    -0.294 OA
BRANCH  10  11
HETATM   11  C2  UNL     1      23.627  26.688  10.630  1.00  0.00     0.061 C 
HETATM   12  C1  UNL     1      25.073  26.337  10.856  1.00  0.00     0.046 C 
HETATM   13  C3  UNL     1      23.616  28.020   9.955  1.00  0.00     0.046 C 
HETATM   14  C4  UNL     1      23.012  26.834  11.995  1.00  0.00     0.046 C 
ENDBRANCH  10  11
ENDBRANCH   7  10
ENDBRANCH   5   6
BRANCH   5  15
HETATM   15  C23 UNL     1      18.409  25.659   8.890  1.00  0.00     0.026 C 
HETATM   16  C24 UNL     1      16.928  25.510   9.068  1.00  0.00     0.024 C 
HETATM   17  C25 UNL     1      18.338  27.292   8.656  1.00  0.00     0.024 C 
BRANCH  15  18
HETATM   18  C26 UNL     1      18.958  25.256   7.639  1.00  0.00     0.170 C 
BRANCH  18  19
HETATM   19  N5  UNL     1      20.016  24.596   7.184  1.00  0.00    -0.386 NA
HETATM   20  C27 UNL     1      21.145  23.881   6.727  1.00  0.00     0.298 C 
HETATM   21  O8  UNL     1      21.679  23.024   7.501  1.00  0.00    -0.256 OA
BRANCH  20  22
HETATM   22  C28 UNL     1      21.683  24.096   5.356  1.00  0.00     0.044 C 
HETATM   23  C29 UNL     1      23.189  24.393   5.581  1.00  0.00     0.026 C 
HETATM   24  C30 UNL     1      21.071  25.129   4.531  1.00  0.00     0.026 C 
HETATM   25  C31 UNL     1      21.658  22.722   4.662  1.00  0.00     0.026 C 
ENDBRANCH  20  22
ENDBRANCH  18  19
ENDBRANCH  15  18
ENDBRANCH   5  15
ENDBRANCH   1   5
BRANCH   3  26
HETATM   26  C8  UNL     1      17.791  28.235  12.674  1.00  0.00     0.173 C 
BRANCH  26  27
HETATM   27  C9  UNL     1      18.026  29.738  12.517  1.00  0.00     0.298 C 
HETATM   28  O4  UNL     1      17.397  30.626  12.932  1.00  0.00    -0.259 OA
BRANCH  27  29
HETATM   29  O5  UNL     1      19.238  30.032  11.718  1.00  0.00    -0.317 OA
BRANCH  29  30
HETATM   30  C10 UNL     1      20.009  30.998  12.540  1.00  0.00     0.179 C 
BRANCH  30  31
HETATM   31  C11 UNL     1      21.296  30.211  12.740  1.00  0.00     0.028 C 
BRANCH  31  32
HETATM   32  C12 UNL     1      21.799  30.591  14.176  1.00  0.00     0.032 C 
BRANCH  32  33
HETATM   33  C13 UNL     1      20.596  30.236  15.018  1.00  0.00     0.272 C 
BRANCH  33  34
HETATM   34  N3  UNL     1      20.517  31.180  16.129  1.00  0.00     0.091 N 
HETATM   35  C14 UNL     1      19.145  31.173  16.583  1.00  0.00     0.292 C 
HETATM   36  C15 UNL     1      18.251  32.192  15.805  1.00  0.00     0.158 C 
HETATM   37  N4  UNL     1      19.054  33.379  16.179  1.00  0.00    -0.325 N 
HETATM   38  C16 UNL     1      18.666  34.114  17.259  1.00  0.00     0.363 C 
HETATM   39  C21 UNL     1      20.215  33.529  15.360  1.00  0.00     0.158 C 
HETATM   40  O6  UNL     1      19.493  34.953  17.750  1.00  0.00    -0.238 OA
HETATM   41  C22 UNL     1      21.151  32.401  15.848  1.00  0.00     0.292 C 
BRANCH  38  42
HETATM   42  O7  UNL     1      17.450  34.051  17.876  1.00  0.00    -0.294 OA
BRANCH  42  43
HETATM   43  C17 UNL     1      16.365  34.896  17.540  1.00  0.00     0.061 C 
HETATM   44  C18 UNL     1      16.379  35.419  16.150  1.00  0.00     0.046 C 
HETATM   45  C19 UNL     1      16.153  35.937  18.608  1.00  0.00     0.046 C 
HETATM   46  C20 UNL     1      15.134  33.923  17.598  1.00  0.00     0.046 C 
ENDBRANCH  42  43
ENDBRANCH  38  42
ENDBRANCH  33  34
ENDBRANCH  32  33
ENDBRANCH  31  32
ENDBRANCH  30  31
ENDBRANCH  29  30
ENDBRANCH  27  29
ENDBRANCH  26  27
ENDBRANCH   3  26
TORSDOF 18
ENDMDL
MODEL 3
REMARK VINA RESULT: -8.165264276      2.457      9.682
REMARK  18 active torsions:
REMARK  status: ('A' for Active; 'I' for Inactive)
REMARK    1  A    between atoms: C2_2  and  O1_5 
REMARK    2  A    between atoms: O1_5  and  C5_6 
REMARK       I    between atoms: C5_6  and  N1_8 
REMARK    3  A    between atoms: N1_8  and  C6_10 
REMARK    4  A    between atoms: C6_10  and  C7_11 
REMARK    5  A    between atoms: C6_10  and  C23_36 
REMARK       I    between atoms: C7_11  and  N2_13 
REMARK    6  A    between atoms: N2_13  and  C8_15 
REMARK    7  A    between atoms: C8_15  and  C9_16 
REMARK    8  A    between atoms: C9_16  and  O5_18 
REMARK    9  A    between atoms: O5_18  and  C10_19 
REMARK   10  A    between atoms: C10_19  and  C11_20 
REMARK   11  A    between atoms: C11_20  and  C12_21 
REMARK   12  A    between atoms: C12_21  and  C13_22 
REMARK   13  A    between atoms: C13_22  and  N3_23 
REMARK       I    between atoms: N4_26  and  C16_27 
REMARK   14  A    between atoms: C16_27  and  O7_29 
REMARK   15  A    between atoms: O7_29  and  C17_30 
REMARK   16  A    between atoms: C23_36  and  C26_39 
REMARK   17  A    between atoms: C26_39  and  N5_40 
REMARK       I    between atoms: N5_40  and  C27_41 
REMARK   18  A    between atoms: C27_41  and  C28_43 
ROOT
HETATM    1  C7  UNL     1      18.865  30.662  13.127  1.00  0.00     0.245 C 
HETATM    2  O3  UNL     1      19.333  31.574  12.342  1.00  0.00    -0.271 OA
HETATM    3  N2  UNL     1      17.891  31.081  13.990  1.00  0.00    -0.330 N 
ATOM      4  H2  UNL     1      17.474  30.302  14.498  1.00  0.00     0.168 HD
ENDROOT
BRANCH   1   5
HETATM    5  C6  UNL     1      19.450  29.313  12.991  1.00  0.00     0.193 C 
BRANCH   5   6
HETATM    6  N1  UNL     1      20.841  29.347  12.463  1.00  0.00    -0.322 N 
HETATM    7  C5  UNL     1      21.790  28.609  13.326  1.00  0.00     0.362 C 
HETATM    8  O2  UNL     1      21.509  28.241  14.397  1.00  0.00    -0.238 OA
ATOM      9  H1  UNL     1      21.110  29.825  11.603  1.00  0.00     0.165 HD
BRANCH   7  10
HETATM   10  O1  UNL     1      23.090  28.320  12.823  1.00  0.00    -0.294 OA
BRANCH  10  11
HETATM   11  C2  UNL     1      23.116  27.281  11.802  1.00  0.00     0.061 C 
HETATM   12  C1  UNL     1      24.416  26.525  11.854  1.00  0.00     0.046 C 
HETATM   13  C3  UNL     1      22.032  26.272  11.985  1.00  0.00     0.046 C 
HETATM   14  C4  UNL     1      23.016  27.849  10.412  1.00  0.00     0.046 C 
ENDBRANCH  10  11
ENDBRANCH   7  10
ENDBRANCH   5   6
BRANCH   5  15
HETATM   15  C23 UNL     1      18.668  28.372  12.116  1.00  0.00     0.026 C 
HETATM   16  C24 UNL     1      17.917  27.304  12.854  1.00  0.00     0.024 C 
HETATM   17  C25 UNL     1      17.321  29.274  11.807  1.00  0.00     0.024 C 
BRANCH  15  18
HETATM   18  C26 UNL     1      19.077  28.077  10.784  1.00  0.00     0.170 C 
BRANCH  18  19
HETATM   19  N5  UNL     1      19.105  27.037   9.959  1.00  0.00    -0.386 NA
HETATM   20  C27 UNL     1      19.160  25.922   9.095  1.00  0.00     0.298 C 
HETATM   21  O8  UNL     1      20.050  25.036   9.299  1.00  0.00    -0.256 OA
BRANCH  20  22
HETATM   22  C28 UNL     1      18.178  25.762   7.989  1.00  0.00     0.044 C 
HETATM   23  C29 UNL     1      18.637  24.474   7.256  1.00  0.00     0.026 C 
HETATM   24  C30 UNL     1      18.019  26.861   7.046  1.00  0.00     0.026 C 
HETATM   25  C31 UNL     1      16.842  25.378   8.649  1.00  0.00     0.026 C 
ENDBRANCH  20  22
ENDBRANCH  18  19
ENDBRANCH  15  18
ENDBRANCH   5  15
ENDBRANCH   1   5
BRANCH   3  26
HETATM   26  C8  UNL     1      17.320  32.304  14.354  1.00  0.00     0.173 C 
BRANCH  26  27
HETATM   27  C9  UNL     1      16.449  32.184  15.606  1.00  0.00     0.298 C 
HETATM   28  O4  UNL     1      16.316  31.276  16.323  1.00  0.00    -0.259 OA
BRANCH  27  29
HETATM   29  O5  UNL     1      15.701  33.431  15.885  1.00  0.00    -0.317 OA
BRANCH  29  30
HETATM   30  C10 UNL     1      15.404  33.377  17.339  1.00  0.00     0.179 C 
BRANCH  30  31
HETATM   31  C11 UNL     1      14.782  34.751  17.537  1.00  0.00     0.028 C 
BRANCH  31  32
HETATM   32  C12 UNL     1      15.835  35.771  16.981  1.00  0.00     0.032 C 
BRANCH  32  33
HETATM   33  C13 UNL     1      16.800  35.865  18.139  1.00  0.00     0.272 C 
BRANCH  33  34
HETATM   34  N3  UNL     1      18.110  36.248  17.617  1.00  0.00     0.091 N 
HETATM   35  C14 UNL     1      18.437  35.297  16.579  1.00  0.00     0.292 C 
HETATM   36  C15 UNL     1      19.159  34.028  17.135  1.00  0.00     0.158 C 
HETATM   37  N4  UNL     1      20.298  34.772  17.719  1.00  0.00    -0.325 N 
HETATM   38  C16 UNL     1      21.439  34.897  16.985  1.00  0.00     0.363 C 
HETATM   39  C21 UNL     1      19.979  35.343  18.989  1.00  0.00     0.158 C 
HETATM   40  O6  UNL     1      22.304  35.759  17.352  1.00  0.00    -0.238 OA
HETATM   41  C22 UNL     1      19.040  36.516  18.634  1.00  0.00     0.292 C 
BRANCH  38  42
HETATM   42  O7  UNL     1      21.762  34.168  15.876  1.00  0.00    -0.294 OA
BRANCH  42  43
HETATM   43  C17 UNL     1      22.248  32.840  15.936  1.00  0.00     0.061 C 
HETATM   44  C18 UNL     1      21.421  31.833  15.223  1.00  0.00     0.046 C 
HETATM   45  C19 UNL     1      22.615  32.472  17.349  1.00  0.00     0.046 C 
HETATM   46  C20 UNL     1      23.587  32.921  15.120  1.00  0.00     0.046 C 
ENDBRANCH  42  43
ENDBRANCH  38  42
ENDBRANCH  33  34
ENDBRANCH  32  33
ENDBRANCH  31  32
ENDBRANCH  30  31
ENDBRANCH  29  30
ENDBRANCH  27  29
ENDBRANCH  26  27
ENDBRANCH   3  26
TORSDOF 18
ENDMDL
MODEL 4
REMARK VINA RESULT: -8.096822335      1.771      5.396
REMARK  18 active torsions:
REMARK  status: ('A' for Active; 'I' for Inactive)
REMARK    1  A    between atoms: C2_2  and  O1_5 
REMARK    2  A    between atoms: O1_5  and  C5_6 
REMARK       I    between atoms: C5_6  and  N1_8 
REMARK    3  A    between atoms: N1_8  and  C6_10 
REMARK    4  A    between atoms: C6_10  and  C7_11 
REMARK    5  A    between atoms: C6_10  and  C23_36 
REMARK       I    between atoms: C7_11  and  N2_13 
REMARK    6  A    between atoms: N2_13  and  C8_15 
REMARK    7  A    between atoms: C8_15  and  C9_16 
REMARK    8  A    between atoms: C9_16  and  O5_18 
REMARK    9  A    between atoms: O5_18  and  C10_19 
REMARK   10  A    between atoms: C10_19  and  C11_20 
REMARK   11  A    between atoms: C11_20  and  C12_21 
REMARK   12  A    between atoms: C12_21  and  C13_22 
REMARK   13  A    between atoms: C13_22  and  N3_23 
REMARK       I    between atoms: N4_26  and  C16_27 
REMARK   14  A    between atoms: C16_27  and  O7_29 
REMARK   15  A    between atoms: O7_29  and  C17_30 
REMARK   16  A    between atoms: C23_36  and  C26_39 
REMARK   17  A    between atoms: C26_39  and  N5_40 
REMARK       I    between atoms: N5_40  and  C27_41 
REMARK   18  A    between atoms: C27_41  and  C28_43 
ROOT
HETATM    1  C7  UNL     1      21.386  34.928  18.238  1.00  0.00     0.245 C 
HETATM    2  O3  UNL     1      22.064  34.725  19.318  1.00  0.00    -0.271 OA
HETATM    3  N2  UNL     1      21.578  34.005  17.248  1.00  0.00    -0.330 N 
ATOM      4  H2  UNL     1      20.933  34.142  16.471  1.00  0.00     0.168 HD
ENDROOT
BRANCH   1   5
HETATM    5  C6  UNL     1      20.518  36.123  18.221  1.00  0.00     0.193 C 
BRANCH   5   6
HETATM    6  N1  UNL     1      19.332  35.952  17.339  1.00  0.00    -0.322 N 
HETATM    7  C5  UNL     1      18.132  35.512  18.085  1.00  0.00     0.362 C 
HETATM    8  O2  UNL     1      18.183  35.136  19.189  1.00  0.00    -0.238 OA
ATOM      9  H1  UNL     1      19.344  36.119  16.333  1.00  0.00     0.165 HD
BRANCH   7  10
HETATM   10  O1  UNL     1      16.866  35.567  17.438  1.00  0.00    -0.294 OA
BRANCH  10  11
HETATM   11  C2  UNL     1      16.525  34.362  16.693  1.00  0.00     0.061 C 
HETATM   12  C1  UNL     1      15.176  33.846  17.116  1.00  0.00     0.046 C 
HETATM   13  C3  UNL     1      16.444  34.603  15.222  1.00  0.00     0.046 C 
HETATM   14  C4  UNL     1      17.501  33.244  16.945  1.00  0.00     0.046 C 
ENDBRANCH  10  11
ENDBRANCH   7  10
ENDBRANCH   5   6
BRANCH   5  15
HETATM   15  C23 UNL     1      21.203  37.394  17.801  1.00  0.00     0.026 C 
HETATM   16  C24 UNL     1      22.684  37.419  18.037  1.00  0.00     0.024 C 
HETATM   17  C25 UNL     1      21.345  37.154  16.174  1.00  0.00     0.024 C 
BRANCH  15  18
HETATM   18  C26 UNL     1      20.522  38.645  17.805  1.00  0.00     0.170 C 
BRANCH  18  19
HETATM   19  N5  UNL     1      19.345  39.138  17.439  1.00  0.00    -0.386 NA
HETATM   20  C27 UNL     1      18.086  39.635  17.036  1.00  0.00     0.298 C 
HETATM   21  O8  UNL     1      17.246  38.828  16.525  1.00  0.00    -0.256 OA
BRANCH  20  22
HETATM   22  C28 UNL     1      17.729  41.066  17.237  1.00  0.00     0.044 C 
HETATM   23  C29 UNL     1      16.223  41.136  16.872  1.00  0.00     0.026 C 
HETATM   24  C30 UNL     1      18.484  42.073  16.503  1.00  0.00     0.026 C 
HETATM   25  C31 UNL     1      17.773  41.313  18.755  1.00  0.00     0.026 C 
ENDBRANCH  20  22
ENDBRANCH  18  19
ENDBRANCH  15  18
ENDBRANCH   5  15
ENDBRANCH   1   5
BRANCH   3  26
HETATM   26  C8  UNL     1      22.432  32.920  17.028  1.00  0.00     0.173 C 
BRANCH  26  27
HETATM   27  C9  UNL     1      22.473  32.507  15.556  1.00  0.00     0.298 C 
HETATM   28  O4  UNL     1      23.159  31.724  15.033  1.00  0.00    -0.259 OA
BRANCH  27  29
HETATM   29  O5  UNL     1      21.477  33.241  14.743  1.00  0.00    -0.317 OA
BRANCH  29  30
HETATM   30  C10 UNL     1      20.905  32.219  13.831  1.00  0.00     0.179 C 
BRANCH  30  31
HETATM   31  C11 UNL     1      19.421  32.498  14.013  1.00  0.00     0.028 C 
BRANCH  31  32
HETATM   32  C12 UNL     1      18.731  31.090  14.035  1.00  0.00     0.032 C 
BRANCH  32  33
HETATM   33  C13 UNL     1      19.729  30.280  14.829  1.00  0.00     0.272 C 
BRANCH  33  34
HETATM   34  N3  UNL     1      19.771  28.929  14.276  1.00  0.00     0.091 N 
HETATM   35  C14 UNL     1      21.141  28.482  14.376  1.00  0.00     0.292 C 
HETATM   36  C15 UNL     1      21.998  28.893  13.134  1.00  0.00     0.158 C 
HETATM   37  N4  UNL     1      21.150  28.179  12.152  1.00  0.00    -0.325 N 
HETATM   38  C16 UNL     1      21.508  26.919  11.776  1.00  0.00     0.363 C 
HETATM   39  C21 UNL     1      19.986  28.926  11.796  1.00  0.00     0.158 C 
HETATM   40  O6  UNL     1      20.650  26.203  11.162  1.00  0.00    -0.238 OA
HETATM   41  C22 UNL     1      19.092  28.825  13.051  1.00  0.00     0.292 C 
BRANCH  38  42
HETATM   42  O7  UNL     1      22.725  26.336  11.986  1.00  0.00    -0.294 OA
BRANCH  42  43
HETATM   43  C17 UNL     1      23.763  26.339  11.023  1.00  0.00     0.061 C 
HETATM   44  C18 UNL     1      23.725  27.466  10.057  1.00  0.00     0.046 C 
HETATM   45  C19 UNL     1      23.912  24.976  10.400  1.00  0.00     0.046 C 
HETATM   46  C20 UNL     1      25.045  26.589  11.892  1.00  0.00     0.046 C 
ENDBRANCH  42  43
ENDBRANCH  38  42
ENDBRANCH  33  34
ENDBRANCH  32  33
ENDBRANCH  31  32
ENDBRANCH  30  31
ENDBRANCH  29  30
ENDBRANCH  27  29
ENDBRANCH  26  27
ENDBRANCH   3  26
TORSDOF 18
ENDMDL
MODEL 5
REMARK VINA RESULT: -8.042288049      3.224     11.652
REMARK  18 active torsions:
REMARK  status: ('A' for Active; 'I' for Inactive)
REMARK    1  A    between atoms: C2_2  and  O1_5 
REMARK    2  A    between atoms: O1_5  and  C5_6 
REMARK       I    between atoms: C5_6  and  N1_8 
REMARK    3  A    between atoms: N1_8  and  C6_10 
REMARK    4  A    between atoms: C6_10  and  C7_11 
REMARK    5  A    between atoms: C6_10  and  C23_36 
REMARK       I    between atoms: C7_11  and  N2_13 
REMARK    6  A    between atoms: N2_13  and  C8_15 
REMARK    7  A    between atoms: C8_15  and  C9_16 
REMARK    8  A    between atoms: C9_16  and  O5_18 
REMARK    9  A    between atoms: O5_18  and  C10_19 
REMARK   10  A    between atoms: C10_19  and  C11_20 
REMARK   11  A    between atoms: C11_20  and  C12_21 
REMARK   12  A    between atoms: C12_21  and  C13_22 
REMARK   13  A    between atoms: C13_22  and  N3_23 
REMARK       I    between atoms: N4_26  and  C16_27 
REMARK   14  A    between atoms: C16_27  and  O7_29 
REMARK   15  A    between atoms: O7_29  and  C17_30 
REMARK   16  A    between atoms: C23_36  and  C26_39 
REMARK   17  A    between atoms: C26_39  and  N5_40 
REMARK       I    between atoms: N5_40  and  C27_41 
REMARK   18  A    between atoms: C27_41  and  C28_43 
ROOT
HETATM    1  C7  UNL     1      18.668  26.148  11.338  1.00  0.00     0.245 C 
HETATM    2  O3  UNL     1      18.065  25.297  12.100  1.00  0.00    -0.271 OA
HETATM    3  N2  UNL     1      18.737  27.422  11.829  1.00  0.00    -0.330 N 
ATOM      4  H2  UNL     1      19.324  28.021  11.249  1.00  0.00     0.168 HD
ENDROOT
BRANCH   1   5
HETATM    5  C6  UNL     1      19.182  25.631  10.054  1.00  0.00     0.193 C 
BRANCH   5   6
HETATM    6  N1  UNL     1      20.520  26.185   9.712  1.00  0.00    -0.322 N 
HETATM    7  C5  UNL     1      21.625  25.303  10.149  1.00  0.00     0.362 C 
HETATM    8  O2  UNL     1      21.459  24.398  10.866  1.00  0.00    -0.238 OA
ATOM      9  H1  UNL     1      20.660  27.074   9.231  1.00  0.00     0.165 HD
BRANCH   7  10
HETATM   10  O1  UNL     1      22.936  25.556   9.659  1.00  0.00    -0.294 OA
BRANCH  10  11
HETATM   11  C2  UNL     1      23.675  26.553  10.424  1.00  0.00     0.061 C 
HETATM   12  C1  UNL     1      25.112  26.134  10.585  1.00  0.00     0.046 C 
HETATM   13  C3  UNL     1      23.695  27.887   9.756  1.00  0.00     0.046 C 
HETATM   14  C4  UNL     1      23.128  26.719  11.816  1.00  0.00     0.046 C 
ENDBRANCH  10  11
ENDBRANCH   7  10
ENDBRANCH   5   6
BRANCH   5  15
HETATM   15  C23 UNL     1      18.286  25.877   8.871  1.00  0.00     0.026 C 
HETATM   16  C24 UNL     1      16.856  25.471   9.069  1.00  0.00     0.024 C 
HETATM   17  C25 UNL     1      17.977  27.490   9.039  1.00  0.00     0.024 C 
BRANCH  15  18
HETATM   18  C26 UNL     1      18.788  25.862   7.538  1.00  0.00     0.170 C 
BRANCH  18  19
HETATM   19  N5  UNL     1      18.452  26.333   6.344  1.00  0.00    -0.386 NA
HETATM   20  C27 UNL     1      18.106  26.862   5.081  1.00  0.00     0.298 C 
HETATM   21  O8  UNL     1      18.494  28.036   4.784  1.00  0.00    -0.256 OA
BRANCH  20  22
HETATM   22  C28 UNL     1      17.334  26.053   4.099  1.00  0.00     0.044 C 
HETATM   23  C29 UNL     1      16.882  27.083   3.030  1.00  0.00     0.026 C 
HETATM   24  C30 UNL     1      16.197  25.283   4.584  1.00  0.00     0.026 C 
HETATM   25  C31 UNL     1      18.358  25.164   3.371  1.00  0.00     0.026 C 
ENDBRANCH  20  22
ENDBRANCH  18  19
ENDBRANCH  15  18
ENDBRANCH   5  15
ENDBRANCH   1   5
BRANCH   3  26
HETATM   26  C8  UNL     1      18.208  28.115  12.922  1.00  0.00     0.173 C 
BRANCH  26  27
HETATM   27  C9  UNL     1      18.174  29.626  12.685  1.00  0.00     0.298 C 
HETATM   28  O4  UNL     1      17.450  30.422  13.132  1.00  0.00    -0.259 OA
BRANCH  27  29
HETATM   29  O5  UNL     1      19.235  30.068  11.752  1.00  0.00    -0.317 OA
BRANCH  29  30
HETATM   30  C10 UNL     1      20.022  31.067  12.518  1.00  0.00     0.179 C 
BRANCH  30  31
HETATM   31  C11 UNL     1      21.266  30.248  12.826  1.00  0.00     0.028 C 
BRANCH  31  32
HETATM   32  C12 UNL     1      21.743  30.728  14.241  1.00  0.00     0.032 C 
BRANCH  32  33
HETATM   33  C13 UNL     1      20.589  30.286  15.110  1.00  0.00     0.272 C 
BRANCH  33  34
HETATM   34  N3  UNL     1      20.479  31.212  16.235  1.00  0.00     0.091 N 
HETATM   35  C14 UNL     1      19.090  31.216  16.634  1.00  0.00     0.292 C 
HETATM   36  C15 UNL     1      18.241  32.261  15.840  1.00  0.00     0.158 C 
HETATM   37  N4  UNL     1      19.044  33.430  16.265  1.00  0.00    -0.325 N 
HETATM   38  C16 UNL     1      18.624  34.151  17.342  1.00  0.00     0.363 C 
HETATM   39  C21 UNL     1      20.239  33.577  15.495  1.00  0.00     0.158 C 
HETATM   40  O6  UNL     1      19.442  34.970  17.880  1.00  0.00    -0.238 OA
HETATM   41  C22 UNL     1      21.139  32.428  16.000  1.00  0.00     0.292 C 
BRANCH  38  42
HETATM   42  O7  UNL     1      17.383  34.094  17.910  1.00  0.00    -0.294 OA
BRANCH  42  43
HETATM   43  C17 UNL     1      16.344  35.003  17.596  1.00  0.00     0.061 C 
HETATM   44  C18 UNL     1      16.379  35.551  16.216  1.00  0.00     0.046 C 
HETATM   45  C19 UNL     1      16.195  36.034  18.683  1.00  0.00     0.046 C 
HETATM   46  C20 UNL     1      15.063  34.097  17.643  1.00  0.00     0.046 C 
ENDBRANCH  42  43
ENDBRANCH  38  42
ENDBRANCH  33  34
ENDBRANCH  32  33
ENDBRANCH  31  32
ENDBRANCH  30  31
ENDBRANCH  29  30
ENDBRANCH  27  29
ENDBRANCH  26  27
ENDBRANCH   3  26
TORSDOF 18
ENDMDL
