MODEL 1
REMARK VINA RESULT: -8.941294402      0.000      0.000
REMARK  17 active torsions:
REMARK  status: ('A' for Active; 'I' for Inactive)
REMARK    1  A    between atoms: C2_2  and  C3_3 
REMARK    2  A    between atoms: C3_3  and  C4_4 
REMARK    3  A    between atoms: C4_4  and  C5_5 
REMARK    4  A    between atoms: C6_8  and  S1_9 
REMARK    5  A    between atoms: S1_9  and  C7_10 
REMARK    6  A    between atoms: C7_10  and  C8_11 
REMARK    7  A    between atoms: C10_13  and  C11_14 
REMARK    8  A    between atoms: C11_14  and  O1_15 
REMARK    9  A    between atoms: C11_14  and  N2_17 
REMARK   10  A    between atoms: N3_20  and  C14_21 
REMARK   11  A    between atoms: C14_21  and  C15_22 
REMARK   12  A    between atoms: C15_22  and  N4_23 
REMARK   13  A    between atoms: C23_34  and  C24_35 
REMARK   14  A    between atoms: C25_38  and  N7_39 
REMARK   15  A    between atoms: N7_39  and  C26_40 
REMARK   16  A    between atoms: C26_40  and  O4_41 
REMARK   17  A    between atoms: C26_40  and  N8_43 
ROOT
HETATM    1  C5  UNL     1      19.498  33.865  15.652  1.00  0.00     0.052 A 
HETATM    2  N1  UNL     1      20.451  33.189  14.934  1.00  0.00    -0.351 N 
ATOM      3  H1  UNL     1      20.177  32.653  14.110  1.00  0.00     0.166 HD
HETATM    4  C6  UNL     1      21.746  33.228  15.308  1.00  0.00     0.071 A 
HETATM    5  C22 UNL     1      22.098  33.951  16.395  1.00  0.00     0.057 A 
HETATM    6  C23 UNL     1      21.154  34.658  17.156  1.00  0.00     0.074 A 
HETATM    7  C25 UNL     1      19.823  34.620  16.794  1.00  0.00     0.149 A 
ENDROOT
BRANCH   4   8
HETATM    8  S1  UNL     1      22.881  32.156  14.426  1.00  0.00    -0.106 SA
BRANCH   8   9
HETATM    9  C7  UNL     1      22.247  30.434  14.469  1.00  0.00     0.140 C 
BRANCH   9  10
HETATM   10  C8  UNL     1      21.190  30.283  13.430  1.00  0.00     0.045 A 
HETATM   11  C9  UNL     1      20.243  29.298  13.237  1.00  0.00     0.071 A 
HETATM   12  C10 UNL     1      19.508  29.572  12.118  1.00  0.00     0.151 A 
HETATM   13  O2  UNL     1      20.033  30.726  11.659  1.00  0.00    -0.233 OA
HETATM   14  N5  UNL     1      20.987  31.130  12.403  1.00  0.00    -0.264 N 
ATOM     15  H5  UNL     1      21.526  31.981  12.242  1.00  0.00     0.194 HD
BRANCH  12  16
HETATM   16  C11 UNL     1      18.408  28.915  11.445  1.00  0.00     0.175 C 
BRANCH  16  17
HETATM   17  O1  UNL     1      17.272  29.589  11.384  1.00  0.00    -0.344 OA
ATOM     18  H1  UNL     1      16.509  29.102  11.094  1.00  0.00     0.219 HD
ENDBRANCH  16  17
BRANCH  16  19
HETATM   19  N2  UNL     1      18.432  27.657  10.860  1.00  0.00    -0.353 N 
HETATM   20  C12 UNL     1      18.558  27.395   9.470  1.00  0.00     0.145 C 
HETATM   21  C13 UNL     1      18.867  25.896   9.218  1.00  0.00     0.147 C 
HETATM   22  N3  UNL     1      19.814  25.543  10.207  1.00  0.00    -0.369 N 
HETATM   23  C20 UNL     1      19.455  25.601  11.562  1.00  0.00     0.083 C 
HETATM   24  C21 UNL     1      18.278  26.495  11.780  1.00  0.00     0.169 C 
BRANCH  22  25
HETATM   25  C14 UNL     1      21.170  25.383   9.860  1.00  0.00     0.093 C 
BRANCH  25  26
HETATM   26  C15 UNL     1      22.132  25.791  10.878  1.00  0.00     0.317 C 
BRANCH  26  27
HETATM   27  N4  UNL     1      22.740  27.072  10.713  1.00  0.00     0.093 N 
HETATM   28  C16 UNL     1      23.864  27.133   9.823  1.00  0.00     0.273 C 
HETATM   29  C17 UNL     1      24.880  26.264  10.469  1.00  0.00     0.032 C 
HETATM   30  C18 UNL     1      24.698  26.667  11.940  1.00  0.00     0.032 C 
HETATM   31  C19 UNL     1      23.401  27.483  11.969  1.00  0.00     0.273 C 
ENDBRANCH  26  27
ENDBRANCH  25  26
ENDBRANCH  22  25
ENDBRANCH  16  19
ENDBRANCH  12  16
ENDBRANCH   9  10
ENDBRANCH   8   9
ENDBRANCH   4   8
BRANCH   1  32
HETATM   32  C4  UNL     1      18.098  33.803  15.236  1.00  0.00     0.061 C 
BRANCH  32  33
HETATM   33  C3  UNL     1      17.602  32.459  14.899  1.00  0.00     0.006 C 
BRANCH  33  34
HETATM   34  C2  UNL     1      16.699  31.687  15.758  1.00  0.00    -0.004 C 
HETATM   35  C1  UNL     1      15.441  32.348  16.229  1.00  0.00     0.005 C 
ENDBRANCH  33  34
ENDBRANCH  32  33
ENDBRANCH   1  32
BRANCH   6  36
HETATM   36  C24 UNL     1      21.604  35.372  18.313  1.00  0.00     0.268 C 
HETATM   37  N6  UNL     1      22.121  36.680  18.194  1.00  0.00    -0.057 NA
HETATM   38  O3  UNL     1      21.559  34.883  19.452  1.00  0.00    -0.271 OA
ENDBRANCH   6  36
BRANCH   7  39
HETATM   39  N7  UNL     1      18.846  35.197  17.557  1.00  0.00    -0.362 NA
BRANCH  39  40
HETATM   40  C26 UNL     1      17.901  35.763  18.310  1.00  0.00     0.296 C 
BRANCH  40  41
HETATM   41  O4  UNL     1      16.976  35.011  18.889  1.00  0.00    -0.321 OA
ATOM     42  H4  UNL     1      17.232  34.324  19.494  1.00  0.00     0.222 HD
ENDBRANCH  40  41
BRANCH  40  43
HETATM   43  N8  UNL     1      17.683  37.155  18.639  1.00  0.00    -0.333 N 
HETATM   44  C27 UNL     1      18.838  38.028  18.672  1.00  0.00     0.146 C 
HETATM   45  C28 UNL     1      18.451  39.447  18.940  1.00  0.00     0.133 C 
HETATM   46  N9  UNL     1      17.281  39.890  18.251  1.00  0.00    -0.418 N 
HETATM   47  C29 UNL     1      16.266  38.934  17.997  1.00  0.00     0.133 C 
ATOM     48  H9  UNL     1      17.179  40.860  17.953  1.00  0.00     0.153 HD
HETATM   49  C30 UNL     1      16.412  37.690  18.888  1.00  0.00     0.146 C 
ENDBRANCH  40  43
ENDBRANCH  39  40
ENDBRANCH   7  39
TORSDOF 17
ENDMDL
MODEL 2
REMARK VINA RESULT: -8.730054893      1.878      2.277
REMARK  17 active torsions:
REMARK  status: ('A' for Active; 'I' for Inactive)
REMARK    1  A    between atoms: C2_2  and  C3_3 
REMARK    2  A    between atoms: C3_3  and  C4_4 
REMARK    3  A    between atoms: C4_4  and  C5_5 
REMARK    4  A    between atoms: C6_8  and  S1_9 
REMARK    5  A    between atoms: S1_9  and  C7_10 
REMARK    6  A    between atoms: C7_10  and  C8_11 
REMARK    7  A    between atoms: C10_13  and  C11_14 
REMARK    8  A    between atoms: C11_14  and  O1_15 
REMARK    9  A    between atoms: C11_14  and  N2_17 
REMARK   10  A    between atoms: N3_20  and  C14_21 
REMARK   11  A    between atoms: C14_21  and  C15_22 
REMARK   12  A    between atoms: C15_22  and  N4_23 
REMARK   13  A    between atoms: C23_34  and  C24_35 
REMARK   14  A    between atoms: C25_38  and  N7_39 
REMARK   15  A    between atoms: N7_39  and  C26_40 
REMARK   16  A    between atoms: C26_40  and  O4_41 
REMARK   17  A    between atoms: C26_40  and  N8_43 
ROOT
HETATM    1  C5  UNL     1      19.317  34.973  17.735  1.00  0.00     0.052 A 
HETATM    2  N1  UNL     1      19.990  33.843  17.348  1.00  0.00    -0.351 N 
ATOM      3  H1  UNL     1      19.500  32.949  17.310  1.00  0.00     0.166 HD
HETATM    4  C6  UNL     1      21.296  33.904  17.016  1.00  0.00     0.071 A 
HETATM    5  C22 UNL     1      21.934  35.095  17.059  1.00  0.00     0.057 A 
HETATM    6  C23 UNL     1      21.280  36.275  17.448  1.00  0.00     0.074 A 
HETATM    7  C25 UNL     1      19.947  36.230  17.802  1.00  0.00     0.149 A 
ENDROOT
BRANCH   4   8
HETATM    8  S1  UNL     1      22.134  32.348  16.716  1.00  0.00    -0.106 SA
BRANCH   8   9
HETATM    9  C7  UNL     1      22.246  32.056  14.907  1.00  0.00     0.140 C 
BRANCH   9  10
HETATM   10  C8  UNL     1      21.565  30.771  14.584  1.00  0.00     0.045 A 
HETATM   11  C9  UNL     1      20.285  30.510  14.136  1.00  0.00     0.071 A 
HETATM   12  C10 UNL     1      20.101  29.162  14.015  1.00  0.00     0.151 A 
HETATM   13  O2  UNL     1      21.283  28.636  14.395  1.00  0.00    -0.233 OA
HETATM   14  N5  UNL     1      22.114  29.549  14.717  1.00  0.00    -0.264 N 
ATOM     15  H5  UNL     1      23.068  29.376  15.033  1.00  0.00     0.194 HD
BRANCH  12  16
HETATM   16  C11 UNL     1      18.995  28.326  13.598  1.00  0.00     0.175 C 
BRANCH  16  17
HETATM   17  O1  UNL     1      18.061  28.095  14.505  1.00  0.00    -0.344 OA
ATOM     18  H1  UNL     1      17.162  28.223  14.226  1.00  0.00     0.219 HD
ENDBRANCH  16  17
BRANCH  16  19
HETATM   19  N2  UNL     1      18.821  27.751  12.347  1.00  0.00    -0.353 N 
HETATM   20  C12 UNL     1      19.212  28.329  11.111  1.00  0.00     0.145 C 
HETATM   21  C13 UNL     1      19.155  27.280   9.969  1.00  0.00     0.147 C 
HETATM   22  N3  UNL     1      19.694  26.099  10.528  1.00  0.00    -0.369 N 
HETATM   23  C20 UNL     1      19.039  25.479  11.603  1.00  0.00     0.083 C 
HETATM   24  C21 UNL     1      18.134  26.429  12.315  1.00  0.00     0.169 C 
BRANCH  22  25
HETATM   25  C14 UNL     1      20.997  25.688  10.186  1.00  0.00     0.093 C 
BRANCH  25  26
HETATM   26  C15 UNL     1      22.034  26.005  11.162  1.00  0.00     0.317 C 
BRANCH  26  27
HETATM   27  N4  UNL     1      22.780  27.201  10.943  1.00  0.00     0.093 N 
HETATM   28  C16 UNL     1      23.744  27.164   9.881  1.00  0.00     0.273 C 
HETATM   29  C17 UNL     1      24.718  26.132  10.315  1.00  0.00     0.032 C 
HETATM   30  C18 UNL     1      24.834  26.470  11.810  1.00  0.00     0.032 C 
HETATM   31  C19 UNL     1      23.686  27.447  12.085  1.00  0.00     0.273 C 
ENDBRANCH  26  27
ENDBRANCH  25  26
ENDBRANCH  22  25
ENDBRANCH  16  19
ENDBRANCH  12  16
ENDBRANCH   9  10
ENDBRANCH   8   9
ENDBRANCH   4   8
BRANCH   1  32
HETATM   32  C4  UNL     1      17.904  34.885  18.100  1.00  0.00     0.061 C 
BRANCH  32  33
HETATM   33  C3  UNL     1      17.107  33.944  17.296  1.00  0.00     0.006 C 
BRANCH  33  34
HETATM   34  C2  UNL     1      15.687  34.139  16.989  1.00  0.00    -0.004 C 
HETATM   35  C1  UNL     1      14.973  35.274  17.655  1.00  0.00     0.005 C 
ENDBRANCH  33  34
ENDBRANCH  32  33
ENDBRANCH   1  32
BRANCH   6  36
HETATM   36  C24 UNL     1      22.035  37.492  17.500  1.00  0.00     0.268 C 
HETATM   37  N6  UNL     1      22.932  37.737  18.562  1.00  0.00    -0.057 NA
HETATM   38  O3  UNL     1      21.936  38.369  16.629  1.00  0.00    -0.271 OA
ENDBRANCH   6  36
BRANCH   7  39
HETATM   39  N7  UNL     1      19.288  37.322  18.293  1.00  0.00    -0.362 NA
BRANCH  39  40
HETATM   40  C26 UNL     1      18.641  38.382  18.781  1.00  0.00     0.296 C 
BRANCH  40  41
HETATM   41  O4  UNL     1      19.150  39.057  19.802  1.00  0.00    -0.321 OA
ATOM     42  H4  UNL     1      18.596  39.303  20.534  1.00  0.00     0.222 HD
ENDBRANCH  40  41
BRANCH  40  43
HETATM   43  N8  UNL     1      17.390  38.980  18.368  1.00  0.00    -0.333 N 
HETATM   44  C27 UNL     1      16.452  39.362  19.402  1.00  0.00     0.146 C 
HETATM   45  C28 UNL     1      15.248  40.042  18.833  1.00  0.00     0.133 C 
HETATM   46  N9  UNL     1      15.524  40.973  17.786  1.00  0.00    -0.418 N 
HETATM   47  C29 UNL     1      16.629  40.703  16.940  1.00  0.00     0.133 C 
ATOM     48  H9  UNL     1      14.947  41.804  17.651  1.00  0.00     0.153 HD
HETATM   49  C30 UNL     1      17.073  39.233  17.026  1.00  0.00     0.146 C 
ENDBRANCH  40  43
ENDBRANCH  39  40
ENDBRANCH   7  39
TORSDOF 17
ENDMDL
MODEL 3
REMARK VINA RESULT: -8.715258066      3.095     12.419
REMARK  17 active torsions:
REMARK  status: ('A' for Active; 'I' for Inactive)
REMARK    1  A    between atoms: C2_2  and  C3_3 
REMARK    2  A    between atoms: C3_3  and  C4_4 
REMARK    3  A    between atoms: C4_4  and  C5_5 
REMARK    4  A    between atoms: C6_8  and  S1_9 
REMARK    5  A    between atoms: S1_9  and  C7_10 
REMARK    6  A    between atoms: C7_10  and  C8_11 
REMARK    7  A    between atoms: C10_13  and  C11_14 
REMARK    8  A    between atoms: C11_14  and  O1_15 
REMARK    9  A    between atoms: C11_14  and  N2_17 
REMARK   10  A    between atoms: N3_20  and  C14_21 
REMARK   11  A    between atoms: C14_21  and  C15_22 
REMARK   12  A    between atoms: C15_22  and  N4_23 
REMARK   13  A    between atoms: C23_34  and  C24_35 
REMARK   14  A    between atoms: C25_38  and  N7_39 
REMARK   15  A    between atoms: N7_39  and  C26_40 
REMARK   16  A    between atoms: C26_40  and  O4_41 
REMARK   17  A    between atoms: C26_40  and  N8_43 
ROOT
HETATM    1  C5  UNL     1      20.944  26.385  11.390  1.00  0.00     0.052 A 
HETATM    2  N1  UNL     1      20.226  27.036  12.360  1.00  0.00    -0.351 N 
ATOM      3  H1  UNL     1      20.681  27.301  13.234  1.00  0.00     0.166 HD
HETATM    4  C6  UNL     1      18.924  27.328  12.168  1.00  0.00     0.071 A 
HETATM    5  C22 UNL     1      18.334  26.981  11.002  1.00  0.00     0.057 A 
HETATM    6  C23 UNL     1      19.034  26.316   9.983  1.00  0.00     0.074 A 
HETATM    7  C25 UNL     1      20.365  26.000  10.167  1.00  0.00     0.149 A 
ENDROOT
BRANCH   4   8
HETATM    8  S1  UNL     1      18.024  27.999  13.566  1.00  0.00    -0.106 SA
BRANCH   8   9
HETATM    9  C7  UNL     1      17.900  29.822  13.390  1.00  0.00     0.140 C 
BRANCH   9  10
HETATM   10  C8  UNL     1      18.529  30.465  14.578  1.00  0.00     0.045 A 
HETATM   11  C9  UNL     1      19.762  31.064  14.738  1.00  0.00     0.071 A 
HETATM   12  C10 UNL     1      19.913  31.481  16.030  1.00  0.00     0.151 A 
HETATM   13  O2  UNL     1      18.758  31.121  16.625  1.00  0.00    -0.233 OA
HETATM   14  N5  UNL     1      17.972  30.545  15.801  1.00  0.00    -0.264 N 
ATOM     15  H5  UNL     1      17.044  30.193  16.037  1.00  0.00     0.194 HD
BRANCH  12  16
HETATM   16  C11 UNL     1      20.966  32.155  16.758  1.00  0.00     0.175 C 
BRANCH  16  17
HETATM   17  O1  UNL     1      21.791  31.383  17.445  1.00  0.00    -0.344 OA
ATOM     18  H1  UNL     1      22.390  30.849  16.936  1.00  0.00     0.219 HD
ENDBRANCH  16  17
BRANCH  16  19
HETATM   19  N2  UNL     1      21.193  33.524  16.803  1.00  0.00    -0.353 N 
HETATM   20  C12 UNL     1      20.716  34.471  15.858  1.00  0.00     0.145 C 
HETATM   21  C13 UNL     1      20.886  35.917  16.394  1.00  0.00     0.147 C 
HETATM   22  N3  UNL     1      20.505  35.853  17.753  1.00  0.00    -0.369 N 
HETATM   23  C20 UNL     1      21.247  35.063  18.645  1.00  0.00     0.083 C 
HETATM   24  C21 UNL     1      22.037  34.020  17.926  1.00  0.00     0.169 C 
BRANCH  22  25
HETATM   25  C14 UNL     1      19.258  36.366  18.161  1.00  0.00     0.093 C 
BRANCH  25  26
HETATM   26  C15 UNL     1      18.177  35.391  18.255  1.00  0.00     0.317 C 
BRANCH  26  27
HETATM   27  N4  UNL     1      17.459  35.108  17.055  1.00  0.00     0.093 N 
HETATM   28  C16 UNL     1      16.430  36.041  16.695  1.00  0.00     0.273 C 
HETATM   29  C17 UNL     1      15.451  35.943  17.806  1.00  0.00     0.032 C 
HETATM   30  C18 UNL     1      15.439  34.423  18.035  1.00  0.00     0.032 C 
HETATM   31  C19 UNL     1      16.634  33.894  17.234  1.00  0.00     0.273 C 
ENDBRANCH  26  27
ENDBRANCH  25  26
ENDBRANCH  22  25
ENDBRANCH  16  19
ENDBRANCH  12  16
ENDBRANCH   9  10
ENDBRANCH   8   9
ENDBRANCH   4   8
BRANCH   1  32
HETATM   32  C4  UNL     1      22.353  26.069  11.621  1.00  0.00     0.061 C 
BRANCH  32  33
HETATM   33  C3  UNL     1      23.190  27.205  12.040  1.00  0.00     0.006 C 
BRANCH  33  34
HETATM   34  C2  UNL     1      24.654  27.204  11.973  1.00  0.00    -0.004 C 
HETATM   35  C1  UNL     1      25.309  26.376  10.911  1.00  0.00     0.005 C 
ENDBRANCH  33  34
ENDBRANCH  32  33
ENDBRANCH   1  32
BRANCH   6  36
HETATM   36  C24 UNL     1      18.329  25.954   8.790  1.00  0.00     0.268 C 
HETATM   37  N6  UNL     1      17.677  24.706   8.692  1.00  0.00    -0.057 NA
HETATM   38  O3  UNL     1      18.259  26.708   7.808  1.00  0.00    -0.271 OA
ENDBRANCH   6  36
BRANCH   7  39
HETATM   39  N7  UNL     1      21.067  25.257   9.258  1.00  0.00    -0.362 NA
BRANCH  39  40
HETATM   40  C26 UNL     1      21.744  24.525   8.372  1.00  0.00     0.296 C 
BRANCH  40  41
HETATM   41  O4  UNL     1      22.384  23.432   8.766  1.00  0.00    -0.321 OA
ATOM     42  H4  UNL     1      23.098  23.497   9.389  1.00  0.00     0.222 HD
ENDBRANCH  40  41
BRANCH  40  43
HETATM   43  N8  UNL     1      21.921  24.716   6.949  1.00  0.00    -0.333 N 
HETATM   44  C27 UNL     1      23.248  24.521   6.403  1.00  0.00     0.146 C 
HETATM   45  C28 UNL     1      23.261  24.666   4.915  1.00  0.00     0.133 C 
HETATM   46  N9  UNL     1      22.152  24.065   4.244  1.00  0.00    -0.418 N 
HETATM   47  C29 UNL     1      20.909  24.035   4.925  1.00  0.00     0.133 C 
ATOM     48  H9  UNL     1      22.252  23.671   3.308  1.00  0.00     0.153 HD
HETATM   49  C30 UNL     1      20.865  25.041   6.087  1.00  0.00     0.146 C 
ENDBRANCH  40  43
ENDBRANCH  39  40
ENDBRANCH   7  39
TORSDOF 17
ENDMDL
MODEL 4
REMARK VINA RESULT: -8.713159169      1.654      1.935
REMARK  17 active torsions:
REMARK  status: ('A' for Active; 'I' for Inactive)
REMARK    1  A    between atoms: C2_2  and  C3_3 
REMARK    2  A    between atoms: C3_3  and  C4_4 
REMARK    3  A    between atoms: C4_4  and  C5_5 
REMARK    4  A    between atoms: C6_8  and  S1_9 
REMARK    5  A    between atoms: S1_9  and  C7_10 
REMARK    6  A    between atoms: C7_10  and  C8_11 
REMARK    7  A    between atoms: C10_13  and  C11_14 
REMARK    8  A    between atoms: C11_14  and  O1_15 
REMARK    9  A    between atoms: C11_14  and  N2_17 
REMARK   10  A    between atoms: N3_20  and  C14_21 
REMARK   11  A    between atoms: C14_21  and  C15_22 
REMARK   12  A    between atoms: C15_22  and  N4_23 
REMARK   13  A    between atoms: C23_34  and  C24_35 
REMARK   14  A    between atoms: C25_38  and  N7_39 
REMARK   15  A    between atoms: N7_39  and  C26_40 
REMARK   16  A    between atoms: C26_40  and  O4_41 
REMARK   17  A    between atoms: C26_40  and  N8_43 
ROOT
HETATM    1  C5  UNL     1      18.769  34.017  17.261  1.00  0.00     0.052 A 
HETATM    2  N1  UNL     1      19.811  33.178  16.960  1.00  0.00    -0.351 N 
ATOM      3  H1  UNL     1      19.630  32.191  16.778  1.00  0.00     0.166 HD
HETATM    4  C6  UNL     1      21.074  33.649  16.903  1.00  0.00     0.071 A 
HETATM    5  C22 UNL     1      21.301  34.962  17.135  1.00  0.00     0.057 A 
HETATM    6  C23 UNL     1      20.261  35.853  17.444  1.00  0.00     0.074 A 
HETATM    7  C25 UNL     1      18.965  35.387  17.518  1.00  0.00     0.149 A 
ENDROOT
BRANCH   4   8
HETATM    8  S1  UNL     1      22.385  32.443  16.699  1.00  0.00    -0.106 SA
BRANCH   8   9
HETATM    9  C7  UNL     1      22.574  32.047  14.917  1.00  0.00     0.140 C 
BRANCH   9  10
HETATM   10  C8  UNL     1      21.778  30.826  14.607  1.00  0.00     0.045 A 
HETATM   11  C9  UNL     1      20.469  30.679  14.193  1.00  0.00     0.071 A 
HETATM   12  C10 UNL     1      20.167  29.352  14.072  1.00  0.00     0.151 A 
HETATM   13  O2  UNL     1      21.309  28.725  14.418  1.00  0.00    -0.233 OA
HETATM   14  N5  UNL     1      22.224  29.562  14.721  1.00  0.00    -0.264 N 
ATOM     15  H5  UNL     1      23.168  29.306  15.011  1.00  0.00     0.194 HD
BRANCH  12  16
HETATM   16  C11 UNL     1      18.983  28.616  13.683  1.00  0.00     0.175 C 
BRANCH  16  17
HETATM   17  O1  UNL     1      18.023  28.529  14.588  1.00  0.00    -0.344 OA
ATOM     18  H1  UNL     1      17.649  27.666  14.723  1.00  0.00     0.219 HD
ENDBRANCH  16  17
BRANCH  16  19
HETATM   19  N2  UNL     1      18.759  28.000  12.459  1.00  0.00    -0.353 N 
HETATM   20  C12 UNL     1      19.084  28.545  11.189  1.00  0.00     0.145 C 
HETATM   21  C13 UNL     1      18.989  27.461  10.083  1.00  0.00     0.147 C 
HETATM   22  N3  UNL     1      19.571  26.304  10.651  1.00  0.00    -0.369 N 
HETATM   23  C20 UNL     1      18.975  25.709  11.774  1.00  0.00     0.083 C 
HETATM   24  C21 UNL     1      18.091  26.669  12.499  1.00  0.00     0.169 C 
BRANCH  22  25
HETATM   25  C14 UNL     1      20.863  25.900  10.262  1.00  0.00     0.093 C 
BRANCH  25  26
HETATM   26  C15 UNL     1      21.922  26.157  11.231  1.00  0.00     0.317 C 
BRANCH  26  27
HETATM   27  N4  UNL     1      22.743  27.302  11.000  1.00  0.00     0.093 N 
HETATM   28  C16 UNL     1      23.671  27.209   9.910  1.00  0.00     0.273 C 
HETATM   29  C17 UNL     1      24.584  26.109  10.309  1.00  0.00     0.032 C 
HETATM   30  C18 UNL     1      24.765  26.424  11.802  1.00  0.00     0.032 C 
HETATM   31  C19 UNL     1      23.695  27.475  12.117  1.00  0.00     0.273 C 
ENDBRANCH  26  27
ENDBRANCH  25  26
ENDBRANCH  22  25
ENDBRANCH  16  19
ENDBRANCH  12  16
ENDBRANCH   9  10
ENDBRANCH   8   9
ENDBRANCH   4   8
BRANCH   1  32
HETATM   32  C4  UNL     1      17.408  33.486  17.327  1.00  0.00     0.061 C 
BRANCH  32  33
HETATM   33  C3  UNL     1      16.896  32.915  16.071  1.00  0.00     0.006 C 
BRANCH  33  34
HETATM   34  C2  UNL     1      16.960  33.605  14.779  1.00  0.00    -0.004 C 
HETATM   35  C1  UNL     1      16.437  35.006  14.704  1.00  0.00     0.005 C 
ENDBRANCH  33  34
ENDBRANCH  32  33
ENDBRANCH   1  32
BRANCH   6  36
HETATM   36  C24 UNL     1      20.589  37.222  17.709  1.00  0.00     0.268 C 
HETATM   37  N6  UNL     1      21.055  38.063  16.676  1.00  0.00    -0.057 NA
HETATM   38  O3  UNL     1      20.479  37.722  18.839  1.00  0.00    -0.271 OA
ENDBRANCH   6  36
BRANCH   7  39
HETATM   39  N7  UNL     1      17.928  36.182  17.921  1.00  0.00    -0.362 NA
BRANCH  39  40
HETATM   40  C26 UNL     1      16.912  36.957  18.305  1.00  0.00     0.296 C 
BRANCH  40  41
HETATM   41  O4  UNL     1      15.830  36.413  18.843  1.00  0.00    -0.321 OA
ATOM     42  H4  UNL     1      15.897  35.925  19.656  1.00  0.00     0.222 HD
ENDBRANCH  40  41
BRANCH  40  43
HETATM   43  N8  UNL     1      16.762  38.395  18.240  1.00  0.00    -0.333 N 
HETATM   44  C27 UNL     1      17.045  39.046  16.978  1.00  0.00     0.146 C 
HETATM   45  C28 UNL     1      16.765  40.512  17.037  1.00  0.00     0.133 C 
HETATM   46  N9  UNL     1      15.570  40.868  17.734  1.00  0.00    -0.418 N 
HETATM   47  C29 UNL     1      15.171  40.044  18.817  1.00  0.00     0.133 C 
ATOM     48  H9  UNL     1      15.023  41.685  17.463  1.00  0.00     0.153 HD
HETATM   49  C30 UNL     1      16.325  39.165  19.326  1.00  0.00     0.146 C 
ENDBRANCH  40  43
ENDBRANCH  39  40
ENDBRANCH   7  39
TORSDOF 17
ENDMDL
MODEL 5
REMARK VINA RESULT: -8.638008045      2.106     10.853
REMARK  17 active torsions:
REMARK  status: ('A' for Active; 'I' for Inactive)
REMARK    1  A    between atoms: C2_2  and  C3_3 
REMARK    2  A    between atoms: C3_3  and  C4_4 
REMARK    3  A    between atoms: C4_4  and  C5_5 
REMARK    4  A    between atoms: C6_8  and  S1_9 
REMARK    5  A    between atoms: S1_9  and  C7_10 
REMARK    6  A    between atoms: C7_10  and  C8_11 
REMARK    7  A    between atoms: C10_13  and  C11_14 
REMARK    8  A    between atoms: C11_14  and  O1_15 
REMARK    9  A    between atoms: C11_14  and  N2_17 
REMARK   10  A    between atoms: N3_20  and  C14_21 
REMARK   11  A    between atoms: C14_21  and  C15_22 
REMARK   12  A    between atoms: C15_22  and  N4_23 
REMARK   13  A    between atoms: C23_34  and  C24_35 
REMARK   14  A    between atoms: C25_38  and  N7_39 
REMARK   15  A    between atoms: N7_39  and  C26_40 
REMARK   16  A    between atoms: C26_40  and  O4_41 
REMARK   17  A    between atoms: C26_40  and  N8_43 
ROOT
HETATM    1  C5  UNL     1      19.720  30.672  15.565  1.00  0.00     0.052 A 
HETATM    2  N1  UNL     1      20.500  31.707  16.012  1.00  0.00    -0.351 N 
ATOM      3  H1  UNL     1      20.154  32.318  16.753  1.00  0.00     0.166 HD
HETATM    4  C6  UNL     1      21.720  31.925  15.479  1.00  0.00     0.071 A 
HETATM    5  C22 UNL     1      22.172  31.103  14.506  1.00  0.00     0.057 A 
HETATM    6  C23 UNL     1      21.406  30.031  14.023  1.00  0.00     0.074 A 
HETATM    7  C25 UNL     1      20.151  29.800  14.548  1.00  0.00     0.149 A 
ENDROOT
BRANCH   4   8
HETATM    8  S1  UNL     1      22.576  33.415  15.988  1.00  0.00    -0.106 SA
BRANCH   8   9
HETATM    9  C7  UNL     1      22.249  33.727  17.767  1.00  0.00     0.140 C 
BRANCH   9  10
HETATM   10  C8  UNL     1      21.620  35.070  17.913  1.00  0.00     0.045 A 
HETATM   11  C9  UNL     1      21.857  36.259  17.253  1.00  0.00     0.071 A 
HETATM   12  C10 UNL     1      21.053  37.241  17.759  1.00  0.00     0.151 A 
HETATM   13  O2  UNL     1      20.343  36.616  18.720  1.00  0.00    -0.233 OA
HETATM   14  N5  UNL     1      20.664  35.384  18.807  1.00  0.00    -0.264 N 
ATOM     15  H5  UNL     1      20.251  34.725  19.467  1.00  0.00     0.194 HD
BRANCH  12  16
HETATM   16  C11 UNL     1      20.866  38.645  17.466  1.00  0.00     0.175 C 
BRANCH  16  17
HETATM   17  O1  UNL     1      21.930  39.301  17.035  1.00  0.00    -0.344 OA
ATOM     18  H1  UNL     1      22.360  39.868  17.665  1.00  0.00     0.219 HD
ENDBRANCH  16  17
BRANCH  16  19
HETATM   19  N2  UNL     1      19.685  39.365  17.590  1.00  0.00    -0.353 N 
HETATM   20  C12 UNL     1      18.707  39.528  16.575  1.00  0.00     0.145 C 
HETATM   21  C13 UNL     1      17.395  40.111  17.162  1.00  0.00     0.147 C 
HETATM   22  N3  UNL     1      17.201  39.424  18.383  1.00  0.00    -0.369 N 
HETATM   23  C20 UNL     1      18.140  39.570  19.416  1.00  0.00     0.083 C 
HETATM   24  C21 UNL     1      19.457  40.043  18.897  1.00  0.00     0.169 C 
BRANCH  22  25
HETATM   25  C14 UNL     1      16.225  38.413  18.476  1.00  0.00     0.093 C 
BRANCH  25  26
HETATM   26  C15 UNL     1      16.731  37.073  18.750  1.00  0.00     0.317 C 
BRANCH  26  27
HETATM   27  N4  UNL     1      17.128  36.292  17.623  1.00  0.00     0.093 N 
HETATM   28  C16 UNL     1      16.144  36.117  16.593  1.00  0.00     0.273 C 
HETATM   29  C17 UNL     1      15.052  35.368  17.263  1.00  0.00     0.032 C 
HETATM   30  C18 UNL     1      15.868  34.369  18.098  1.00  0.00     0.032 C 
HETATM   31  C19 UNL     1      17.311  34.881  18.026  1.00  0.00     0.273 C 
ENDBRANCH  26  27
ENDBRANCH  25  26
ENDBRANCH  22  25
ENDBRANCH  16  19
ENDBRANCH  12  16
ENDBRANCH   9  10
ENDBRANCH   8   9
ENDBRANCH   4   8
BRANCH   1  32
HETATM   32  C4  UNL     1      18.396  30.457  16.148  1.00  0.00     0.061 C 
BRANCH  32  33
HETATM   33  C3  UNL     1      17.459  31.583  16.006  1.00  0.00     0.006 C 
BRANCH  33  34
HETATM   34  C2  UNL     1      17.205  32.273  14.738  1.00  0.00    -0.004 C 
HETATM   35  C1  UNL     1      17.820  33.623  14.536  1.00  0.00     0.005 C 
ENDBRANCH  33  34
ENDBRANCH  32  33
ENDBRANCH   1  32
BRANCH   6  36
HETATM   36  C24 UNL     1      21.943  29.226  12.966  1.00  0.00     0.268 C 
HETATM   37  N6  UNL     1      21.563  29.452  11.625  1.00  0.00    -0.057 NA
HETATM   38  O3  UNL     1      22.753  28.311  13.178  1.00  0.00    -0.271 OA
ENDBRANCH   6  36
BRANCH   7  39
HETATM   39  N7  UNL     1      19.317  28.841  14.042  1.00  0.00    -0.362 NA
BRANCH  39  40
HETATM   40  C26 UNL     1      18.505  27.910  13.538  1.00  0.00     0.296 C 
BRANCH  40  41
HETATM   41  O4  UNL     1      17.685  27.242  14.338  1.00  0.00    -0.321 OA
ATOM     42  H4  UNL     1      17.909  27.121  15.254  1.00  0.00     0.222 HD
ENDBRANCH  40  41
BRANCH  40  43
HETATM   43  N8  UNL     1      18.337  27.462  12.173  1.00  0.00    -0.333 N 
HETATM   44  C27 UNL     1      18.091  28.466  11.159  1.00  0.00     0.146 C 
HETATM   45  C28 UNL     1      18.025  27.867   9.792  1.00  0.00     0.133 C 
HETATM   46  N9  UNL     1      19.005  26.861   9.530  1.00  0.00    -0.418 N 
HETATM   47  C29 UNL     1      19.427  26.056  10.617  1.00  0.00     0.133 C 
ATOM     48  H9  UNL     1      19.388  26.727   8.593  1.00  0.00     0.153 HD
HETATM   49  C30 UNL     1      18.440  26.116  11.795  1.00  0.00     0.146 C 
ENDBRANCH  40  43
ENDBRANCH  39  40
ENDBRANCH   7  39
TORSDOF 17
ENDMDL
