MODEL 1
REMARK VINA RESULT: -8.822911051      0.000      0.000
REMARK  17 active torsions:
REMARK  status: ('A' for Active; 'I' for Inactive)
REMARK    1  A    between atoms: C2_2  and  C3_3 
REMARK    2  A    between atoms: C3_3  and  C4_4 
REMARK    3  A    between atoms: C4_4  and  C5_5 
REMARK    4  A    between atoms: C5_5  and  O2_7 
REMARK    5  A    between atoms: O2_7  and  C6_8 
REMARK    6  A    between atoms: C8_10  and  O3_11 
REMARK    7  A    between atoms: O3_11  and  C9_12 
REMARK    8  A    between atoms: C9_12  and  C10_14 
REMARK    9  A    between atoms: C10_14  and  N2_20 
REMARK       I    between atoms: N1_15  and  C11_17 
REMARK   10  A    between atoms: N2_20  and  C13_22 
REMARK   11  A    between atoms: C13_22  and  C14_23 
REMARK   12  A    between atoms: C13_22  and  C16_25 
REMARK   13  A    between atoms: C13_22  and  C28_37 
REMARK   14  A    between atoms: C16_25  and  C17_26 
REMARK   15  A    between atoms: C17_26  and  C18_27 
REMARK   16  A    between atoms: C30_40  and  O7_41 
REMARK   17  A    between atoms: C31_43  and  N3_45 
REMARK       I    between atoms: N3_45  and  C33_47 
ROOT
HETATM    1  C10 UNL     1      19.189  33.193  16.531  1.00  0.00     0.181 C 
HETATM    2  N1  UNL     1      20.203  33.518  17.132  1.00  0.00    -0.309 N 
ATOM      3  H1  UNL     1      19.923  33.787  18.076  1.00  0.00     0.170 HD
HETATM    4  C11 UNL     1      21.541  33.665  17.052  1.00  0.00     0.219 C 
HETATM    5  C12 UNL     1      22.464  32.504  17.272  1.00  0.00     0.117 C 
HETATM    6  O5  UNL     1      22.078  34.790  16.788  1.00  0.00    -0.274 OA
ENDROOT
BRANCH   1   7
HETATM    7  C9  UNL     1      19.183  32.746  15.149  1.00  0.00     0.328 C 
HETATM    8  O4  UNL     1      19.037  33.477  14.166  1.00  0.00    -0.256 OA
BRANCH   7   9
HETATM    9  O3  UNL     1      19.361  31.378  14.903  1.00  0.00    -0.307 OA
BRANCH   9  10
HETATM   10  C8  UNL     1      20.364  30.965  14.015  1.00  0.00     0.166 C 
HETATM   11  C7  UNL     1      19.985  30.891  12.584  1.00  0.00     0.070 C 
HETATM   12  C6  UNL     1      19.414  29.546  12.297  1.00  0.00     0.164 C 
HETATM   13  C31 UNL     1      19.815  28.687  13.471  1.00  0.00     0.084 C 
HETATM   14  C30 UNL     1      20.701  29.504  14.362  1.00  0.00     0.178 C 
HETATM   15  C32 UNL     1      18.583  28.325  14.275  1.00  0.00     0.044 C 
BRANCH  12  16
HETATM   16  O2  UNL     1      18.008  29.536  12.211  1.00  0.00    -0.313 OA
BRANCH  16  17
HETATM   17  C5  UNL     1      17.341  29.003  11.114  1.00  0.00     0.259 C 
HETATM   18  O1  UNL     1      16.132  29.322  11.000  1.00  0.00    -0.265 OA
BRANCH  17  19
HETATM   19  C4  UNL     1      17.985  28.128  10.140  1.00  0.00     0.111 C 
BRANCH  19  20
HETATM   20  C3  UNL     1      17.995  26.668  10.438  1.00  0.00     0.009 C 
BRANCH  20  21
HETATM   21  C2  UNL     1      18.083  25.735   9.283  1.00  0.00    -0.004 C 
HETATM   22  C1  UNL     1      16.835  25.341   8.588  1.00  0.00     0.005 C 
ENDBRANCH  20  21
ENDBRANCH  19  20
ENDBRANCH  17  19
ENDBRANCH  16  17
ENDBRANCH  12  16
BRANCH  13  23
HETATM   23  N3  UNL     1      20.431  27.446  13.041  1.00  0.00    -0.347 N 
HETATM   24  C33 UNL     1      21.542  27.433  12.163  1.00  0.00     0.214 C 
HETATM   25  C34 UNL     1      22.156  26.128  11.741  1.00  0.00     0.117 C 
HETATM   26  O8  UNL     1      22.051  28.470  11.713  1.00  0.00    -0.274 OA
ATOM     27  H3  UNL     1      20.053  26.561  13.379  1.00  0.00     0.163 HD
ENDBRANCH  13  23
BRANCH  14  28
HETATM   28  O7  UNL     1      20.572  29.199  15.688  1.00  0.00    -0.390 OA
ATOM     29  H7  UNL     1      19.684  28.990  15.955  1.00  0.00     0.210 HD
ENDBRANCH  14  28
ENDBRANCH   9  10
ENDBRANCH   7   9
ENDBRANCH   1   7
BRANCH   1  30
HETATM   30  N2  UNL     1      17.900  33.275  17.148  1.00  0.00    -0.355 N 
ATOM     31  H2  UNL     1      17.657  32.526  17.796  1.00  0.00     0.162 HD
BRANCH  30  32
HETATM   32  C13 UNL     1      16.907  34.307  16.950  1.00  0.00     0.091 C 
BRANCH  32  33
HETATM   33  C14 UNL     1      15.902  34.237  18.074  1.00  0.00     0.034 C 
HETATM   34  C15 UNL     1      14.661  35.016  17.825  1.00  0.00     0.008 C 
ENDBRANCH  32  33
BRANCH  32  35
HETATM   35  C16 UNL     1      17.639  35.636  16.974  1.00  0.00     0.040 C 
BRANCH  35  36
HETATM   36  C17 UNL     1      17.978  36.209  18.282  1.00  0.00     0.012 C 
BRANCH  36  37
HETATM   37  C18 UNL     1      17.669  37.714  18.268  1.00  0.00    -0.039 C 
HETATM   38  C19 UNL     1      17.175  38.170  16.943  1.00  0.00     0.014 C 
HETATM   39  C20 UNL     1      16.866  39.654  17.039  1.00  0.00    -0.013 C 
HETATM   40  C21 UNL     1      15.802  39.950  18.064  1.00  0.00     0.009 C 
HETATM   41  C25 UNL     1      18.134  40.358  17.455  1.00  0.00     0.009 C 
HETATM   42  C22 UNL     1      16.212  39.379  19.412  1.00  0.00    -0.013 C 
HETATM   43  C23 UNL     1      17.417  40.178  19.869  1.00  0.00     0.009 C 
HETATM   44  C27 UNL     1      16.488  37.918  19.245  1.00  0.00     0.014 C 
HETATM   45  C24 UNL     1      18.509  39.968  18.849  1.00  0.00    -0.013 C 
HETATM   46  C26 UNL     1      18.805  38.474  18.853  1.00  0.00     0.014 C 
ENDBRANCH  36  37
ENDBRANCH  35  36
ENDBRANCH  32  35
BRANCH  32  47
HETATM   47  C28 UNL     1      16.263  34.106  15.645  1.00  0.00     0.151 C 
HETATM   48  C29 UNL     1      16.270  35.128  14.543  1.00  0.00     0.093 C 
HETATM   49  O6  UNL     1      15.678  33.070  15.405  1.00  0.00    -0.296 OA
ENDBRANCH  32  47
ENDBRANCH  30  32
ENDBRANCH   1  30
TORSDOF 17
ENDMDL
MODEL 2
REMARK VINA RESULT: -8.727536707      2.548     10.460
REMARK  17 active torsions:
REMARK  status: ('A' for Active; 'I' for Inactive)
REMARK    1  A    between atoms: C2_2  and  C3_3 
REMARK    2  A    between atoms: C3_3  and  C4_4 
REMARK    3  A    between atoms: C4_4  and  C5_5 
REMARK    4  A    between atoms: C5_5  and  O2_7 
REMARK    5  A    between atoms: O2_7  and  C6_8 
REMARK    6  A    between atoms: C8_10  and  O3_11 
REMARK    7  A    between atoms: O3_11  and  C9_12 
REMARK    8  A    between atoms: C9_12  and  C10_14 
REMARK    9  A    between atoms: C10_14  and  N2_20 
REMARK       I    between atoms: N1_15  and  C11_17 
REMARK   10  A    between atoms: N2_20  and  C13_22 
REMARK   11  A    between atoms: C13_22  and  C14_23 
REMARK   12  A    between atoms: C13_22  and  C16_25 
REMARK   13  A    between atoms: C13_22  and  C28_37 
REMARK   14  A    between atoms: C16_25  and  C17_26 
REMARK   15  A    between atoms: C17_26  and  C18_27 
REMARK   16  A    between atoms: C30_40  and  O7_41 
REMARK   17  A    between atoms: C31_43  and  N3_45 
REMARK       I    between atoms: N3_45  and  C33_47 
ROOT
HETATM    1  C10 UNL     1      18.902  28.599  12.972  1.00  0.00     0.181 C 
HETATM    2  N1  UNL     1      19.837  28.153  13.622  1.00  0.00    -0.309 N 
ATOM      3  H1  UNL     1      19.870  27.147  13.455  1.00  0.00     0.170 HD
HETATM    4  C11 UNL     1      20.841  28.453  14.471  1.00  0.00     0.219 C 
HETATM    5  C12 UNL     1      22.165  28.941  13.965  1.00  0.00     0.117 C 
HETATM    6  O5  UNL     1      20.711  28.335  15.732  1.00  0.00    -0.274 OA
ENDROOT
BRANCH   1   7
HETATM    7  C9  UNL     1      18.535  30.004  12.954  1.00  0.00     0.328 C 
HETATM    8  O4  UNL     1      18.949  30.837  12.143  1.00  0.00    -0.256 OA
BRANCH   7   9
HETATM    9  O3  UNL     1      17.637  30.458  13.929  1.00  0.00    -0.307 OA
BRANCH   9  10
HETATM   10  C8  UNL     1      17.481  31.837  14.129  1.00  0.00     0.166 C 
HETATM   11  C7  UNL     1      18.671  32.678  13.858  1.00  0.00     0.070 C 
HETATM   12  C6  UNL     1      19.501  32.766  15.092  1.00  0.00     0.164 C 
HETATM   13  C31 UNL     1      18.601  32.294  16.209  1.00  0.00     0.084 C 
HETATM   14  C30 UNL     1      17.239  32.049  15.634  1.00  0.00     0.178 C 
HETATM   15  C32 UNL     1      19.108  30.969  16.739  1.00  0.00     0.044 C 
BRANCH  12  16
HETATM   16  O2  UNL     1      20.636  31.933  15.068  1.00  0.00    -0.313 OA
BRANCH  16  17
HETATM   17  C5  UNL     1      21.911  32.431  14.821  1.00  0.00     0.259 C 
HETATM   18  O1  UNL     1      22.131  32.815  13.646  1.00  0.00    -0.265 OA
BRANCH  17  19
HETATM   19  C4  UNL     1      22.943  32.517  15.849  1.00  0.00     0.111 C 
BRANCH  19  20
HETATM   20  C3  UNL     1      22.519  32.965  17.206  1.00  0.00     0.009 C 
BRANCH  20  21
HETATM   21  C2  UNL     1      21.970  34.341  17.331  1.00  0.00    -0.004 C 
HETATM   22  C1  UNL     1      21.660  34.864  18.682  1.00  0.00     0.005 C 
ENDBRANCH  20  21
ENDBRANCH  19  20
ENDBRANCH  17  19
ENDBRANCH  16  17
ENDBRANCH  12  16
BRANCH  13  23
HETATM   23  N3  UNL     1      18.591  33.229  17.318  1.00  0.00    -0.347 N 
HETATM   24  C33 UNL     1      17.918  34.472  17.236  1.00  0.00     0.214 C 
HETATM   25  C34 UNL     1      17.927  35.414  18.407  1.00  0.00     0.117 C 
HETATM   26  O8  UNL     1      17.303  34.834  16.223  1.00  0.00    -0.274 OA
ATOM     27  H3  UNL     1      19.082  32.984  18.178  1.00  0.00     0.163 HD
ENDBRANCH  13  23
BRANCH  14  28
HETATM   28  O7  UNL     1      16.566  31.028  16.243  1.00  0.00    -0.390 OA
ATOM     29  H7  UNL     1      17.124  30.330  16.563  1.00  0.00     0.210 HD
ENDBRANCH  14  28
ENDBRANCH   9  10
ENDBRANCH   7   9
ENDBRANCH   1   7
BRANCH   1  30
HETATM   30  N2  UNL     1      18.057  27.740  12.201  1.00  0.00    -0.355 N 
ATOM     31  H2  UNL     1      17.250  27.343  12.682  1.00  0.00     0.162 HD
BRANCH  30  32
HETATM   32  C13 UNL     1      18.223  27.375  10.812  1.00  0.00     0.091 C 
BRANCH  32  33
HETATM   33  C14 UNL     1      17.530  28.403   9.951  1.00  0.00     0.034 C 
HETATM   34  C15 UNL     1      16.379  29.071  10.613  1.00  0.00     0.008 C 
ENDBRANCH  32  33
BRANCH  32  35
HETATM   35  C16 UNL     1      19.714  27.367  10.533  1.00  0.00     0.040 C 
BRANCH  35  36
HETATM   36  C17 UNL     1      20.454  26.126  10.794  1.00  0.00     0.012 C 
BRANCH  36  37
HETATM   37  C18 UNL     1      21.956  26.385  10.607  1.00  0.00    -0.039 C 
HETATM   38  C19 UNL     1      22.265  27.836  10.512  1.00  0.00     0.014 C 
HETATM   39  C20 UNL     1      23.768  27.991  10.366  1.00  0.00    -0.013 C 
HETATM   40  C21 UNL     1      24.518  27.429  11.544  1.00  0.00     0.009 C 
HETATM   41  C25 UNL     1      24.186  27.232   9.130  1.00  0.00     0.009 C 
HETATM   42  C22 UNL     1      24.127  25.974  11.757  1.00  0.00    -0.013 C 
HETATM   43  C23 UNL     1      24.659  25.206  10.562  1.00  0.00     0.009 C 
HETATM   44  C27 UNL     1      22.640  25.899  11.905  1.00  0.00     0.014 C 
HETATM   45  C24 UNL     1      23.985  25.764   9.333  1.00  0.00    -0.013 C 
HETATM   46  C26 UNL     1      22.494  25.519   9.525  1.00  0.00     0.014 C 
ENDBRANCH  36  37
ENDBRANCH  35  36
ENDBRANCH  32  35
BRANCH  32  47
HETATM   47  C28 UNL     1      17.660  26.034  10.600  1.00  0.00     0.151 C 
HETATM   48  C29 UNL     1      17.161  25.537   9.272  1.00  0.00     0.093 C 
HETATM   49  O6  UNL     1      17.571  25.255  11.526  1.00  0.00    -0.296 OA
ENDBRANCH  32  47
ENDBRANCH  30  32
ENDBRANCH   1  30
TORSDOF 17
ENDMDL
MODEL 3
REMARK VINA RESULT: -8.700495622      2.584     11.096
REMARK  17 active torsions:
REMARK  status: ('A' for Active; 'I' for Inactive)
REMARK    1  A    between atoms: C2_2  and  C3_3 
REMARK    2  A    between atoms: C3_3  and  C4_4 
REMARK    3  A    between atoms: C4_4  and  C5_5 
REMARK    4  A    between atoms: C5_5  and  O2_7 
REMARK    5  A    between atoms: O2_7  and  C6_8 
REMARK    6  A    between atoms: C8_10  and  O3_11 
REMARK    7  A    between atoms: O3_11  and  C9_12 
REMARK    8  A    between atoms: C9_12  and  C10_14 
REMARK    9  A    between atoms: C10_14  and  N2_20 
REMARK       I    between atoms: N1_15  and  C11_17 
REMARK   10  A    between atoms: N2_20  and  C13_22 
REMARK   11  A    between atoms: C13_22  and  C14_23 
REMARK   12  A    between atoms: C13_22  and  C16_25 
REMARK   13  A    between atoms: C13_22  and  C28_37 
REMARK   14  A    between atoms: C16_25  and  C17_26 
REMARK   15  A    between atoms: C17_26  and  C18_27 
REMARK   16  A    between atoms: C30_40  and  O7_41 
REMARK   17  A    between atoms: C31_43  and  N3_45 
REMARK       I    between atoms: N3_45  and  C33_47 
ROOT
HETATM    1  C10 UNL     1      20.843  28.319  12.133  1.00  0.00     0.181 C 
HETATM    2  N1  UNL     1      21.594  27.555  11.543  1.00  0.00    -0.309 N 
ATOM      3  H1  UNL     1      21.211  27.416  10.607  1.00  0.00     0.170 HD
HETATM    4  C11 UNL     1      22.723  26.823  11.629  1.00  0.00     0.219 C 
HETATM    5  C12 UNL     1      24.067  27.437  11.376  1.00  0.00     0.117 C 
HETATM    6  O5  UNL     1      22.698  25.585  11.926  1.00  0.00    -0.274 OA
ENDROOT
BRANCH   1   7
HETATM    7  C9  UNL     1      21.056  28.757  13.501  1.00  0.00     0.328 C 
HETATM    8  O4  UNL     1      21.642  28.109  14.372  1.00  0.00    -0.256 OA
BRANCH   7   9
HETATM    9  O3  UNL     1      20.563  30.016  13.870  1.00  0.00    -0.307 OA
BRANCH   9  10
HETATM   10  C8  UNL     1      21.117  30.672  14.978  1.00  0.00     0.166 C 
HETATM   11  C7  UNL     1      20.250  30.787  16.174  1.00  0.00     0.070 C 
HETATM   12  C6  UNL     1      19.427  32.024  16.067  1.00  0.00     0.164 C 
HETATM   13  C31 UNL     1      20.090  32.848  14.990  1.00  0.00     0.084 C 
HETATM   14  C30 UNL     1      21.341  32.138  14.568  1.00  0.00     0.178 C 
HETATM   15  C32 UNL     1      19.183  32.916  13.778  1.00  0.00     0.044 C 
BRANCH  12  16
HETATM   16  O2  UNL     1      18.096  31.784  15.674  1.00  0.00    -0.313 OA
BRANCH  16  17
HETATM   17  C5  UNL     1      17.024  32.448  16.259  1.00  0.00     0.259 C 
HETATM   18  O1  UNL     1      15.887  31.976  16.012  1.00  0.00    -0.265 OA
BRANCH  17  19
HETATM   19  C4  UNL     1      17.186  33.620  17.113  1.00  0.00     0.111 C 
BRANCH  19  20
HETATM   20  C3  UNL     1      16.942  34.954  16.493  1.00  0.00     0.009 C 
BRANCH  20  21
HETATM   21  C2  UNL     1      15.826  35.769  17.042  1.00  0.00    -0.004 C 
HETATM   22  C1  UNL     1      14.687  35.075  17.687  1.00  0.00     0.005 C 
ENDBRANCH  20  21
ENDBRANCH  19  20
ENDBRANCH  17  19
ENDBRANCH  16  17
ENDBRANCH  12  16
BRANCH  13  23
HETATM   23  N3  UNL     1      20.328  34.209  15.429  1.00  0.00    -0.347 N 
HETATM   24  C33 UNL     1      21.272  34.509  16.441  1.00  0.00     0.214 C 
HETATM   25  C34 UNL     1      21.494  35.933  16.868  1.00  0.00     0.117 C 
HETATM   26  O8  UNL     1      21.945  33.637  17.008  1.00  0.00    -0.274 OA
ATOM     27  H3  UNL     1      19.802  34.970  14.998  1.00  0.00     0.163 HD
ENDBRANCH  13  23
BRANCH  14  28
HETATM   28  O7  UNL     1      21.647  32.311  13.247  1.00  0.00    -0.390 OA
ATOM     29  H7  UNL     1      22.531  32.619  13.089  1.00  0.00     0.210 HD
ENDBRANCH  14  28
ENDBRANCH   9  10
ENDBRANCH   7   9
ENDBRANCH   1   7
BRANCH   1  30
HETATM   30  N2  UNL     1      19.648  28.810  11.518  1.00  0.00    -0.355 N 
ATOM     31  H2  UNL     1      19.652  29.789  11.233  1.00  0.00     0.162 HD
BRANCH  30  32
HETATM   32  C13 UNL     1      18.437  28.066  11.256  1.00  0.00     0.091 C 
BRANCH  32  33
HETATM   33  C14 UNL     1      17.258  29.004  11.352  1.00  0.00     0.034 C 
HETATM   34  C15 UNL     1      17.437  30.102  12.337  1.00  0.00     0.008 C 
ENDBRANCH  32  33
BRANCH  32  35
HETATM   35  C16 UNL     1      18.556  27.505   9.851  1.00  0.00     0.040 C 
BRANCH  35  36
HETATM   36  C17 UNL     1      17.457  26.672   9.350  1.00  0.00     0.012 C 
BRANCH  36  37
HETATM   37  C18 UNL     1      17.831  26.125   7.964  1.00  0.00    -0.039 C 
HETATM   38  C19 UNL     1      18.076  27.213   6.981  1.00  0.00     0.014 C 
HETATM   39  C20 UNL     1      18.471  26.577   5.660  1.00  0.00    -0.013 C 
HETATM   40  C21 UNL     1      19.729  25.756   5.774  1.00  0.00     0.009 C 
HETATM   41  C25 UNL     1      17.345  25.664   5.239  1.00  0.00     0.009 C 
HETATM   42  C22 UNL     1      19.564  24.711   6.868  1.00  0.00    -0.013 C 
HETATM   43  C23 UNL     1      18.513  23.736   6.376  1.00  0.00     0.009 C 
HETATM   44  C27 UNL     1      19.189  25.408   8.138  1.00  0.00     0.014 C 
HETATM   45  C24 UNL     1      17.233  24.512   6.185  1.00  0.00    -0.013 C 
HETATM   46  C26 UNL     1      16.870  25.065   7.556  1.00  0.00     0.014 C 
ENDBRANCH  36  37
ENDBRANCH  35  36
ENDBRANCH  32  35
BRANCH  32  47
HETATM   47  C28 UNL     1      18.329  26.971  12.231  1.00  0.00     0.151 C 
HETATM   48  C29 UNL     1      17.688  27.116  13.584  1.00  0.00     0.093 C 
HETATM   49  O6  UNL     1      18.774  25.873  11.969  1.00  0.00    -0.296 OA
ENDBRANCH  32  47
ENDBRANCH  30  32
ENDBRANCH   1  30
TORSDOF 17
ENDMDL
MODEL 4
REMARK VINA RESULT: -8.670384542      3.035      5.481
REMARK  17 active torsions:
REMARK  status: ('A' for Active; 'I' for Inactive)
REMARK    1  A    between atoms: C2_2  and  C3_3 
REMARK    2  A    between atoms: C3_3  and  C4_4 
REMARK    3  A    between atoms: C4_4  and  C5_5 
REMARK    4  A    between atoms: C5_5  and  O2_7 
REMARK    5  A    between atoms: O2_7  and  C6_8 
REMARK    6  A    between atoms: C8_10  and  O3_11 
REMARK    7  A    between atoms: O3_11  and  C9_12 
REMARK    8  A    between atoms: C9_12  and  C10_14 
REMARK    9  A    between atoms: C10_14  and  N2_20 
REMARK       I    between atoms: N1_15  and  C11_17 
REMARK   10  A    between atoms: N2_20  and  C13_22 
REMARK   11  A    between atoms: C13_22  and  C14_23 
REMARK   12  A    between atoms: C13_22  and  C16_25 
REMARK   13  A    between atoms: C13_22  and  C28_37 
REMARK   14  A    between atoms: C16_25  and  C17_26 
REMARK   15  A    between atoms: C17_26  and  C18_27 
REMARK   16  A    between atoms: C30_40  and  O7_41 
REMARK   17  A    between atoms: C31_43  and  N3_45 
REMARK       I    between atoms: N3_45  and  C33_47 
ROOT
HETATM    1  C10 UNL     1      20.251  29.329  14.593  1.00  0.00     0.181 C 
HETATM    2  N1  UNL     1      19.051  29.118  14.488  1.00  0.00    -0.309 N 
ATOM      3  H1  UNL     1      18.567  29.862  14.991  1.00  0.00     0.170 HD
HETATM    4  C11 UNL     1      18.110  28.300  13.977  1.00  0.00     0.219 C 
HETATM    5  C12 UNL     1      17.631  28.454  12.565  1.00  0.00     0.117 C 
HETATM    6  O5  UNL     1      17.587  27.364  14.666  1.00  0.00    -0.274 OA
ENDROOT
BRANCH   1   7
HETATM    7  C9  UNL     1      21.271  28.477  14.006  1.00  0.00     0.328 C 
HETATM    8  O4  UNL     1      22.434  28.382  14.405  1.00  0.00    -0.256 OA
BRANCH   7   9
HETATM    9  O3  UNL     1      20.913  27.695  12.900  1.00  0.00    -0.307 OA
BRANCH   9  10
HETATM   10  C8  UNL     1      21.150  28.184  11.608  1.00  0.00     0.166 C 
HETATM   11  C7  UNL     1      20.153  27.819  10.575  1.00  0.00     0.070 C 
HETATM   12  C6  UNL     1      20.532  26.514   9.966  1.00  0.00     0.164 C 
HETATM   13  C31 UNL     1      21.970  26.292  10.368  1.00  0.00     0.084 C 
HETATM   14  C30 UNL     1      22.438  27.512  11.101  1.00  0.00     0.178 C 
HETATM   15  C32 UNL     1      22.050  25.130  11.335  1.00  0.00     0.044 C 
BRANCH  12  16
HETATM   16  O2  UNL     1      19.775  25.427  10.445  1.00  0.00    -0.313 OA
BRANCH  16  17
HETATM   17  C5  UNL     1      18.404  25.522  10.660  1.00  0.00     0.259 C 
HETATM   18  O1  UNL     1      17.997  25.129  11.781  1.00  0.00    -0.265 OA
BRANCH  17  19
HETATM   19  C4  UNL     1      17.478  26.046   9.662  1.00  0.00     0.111 C 
BRANCH  19  20
HETATM   20  C3  UNL     1      17.168  25.174   8.495  1.00  0.00     0.009 C 
BRANCH  20  21
HETATM   21  C2  UNL     1      17.980  25.366   7.263  1.00  0.00    -0.004 C 
HETATM   22  C1  UNL     1      18.181  26.740   6.749  1.00  0.00     0.005 C 
ENDBRANCH  20  21
ENDBRANCH  19  20
ENDBRANCH  17  19
ENDBRANCH  16  17
ENDBRANCH  12  16
BRANCH  13  23
HETATM   23  N3  UNL     1      22.799  25.962   9.225  1.00  0.00    -0.347 N 
HETATM   24  C33 UNL     1      22.620  24.758   8.500  1.00  0.00     0.214 C 
HETATM   25  C34 UNL     1      23.498  24.451   7.319  1.00  0.00     0.117 C 
HETATM   26  O8  UNL     1      21.754  23.922   8.795  1.00  0.00    -0.274 OA
ATOM     27  H3  UNL     1      23.530  26.612   8.937  1.00  0.00     0.163 HD
ENDBRANCH  13  23
BRANCH  14  28
HETATM   28  O7  UNL     1      23.352  27.242  12.081  1.00  0.00    -0.390 OA
ATOM     29  H7  UNL     1      23.588  26.325  12.151  1.00  0.00     0.210 HD
ENDBRANCH  14  28
ENDBRANCH   9  10
ENDBRANCH   7   9
ENDBRANCH   1   7
BRANCH   1  30
HETATM   30  N2  UNL     1      20.748  30.430  15.359  1.00  0.00    -0.355 N 
ATOM     31  H2  UNL     1      20.826  30.287  16.366  1.00  0.00     0.162 HD
BRANCH  30  32
HETATM   32  C13 UNL     1      21.152  31.725  14.859  1.00  0.00     0.091 C 
BRANCH  32  33
HETATM   33  C14 UNL     1      21.228  31.664  13.353  1.00  0.00     0.034 C 
HETATM   34  C15 UNL     1      19.967  32.047  12.667  1.00  0.00     0.008 C 
ENDBRANCH  32  33
BRANCH  32  35
HETATM   35  C16 UNL     1      20.092  32.718  15.298  1.00  0.00     0.040 C 
BRANCH  35  36
HETATM   36  C17 UNL     1      19.249  32.360  16.444  1.00  0.00     0.012 C 
BRANCH  36  37
HETATM   37  C18 UNL     1      17.933  33.149  16.368  1.00  0.00    -0.039 C 
HETATM   38  C19 UNL     1      17.793  33.880  15.082  1.00  0.00     0.014 C 
HETATM   39  C20 UNL     1      16.455  34.596  15.088  1.00  0.00    -0.013 C 
HETATM   40  C21 UNL     1      15.296  33.641  15.213  1.00  0.00     0.009 C 
HETATM   41  C25 UNL     1      16.438  35.521  16.280  1.00  0.00     0.009 C 
HETATM   42  C22 UNL     1      15.471  32.779  16.453  1.00  0.00    -0.013 C 
HETATM   43  C23 UNL     1      15.333  33.707  17.645  1.00  0.00     0.009 C 
HETATM   44  C27 UNL     1      16.801  32.097  16.374  1.00  0.00     0.014 C 
HETATM   45  C24 UNL     1      16.438  34.730  17.548  1.00  0.00    -0.013 C 
HETATM   46  C26 UNL     1      17.742  33.946  17.610  1.00  0.00     0.014 C 
ENDBRANCH  36  37
ENDBRANCH  35  36
ENDBRANCH  32  35
BRANCH  32  47
HETATM   47  C28 UNL     1      22.452  32.079  15.446  1.00  0.00     0.151 C 
HETATM   48  C29 UNL     1      23.647  32.502  14.637  1.00  0.00     0.093 C 
HETATM   49  O6  UNL     1      22.613  32.036  16.648  1.00  0.00    -0.296 OA
ENDBRANCH  32  47
ENDBRANCH  30  32
ENDBRANCH   1  30
TORSDOF 17
ENDMDL
MODEL 5
REMARK VINA RESULT: -8.651958436      2.333     11.120
REMARK  17 active torsions:
REMARK  status: ('A' for Active; 'I' for Inactive)
REMARK    1  A    between atoms: C2_2  and  C3_3 
REMARK    2  A    between atoms: C3_3  and  C4_4 
REMARK    3  A    between atoms: C4_4  and  C5_5 
REMARK    4  A    between atoms: C5_5  and  O2_7 
REMARK    5  A    between atoms: O2_7  and  C6_8 
REMARK    6  A    between atoms: C8_10  and  O3_11 
REMARK    7  A    between atoms: O3_11  and  C9_12 
REMARK    8  A    between atoms: C9_12  and  C10_14 
REMARK    9  A    between atoms: C10_14  and  N2_20 
REMARK       I    between atoms: N1_15  and  C11_17 
REMARK   10  A    between atoms: N2_20  and  C13_22 
REMARK   11  A    between atoms: C13_22  and  C14_23 
REMARK   12  A    between atoms: C13_22  and  C16_25 
REMARK   13  A    between atoms: C13_22  and  C28_37 
REMARK   14  A    between atoms: C16_25  and  C17_26 
REMARK   15  A    between atoms: C17_26  and  C18_27 
REMARK   16  A    between atoms: C30_40  and  O7_41 
REMARK   17  A    between atoms: C31_43  and  N3_45 
REMARK       I    between atoms: N3_45  and  C33_47 
ROOT
HETATM    1  C10 UNL     1      20.816  28.383  12.225  1.00  0.00     0.181 C 
HETATM    2  N1  UNL     1      21.586  27.626  11.651  1.00  0.00    -0.309 N 
ATOM      3  H1  UNL     1      21.228  27.488  10.706  1.00  0.00     0.170 HD
HETATM    4  C11 UNL     1      22.717  26.900  11.762  1.00  0.00     0.219 C 
HETATM    5  C12 UNL     1      24.064  27.522  11.544  1.00  0.00     0.117 C 
HETATM    6  O5  UNL     1      22.692  25.660  12.055  1.00  0.00    -0.274 OA
ENDROOT
BRANCH   1   7
HETATM    7  C9  UNL     1      20.993  28.817  13.600  1.00  0.00     0.328 C 
HETATM    8  O4  UNL     1      21.607  28.193  14.469  1.00  0.00    -0.256 OA
BRANCH   7   9
HETATM    9  O3  UNL     1      20.427  30.042  13.977  1.00  0.00    -0.307 OA
BRANCH   9  10
HETATM   10  C8  UNL     1      20.900  30.691  15.126  1.00  0.00     0.166 C 
HETATM   11  C7  UNL     1      19.941  30.821  16.249  1.00  0.00     0.070 C 
HETATM   12  C6  UNL     1      19.149  32.070  16.076  1.00  0.00     0.164 C 
HETATM   13  C31 UNL     1      19.909  32.882  15.055  1.00  0.00     0.084 C 
HETATM   14  C30 UNL     1      21.179  32.153  14.736  1.00  0.00     0.178 C 
HETATM   15  C32 UNL     1      19.104  32.963  13.774  1.00  0.00     0.044 C 
BRANCH  12  16
HETATM   16  O2  UNL     1      17.851  31.850  15.576  1.00  0.00    -0.313 OA
BRANCH  16  17
HETATM   17  C5  UNL     1      16.723  32.372  16.200  1.00  0.00     0.259 C 
HETATM   18  O1  UNL     1      15.678  31.683  16.109  1.00  0.00    -0.265 OA
BRANCH  17  19
HETATM   19  C4  UNL     1      16.731  33.639  16.925  1.00  0.00     0.111 C 
BRANCH  19  20
HETATM   20  C3  UNL     1      15.530  33.961  17.747  1.00  0.00     0.009 C 
BRANCH  20  21
HETATM   21  C2  UNL     1      14.984  35.340  17.648  1.00  0.00    -0.004 C 
HETATM   22  C1  UNL     1      15.874  36.483  17.953  1.00  0.00     0.005 C 
ENDBRANCH  20  21
ENDBRANCH  19  20
ENDBRANCH  17  19
ENDBRANCH  16  17
ENDBRANCH  12  16
BRANCH  13  23
HETATM   23  N3  UNL     1      20.132  34.241  15.512  1.00  0.00    -0.347 N 
HETATM   24  C33 UNL     1      21.090  34.541  16.510  1.00  0.00     0.214 C 
HETATM   25  C34 UNL     1      21.295  35.961  16.957  1.00  0.00     0.117 C 
HETATM   26  O8  UNL     1      21.789  33.671  17.050  1.00  0.00    -0.274 OA
ATOM     27  H3  UNL     1      19.584  34.998  15.103  1.00  0.00     0.163 HD
ENDBRANCH  13  23
BRANCH  14  28
HETATM   28  O7  UNL     1      21.593  32.320  13.444  1.00  0.00    -0.390 OA
ATOM     29  H7  UNL     1      22.483  32.640  13.358  1.00  0.00     0.210 HD
ENDBRANCH  14  28
ENDBRANCH   9  10
ENDBRANCH   7   9
ENDBRANCH   1   7
BRANCH   1  30
HETATM   30  N2  UNL     1      19.634  28.869  11.582  1.00  0.00    -0.355 N 
ATOM     31  H2  UNL     1      19.630  29.855  11.322  1.00  0.00     0.162 HD
BRANCH  30  32
HETATM   32  C13 UNL     1      18.446  28.112  11.261  1.00  0.00     0.091 C 
BRANCH  32  33
HETATM   33  C14 UNL     1      17.250  29.030  11.326  1.00  0.00     0.034 C 
HETATM   34  C15 UNL     1      17.375  30.117  12.332  1.00  0.00     0.008 C 
ENDBRANCH  32  33
BRANCH  32  35
HETATM   35  C16 UNL     1      18.629  27.577   9.853  1.00  0.00     0.040 C 
BRANCH  35  36
HETATM   36  C17 UNL     1      17.496  26.880   9.232  1.00  0.00     0.012 C 
BRANCH  36  37
HETATM   37  C18 UNL     1      17.978  26.174   7.955  1.00  0.00    -0.039 C 
HETATM   38  C19 UNL     1      19.195  25.356   8.195  1.00  0.00     0.014 C 
HETATM   39  C20 UNL     1      19.570  24.674   6.891  1.00  0.00    -0.013 C 
HETATM   40  C21 UNL     1      18.482  23.761   6.389  1.00  0.00     0.009 C 
HETATM   41  C25 UNL     1      19.796  25.753   5.861  1.00  0.00     0.009 C 
HETATM   42  C22 UNL     1      17.180  24.536   6.257  1.00  0.00    -0.013 C 
HETATM   43  C23 UNL     1      17.387  25.537   5.137  1.00  0.00     0.009 C 
HETATM   44  C27 UNL     1      16.867  25.168   7.577  1.00  0.00     0.014 C 
HETATM   45  C24 UNL     1      18.511  26.453   5.555  1.00  0.00    -0.013 C 
HETATM   46  C26 UNL     1      18.038  27.142   6.828  1.00  0.00     0.014 C 
ENDBRANCH  36  37
ENDBRANCH  35  36
ENDBRANCH  32  35
BRANCH  32  47
HETATM   47  C28 UNL     1      18.317  26.999  12.213  1.00  0.00     0.151 C 
HETATM   48  C29 UNL     1      17.680  27.129  13.569  1.00  0.00     0.093 C 
HETATM   49  O6  UNL     1      18.740  25.899  11.928  1.00  0.00    -0.296 OA
ENDBRANCH  32  47
ENDBRANCH  30  32
ENDBRANCH   1  30
TORSDOF 17
ENDMDL
