MODEL 1
REMARK VINA RESULT: -7.936517150      0.000      0.000
REMARK  18 active torsions:
REMARK  status: ('A' for Active; 'I' for Inactive)
REMARK    1  A    between atoms: C2_2  and  C3_3 
REMARK    2  A    between atoms: C3_3  and  N1_4 
REMARK    3  A    between atoms: C3_3  and  C4_8 
REMARK    4  A    between atoms: C4_8  and  C5_10 
REMARK    5  A    between atoms: C5_10  and  C6_11 
REMARK    6  A    between atoms: C5_10  and  N5_40 
REMARK    7  A    between atoms: C6_11  and  C7_12 
REMARK       I    between atoms: N2_14  and  C9_15 
REMARK    8  A    between atoms: C9_15  and  O3_17 
REMARK    9  A    between atoms: O3_17  and  C10_18 
REMARK   10  A    between atoms: N3_24  and  C16_25 
REMARK   11  A    between atoms: C16_25  and  O4_26 
REMARK   12  A    between atoms: C16_25  and  C17_28 
REMARK   13  A    between atoms: C17_28  and  C18_29 
REMARK   14  A    between atoms: C17_28  and  N4_32 
REMARK   15  A    between atoms: C18_29  and  S1_30 
REMARK   16  A    between atoms: N4_32  and  C20_34 
REMARK       I    between atoms: N5_40  and  C26_42 
REMARK   17  A    between atoms: C26_42  and  O6_44 
REMARK   18  A    between atoms: O6_44  and  C27_45 
ROOT
HETATM    1  C7  UNL     1      19.303  30.316  14.687  1.00  0.00     0.111 C 
HETATM    2  C8  UNL     1      18.545  29.109  14.109  1.00  0.00     0.154 C 
HETATM    3  N2  UNL     1      17.794  29.478  12.962  1.00  0.00    -0.321 N 
HETATM    4  C9  UNL     1      17.485  28.457  12.003  1.00  0.00     0.363 C 
HETATM    5  O2  UNL     1      16.763  28.754  10.995  1.00  0.00    -0.238 OA
HETATM    6  C14 UNL     1      17.377  30.816  12.735  1.00  0.00     0.172 C 
HETATM    7  C15 UNL     1      17.479  31.761  13.906  1.00  0.00     0.086 C 
HETATM    8  N3  UNL     1      18.345  31.395  14.955  1.00  0.00    -0.332 N 
ENDROOT
BRANCH   1   9
HETATM    9  C6  UNL     1      20.379  30.658  13.747  1.00  0.00     0.060 C 
BRANCH   9  10
HETATM   10  C5  UNL     1      21.790  30.549  14.163  1.00  0.00     0.161 C 
BRANCH  10  11
HETATM   11  C4  UNL     1      22.504  31.856  14.262  1.00  0.00     0.183 C 
HETATM   12  O1  UNL     1      22.266  32.752  13.483  1.00  0.00    -0.293 OA
BRANCH  11  13
HETATM   13  C3  UNL     1      23.526  32.092  15.301  1.00  0.00     0.276 C 
BRANCH  13  14
HETATM   14  C2  UNL     1      22.862  32.713  16.491  1.00  0.00     0.003 C 
HETATM   15  C1  UNL     1      22.150  32.003  17.347  1.00  0.00     0.009 C 
ENDBRANCH  13  14
BRANCH  13  16
HETATM   16  N1  UNL     1      24.464  33.140  14.847  1.00  0.00    -0.065 N 
ATOM     17  H13 UNL     1      24.664  33.124  13.846  1.00  0.00     0.275 HD
ATOM     18  H12 UNL     1      24.083  34.085  14.863  1.00  0.00     0.275 HD
ATOM     19  H11 UNL     1      25.279  33.001  15.443  1.00  0.00     0.275 HD
ENDBRANCH  13  16
ENDBRANCH  11  13
ENDBRANCH  10  11
BRANCH  10  20
HETATM   20  N5  UNL     1      22.651  29.709  13.380  1.00  0.00    -0.325 N 
HETATM   21  C26 UNL     1      22.523  28.345  13.102  1.00  0.00     0.361 C 
HETATM   22  O5  UNL     1      21.556  27.628  13.539  1.00  0.00    -0.238 OA
ATOM     23  H5  UNL     1      23.465  30.169  12.971  1.00  0.00     0.165 HD
BRANCH  21  24
HETATM   24  O6  UNL     1      23.430  27.677  12.332  1.00  0.00    -0.299 OA
BRANCH  24  25
HETATM   25  C27 UNL     1      23.348  26.611  11.560  1.00  0.00     0.133 C 
HETATM   26  C28 UNL     1      23.449  27.558  10.070  1.00  0.00     0.032 C 
HETATM   27  C29 UNL     1      24.112  26.516   9.263  1.00  0.00     0.002 C 
HETATM   28  C30 UNL     1      25.181  25.899  10.103  1.00  0.00     0.002 C 
HETATM   29  C31 UNL     1      25.032  26.381  11.487  1.00  0.00     0.032 C 
ENDBRANCH  24  25
ENDBRANCH  21  24
ENDBRANCH  10  20
ENDBRANCH   9  10
ENDBRANCH   1   9
BRANCH   8  30
HETATM   30  C16 UNL     1      18.327  31.947  16.234  1.00  0.00     0.166 C 
BRANCH  30  31
HETATM   31  O4  UNL     1      18.712  31.090  17.183  1.00  0.00    -0.344 OA
ATOM     32  H4  UNL     1      19.571  30.716  17.024  1.00  0.00     0.219 HD
ENDBRANCH  30  31
BRANCH  30  33
HETATM   33  C17 UNL     1      17.999  33.236  16.813  1.00  0.00     0.066 C 
BRANCH  33  34
HETATM   34  C18 UNL     1      16.545  33.531  17.102  1.00  0.00     0.134 C 
BRANCH  34  35
HETATM   35  S1  UNL     1      16.096  35.179  16.448  1.00  0.00    -0.167 SA
HETATM   36  C19 UNL     1      15.726  36.304  17.804  1.00  0.00     0.090 C 
ENDBRANCH  34  35
ENDBRANCH  33  34
BRANCH  33  37
HETATM   37  N4  UNL     1      18.811  33.697  17.889  1.00  0.00    -0.384 N 
ATOM     38  H4  UNL     1      18.935  33.089  18.697  1.00  0.00     0.160 HD
BRANCH  37  39
HETATM   39  C20 UNL     1      19.447  34.945  17.891  1.00  0.00     0.081 C 
HETATM   40  C21 UNL     1      20.266  35.311  19.080  1.00  0.00     0.025 C 
HETATM   41  C22 UNL     1      21.742  35.262  18.769  1.00  0.00     0.002 C 
HETATM   42  C23 UNL     1      22.047  36.380  17.784  1.00  0.00     0.000 C 
HETATM   43  C24 UNL     1      21.061  36.365  16.658  1.00  0.00     0.002 C 
HETATM   44  C25 UNL     1      20.405  35.006  16.658  1.00  0.00     0.025 C 
ENDBRANCH  37  39
ENDBRANCH  33  37
ENDBRANCH  30  33
ENDBRANCH   8  30
BRANCH   4  45
HETATM   45  O3  UNL     1      17.932  27.169  12.117  1.00  0.00    -0.294 OA
BRANCH  45  46
HETATM   46  C10 UNL     1      18.717  26.523  11.141  1.00  0.00     0.061 C 
HETATM   47  C11 UNL     1      19.763  27.513  10.606  1.00  0.00     0.046 C 
HETATM   48  C12 UNL     1      17.862  26.027  10.000  1.00  0.00     0.046 C 
HETATM   49  C13 UNL     1      19.436  25.331  11.730  1.00  0.00     0.046 C 
ENDBRANCH  45  46
ENDBRANCH   4  45
TORSDOF 18
ENDMDL
MODEL 2
REMARK VINA RESULT: -7.901053346      1.043      2.592
REMARK  18 active torsions:
REMARK  status: ('A' for Active; 'I' for Inactive)
REMARK    1  A    between atoms: C2_2  and  C3_3 
REMARK    2  A    between atoms: C3_3  and  N1_4 
REMARK    3  A    between atoms: C3_3  and  C4_8 
REMARK    4  A    between atoms: C4_8  and  C5_10 
REMARK    5  A    between atoms: C5_10  and  C6_11 
REMARK    6  A    between atoms: C5_10  and  N5_40 
REMARK    7  A    between atoms: C6_11  and  C7_12 
REMARK       I    between atoms: N2_14  and  C9_15 
REMARK    8  A    between atoms: C9_15  and  O3_17 
REMARK    9  A    between atoms: O3_17  and  C10_18 
REMARK   10  A    between atoms: N3_24  and  C16_25 
REMARK   11  A    between atoms: C16_25  and  O4_26 
REMARK   12  A    between atoms: C16_25  and  C17_28 
REMARK   13  A    between atoms: C17_28  and  C18_29 
REMARK   14  A    between atoms: C17_28  and  N4_32 
REMARK   15  A    between atoms: C18_29  and  S1_30 
REMARK   16  A    between atoms: N4_32  and  C20_34 
REMARK       I    between atoms: N5_40  and  C26_42 
REMARK   17  A    between atoms: C26_42  and  O6_44 
REMARK   18  A    between atoms: O6_44  and  C27_45 
ROOT
HETATM    1  C7  UNL     1      19.410  30.044  14.619  1.00  0.00     0.111 C 
HETATM    2  C8  UNL     1      18.462  29.011  13.987  1.00  0.00     0.154 C 
HETATM    3  N2  UNL     1      17.712  29.586  12.927  1.00  0.00    -0.321 N 
HETATM    4  C9  UNL     1      17.216  28.713  11.904  1.00  0.00     0.363 C 
HETATM    5  O2  UNL     1      16.492  29.200  10.974  1.00  0.00    -0.238 OA
HETATM    6  C14 UNL     1      17.477  30.983  12.846  1.00  0.00     0.172 C 
HETATM    7  C15 UNL     1      17.770  31.790  14.085  1.00  0.00     0.086 C 
HETATM    8  N3  UNL     1      18.628  31.212  15.042  1.00  0.00    -0.332 N 
ENDROOT
BRANCH   1   9
HETATM    9  C6  UNL     1      20.475  30.326  13.646  1.00  0.00     0.060 C 
BRANCH   9  10
HETATM   10  C5  UNL     1      21.888  30.325  14.071  1.00  0.00     0.161 C 
BRANCH  10  11
HETATM   11  C4  UNL     1      22.507  31.682  14.143  1.00  0.00     0.183 C 
HETATM   12  O1  UNL     1      22.191  32.550  13.360  1.00  0.00    -0.293 OA
BRANCH  11  13
HETATM   13  C3  UNL     1      23.528  32.001  15.160  1.00  0.00     0.276 C 
BRANCH  13  14
HETATM   14  C2  UNL     1      22.871  32.754  16.276  1.00  0.00     0.003 C 
HETATM   15  C1  UNL     1      22.442  32.152  17.371  1.00  0.00     0.009 C 
ENDBRANCH  13  14
BRANCH  13  16
HETATM   16  N1  UNL     1      24.490  32.979  14.609  1.00  0.00    -0.065 N 
ATOM     17  H13 UNL     1      24.121  33.924  14.505  1.00  0.00     0.275 HD
ATOM     18  H12 UNL     1      25.248  33.230  15.243  1.00  0.00     0.275 HD
ATOM     19  H11 UNL     1      24.794  32.545  13.738  1.00  0.00     0.275 HD
ENDBRANCH  13  16
ENDBRANCH  11  13
ENDBRANCH  10  11
BRANCH  10  20
HETATM   20  N5  UNL     1      22.810  29.531  13.310  1.00  0.00    -0.325 N 
HETATM   21  C26 UNL     1      22.687  28.200  12.904  1.00  0.00     0.361 C 
HETATM   22  O5  UNL     1      21.667  27.475  13.176  1.00  0.00    -0.238 OA
ATOM     23  H5  UNL     1      23.670  30.002  13.027  1.00  0.00     0.165 HD
BRANCH  21  24
HETATM   24  O6  UNL     1      23.657  27.574  12.176  1.00  0.00    -0.299 OA
BRANCH  24  25
HETATM   25  C27 UNL     1      23.722  26.399  11.580  1.00  0.00     0.133 C 
HETATM   26  C28 UNL     1      23.277  27.063  10.002  1.00  0.00     0.032 C 
HETATM   27  C29 UNL     1      24.032  26.083   9.198  1.00  0.00     0.002 C 
HETATM   28  C30 UNL     1      25.367  25.900   9.839  1.00  0.00     0.002 C 
HETATM   29  C31 UNL     1      25.359  26.570  11.150  1.00  0.00     0.032 C 
ENDBRANCH  24  25
ENDBRANCH  21  24
ENDBRANCH  10  20
ENDBRANCH   9  10
ENDBRANCH   1   9
BRANCH   8  30
HETATM   30  C16 UNL     1      18.753  31.636  16.363  1.00  0.00     0.166 C 
BRANCH  30  31
HETATM   31  O4  UNL     1      18.746  30.631  17.241  1.00  0.00    -0.344 OA
ATOM     32  H4  UNL     1      19.225  29.867  16.941  1.00  0.00     0.219 HD
ENDBRANCH  30  31
BRANCH  30  33
HETATM   33  C17 UNL     1      18.899  32.908  17.043  1.00  0.00     0.066 C 
BRANCH  33  34
HETATM   34  C18 UNL     1      19.579  34.035  16.297  1.00  0.00     0.134 C 
BRANCH  34  35
HETATM   35  S1  UNL     1      20.284  35.237  17.481  1.00  0.00    -0.167 SA
HETATM   36  C19 UNL     1      21.534  36.245  16.669  1.00  0.00     0.090 C 
ENDBRANCH  34  35
ENDBRANCH  33  34
BRANCH  33  37
HETATM   37  N4  UNL     1      17.766  33.408  17.749  1.00  0.00    -0.384 N 
ATOM     38  H4  UNL     1      17.570  33.034  18.677  1.00  0.00     0.160 HD
BRANCH  37  39
HETATM   39  C20 UNL     1      16.909  34.386  17.230  1.00  0.00     0.081 C 
HETATM   40  C21 UNL     1      15.599  33.946  16.675  1.00  0.00     0.025 C 
HETATM   41  C22 UNL     1      14.458  34.325  17.588  1.00  0.00     0.002 C 
HETATM   42  C23 UNL     1      14.342  35.842  17.582  1.00  0.00     0.000 C 
HETATM   43  C24 UNL     1      15.685  36.468  17.790  1.00  0.00     0.002 C 
HETATM   44  C25 UNL     1      16.586  35.406  18.371  1.00  0.00     0.025 C 
ENDBRANCH  37  39
ENDBRANCH  33  37
ENDBRANCH  30  33
ENDBRANCH   8  30
BRANCH   4  45
HETATM   45  O3  UNL     1      17.482  27.371  11.875  1.00  0.00    -0.294 OA
BRANCH  45  46
HETATM   46  C10 UNL     1      18.375  26.769  10.966  1.00  0.00     0.061 C 
HETATM   47  C11 UNL     1      19.005  25.534  11.627  1.00  0.00     0.046 C 
HETATM   48  C12 UNL     1      19.462  27.732  10.557  1.00  0.00     0.046 C 
HETATM   49  C13 UNL     1      17.653  26.331   9.712  1.00  0.00     0.046 C 
ENDBRANCH  45  46
ENDBRANCH   4  45
TORSDOF 18
ENDMDL
MODEL 3
REMARK VINA RESULT: -7.656211053      2.900      6.669
REMARK  18 active torsions:
REMARK  status: ('A' for Active; 'I' for Inactive)
REMARK    1  A    between atoms: C2_2  and  C3_3 
REMARK    2  A    between atoms: C3_3  and  N1_4 
REMARK    3  A    between atoms: C3_3  and  C4_8 
REMARK    4  A    between atoms: C4_8  and  C5_10 
REMARK    5  A    between atoms: C5_10  and  C6_11 
REMARK    6  A    between atoms: C5_10  and  N5_40 
REMARK    7  A    between atoms: C6_11  and  C7_12 
REMARK       I    between atoms: N2_14  and  C9_15 
REMARK    8  A    between atoms: C9_15  and  O3_17 
REMARK    9  A    between atoms: O3_17  and  C10_18 
REMARK   10  A    between atoms: N3_24  and  C16_25 
REMARK   11  A    between atoms: C16_25  and  O4_26 
REMARK   12  A    between atoms: C16_25  and  C17_28 
REMARK   13  A    between atoms: C17_28  and  C18_29 
REMARK   14  A    between atoms: C17_28  and  N4_32 
REMARK   15  A    between atoms: C18_29  and  S1_30 
REMARK   16  A    between atoms: N4_32  and  C20_34 
REMARK       I    between atoms: N5_40  and  C26_42 
REMARK   17  A    between atoms: C26_42  and  O6_44 
REMARK   18  A    between atoms: O6_44  and  C27_45 
ROOT
HETATM    1  C7  UNL     1      21.233  28.416  11.320  1.00  0.00     0.111 C 
HETATM    2  C8  UNL     1      22.404  28.089  10.378  1.00  0.00     0.154 C 
HETATM    3  N2  UNL     1      23.449  27.426  11.074  1.00  0.00    -0.321 N 
HETATM    4  C9  UNL     1      24.331  26.584  10.318  1.00  0.00     0.363 C 
HETATM    5  O2  UNL     1      25.311  26.024  10.912  1.00  0.00    -0.238 OA
HETATM    6  C14 UNL     1      23.617  27.552  12.477  1.00  0.00     0.172 C 
HETATM    7  C15 UNL     1      22.851  28.663  13.149  1.00  0.00     0.086 C 
HETATM    8  N3  UNL     1      21.741  29.190  12.459  1.00  0.00    -0.332 N 
ENDROOT
BRANCH   1   9
HETATM    9  C6  UNL     1      20.575  27.150  11.671  1.00  0.00     0.060 C 
BRANCH   9  10
HETATM   10  C5  UNL     1      19.277  26.796  11.066  1.00  0.00     0.161 C 
BRANCH  10  11
HETATM   11  C4  UNL     1      18.232  26.388  12.051  1.00  0.00     0.183 C 
HETATM   12  O1  UNL     1      17.925  25.223  12.180  1.00  0.00    -0.293 OA
BRANCH  11  13
HETATM   13  C3  UNL     1      17.537  27.387  12.885  1.00  0.00     0.276 C 
BRANCH  13  14
HETATM   14  C2  UNL     1      17.631  28.720  12.210  1.00  0.00     0.003 C 
HETATM   15  C1  UNL     1      16.738  29.123  11.323  1.00  0.00     0.009 C 
ENDBRANCH  13  14
BRANCH  13  16
HETATM   16  N1  UNL     1      18.282  27.588  14.145  1.00  0.00    -0.065 N 
ATOM     17  H13 UNL     1      19.285  27.411  14.077  1.00  0.00     0.275 HD
ATOM     18  H12 UNL     1      18.367  28.562  14.436  1.00  0.00     0.275 HD
ATOM     19  H11 UNL     1      17.791  26.989  14.808  1.00  0.00     0.275 HD
ENDBRANCH  13  16
ENDBRANCH  11  13
ENDBRANCH  10  11
BRANCH  10  20
HETATM   20  N5  UNL     1      19.270  25.769  10.063  1.00  0.00    -0.325 N 
HETATM   21  C26 UNL     1      18.719  25.807   8.779  1.00  0.00     0.361 C 
HETATM   22  O5  UNL     1      18.113  26.831   8.306  1.00  0.00    -0.238 OA
ATOM     23  H5  UNL     1      19.728  24.895  10.322  1.00  0.00     0.165 HD
BRANCH  21  24
HETATM   24  O6  UNL     1      18.792  24.741   7.930  1.00  0.00    -0.299 OA
BRANCH  24  25
HETATM   25  C27 UNL     1      18.488  24.578   6.657  1.00  0.00     0.133 C 
HETATM   26  C28 UNL     1      19.819  23.448   6.380  1.00  0.00     0.032 C 
HETATM   27  C29 UNL     1      19.149  22.669   5.321  1.00  0.00     0.002 C 
HETATM   28  C30 UNL     1      17.740  22.432   5.750  1.00  0.00     0.002 C 
HETATM   29  C31 UNL     1      17.466  23.249   6.944  1.00  0.00     0.032 C 
ENDBRANCH  24  25
ENDBRANCH  21  24
ENDBRANCH  10  20
ENDBRANCH   9  10
ENDBRANCH   1   9
BRANCH   8  30
HETATM   30  C16 UNL     1      21.125  30.406  12.748  1.00  0.00     0.166 C 
BRANCH  30  31
HETATM   31  O4  UNL     1      21.160  31.268  11.729  1.00  0.00    -0.344 OA
ATOM     32  H4  UNL     1      20.691  32.076  11.906  1.00  0.00     0.219 HD
ENDBRANCH  30  31
BRANCH  30  33
HETATM   33  C17 UNL     1      20.438  30.986  13.885  1.00  0.00     0.066 C 
BRANCH  33  34
HETATM   34  C18 UNL     1      21.133  30.943  15.227  1.00  0.00     0.134 C 
BRANCH  34  35
HETATM   35  S1  UNL     1      22.013  32.517  15.529  1.00  0.00    -0.167 SA
HETATM   36  C19 UNL     1      23.571  32.539  14.629  1.00  0.00     0.090 C 
ENDBRANCH  34  35
ENDBRANCH  33  34
BRANCH  33  37
HETATM   37  N4  UNL     1      19.818  32.256  13.699  1.00  0.00    -0.384 N 
ATOM     38  H4  UNL     1      20.401  33.041  13.411  1.00  0.00     0.160 HD
BRANCH  37  39
HETATM   39  C20 UNL     1      18.449  32.478  13.893  1.00  0.00     0.081 C 
HETATM   40  C21 UNL     1      17.609  31.330  14.330  1.00  0.00     0.025 C 
HETATM   41  C22 UNL     1      17.196  31.467  15.775  1.00  0.00     0.002 C 
HETATM   42  C23 UNL     1      16.243  32.649  15.876  1.00  0.00     0.000 C 
HETATM   43  C24 UNL     1      16.807  33.836  15.160  1.00  0.00     0.002 C 
HETATM   44  C25 UNL     1      18.285  33.588  14.982  1.00  0.00     0.025 C 
ENDBRANCH  37  39
ENDBRANCH  33  37
ENDBRANCH  30  33
ENDBRANCH   8  30
BRANCH   4  45
HETATM   45  O3  UNL     1      24.172  26.348   8.979  1.00  0.00    -0.294 OA
BRANCH  45  46
HETATM   46  C10 UNL     1      23.573  25.186   8.454  1.00  0.00     0.061 C 
HETATM   47  C11 UNL     1      22.903  24.409   9.598  1.00  0.00     0.046 C 
HETATM   48  C12 UNL     1      24.597  24.307   7.779  1.00  0.00     0.046 C 
HETATM   49  C13 UNL     1      22.521  25.539   7.428  1.00  0.00     0.046 C 
ENDBRANCH  45  46
ENDBRANCH   4  45
TORSDOF 18
ENDMDL
MODEL 4
REMARK VINA RESULT: -7.622997103      2.673      8.916
REMARK  18 active torsions:
REMARK  status: ('A' for Active; 'I' for Inactive)
REMARK    1  A    between atoms: C2_2  and  C3_3 
REMARK    2  A    between atoms: C3_3  and  N1_4 
REMARK    3  A    between atoms: C3_3  and  C4_8 
REMARK    4  A    between atoms: C4_8  and  C5_10 
REMARK    5  A    between atoms: C5_10  and  C6_11 
REMARK    6  A    between atoms: C5_10  and  N5_40 
REMARK    7  A    between atoms: C6_11  and  C7_12 
REMARK       I    between atoms: N2_14  and  C9_15 
REMARK    8  A    between atoms: C9_15  and  O3_17 
REMARK    9  A    between atoms: O3_17  and  C10_18 
REMARK   10  A    between atoms: N3_24  and  C16_25 
REMARK   11  A    between atoms: C16_25  and  O4_26 
REMARK   12  A    between atoms: C16_25  and  C17_28 
REMARK   13  A    between atoms: C17_28  and  C18_29 
REMARK   14  A    between atoms: C17_28  and  N4_32 
REMARK   15  A    between atoms: C18_29  and  S1_30 
REMARK   16  A    between atoms: N4_32  and  C20_34 
REMARK       I    between atoms: N5_40  and  C26_42 
REMARK   17  A    between atoms: C26_42  and  O6_44 
REMARK   18  A    between atoms: O6_44  and  C27_45 
ROOT
HETATM    1  C7  UNL     1      18.938  32.679  14.233  1.00  0.00     0.111 C 
HETATM    2  C8  UNL     1      17.502  33.146  14.525  1.00  0.00     0.154 C 
HETATM    3  N2  UNL     1      16.910  32.367  15.553  1.00  0.00    -0.321 N 
HETATM    4  C9  UNL     1      15.851  32.958  16.319  1.00  0.00     0.363 C 
HETATM    5  O2  UNL     1      15.266  32.256  17.209  1.00  0.00    -0.238 OA
HETATM    6  C14 UNL     1      17.357  31.053  15.853  1.00  0.00     0.172 C 
HETATM    7  C15 UNL     1      18.256  30.399  14.835  1.00  0.00     0.086 C 
HETATM    8  N3  UNL     1      18.918  31.244  13.922  1.00  0.00    -0.332 N 
ENDROOT
BRANCH   1   9
HETATM    9  C6  UNL     1      19.772  33.055  15.383  1.00  0.00     0.060 C 
BRANCH   9  10
HETATM   10  C5  UNL     1      20.916  33.969  15.203  1.00  0.00     0.161 C 
BRANCH  10  11
HETATM   11  C4  UNL     1      22.244  33.355  15.502  1.00  0.00     0.183 C 
HETATM   12  O1  UNL     1      22.623  33.226  16.645  1.00  0.00    -0.293 OA
BRANCH  11  13
HETATM   13  C3  UNL     1      23.137  32.900  14.418  1.00  0.00     0.276 C 
BRANCH  13  14
HETATM   14  C2  UNL     1      22.769  31.495  14.055  1.00  0.00     0.003 C 
HETATM   15  C1  UNL     1      22.348  30.625  14.955  1.00  0.00     0.009 C 
ENDBRANCH  13  14
BRANCH  13  16
HETATM   16  N1  UNL     1      24.517  32.771  14.932  1.00  0.00    -0.065 N 
ATOM     17  H13 UNL     1      24.832  31.809  15.061  1.00  0.00     0.275 HD
ATOM     18  H12 UNL     1      25.243  33.031  14.265  1.00  0.00     0.275 HD
ATOM     19  H11 UNL     1      24.505  33.330  15.784  1.00  0.00     0.275 HD
ENDBRANCH  13  16
ENDBRANCH  11  13
ENDBRANCH  10  11
BRANCH  10  20
HETATM   20  N5  UNL     1      20.901  35.205  15.932  1.00  0.00    -0.325 N 
HETATM   21  C26 UNL     1      20.451  35.445  17.233  1.00  0.00     0.361 C 
HETATM   22  O5  UNL     1      19.968  34.531  17.988  1.00  0.00    -0.238 OA
ATOM     23  H5  UNL     1      21.267  36.016  15.434  1.00  0.00     0.165 HD
BRANCH  21  24
HETATM   24  O6  UNL     1      20.502  36.687  17.797  1.00  0.00    -0.299 OA
BRANCH  24  25
HETATM   25  C27 UNL     1      20.054  37.869  17.420  1.00  0.00     0.133 C 
HETATM   26  C28 UNL     1      18.989  38.024  18.823  1.00  0.00     0.032 C 
HETATM   27  C29 UNL     1      19.050  39.496  18.908  1.00  0.00     0.002 C 
HETATM   28  C30 UNL     1      20.472  39.905  18.711  1.00  0.00     0.002 C 
HETATM   29  C31 UNL     1      21.246  38.732  18.273  1.00  0.00     0.032 C 
ENDBRANCH  24  25
ENDBRANCH  21  24
ENDBRANCH  10  20
ENDBRANCH   9  10
ENDBRANCH   1   9
BRANCH   8  30
HETATM   30  C16 UNL     1      19.510  30.827  12.732  1.00  0.00     0.166 C 
BRANCH  30  31
HETATM   31  O4  UNL     1      19.901  31.840  11.956  1.00  0.00    -0.344 OA
ATOM     32  H4  UNL     1      19.967  31.605  11.037  1.00  0.00     0.219 HD
ENDBRANCH  30  31
BRANCH  30  33
HETATM   33  C17 UNL     1      19.823  29.556  12.109  1.00  0.00     0.066 C 
BRANCH  33  34
HETATM   34  C18 UNL     1      18.718  28.845  11.360  1.00  0.00     0.134 C 
BRANCH  34  35
HETATM   35  S1  UNL     1      18.067  27.462  12.363  1.00  0.00    -0.167 SA
HETATM   36  C19 UNL     1      18.394  25.894  11.542  1.00  0.00     0.090 C 
ENDBRANCH  34  35
ENDBRANCH  33  34
BRANCH  33  37
HETATM   37  N4  UNL     1      21.041  29.468  11.376  1.00  0.00    -0.384 N 
ATOM     38  H4  UNL     1      21.117  29.983  10.499  1.00  0.00     0.160 HD
BRANCH  37  39
HETATM   39  C20 UNL     1      22.139  28.708  11.798  1.00  0.00     0.081 C 
HETATM   40  C21 UNL     1      21.877  27.515  12.651  1.00  0.00     0.025 C 
HETATM   41  C22 UNL     1      22.084  26.232  11.882  1.00  0.00     0.002 C 
HETATM   42  C23 UNL     1      23.567  26.112  11.567  1.00  0.00     0.000 C 
HETATM   43  C24 UNL     1      24.085  27.397  11.001  1.00  0.00     0.002 C 
HETATM   44  C25 UNL     1      22.891  28.189  10.530  1.00  0.00     0.025 C 
ENDBRANCH  37  39
ENDBRANCH  33  37
ENDBRANCH  30  33
ENDBRANCH   8  30
BRANCH   4  45
HETATM   45  O3  UNL     1      15.433  34.249  16.141  1.00  0.00    -0.294 OA
BRANCH  45  46
HETATM   46  C10 UNL     1      15.784  35.310  16.999  1.00  0.00     0.061 C 
HETATM   47  C11 UNL     1      14.508  35.876  17.642  1.00  0.00     0.046 C 
HETATM   48  C12 UNL     1      16.494  36.405  16.241  1.00  0.00     0.046 C 
HETATM   49  C13 UNL     1      16.708  34.835  18.095  1.00  0.00     0.046 C 
ENDBRANCH  45  46
ENDBRANCH   4  45
TORSDOF 18
ENDMDL
MODEL 5
REMARK VINA RESULT: -7.566188220      2.883      9.186
REMARK  18 active torsions:
REMARK  status: ('A' for Active; 'I' for Inactive)
REMARK    1  A    between atoms: C2_2  and  C3_3 
REMARK    2  A    between atoms: C3_3  and  N1_4 
REMARK    3  A    between atoms: C3_3  and  C4_8 
REMARK    4  A    between atoms: C4_8  and  C5_10 
REMARK    5  A    between atoms: C5_10  and  C6_11 
REMARK    6  A    between atoms: C5_10  and  N5_40 
REMARK    7  A    between atoms: C6_11  and  C7_12 
REMARK       I    between atoms: N2_14  and  C9_15 
REMARK    8  A    between atoms: C9_15  and  O3_17 
REMARK    9  A    between atoms: O3_17  and  C10_18 
REMARK   10  A    between atoms: N3_24  and  C16_25 
REMARK   11  A    between atoms: C16_25  and  O4_26 
REMARK   12  A    between atoms: C16_25  and  C17_28 
REMARK   13  A    between atoms: C17_28  and  C18_29 
REMARK   14  A    between atoms: C17_28  and  N4_32 
REMARK   15  A    between atoms: C18_29  and  S1_30 
REMARK   16  A    between atoms: N4_32  and  C20_34 
REMARK       I    between atoms: N5_40  and  C26_42 
REMARK   17  A    between atoms: C26_42  and  O6_44 
REMARK   18  A    between atoms: O6_44  and  C27_45 
ROOT
HETATM    1  C7  UNL     1      19.223  32.565  14.660  1.00  0.00     0.111 C 
HETATM    2  C8  UNL     1      17.821  33.196  14.713  1.00  0.00     0.154 C 
HETATM    3  N2  UNL     1      16.941  32.418  15.510  1.00  0.00    -0.321 N 
HETATM    4  C9  UNL     1      15.819  33.078  16.114  1.00  0.00     0.363 C 
HETATM    5  O2  UNL     1      14.984  32.388  16.786  1.00  0.00    -0.238 OA
HETATM    6  C14 UNL     1      17.162  31.035  15.744  1.00  0.00     0.172 C 
HETATM    7  C15 UNL     1      18.174  30.356  14.857  1.00  0.00     0.086 C 
HETATM    8  N3  UNL     1      19.105  31.179  14.194  1.00  0.00    -0.332 N 
ENDROOT
BRANCH   1   9
HETATM    9  C6  UNL     1      19.834  32.726  15.987  1.00  0.00     0.060 C 
BRANCH   9  10
HETATM   10  C5  UNL     1      20.692  33.892  16.273  1.00  0.00     0.161 C 
BRANCH  10  11
HETATM   11  C4  UNL     1      21.856  33.595  17.160  1.00  0.00     0.183 C 
HETATM   12  O1  UNL     1      21.935  34.088  18.263  1.00  0.00    -0.293 OA
BRANCH  11  13
HETATM   13  C3  UNL     1      22.945  32.703  16.717  1.00  0.00     0.276 C 
BRANCH  13  14
HETATM   14  C2  UNL     1      23.501  33.230  15.431  1.00  0.00     0.003 C 
HETATM   15  C1  UNL     1      23.502  32.513  14.321  1.00  0.00     0.009 C 
ENDBRANCH  13  14
BRANCH  13  16
HETATM   16  N1  UNL     1      22.388  31.388  16.336  1.00  0.00    -0.065 N 
ATOM     17  H13 UNL     1      21.806  31.402  15.498  1.00  0.00     0.275 HD
ATOM     18  H12 UNL     1      23.074  30.725  15.976  1.00  0.00     0.275 HD
ATOM     19  H11 UNL     1      21.906  31.082  17.181  1.00  0.00     0.275 HD
ENDBRANCH  13  16
ENDBRANCH  11  13
ENDBRANCH  10  11
BRANCH  10  20
HETATM   20  N5  UNL     1      20.070  35.051  16.846  1.00  0.00    -0.325 N 
HETATM   21  C26 UNL     1      20.516  36.375  16.839  1.00  0.00     0.361 C 
HETATM   22  O5  UNL     1      21.609  36.744  16.281  1.00  0.00    -0.238 OA
ATOM     23  H5  UNL     1      19.182  34.886  17.322  1.00  0.00     0.165 HD
BRANCH  21  24
HETATM   24  O6  UNL     1      19.808  37.380  17.431  1.00  0.00    -0.299 OA
BRANCH  24  25
HETATM   25  C27 UNL     1      20.150  38.544  17.947  1.00  0.00     0.133 C 
HETATM   26  C28 UNL     1      19.260  39.461  16.725  1.00  0.00     0.032 C 
HETATM   27  C29 UNL     1      18.943  40.613  17.590  1.00  0.00     0.002 C 
HETATM   28  C30 UNL     1      18.514  40.083  18.918  1.00  0.00     0.002 C 
HETATM   29  C31 UNL     1      18.786  38.637  18.960  1.00  0.00     0.032 C 
ENDBRANCH  24  25
ENDBRANCH  21  24
ENDBRANCH  10  20
ENDBRANCH   9  10
ENDBRANCH   1   9
BRANCH   8  30
HETATM   30  C16 UNL     1      19.881  30.790  13.105  1.00  0.00     0.166 C 
BRANCH  30  31
HETATM   31  O4  UNL     1      20.558  31.800  12.553  1.00  0.00    -0.344 OA
ATOM     32  H4  UNL     1      20.441  31.860  11.612  1.00  0.00     0.219 HD
ENDBRANCH  30  31
BRANCH  30  33
HETATM   33  C17 UNL     1      20.156  29.549  12.406  1.00  0.00     0.066 C 
BRANCH  33  34
HETATM   34  C18 UNL     1      19.091  29.013  11.475  1.00  0.00     0.134 C 
BRANCH  34  35
HETATM   35  S1  UNL     1      18.191  27.638  12.275  1.00  0.00    -0.167 SA
HETATM   36  C19 UNL     1      18.519  26.094  11.410  1.00  0.00     0.090 C 
ENDBRANCH  34  35
ENDBRANCH  33  34
BRANCH  33  37
HETATM   37  N4  UNL     1      21.441  29.403  11.809  1.00  0.00    -0.384 N 
ATOM     38  H4  UNL     1      22.074  30.202  11.820  1.00  0.00     0.160 HD
BRANCH  37  39
HETATM   39  C20 UNL     1      21.878  28.216  11.207  1.00  0.00     0.081 C 
HETATM   40  C21 UNL     1      23.185  28.233  10.495  1.00  0.00     0.025 C 
HETATM   41  C22 UNL     1      24.246  27.492  11.271  1.00  0.00     0.002 C 
HETATM   42  C23 UNL     1      23.875  26.016  11.275  1.00  0.00     0.000 C 
HETATM   43  C24 UNL     1      22.436  25.842  11.650  1.00  0.00     0.002 C 
HETATM   44  C25 UNL     1      21.992  27.121  12.317  1.00  0.00     0.025 C 
ENDBRANCH  37  39
ENDBRANCH  33  37
ENDBRANCH  30  33
ENDBRANCH   8  30
BRANCH   4  45
HETATM   45  O3  UNL     1      15.598  34.424  16.002  1.00  0.00    -0.294 OA
BRANCH  45  46
HETATM   46  C10 UNL     1      15.899  35.354  17.017  1.00  0.00     0.061 C 
HETATM   47  C11 UNL     1      14.595  35.774  17.712  1.00  0.00     0.046 C 
HETATM   48  C12 UNL     1      16.583  36.573  16.449  1.00  0.00     0.046 C 
HETATM   49  C13 UNL     1      16.821  34.746  18.048  1.00  0.00     0.046 C 
ENDBRANCH  45  46
ENDBRANCH   4  45
TORSDOF 18
ENDMDL
