MODEL 1
REMARK VINA RESULT: -7.498029662      0.000      0.000
REMARK  11 active torsions:
REMARK  status: ('A' for Active; 'I' for Inactive)
REMARK    1  A    between atoms: N1_1  and  C1_4 
REMARK    2  A    between atoms: C2_9  and  S1_10 
REMARK    3  A    between atoms: S1_10  and  C3_11 
REMARK    4  A    between atoms: C3_11  and  C4_12 
REMARK    5  A    between atoms: C3_11  and  C9_21 
REMARK    6  A    between atoms: C4_12  and  C5_13 
REMARK    7  A    between atoms: C5_13  and  C6_14 
REMARK    8  A    between atoms: C6_14  and  C7_15 
REMARK    9  A    between atoms: C7_15  and  C8_16 
REMARK   10  A    between atoms: C8_16  and  N4_17 
REMARK       I    between atoms: C9_21  and  N5_23 
REMARK   11  A    between atoms: N5_23  and  C10_25 
ROOT
HETATM    1  C3  UNL     1      -6.812  29.350  79.295  1.00  0.00     0.147 C 
ENDROOT
BRANCH   1   2
HETATM    2  S1  UNL     1      -5.236  29.145  80.177  1.00  0.00    -0.089 SA
BRANCH   2   3
HETATM    3  C2  UNL     1      -5.121  30.389  81.462  1.00  0.00     0.130 A 
HETATM    4  N3  UNL     1      -5.406  30.222  82.741  1.00  0.00    -0.286 N 
HETATM    5  N2  UNL     1      -5.284  31.184  83.557  1.00  0.00    -0.279 N 
ATOM      6  H3  UNL     1      -5.726  29.313  83.074  1.00  0.00     0.188 HD
HETATM    7  C1  UNL     1      -4.863  32.367  83.103  1.00  0.00     0.159 A 
ATOM      8  H2  UNL     1      -5.504  31.056  84.546  1.00  0.00     0.189 HD
HETATM    9  S3  UNL     1      -4.648  32.029  81.430  1.00  0.00    -0.027 SA
BRANCH   7  10
HETATM   10  N1  UNL     1      -4.675  33.473  83.787  1.00  0.00    -0.379 N 
ATOM     11  H12 UNL     1      -4.214  33.632  84.683  1.00  0.00     0.158 HD
ATOM     12  H11 UNL     1      -4.967  34.419  83.540  1.00  0.00     0.158 HD
ENDBRANCH   7  10
ENDBRANCH   2   3
ENDBRANCH   1   2
BRANCH   1  13
HETATM   13  C4  UNL     1      -6.773  28.837  77.908  1.00  0.00     0.025 C 
BRANCH  13  14
HETATM   14  C5  UNL     1      -5.431  29.086  77.279  1.00  0.00     0.002 C 
BRANCH  14  15
HETATM   15  C6  UNL     1      -5.572  29.809  75.940  1.00  0.00     0.002 C 
BRANCH  15  16
HETATM   16  C7  UNL     1      -4.802  31.116  76.031  1.00  0.00     0.027 C 
BRANCH  16  17
HETATM   17  C8  UNL     1      -3.647  30.996  77.011  1.00  0.00     0.229 C 
BRANCH  17  18
HETATM   18  N4  UNL     1      -3.572  32.208  77.794  1.00  0.00    -0.079 N 
ATOM     19  H43 UNL     1      -3.031  32.939  77.330  1.00  0.00     0.274 HD
ATOM     20  H42 UNL     1      -4.465  32.700  77.838  1.00  0.00     0.274 HD
ATOM     21  H41 UNL     1      -3.207  31.980  78.719  1.00  0.00     0.274 HD
ENDBRANCH  17  18
ENDBRANCH  16  17
ENDBRANCH  15  16
ENDBRANCH  14  15
ENDBRANCH  13  14
ENDBRANCH   1  13
BRANCH   1  22
HETATM   22  C9  UNL     1      -7.806  28.583  80.092  1.00  0.00     0.250 C 
HETATM   23  O1  UNL     1      -7.922  27.354  79.905  1.00  0.00    -0.271 OA
HETATM   24  N5  UNL     1      -8.638  29.177  81.064  1.00  0.00    -0.158 N 
ATOM     25  H5  UNL     1      -9.334  29.850  80.745  1.00  0.00     0.187 HD
BRANCH  24  26
HETATM   26  C10 UNL     1      -8.579  28.926  82.344  1.00  0.00     0.688 A 
HETATM   27  N6  UNL     1      -9.023  29.823  83.216  1.00  0.00    -0.194 N 
HETATM   28  C11 UNL     1      -8.962  29.566  84.569  1.00  0.00     0.049 A 
ATOM     29  H6  UNL     1      -9.410  30.706  82.883  1.00  0.00     0.184 HD
HETATM   30  C12 UNL     1      -8.429  28.359  84.938  1.00  0.00     0.092 A 
HETATM   31  C15 UNL     1      -9.420  30.428  85.671  1.00  0.00     0.069 C 
HETATM   32  C13 UNL     1      -7.975  27.442  84.042  1.00  0.00     0.278 A 
HETATM   33  S2  UNL     1      -8.459  28.339  86.736  1.00  0.00    -0.122 SA
HETATM   34  O2  UNL     1      -7.493  26.348  84.427  1.00  0.00    -0.266 OA
HETATM   35  N7  UNL     1      -8.059  27.748  82.713  1.00  0.00    -0.155 N 
ATOM     36  H7  UNL     1      -7.728  27.087  82.010  1.00  0.00     0.187 HD
HETATM   37  C14 UNL     1      -8.581  30.182  86.901  1.00  0.00     0.086 C 
ENDBRANCH  24  26
ENDBRANCH   1  22
TORSDOF 11
ENDMDL
MODEL 2
REMARK VINA RESULT: -7.449967719      5.420      9.038
REMARK  11 active torsions:
REMARK  status: ('A' for Active; 'I' for Inactive)
REMARK    1  A    between atoms: N1_1  and  C1_4 
REMARK    2  A    between atoms: C2_9  and  S1_10 
REMARK    3  A    between atoms: S1_10  and  C3_11 
REMARK    4  A    between atoms: C3_11  and  C4_12 
REMARK    5  A    between atoms: C3_11  and  C9_21 
REMARK    6  A    between atoms: C4_12  and  C5_13 
REMARK    7  A    between atoms: C5_13  and  C6_14 
REMARK    8  A    between atoms: C6_14  and  C7_15 
REMARK    9  A    between atoms: C7_15  and  C8_16 
REMARK   10  A    between atoms: C8_16  and  N4_17 
REMARK       I    between atoms: C9_21  and  N5_23 
REMARK   11  A    between atoms: N5_23  and  C10_25 
ROOT
HETATM    1  C3  UNL     1      -9.032  24.512  81.309  1.00  0.00     0.147 C 
ENDROOT
BRANCH   1   2
HETATM    2  S1  UNL     1     -10.453  24.338  82.429  1.00  0.00    -0.089 SA
BRANCH   2   3
HETATM    3  C2  UNL     1     -11.965  24.468  81.477  1.00  0.00     0.130 A 
HETATM    4  N3  UNL     1     -12.534  25.584  81.058  1.00  0.00    -0.286 N 
HETATM    5  N2  UNL     1     -13.610  25.547  80.389  1.00  0.00    -0.279 N 
ATOM      6  H3  UNL     1     -12.104  26.484  81.275  1.00  0.00     0.188 HD
HETATM    7  C1  UNL     1     -14.157  24.360  80.114  1.00  0.00     0.159 A 
ATOM      8  H2  UNL     1     -14.050  26.408  80.065  1.00  0.00     0.189 HD
HETATM    9  S3  UNL     1     -13.042  23.291  80.871  1.00  0.00    -0.027 SA
BRANCH   7  10
HETATM   10  N1  UNL     1     -15.258  24.116  79.440  1.00  0.00    -0.379 N 
ATOM     11  H12 UNL     1     -16.214  23.956  79.759  1.00  0.00     0.158 HD
ATOM     12  H11 UNL     1     -15.369  24.039  78.428  1.00  0.00     0.158 HD
ENDBRANCH   7  10
ENDBRANCH   2   3
ENDBRANCH   1   2
BRANCH   1  13
HETATM   13  C4  UNL     1      -9.289  23.970  79.957  1.00  0.00     0.025 C 
BRANCH  13  14
HETATM   14  C5  UNL     1      -8.691  22.600  79.803  1.00  0.00     0.002 C 
BRANCH  14  15
HETATM   15  C6  UNL     1      -9.776  21.531  79.689  1.00  0.00     0.002 C 
BRANCH  15  16
HETATM   16  C7  UNL     1     -10.653  21.879  78.496  1.00  0.00     0.027 C 
BRANCH  16  17
HETATM   17  C8  UNL     1     -11.447  20.668  78.038  1.00  0.00     0.229 C 
BRANCH  17  18
HETATM   18  N4  UNL     1     -11.520  20.678  76.595  1.00  0.00    -0.079 N 
ATOM     19  H43 UNL     1     -10.899  21.372  76.177  1.00  0.00     0.274 HD
ATOM     20  H42 UNL     1     -11.102  19.846  76.178  1.00  0.00     0.274 HD
ATOM     21  H41 UNL     1     -12.493  20.807  76.315  1.00  0.00     0.274 HD
ENDBRANCH  17  18
ENDBRANCH  16  17
ENDBRANCH  15  16
ENDBRANCH  14  15
ENDBRANCH  13  14
ENDBRANCH   1  13
BRANCH   1  22
HETATM   22  C9  UNL     1      -8.777  25.975  81.229  1.00  0.00     0.250 C 
HETATM   23  O1  UNL     1      -8.176  26.543  82.165  1.00  0.00    -0.271 OA
HETATM   24  N5  UNL     1      -9.181  26.769  80.136  1.00  0.00    -0.158 N 
ATOM     25  H5  UNL     1     -10.182  26.882  79.977  1.00  0.00     0.187 HD
BRANCH  24  26
HETATM   26  C10 UNL     1      -8.365  27.371  79.314  1.00  0.00     0.688 A 
HETATM   27  N6  UNL     1      -8.401  27.085  78.019  1.00  0.00    -0.194 N 
HETATM   28  C11 UNL     1      -7.540  27.715  77.144  1.00  0.00     0.049 A 
ATOM     29  H6  UNL     1      -9.066  26.396  77.669  1.00  0.00     0.184 HD
HETATM   30  C12 UNL     1      -6.675  28.626  77.689  1.00  0.00     0.092 A 
HETATM   31  C15 UNL     1      -7.451  27.539  75.685  1.00  0.00     0.069 C 
HETATM   32  C13 UNL     1      -6.642  28.918  79.018  1.00  0.00     0.278 A 
HETATM   33  S2  UNL     1      -5.682  29.239  76.321  1.00  0.00    -0.122 SA
HETATM   34  O2  UNL     1      -5.831  29.761  79.472  1.00  0.00    -0.266 OA
HETATM   35  N7  UNL     1      -7.516  28.264  79.839  1.00  0.00    -0.155 N 
ATOM     36  H7  UNL     1      -7.522  28.454  80.841  1.00  0.00     0.187 HD
HETATM   37  C14 UNL     1      -6.036  27.787  75.222  1.00  0.00     0.086 C 
ENDBRANCH  24  26
ENDBRANCH   1  22
TORSDOF 11
ENDMDL
MODEL 3
REMARK VINA RESULT: -7.430023226      2.803      5.577
REMARK  11 active torsions:
REMARK  status: ('A' for Active; 'I' for Inactive)
REMARK    1  A    between atoms: N1_1  and  C1_4 
REMARK    2  A    between atoms: C2_9  and  S1_10 
REMARK    3  A    between atoms: S1_10  and  C3_11 
REMARK    4  A    between atoms: C3_11  and  C4_12 
REMARK    5  A    between atoms: C3_11  and  C9_21 
REMARK    6  A    between atoms: C4_12  and  C5_13 
REMARK    7  A    between atoms: C5_13  and  C6_14 
REMARK    8  A    between atoms: C6_14  and  C7_15 
REMARK    9  A    between atoms: C7_15  and  C8_16 
REMARK   10  A    between atoms: C8_16  and  N4_17 
REMARK       I    between atoms: C9_21  and  N5_23 
REMARK   11  A    between atoms: N5_23  and  C10_25 
ROOT
HETATM    1  C3  UNL     1      -7.155  28.587  80.343  1.00  0.00     0.147 C 
ENDROOT
BRANCH   1   2
HETATM    2  S1  UNL     1      -8.638  29.081  81.269  1.00  0.00    -0.089 SA
BRANCH   2   3
HETATM    3  C2  UNL     1      -9.736  27.672  81.408  1.00  0.00     0.130 A 
HETATM    4  N3  UNL     1     -11.055  27.709  81.465  1.00  0.00    -0.286 N 
HETATM    5  N2  UNL     1     -11.725  26.638  81.564  1.00  0.00    -0.279 N 
ATOM      6  H3  UNL     1     -11.538  28.606  81.430  1.00  0.00     0.188 HD
HETATM    7  C1  UNL     1     -11.075  25.472  81.608  1.00  0.00     0.159 A 
ATOM      8  H2  UNL     1     -12.744  26.665  81.608  1.00  0.00     0.189 HD
HETATM    9  S3  UNL     1      -9.440  25.993  81.501  1.00  0.00    -0.027 SA
BRANCH   7  10
HETATM   10  N1  UNL     1     -11.588  24.266  81.708  1.00  0.00    -0.379 N 
ATOM     11  H12 UNL     1     -12.014  23.786  82.500  1.00  0.00     0.158 HD
ATOM     12  H11 UNL     1     -11.658  23.554  80.980  1.00  0.00     0.158 HD
ENDBRANCH   7  10
ENDBRANCH   2   3
ENDBRANCH   1   2
BRANCH   1  13
HETATM   13  C4  UNL     1      -6.930  29.402  79.129  1.00  0.00     0.025 C 
BRANCH  13  14
HETATM   14  C5  UNL     1      -6.811  28.532  77.910  1.00  0.00     0.002 C 
BRANCH  14  15
HETATM   15  C6  UNL     1      -5.855  29.141  76.885  1.00  0.00     0.002 C 
BRANCH  15  16
HETATM   16  C7  UNL     1      -4.815  29.954  77.641  1.00  0.00     0.027 C 
BRANCH  16  17
HETATM   17  C8  UNL     1      -4.351  31.139  76.812  1.00  0.00     0.229 C 
BRANCH  17  18
HETATM   18  N4  UNL     1      -3.584  32.027  77.656  1.00  0.00    -0.079 N 
ATOM     19  H43 UNL     1      -4.042  32.929  77.790  1.00  0.00     0.274 HD
ATOM     20  H42 UNL     1      -3.576  31.726  78.631  1.00  0.00     0.274 HD
ATOM     21  H41 UNL     1      -2.645  32.120  77.269  1.00  0.00     0.274 HD
ENDBRANCH  17  18
ENDBRANCH  16  17
ENDBRANCH  15  16
ENDBRANCH  14  15
ENDBRANCH  13  14
ENDBRANCH   1  13
BRANCH   1  22
HETATM   22  C9  UNL     1      -6.025  28.768  81.292  1.00  0.00     0.250 C 
HETATM   23  O1  UNL     1      -4.870  28.453  80.935  1.00  0.00    -0.271 OA
HETATM   24  N5  UNL     1      -6.188  29.285  82.594  1.00  0.00    -0.158 N 
ATOM     25  H5  UNL     1      -6.728  28.732  83.260  1.00  0.00     0.187 HD
BRANCH  24  26
HETATM   26  C10 UNL     1      -5.696  30.422  83.009  1.00  0.00     0.688 A 
HETATM   27  N6  UNL     1      -4.724  31.011  82.324  1.00  0.00    -0.194 N 
HETATM   28  C11 UNL     1      -4.199  32.210  82.757  1.00  0.00     0.049 A 
ATOM     29  H6  UNL     1      -4.365  30.576  81.475  1.00  0.00     0.184 HD
HETATM   30  C12 UNL     1      -4.733  32.732  83.906  1.00  0.00     0.092 A 
HETATM   31  C15 UNL     1      -3.140  33.012  82.121  1.00  0.00     0.069 C 
HETATM   32  C13 UNL     1      -5.729  32.124  84.605  1.00  0.00     0.278 A 
HETATM   33  S2  UNL     1      -3.830  34.255  84.219  1.00  0.00    -0.122 SA
HETATM   34  O2  UNL     1      -6.188  32.640  85.654  1.00  0.00    -0.266 OA
HETATM   35  N7  UNL     1      -6.213  30.938  84.132  1.00  0.00    -0.155 N 
ATOM     36  H7  UNL     1      -6.960  30.451  84.627  1.00  0.00     0.187 HD
HETATM   37  C14 UNL     1      -2.375  33.781  83.171  1.00  0.00     0.086 C 
ENDBRANCH  24  26
ENDBRANCH   1  22
TORSDOF 11
ENDMDL
MODEL 4
REMARK VINA RESULT: -7.426417895      5.325      8.841
REMARK  11 active torsions:
REMARK  status: ('A' for Active; 'I' for Inactive)
REMARK    1  A    between atoms: N1_1  and  C1_4 
REMARK    2  A    between atoms: C2_9  and  S1_10 
REMARK    3  A    between atoms: S1_10  and  C3_11 
REMARK    4  A    between atoms: C3_11  and  C4_12 
REMARK    5  A    between atoms: C3_11  and  C9_21 
REMARK    6  A    between atoms: C4_12  and  C5_13 
REMARK    7  A    between atoms: C5_13  and  C6_14 
REMARK    8  A    between atoms: C6_14  and  C7_15 
REMARK    9  A    between atoms: C7_15  and  C8_16 
REMARK   10  A    between atoms: C8_16  and  N4_17 
REMARK       I    between atoms: C9_21  and  N5_23 
REMARK   11  A    between atoms: N5_23  and  C10_25 
ROOT
HETATM    1  C3  UNL     1      -9.018  24.744  81.260  1.00  0.00     0.147 C 
ENDROOT
BRANCH   1   2
HETATM    2  S1  UNL     1     -10.417  24.592  82.410  1.00  0.00    -0.089 SA
BRANCH   2   3
HETATM    3  C2  UNL     1     -11.947  24.661  81.480  1.00  0.00     0.130 A 
HETATM    4  N3  UNL     1     -12.622  25.750  81.161  1.00  0.00    -0.286 N 
HETATM    5  N2  UNL     1     -13.697  25.669  80.497  1.00  0.00    -0.279 N 
ATOM      6  H3  UNL     1     -12.274  26.664  81.452  1.00  0.00     0.188 HD
HETATM    7  C1  UNL     1     -14.137  24.464  80.125  1.00  0.00     0.159 A 
ATOM      8  H2  UNL     1     -14.219  26.510  80.249  1.00  0.00     0.189 HD
HETATM    9  S3  UNL     1     -12.918  23.443  80.782  1.00  0.00    -0.027 SA
BRANCH   7  10
HETATM   10  N1  UNL     1     -15.219  24.177  79.437  1.00  0.00    -0.379 N 
ATOM     11  H12 UNL     1     -15.733  24.721  78.745  1.00  0.00     0.158 HD
ATOM     12  H11 UNL     1     -15.773  23.320  79.470  1.00  0.00     0.158 HD
ENDBRANCH   7  10
ENDBRANCH   2   3
ENDBRANCH   1   2
BRANCH   1  13
HETATM   13  C4  UNL     1      -9.333  24.265  79.897  1.00  0.00     0.025 C 
BRANCH  13  14
HETATM   14  C5  UNL     1      -8.634  22.967  79.606  1.00  0.00     0.002 C 
BRANCH  14  15
HETATM   15  C6  UNL     1      -9.548  21.773  79.877  1.00  0.00     0.002 C 
BRANCH  15  16
HETATM   16  C7  UNL     1     -10.417  21.560  78.648  1.00  0.00     0.027 C 
BRANCH  16  17
HETATM   17  C8  UNL     1     -11.473  20.500  78.910  1.00  0.00     0.229 C 
BRANCH  17  18
HETATM   18  N4  UNL     1     -12.366  20.440  77.776  1.00  0.00    -0.079 N 
ATOM     19  H43 UNL     1     -11.865  20.422  76.886  1.00  0.00     0.274 HD
ATOM     20  H42 UNL     1     -12.832  19.537  77.693  1.00  0.00     0.274 HD
ATOM     21  H41 UNL     1     -13.026  21.215  77.835  1.00  0.00     0.274 HD
ENDBRANCH  17  18
ENDBRANCH  16  17
ENDBRANCH  15  16
ENDBRANCH  14  15
ENDBRANCH  13  14
ENDBRANCH   1  13
BRANCH   1  22
HETATM   22  C9  UNL     1      -8.698  26.196  81.227  1.00  0.00     0.250 C 
HETATM   23  O1  UNL     1      -8.087  26.709  82.188  1.00  0.00    -0.271 OA
HETATM   24  N5  UNL     1      -9.049  27.038  80.152  1.00  0.00    -0.158 N 
ATOM     25  H5  UNL     1     -10.042  27.199  79.981  1.00  0.00     0.187 HD
BRANCH  24  26
HETATM   26  C10 UNL     1      -8.195  27.626  79.359  1.00  0.00     0.688 A 
HETATM   27  N6  UNL     1      -7.092  28.169  79.859  1.00  0.00    -0.194 N 
HETATM   28  C11 UNL     1      -6.187  28.794  79.029  1.00  0.00     0.049 A 
ATOM     29  H6  UNL     1      -6.914  28.124  80.863  1.00  0.00     0.184 HD
HETATM   30  C12 UNL     1      -6.496  28.816  77.694  1.00  0.00     0.092 A 
HETATM   31  C15 UNL     1      -4.912  29.429  79.401  1.00  0.00     0.069 C 
HETATM   32  C13 UNL     1      -7.627  28.258  77.184  1.00  0.00     0.278 A 
HETATM   33  S2  UNL     1      -5.159  29.714  76.896  1.00  0.00    -0.122 SA
HETATM   34  O2  UNL     1      -7.869  28.302  75.953  1.00  0.00    -0.266 OA
HETATM   35  N7  UNL     1      -8.490  27.652  78.052  1.00  0.00    -0.155 N 
ATOM     36  H7  UNL     1      -9.350  27.223  77.709  1.00  0.00     0.187 HD
HETATM   37  C14 UNL     1      -4.601  30.559  78.449  1.00  0.00     0.086 C 
ENDBRANCH  24  26
ENDBRANCH   1  22
TORSDOF 11
ENDMDL
MODEL 5
REMARK VINA RESULT: -7.303899433      2.548      3.226
REMARK  11 active torsions:
REMARK  status: ('A' for Active; 'I' for Inactive)
REMARK    1  A    between atoms: N1_1  and  C1_4 
REMARK    2  A    between atoms: C2_9  and  S1_10 
REMARK    3  A    between atoms: S1_10  and  C3_11 
REMARK    4  A    between atoms: C3_11  and  C4_12 
REMARK    5  A    between atoms: C3_11  and  C9_21 
REMARK    6  A    between atoms: C4_12  and  C5_13 
REMARK    7  A    between atoms: C5_13  and  C6_14 
REMARK    8  A    between atoms: C6_14  and  C7_15 
REMARK    9  A    between atoms: C7_15  and  C8_16 
REMARK   10  A    between atoms: C8_16  and  N4_17 
REMARK       I    between atoms: C9_21  and  N5_23 
REMARK   11  A    between atoms: N5_23  and  C10_25 
ROOT
HETATM    1  C3  UNL     1      -7.006  29.114  79.536  1.00  0.00     0.147 C 
ENDROOT
BRANCH   1   2
HETATM    2  S1  UNL     1      -6.041  28.413  80.907  1.00  0.00    -0.089 SA
BRANCH   2   3
HETATM    3  C2  UNL     1      -5.958  29.613  82.235  1.00  0.00     0.130 A 
HETATM    4  N3  UNL     1      -5.073  30.586  82.358  1.00  0.00    -0.286 N 
HETATM    5  N2  UNL     1      -5.117  31.375  83.348  1.00  0.00    -0.279 N 
ATOM      6  H3  UNL     1      -4.347  30.702  81.650  1.00  0.00     0.188 HD
HETATM    7  C1  UNL     1      -6.074  31.207  84.264  1.00  0.00     0.159 A 
ATOM      8  H2  UNL     1      -4.434  32.127  83.444  1.00  0.00     0.189 HD
HETATM    9  S3  UNL     1      -6.915  29.848  83.629  1.00  0.00    -0.027 SA
BRANCH   7  10
HETATM   10  N1  UNL     1      -6.284  31.916  85.351  1.00  0.00    -0.379 N 
ATOM     11  H12 UNL     1      -6.985  32.628  85.557  1.00  0.00     0.158 HD
ATOM     12  H11 UNL     1      -5.764  31.887  86.227  1.00  0.00     0.158 HD
ENDBRANCH   7  10
ENDBRANCH   2   3
ENDBRANCH   1   2
BRANCH   1  13
HETATM   13  C4  UNL     1      -6.275  29.109  78.250  1.00  0.00     0.025 C 
BRANCH  13  14
HETATM   14  C5  UNL     1      -4.917  29.733  78.400  1.00  0.00     0.002 C 
BRANCH  14  15
HETATM   15  C6  UNL     1      -4.475  30.418  77.107  1.00  0.00     0.002 C 
BRANCH  15  16
HETATM   16  C7  UNL     1      -3.572  31.583  77.480  1.00  0.00     0.027 C 
BRANCH  16  17
HETATM   17  C8  UNL     1      -3.549  31.788  78.985  1.00  0.00     0.229 C 
BRANCH  17  18
HETATM   18  N4  UNL     1      -2.440  32.652  79.320  1.00  0.00    -0.079 N 
ATOM     19  H43 UNL     1      -2.471  32.969  80.290  1.00  0.00     0.274 HD
ATOM     20  H42 UNL     1      -1.553  32.150  79.364  1.00  0.00     0.274 HD
ATOM     21  H41 UNL     1      -2.415  33.428  78.658  1.00  0.00     0.274 HD
ENDBRANCH  17  18
ENDBRANCH  16  17
ENDBRANCH  15  16
ENDBRANCH  14  15
ENDBRANCH  13  14
ENDBRANCH   1  13
BRANCH   1  22
HETATM   22  C9  UNL     1      -8.217  28.257  79.434  1.00  0.00     0.250 C 
HETATM   23  O1  UNL     1      -8.236  27.321  78.607  1.00  0.00    -0.271 OA
HETATM   24  N5  UNL     1      -9.362  28.443  80.236  1.00  0.00    -0.158 N 
ATOM     25  H5  UNL     1      -9.896  29.302  80.107  1.00  0.00     0.187 HD
BRANCH  24  26
HETATM   26  C10 UNL     1      -9.789  27.593  81.130  1.00  0.00     0.688 A 
HETATM   27  N6  UNL     1      -8.953  26.704  81.651  1.00  0.00    -0.194 N 
HETATM   28  C11 UNL     1      -9.397  25.802  82.595  1.00  0.00     0.049 A 
ATOM     29  H6  UNL     1      -7.978  26.688  81.352  1.00  0.00     0.184 HD
HETATM   30  C12 UNL     1     -10.719  25.885  82.944  1.00  0.00     0.092 A 
HETATM   31  C15 UNL     1      -8.614  24.767  83.290  1.00  0.00     0.069 C 
HETATM   32  C13 UNL     1     -11.574  26.798  82.408  1.00  0.00     0.278 A 
HETATM   33  S2  UNL     1     -10.991  24.578  84.148  1.00  0.00    -0.122 SA
HETATM   34  O2  UNL     1     -12.779  26.837  82.760  1.00  0.00    -0.266 OA
HETATM   35  N7  UNL     1     -11.081  27.668  81.478  1.00  0.00    -0.155 N 
ATOM     36  H7  UNL     1     -11.690  28.367  81.051  1.00  0.00     0.187 HD
HETATM   37  C14 UNL     1      -9.502  23.597  83.638  1.00  0.00     0.086 C 
ENDBRANCH  24  26
ENDBRANCH   1  22
TORSDOF 11
ENDMDL
