MODEL 1
REMARK VINA RESULT: -7.708877317      0.000      0.000
REMARK  11 active torsions:
REMARK  status: ('A' for Active; 'I' for Inactive)
REMARK    1  A    between atoms: C1_2  and  O1_3 
REMARK    2  A    between atoms: C1_2  and  N2_5 
REMARK    3  A    between atoms: N2_5  and  N3_6 
REMARK    4  A    between atoms: C2_8  and  C3_9 
REMARK    5  A    between atoms: C2_8  and  C9_20 
REMARK    6  A    between atoms: C3_9  and  C4_11 
REMARK    7  A    between atoms: C4_11  and  C5_12 
REMARK    8  A    between atoms: C4_11  and  N4_17 
REMARK    9  A    between atoms: C14_25  and  N5_26 
REMARK   10  A    between atoms: N5_26  and  C15_28 
REMARK   11  A    between atoms: C20_33  and  O6_34 
ROOT
HETATM    1  N3  UNL     1     -10.088  28.278  80.813  1.00  0.00    -0.228 N 
ATOM      2  H3  UNL     1     -10.412  29.173  80.447  1.00  0.00     0.202 HD
HETATM    3  C2  UNL     1      -8.853  27.817  80.536  1.00  0.00     0.121 C 
ENDROOT
BRANCH   3   4
HETATM    4  C3  UNL     1      -8.089  28.728  79.699  1.00  0.00     0.210 C 
HETATM    5  O2  UNL     1      -8.473  29.923  79.601  1.00  0.00    -0.288 OA
BRANCH   4   6
HETATM    6  C4  UNL     1      -6.857  28.410  78.956  1.00  0.00     0.260 C 
BRANCH   6   7
HETATM    7  C5  UNL     1      -6.913  28.804  77.494  1.00  0.00     0.158 C 
HETATM    8  C6  UNL     1      -5.737  28.505  76.662  1.00  0.00     0.037 C 
HETATM    9  C7  UNL     1      -6.342  27.971  75.385  1.00  0.00     0.029 C 
HETATM   10  C8  UNL     1      -7.708  27.522  75.845  1.00  0.00     0.168 C 
HETATM   11  O3  UNL     1      -8.082  28.285  76.910  1.00  0.00    -0.383 OA
ENDBRANCH   6   7
BRANCH   6  12
HETATM   12  N4  UNL     1      -5.726  29.125  79.609  1.00  0.00    -0.140 N 
HETATM   13  O4  UNL     1      -5.312  30.188  79.164  1.00  0.00    -0.536 OA
HETATM   14  O5  UNL     1      -5.167  28.596  80.723  1.00  0.00    -0.536 OA
ENDBRANCH   6  12
ENDBRANCH   4   6
ENDBRANCH   3   4
BRANCH   3  15
HETATM   15  C9  UNL     1      -8.413  26.589  81.144  1.00  0.00     0.023 A 
HETATM   16  C10 UNL     1      -8.757  25.340  80.673  1.00  0.00     0.016 A 
HETATM   17  C11 UNL     1      -8.529  24.211  81.443  1.00  0.00     0.001 A 
HETATM   18  C12 UNL     1      -7.965  24.278  82.685  1.00  0.00     0.002 A 
HETATM   19  C13 UNL     1      -7.601  25.536  83.201  1.00  0.00     0.030 A 
HETATM   20  C14 UNL     1      -7.818  26.677  82.444  1.00  0.00     0.045 A 
BRANCH  20  21
HETATM   21  N5  UNL     1      -7.287  27.938  82.752  1.00  0.00    -0.353 N 
ATOM     22  H5  UNL     1      -6.492  28.227  82.182  1.00  0.00     0.166 HD
BRANCH  21  23
HETATM   23  C15 UNL     1      -7.690  28.856  83.725  1.00  0.00     0.066 A 
HETATM   24  C16 UNL     1      -8.922  28.910  84.334  1.00  0.00     0.032 A 
HETATM   25  C17 UNL     1      -9.309  29.930  85.218  1.00  0.00     0.002 A 
HETATM   26  C18 UNL     1      -8.454  30.946  85.525  1.00  0.00     0.003 A 
HETATM   27  C19 UNL     1      -7.228  30.929  84.943  1.00  0.00     0.039 A 
HETATM   28  C20 UNL     1      -6.826  29.923  84.059  1.00  0.00     0.092 A 
BRANCH  28  29
HETATM   29  O6  UNL     1      -5.571  30.002  83.526  1.00  0.00    -0.358 OA
ATOM     30  H6  UNL     1      -5.091  30.822  83.526  1.00  0.00     0.217 HD
ENDBRANCH  28  29
ENDBRANCH  21  23
ENDBRANCH  20  21
ENDBRANCH   3  15
BRANCH   1  31
HETATM   31  N2  UNL     1     -10.910  27.484  81.621  1.00  0.00    -0.283 NA
BRANCH  31  32
HETATM   32  C1  UNL     1     -11.669  26.751  82.366  1.00  0.00     0.326 C 
HETATM   33  N1  UNL     1     -11.196  25.958  83.501  1.00  0.00    -0.040 NA
BRANCH  32  34
HETATM   34  O1  UNL     1     -12.960  26.593  82.251  1.00  0.00    -0.323 OA
ATOM     35  H1  UNL     1     -13.128  25.857  81.674  1.00  0.00     0.221 HD
ENDBRANCH  32  34
ENDBRANCH  31  32
ENDBRANCH   1  31
TORSDOF 11
ENDMDL
MODEL 2
REMARK VINA RESULT: -7.581790958      2.511      4.831
REMARK  11 active torsions:
REMARK  status: ('A' for Active; 'I' for Inactive)
REMARK    1  A    between atoms: C1_2  and  O1_3 
REMARK    2  A    between atoms: C1_2  and  N2_5 
REMARK    3  A    between atoms: N2_5  and  N3_6 
REMARK    4  A    between atoms: C2_8  and  C3_9 
REMARK    5  A    between atoms: C2_8  and  C9_20 
REMARK    6  A    between atoms: C3_9  and  C4_11 
REMARK    7  A    between atoms: C4_11  and  C5_12 
REMARK    8  A    between atoms: C4_11  and  N4_17 
REMARK    9  A    between atoms: C14_25  and  N5_26 
REMARK   10  A    between atoms: N5_26  and  C15_28 
REMARK   11  A    between atoms: C20_33  and  O6_34 
ROOT
HETATM    1  N3  UNL     1      -9.706  27.042  82.324  1.00  0.00    -0.228 N 
ATOM      2  H3  UNL     1     -10.008  28.016  82.357  1.00  0.00     0.202 HD
HETATM    3  C2  UNL     1      -8.885  26.598  81.353  1.00  0.00     0.121 C 
ENDROOT
BRANCH   3   4
HETATM    4  C3  UNL     1      -8.503  27.647  80.420  1.00  0.00     0.210 C 
HETATM    5  O2  UNL     1      -9.358  28.514  80.104  1.00  0.00    -0.288 OA
BRANCH   4   6
HETATM    6  C4  UNL     1      -7.175  27.833  79.809  1.00  0.00     0.260 C 
BRANCH   6   7
HETATM    7  C5  UNL     1      -7.205  28.650  78.534  1.00  0.00     0.158 C 
HETATM    8  C6  UNL     1      -5.954  29.298  78.109  1.00  0.00     0.037 C 
HETATM    9  C7  UNL     1      -5.919  29.044  76.621  1.00  0.00     0.029 C 
HETATM   10  C8  UNL     1      -6.830  27.848  76.482  1.00  0.00     0.168 C 
HETATM   11  O3  UNL     1      -7.746  27.878  77.491  1.00  0.00    -0.383 OA
ENDBRANCH   6   7
BRANCH   6  12
HETATM   12  N4  UNL     1      -6.301  28.515  80.804  1.00  0.00    -0.140 N 
HETATM   13  O4  UNL     1      -5.168  28.112  81.027  1.00  0.00    -0.536 OA
HETATM   14  O5  UNL     1      -6.768  29.610  81.450  1.00  0.00    -0.536 OA
ENDBRANCH   6  12
ENDBRANCH   4   6
ENDBRANCH   3   4
BRANCH   3  15
HETATM   15  C9  UNL     1      -8.421  25.237  81.398  1.00  0.00     0.023 A 
HETATM   16  C10 UNL     1      -7.273  24.846  82.053  1.00  0.00     0.016 A 
HETATM   17  C11 UNL     1      -6.738  23.585  81.842  1.00  0.00     0.001 A 
HETATM   18  C12 UNL     1      -7.309  22.684  80.990  1.00  0.00     0.002 A 
HETATM   19  C13 UNL     1      -8.484  23.048  80.303  1.00  0.00     0.030 A 
HETATM   20  C14 UNL     1      -9.036  24.303  80.503  1.00  0.00     0.045 A 
BRANCH  20  21
HETATM   21  N5  UNL     1     -10.312  24.681  80.061  1.00  0.00    -0.353 N 
ATOM     22  H5  UNL     1     -10.348  25.547  79.523  1.00  0.00     0.166 HD
BRANCH  21  23
HETATM   23  C15 UNL     1     -11.541  24.044  80.251  1.00  0.00     0.066 A 
HETATM   24  C16 UNL     1     -11.887  22.791  79.802  1.00  0.00     0.032 A 
HETATM   25  C17 UNL     1     -13.177  22.251  79.919  1.00  0.00     0.002 A 
HETATM   26  C18 UNL     1     -14.180  22.966  80.503  1.00  0.00     0.003 A 
HETATM   27  C19 UNL     1     -13.878  24.208  80.959  1.00  0.00     0.039 A 
HETATM   28  C20 UNL     1     -12.599  24.763  80.849  1.00  0.00     0.092 A 
BRANCH  28  29
HETATM   29  O6  UNL     1     -12.403  26.023  81.338  1.00  0.00    -0.358 OA
ATOM     30  H6  UNL     1     -12.720  26.267  82.200  1.00  0.00     0.217 HD
ENDBRANCH  28  29
ENDBRANCH  21  23
ENDBRANCH  20  21
ENDBRANCH   3  15
BRANCH   1  31
HETATM   31  N2  UNL     1     -10.131  26.118  83.286  1.00  0.00    -0.283 NA
BRANCH  31  32
HETATM   32  C1  UNL     1     -10.522  25.265  84.173  1.00  0.00     0.326 C 
HETATM   33  N1  UNL     1     -11.916  24.875  84.387  1.00  0.00    -0.040 NA
BRANCH  32  34
HETATM   34  O1  UNL     1      -9.768  24.608  85.013  1.00  0.00    -0.323 OA
ATOM     35  H1  UNL     1      -9.016  25.147  85.235  1.00  0.00     0.221 HD
ENDBRANCH  32  34
ENDBRANCH  31  32
ENDBRANCH   1  31
TORSDOF 11
ENDMDL
MODEL 3
REMARK VINA RESULT: -7.494115682      3.364      5.547
REMARK  11 active torsions:
REMARK  status: ('A' for Active; 'I' for Inactive)
REMARK    1  A    between atoms: C1_2  and  O1_3 
REMARK    2  A    between atoms: C1_2  and  N2_5 
REMARK    3  A    between atoms: N2_5  and  N3_6 
REMARK    4  A    between atoms: C2_8  and  C3_9 
REMARK    5  A    between atoms: C2_8  and  C9_20 
REMARK    6  A    between atoms: C3_9  and  C4_11 
REMARK    7  A    between atoms: C4_11  and  C5_12 
REMARK    8  A    between atoms: C4_11  and  N4_17 
REMARK    9  A    between atoms: C14_25  and  N5_26 
REMARK   10  A    between atoms: N5_26  and  C15_28 
REMARK   11  A    between atoms: C20_33  and  O6_34 
ROOT
HETATM    1  N3  UNL     1     -11.762  24.530  80.647  1.00  0.00    -0.228 N 
ATOM      2  H3  UNL     1     -11.883  24.019  79.772  1.00  0.00     0.202 HD
HETATM    3  C2  UNL     1     -10.559  24.609  81.248  1.00  0.00     0.121 C 
ENDROOT
BRANCH   3   4
HETATM    4  C3  UNL     1      -9.517  23.912  80.510  1.00  0.00     0.210 C 
HETATM    5  O2  UNL     1      -8.877  24.543  79.629  1.00  0.00    -0.288 OA
BRANCH   4   6
HETATM    6  C4  UNL     1      -9.089  22.516  80.708  1.00  0.00     0.260 C 
BRANCH   6   7
HETATM    7  C5  UNL     1      -9.639  21.562  79.667  1.00  0.00     0.158 C 
HETATM    8  C6  UNL     1     -10.492  20.458  80.137  1.00  0.00     0.037 C 
HETATM    9  C7  UNL     1     -11.616  20.435  79.129  1.00  0.00     0.029 C 
HETATM   10  C8  UNL     1     -11.562  21.832  78.561  1.00  0.00     0.168 C 
HETATM   11  O3  UNL     1     -10.282  22.291  78.652  1.00  0.00    -0.383 OA
ENDBRANCH   6   7
BRANCH   6  12
HETATM   12  N4  UNL     1      -7.602  22.478  80.665  1.00  0.00    -0.140 N 
HETATM   13  O4  UNL     1      -6.932  23.083  81.492  1.00  0.00    -0.536 OA
HETATM   14  O5  UNL     1      -6.988  21.746  79.705  1.00  0.00    -0.536 OA
ENDBRANCH   6  12
ENDBRANCH   4   6
ENDBRANCH   3   4
BRANCH   3  15
HETATM   15  C9  UNL     1     -10.423  25.412  82.434  1.00  0.00     0.023 A 
HETATM   16  C10 UNL     1     -10.656  24.936  83.706  1.00  0.00     0.016 A 
HETATM   17  C11 UNL     1     -10.768  25.811  84.775  1.00  0.00     0.001 A 
HETATM   18  C12 UNL     1     -10.657  27.164  84.624  1.00  0.00     0.002 A 
HETATM   19  C13 UNL     1     -10.419  27.688  83.339  1.00  0.00     0.030 A 
HETATM   20  C14 UNL     1     -10.300  26.828  82.258  1.00  0.00     0.045 A 
BRANCH  20  21
HETATM   21  N5  UNL     1      -9.835  27.215  80.993  1.00  0.00    -0.353 N 
ATOM     22  H5  UNL     1     -10.490  27.069  80.224  1.00  0.00     0.166 HD
BRANCH  21  23
HETATM   23  C15 UNL     1      -8.605  27.770  80.632  1.00  0.00     0.066 A 
HETATM   24  C16 UNL     1      -7.385  27.489  81.201  1.00  0.00     0.032 A 
HETATM   25  C17 UNL     1      -6.200  28.167  80.877  1.00  0.00     0.002 A 
HETATM   26  C18 UNL     1      -6.202  29.168  79.952  1.00  0.00     0.003 A 
HETATM   27  C19 UNL     1      -7.387  29.477  79.368  1.00  0.00     0.039 A 
HETATM   28  C20 UNL     1      -8.578  28.814  79.679  1.00  0.00     0.092 A 
BRANCH  28  29
HETATM   29  O6  UNL     1      -9.717  29.204  79.035  1.00  0.00    -0.358 OA
ATOM     30  H6  UNL     1     -10.565  29.135  79.458  1.00  0.00     0.217 HD
ENDBRANCH  28  29
ENDBRANCH  21  23
ENDBRANCH  20  21
ENDBRANCH   3  15
BRANCH   1  31
HETATM   31  N2  UNL     1     -12.839  25.175  81.266  1.00  0.00    -0.283 NA
BRANCH  31  32
HETATM   32  C1  UNL     1     -13.833  25.770  81.837  1.00  0.00     0.326 C 
HETATM   33  N1  UNL     1     -13.825  26.250  83.219  1.00  0.00    -0.040 NA
BRANCH  32  34
HETATM   34  O1  UNL     1     -14.990  26.049  81.301  1.00  0.00    -0.323 OA
ATOM     35  H1  UNL     1     -14.951  26.921  80.925  1.00  0.00     0.221 HD
ENDBRANCH  32  34
ENDBRANCH  31  32
ENDBRANCH   1  31
TORSDOF 11
ENDMDL
MODEL 4
REMARK VINA RESULT: -7.489487446      3.136      6.133
REMARK  11 active torsions:
REMARK  status: ('A' for Active; 'I' for Inactive)
REMARK    1  A    between atoms: C1_2  and  O1_3 
REMARK    2  A    between atoms: C1_2  and  N2_5 
REMARK    3  A    between atoms: N2_5  and  N3_6 
REMARK    4  A    between atoms: C2_8  and  C3_9 
REMARK    5  A    between atoms: C2_8  and  C9_20 
REMARK    6  A    between atoms: C3_9  and  C4_11 
REMARK    7  A    between atoms: C4_11  and  C5_12 
REMARK    8  A    between atoms: C4_11  and  N4_17 
REMARK    9  A    between atoms: C14_25  and  N5_26 
REMARK   10  A    between atoms: N5_26  and  C15_28 
REMARK   11  A    between atoms: C20_33  and  O6_34 
ROOT
HETATM    1  N3  UNL     1      -9.968  24.353  84.065  1.00  0.00    -0.228 N 
ATOM      2  H3  UNL     1     -10.146  24.913  84.899  1.00  0.00     0.202 HD
HETATM    3  C2  UNL     1      -9.112  24.771  83.114  1.00  0.00     0.121 C 
ENDROOT
BRANCH   3   4
HETATM    4  C3  UNL     1      -8.504  26.054  83.431  1.00  0.00     0.210 C 
HETATM    5  O2  UNL     1      -7.471  26.071  84.150  1.00  0.00    -0.288 OA
BRANCH   4   6
HETATM    6  C4  UNL     1      -8.956  27.376  82.963  1.00  0.00     0.260 C 
BRANCH   6   7
HETATM    7  C5  UNL     1      -8.514  27.699  81.550  1.00  0.00     0.158 C 
HETATM    8  C6  UNL     1      -8.390  29.119  81.183  1.00  0.00     0.037 C 
HETATM    9  C7  UNL     1      -7.099  29.164  80.401  1.00  0.00     0.029 C 
HETATM   10  C8  UNL     1      -6.393  27.920  80.883  1.00  0.00     0.168 C 
HETATM   11  O3  UNL     1      -7.330  27.003  81.254  1.00  0.00    -0.383 OA
ENDBRANCH   6   7
BRANCH   6  12
HETATM   12  N4  UNL     1     -10.443  27.404  83.026  1.00  0.00    -0.140 N 
HETATM   13  O4  UNL     1     -11.029  27.325  84.098  1.00  0.00    -0.536 OA
HETATM   14  O5  UNL     1     -11.149  27.542  81.878  1.00  0.00    -0.536 OA
ENDBRANCH   6  12
ENDBRANCH   4   6
ENDBRANCH   3   4
BRANCH   3  15
HETATM   15  C9  UNL     1      -8.831  23.906  81.998  1.00  0.00     0.023 A 
HETATM   16  C10 UNL     1      -7.733  23.076  81.938  1.00  0.00     0.016 A 
HETATM   17  C11 UNL     1      -7.372  22.472  80.743  1.00  0.00     0.001 A 
HETATM   18  C12 UNL     1      -8.073  22.669  79.587  1.00  0.00     0.002 A 
HETATM   19  C13 UNL     1      -9.201  23.511  79.610  1.00  0.00     0.030 A 
HETATM   20  C14 UNL     1      -9.579  24.121  80.796  1.00  0.00     0.045 A 
BRANCH  20  21
HETATM   21  N5  UNL     1     -10.801  24.780  80.987  1.00  0.00    -0.353 N 
ATOM     22  H5  UNL     1     -10.731  25.738  81.334  1.00  0.00     0.166 HD
BRANCH  21  23
HETATM   23  C15 UNL     1     -12.102  24.318  80.772  1.00  0.00     0.066 A 
HETATM   24  C16 UNL     1     -12.583  23.748  79.616  1.00  0.00     0.032 A 
HETATM   25  C17 UNL     1     -13.931  23.411  79.417  1.00  0.00     0.002 A 
HETATM   26  C18 UNL     1     -14.857  23.640  80.390  1.00  0.00     0.003 A 
HETATM   27  C19 UNL     1     -14.422  24.203  81.546  1.00  0.00     0.039 A 
HETATM   28  C20 UNL     1     -13.083  24.547  81.762  1.00  0.00     0.092 A 
BRANCH  28  29
HETATM   29  O6  UNL     1     -12.751  25.111  82.960  1.00  0.00    -0.358 OA
ATOM     30  H6  UNL     1     -11.857  25.377  83.144  1.00  0.00     0.217 HD
ENDBRANCH  28  29
ENDBRANCH  21  23
ENDBRANCH  20  21
ENDBRANCH   3  15
BRANCH   1  31
HETATM   31  N2  UNL     1     -10.605  23.122  83.869  1.00  0.00    -0.283 NA
BRANCH  31  32
HETATM   32  C1  UNL     1     -11.194  21.987  83.687  1.00  0.00     0.326 C 
HETATM   33  N1  UNL     1     -11.805  21.192  84.753  1.00  0.00    -0.040 NA
BRANCH  32  34
HETATM   34  O1  UNL     1     -11.352  21.361  82.552  1.00  0.00    -0.323 OA
ATOM     35  H1  UNL     1     -10.547  20.904  82.338  1.00  0.00     0.221 HD
ENDBRANCH  32  34
ENDBRANCH  31  32
ENDBRANCH   1  31
TORSDOF 11
ENDMDL
MODEL 5
REMARK VINA RESULT: -7.394040587      4.673      6.434
REMARK  11 active torsions:
REMARK  status: ('A' for Active; 'I' for Inactive)
REMARK    1  A    between atoms: C1_2  and  O1_3 
REMARK    2  A    between atoms: C1_2  and  N2_5 
REMARK    3  A    between atoms: N2_5  and  N3_6 
REMARK    4  A    between atoms: C2_8  and  C3_9 
REMARK    5  A    between atoms: C2_8  and  C9_20 
REMARK    6  A    between atoms: C3_9  and  C4_11 
REMARK    7  A    between atoms: C4_11  and  C5_12 
REMARK    8  A    between atoms: C4_11  and  N4_17 
REMARK    9  A    between atoms: C14_25  and  N5_26 
REMARK   10  A    between atoms: N5_26  and  C15_28 
REMARK   11  A    between atoms: C20_33  and  O6_34 
ROOT
HETATM    1  N3  UNL     1      -5.094  29.959  86.288  1.00  0.00    -0.228 N 
ATOM      2  H3  UNL     1      -4.333  30.382  86.818  1.00  0.00     0.202 HD
HETATM    3  C2  UNL     1      -5.725  30.637  85.310  1.00  0.00     0.121 C 
ENDROOT
BRANCH   3   4
HETATM    4  C3  UNL     1      -5.190  31.976  85.123  1.00  0.00     0.210 C 
HETATM    5  O2  UNL     1      -5.936  32.962  85.360  1.00  0.00    -0.288 OA
BRANCH   4   6
HETATM    6  C4  UNL     1      -3.820  32.321  84.706  1.00  0.00     0.260 C 
BRANCH   6   7
HETATM    7  C5  UNL     1      -3.753  33.012  83.359  1.00  0.00     0.158 C 
HETATM    8  C6  UNL     1      -2.611  32.696  82.486  1.00  0.00     0.037 C 
HETATM    9  C7  UNL     1      -3.246  32.547  81.124  1.00  0.00     0.029 C 
HETATM   10  C8  UNL     1      -4.684  32.251  81.475  1.00  0.00     0.168 C 
HETATM   11  O3  UNL     1      -4.968  32.831  82.675  1.00  0.00    -0.383 OA
ENDBRANCH   6   7
BRANCH   6  12
HETATM   12  N4  UNL     1      -3.234  33.217  85.741  1.00  0.00    -0.140 N 
HETATM   13  O4  UNL     1      -2.906  32.782  86.837  1.00  0.00    -0.536 OA
HETATM   14  O5  UNL     1      -3.045  34.526  85.450  1.00  0.00    -0.536 OA
ENDBRANCH   6  12
ENDBRANCH   4   6
ENDBRANCH   3   4
BRANCH   3  15
HETATM   15  C9  UNL     1      -6.734  29.966  84.534  1.00  0.00     0.023 A 
HETATM   16  C10 UNL     1      -6.496  29.407  83.297  1.00  0.00     0.016 A 
HETATM   17  C11 UNL     1      -7.550  29.015  82.487  1.00  0.00     0.001 A 
HETATM   18  C12 UNL     1      -8.854  29.162  82.867  1.00  0.00     0.002 A 
HETATM   19  C13 UNL     1      -9.137  29.731  84.124  1.00  0.00     0.030 A 
HETATM   20  C14 UNL     1      -8.095  30.125  84.949  1.00  0.00     0.045 A 
BRANCH  20  21
HETATM   21  N5  UNL     1      -8.250  30.479  86.297  1.00  0.00    -0.353 N 
ATOM     22  H5  UNL     1      -7.722  31.299  86.596  1.00  0.00     0.166 HD
BRANCH  21  23
HETATM   23  C15 UNL     1      -9.023  29.872  87.290  1.00  0.00     0.066 A 
HETATM   24  C16 UNL     1     -10.370  29.600  87.221  1.00  0.00     0.032 A 
HETATM   25  C17 UNL     1     -11.118  29.097  88.298  1.00  0.00     0.002 A 
HETATM   26  C18 UNL     1     -10.526  28.845  89.499  1.00  0.00     0.003 A 
HETATM   27  C19 UNL     1      -9.198  29.102  89.607  1.00  0.00     0.039 A 
HETATM   28  C20 UNL     1      -8.436  29.605  88.547  1.00  0.00     0.092 A 
BRANCH  28  29
HETATM   29  O6  UNL     1      -7.107  29.831  88.762  1.00  0.00    -0.358 OA
ATOM     30  H6  UNL     1      -6.797  30.156  89.600  1.00  0.00     0.217 HD
ENDBRANCH  28  29
ENDBRANCH  21  23
ENDBRANCH  20  21
ENDBRANCH   3  15
BRANCH   1  31
HETATM   31  N2  UNL     1      -5.520  28.651  86.549  1.00  0.00    -0.283 NA
BRANCH  31  32
HETATM   32  C1  UNL     1      -5.914  27.445  86.790  1.00  0.00     0.326 C 
HETATM   33  N1  UNL     1      -5.287  26.550  87.763  1.00  0.00    -0.040 NA
BRANCH  32  34
HETATM   34  O1  UNL     1      -6.918  26.824  86.232  1.00  0.00    -0.323 OA
ATOM     35  H1  UNL     1      -6.793  26.823  85.290  1.00  0.00     0.221 HD
ENDBRANCH  32  34
ENDBRANCH  31  32
ENDBRANCH   1  31
TORSDOF 11
ENDMDL
