MODEL 1
REMARK VINA RESULT: -7.661315082      0.000      0.000
REMARK  10 active torsions:
REMARK  status: ('A' for Active; 'I' for Inactive)
REMARK    1  A    between atoms: C1_2  and  S1_4 
REMARK    2  A    between atoms: S1_4  and  C2_5 
REMARK    3  A    between atoms: C2_5  and  C3_6 
REMARK    4  A    between atoms: C3_6  and  C4_7 
REMARK    5  A    between atoms: C4_7  and  C5_8 
REMARK    6  A    between atoms: C5_8  and  C6_9 
REMARK    7  A    between atoms: C6_9  and  N2_10 
REMARK    8  A    between atoms: N5_24  and  C15_25 
REMARK    9  A    between atoms: C15_25  and  C16_26 
REMARK   10  A    between atoms: C16_26  and  O2_27 
ROOT
HETATM    1  N2  UNL     1      -8.056  27.466  79.845  1.00  0.00    -0.110 NA
HETATM    2  N3  UNL     1      -8.012  27.020  78.525  1.00  0.00    -0.330 N 
ATOM      3  H3  UNL     1      -7.691  26.084  78.276  1.00  0.00     0.176 HD
HETATM    4  C7  UNL     1      -8.445  27.963  77.548  1.00  0.00     0.163 C 
HETATM    5  C8  UNL     1      -7.582  27.862  76.289  1.00  0.00     0.253 C 
HETATM    6  N4  UNL     1      -6.964  29.134  76.048  1.00  0.00    -0.074 N 
ATOM      7  H41 UNL     1      -7.404  29.857  76.617  1.00  0.00     0.277 HD
ATOM      8  H42 UNL     1      -7.203  29.474  75.117  1.00  0.00     0.277 HD
HETATM    9  C9  UNL     1      -5.543  29.148  76.233  1.00  0.00     0.232 C 
HETATM   10  C10 UNL     1      -5.047  30.573  76.324  1.00  0.00     0.027 C 
HETATM   11  C11 UNL     1      -3.741  30.570  77.099  1.00  0.00     0.002 C 
HETATM   12  C12 UNL     1      -3.530  31.926  77.778  1.00  0.00     0.002 C 
HETATM   13  C13 UNL     1      -2.970  31.750  79.177  1.00  0.00     0.030 C 
HETATM   14  C14 UNL     1      -3.864  32.505  80.158  1.00  0.00     0.272 C 
HETATM   15  N5  UNL     1      -3.953  31.866  81.432  1.00  0.00     0.090 N 
HETATM   16  C17 UNL     1      -5.233  31.212  81.605  1.00  0.00     0.272 C 
HETATM   17  C18 UNL     1      -5.213  29.759  81.212  1.00  0.00     0.032 C 
HETATM   18  C19 UNL     1      -6.213  29.530  80.072  1.00  0.00     0.030 C 
HETATM   19  C20 UNL     1      -7.628  29.603  80.556  1.00  0.00     0.196 C 
HETATM   20  O3  UNL     1      -8.498  28.739  79.942  1.00  0.00    -0.284 OA
ENDROOT
BRANCH   1  21
HETATM   21  C6  UNL     1      -9.037  26.552  80.502  1.00  0.00     0.145 C 
BRANCH  21  22
HETATM   22  C5  UNL     1      -8.424  25.902  81.675  1.00  0.00     0.019 C 
BRANCH  22  23
HETATM   23  C4  UNL     1      -7.475  26.612  82.515  1.00  0.00     0.002 C 
BRANCH  23  24
HETATM   24  C3  UNL     1      -7.787  27.174  83.827  1.00  0.00     0.011 C 
BRANCH  24  25
HETATM   25  C2  UNL     1      -8.362  28.547  83.918  1.00  0.00     0.084 C 
BRANCH  25  26
HETATM   26  S1  UNL     1      -7.147  29.682  84.709  1.00  0.00    -0.072 SA
BRANCH  26  27
HETATM   27  C1  UNL     1      -8.017  31.106  85.301  1.00  0.00     0.292 C 
HETATM   28  N1  UNL     1      -7.323  32.103  86.033  1.00  0.00    -0.051 NA
HETATM   29  O1  UNL     1      -9.260  31.262  85.087  1.00  0.00    -0.264 OA
ENDBRANCH  26  27
ENDBRANCH  25  26
ENDBRANCH  24  25
ENDBRANCH  23  24
ENDBRANCH  22  23
ENDBRANCH  21  22
ENDBRANCH   1  21
BRANCH  15  30
HETATM   30  C15 UNL     1      -3.800  32.838  82.489  1.00  0.00     0.298 C 
BRANCH  30  31
HETATM   31  C16 UNL     1      -4.767  32.598  83.631  1.00  0.00     0.194 C 
BRANCH  31  32
HETATM   32  O2  UNL     1      -5.494  33.749  83.928  1.00  0.00    -0.399 OA
ATOM     33  H2  UNL     1      -5.658  33.821  84.862  1.00  0.00     0.209 HD
ENDBRANCH  31  32
ENDBRANCH  30  31
ENDBRANCH  15  30
TORSDOF 10
ENDMDL
MODEL 2
REMARK VINA RESULT: -7.581174620      2.396      4.095
REMARK  10 active torsions:
REMARK  status: ('A' for Active; 'I' for Inactive)
REMARK    1  A    between atoms: C1_2  and  S1_4 
REMARK    2  A    between atoms: S1_4  and  C2_5 
REMARK    3  A    between atoms: C2_5  and  C3_6 
REMARK    4  A    between atoms: C3_6  and  C4_7 
REMARK    5  A    between atoms: C4_7  and  C5_8 
REMARK    6  A    between atoms: C5_8  and  C6_9 
REMARK    7  A    between atoms: C6_9  and  N2_10 
REMARK    8  A    between atoms: N5_24  and  C15_25 
REMARK    9  A    between atoms: C15_25  and  C16_26 
REMARK   10  A    between atoms: C16_26  and  O2_27 
ROOT
HETATM    1  N2  UNL     1      -8.071  27.445  80.014  1.00  0.00    -0.110 NA
HETATM    2  N3  UNL     1      -8.047  26.977  78.701  1.00  0.00    -0.330 N 
ATOM      3  H3  UNL     1      -7.733  26.036  78.463  1.00  0.00     0.176 HD
HETATM    4  C7  UNL     1      -8.490  27.905  77.715  1.00  0.00     0.163 C 
HETATM    5  C8  UNL     1      -7.646  27.780  76.445  1.00  0.00     0.253 C 
HETATM    6  N4  UNL     1      -7.027  29.045  76.174  1.00  0.00    -0.074 N 
ATOM      7  H41 UNL     1      -7.456  29.779  76.737  1.00  0.00     0.277 HD
ATOM      8  H42 UNL     1      -7.279  29.371  75.241  1.00  0.00     0.277 HD
HETATM    9  C9  UNL     1      -5.604  29.058  76.340  1.00  0.00     0.232 C 
HETATM   10  C10 UNL     1      -5.102  30.482  76.399  1.00  0.00     0.027 C 
HETATM   11  C11 UNL     1      -3.785  30.488  77.155  1.00  0.00     0.002 C 
HETATM   12  C12 UNL     1      -3.560  31.854  77.809  1.00  0.00     0.002 C 
HETATM   13  C13 UNL     1      -2.980  31.700  79.202  1.00  0.00     0.030 C 
HETATM   14  C14 UNL     1      -3.858  32.474  80.183  1.00  0.00     0.272 C 
HETATM   15  N5  UNL     1      -3.931  31.857  81.469  1.00  0.00     0.090 N 
HETATM   16  C17 UNL     1      -5.210  31.210  81.671  1.00  0.00     0.272 C 
HETATM   17  C18 UNL     1      -5.201  29.750  81.302  1.00  0.00     0.032 C 
HETATM   18  C19 UNL     1      -6.218  29.507  80.180  1.00  0.00     0.030 C 
HETATM   19  C20 UNL     1      -7.625  29.593  80.683  1.00  0.00     0.196 C 
HETATM   20  O3  UNL     1      -8.506  28.721  80.095  1.00  0.00    -0.284 OA
ENDROOT
BRANCH   1  21
HETATM   21  C6  UNL     1      -9.045  26.546  80.700  1.00  0.00     0.145 C 
BRANCH  21  22
HETATM   22  C5  UNL     1      -8.495  26.082  81.987  1.00  0.00     0.019 C 
BRANCH  22  23
HETATM   23  C4  UNL     1      -7.241  25.352  82.047  1.00  0.00     0.002 C 
BRANCH  23  24
HETATM   24  C3  UNL     1      -7.129  23.913  82.272  1.00  0.00     0.011 C 
BRANCH  24  25
HETATM   25  C2  UNL     1      -8.360  23.070  82.253  1.00  0.00     0.084 C 
BRANCH  25  26
HETATM   26  S1  UNL     1      -8.303  21.912  80.823  1.00  0.00    -0.072 SA
BRANCH  26  27
HETATM   27  C1  UNL     1      -9.102  22.687  79.446  1.00  0.00     0.292 C 
HETATM   28  N1  UNL     1     -10.132  22.003  78.751  1.00  0.00    -0.051 NA
HETATM   29  O1  UNL     1      -8.775  23.852  79.057  1.00  0.00    -0.264 OA
ENDBRANCH  26  27
ENDBRANCH  25  26
ENDBRANCH  24  25
ENDBRANCH  23  24
ENDBRANCH  22  23
ENDBRANCH  21  22
ENDBRANCH   1  21
BRANCH  15  30
HETATM   30  C15 UNL     1      -3.759  32.846  82.507  1.00  0.00     0.298 C 
BRANCH  30  31
HETATM   31  C16 UNL     1      -4.859  32.778  83.548  1.00  0.00     0.194 C 
BRANCH  31  32
HETATM   32  O2  UNL     1      -5.401  34.037  83.794  1.00  0.00    -0.399 OA
ATOM     33  H2  UNL     1      -5.479  34.542  82.993  1.00  0.00     0.209 HD
ENDBRANCH  31  32
ENDBRANCH  30  31
ENDBRANCH  15  30
TORSDOF 10
ENDMDL
MODEL 3
REMARK VINA RESULT: -7.490542000      2.732      6.250
REMARK  10 active torsions:
REMARK  status: ('A' for Active; 'I' for Inactive)
REMARK    1  A    between atoms: C1_2  and  S1_4 
REMARK    2  A    between atoms: S1_4  and  C2_5 
REMARK    3  A    between atoms: C2_5  and  C3_6 
REMARK    4  A    between atoms: C3_6  and  C4_7 
REMARK    5  A    between atoms: C4_7  and  C5_8 
REMARK    6  A    between atoms: C5_8  and  C6_9 
REMARK    7  A    between atoms: C6_9  and  N2_10 
REMARK    8  A    between atoms: N5_24  and  C15_25 
REMARK    9  A    between atoms: C15_25  and  C16_26 
REMARK   10  A    between atoms: C16_26  and  O2_27 
ROOT
HETATM    1  N2  UNL     1      -7.929  28.736  80.933  1.00  0.00    -0.110 NA
HETATM    2  N3  UNL     1      -8.735  28.735  82.071  1.00  0.00    -0.330 N 
ATOM      3  H3  UNL     1      -9.682  29.114  82.069  1.00  0.00     0.176 HD
HETATM    4  C7  UNL     1      -8.142  28.169  83.237  1.00  0.00     0.163 C 
HETATM    5  C8  UNL     1      -8.552  28.959  84.482  1.00  0.00     0.253 C 
HETATM    6  N4  UNL     1      -7.370  29.457  85.124  1.00  0.00    -0.074 N 
ATOM      7  H41 UNL     1      -6.540  28.996  84.750  1.00  0.00     0.277 HD
ATOM      8  H42 UNL     1      -7.328  29.134  86.091  1.00  0.00     0.277 HD
HETATM    9  C9  UNL     1      -7.218  30.880  85.067  1.00  0.00     0.232 C 
HETATM   10  C10 UNL     1      -5.802  31.265  85.427  1.00  0.00     0.027 C 
HETATM   11  C11 UNL     1      -5.503  32.612  84.793  1.00  0.00     0.002 C 
HETATM   12  C12 UNL     1      -3.999  32.755  84.546  1.00  0.00     0.002 C 
HETATM   13  C13 UNL     1      -3.728  33.412  83.206  1.00  0.00     0.030 C 
HETATM   14  C14 UNL     1      -2.776  32.522  82.411  1.00  0.00     0.272 C 
HETATM   15  N5  UNL     1      -3.023  32.563  81.004  1.00  0.00     0.090 N 
HETATM   16  C17 UNL     1      -3.674  31.353  80.548  1.00  0.00     0.272 C 
HETATM   17  C18 UNL     1      -5.175  31.465  80.512  1.00  0.00     0.032 C 
HETATM   18  C19 UNL     1      -5.782  30.418  81.455  1.00  0.00     0.030 C 
HETATM   19  C20 UNL     1      -5.656  29.035  80.897  1.00  0.00     0.196 C 
HETATM   20  O3  UNL     1      -6.711  28.201  81.167  1.00  0.00    -0.284 OA
ENDROOT
BRANCH   1  21
HETATM   21  C6  UNL     1      -8.670  27.875  79.965  1.00  0.00     0.145 C 
BRANCH  21  22
HETATM   22  C5  UNL     1      -8.492  28.378  78.591  1.00  0.00     0.019 C 
BRANCH  22  23
HETATM   23  C4  UNL     1      -7.545  27.755  77.682  1.00  0.00     0.002 C 
BRANCH  23  24
HETATM   24  C3  UNL     1      -7.359  28.141  76.285  1.00  0.00     0.011 C 
BRANCH  24  25
HETATM   25  C2  UNL     1      -6.016  28.594  75.821  1.00  0.00     0.084 C 
BRANCH  25  26
HETATM   26  S1  UNL     1      -5.207  29.599  77.135  1.00  0.00    -0.072 SA
BRANCH  26  27
HETATM   27  C1  UNL     1      -4.584  31.084  76.397  1.00  0.00     0.292 C 
HETATM   28  N1  UNL     1      -3.391  31.670  76.892  1.00  0.00    -0.051 NA
HETATM   29  O1  UNL     1      -5.182  31.645  75.426  1.00  0.00    -0.264 OA
ENDBRANCH  26  27
ENDBRANCH  25  26
ENDBRANCH  24  25
ENDBRANCH  23  24
ENDBRANCH  22  23
ENDBRANCH  21  22
ENDBRANCH   1  21
BRANCH  15  30
HETATM   30  C15 UNL     1      -1.779  32.703  80.284  1.00  0.00     0.298 C 
BRANCH  30  31
HETATM   31  C16 UNL     1      -1.049  33.980  80.649  1.00  0.00     0.194 C 
BRANCH  31  32
HETATM   32  O2  UNL     1      -1.414  35.029  79.809  1.00  0.00    -0.399 OA
ATOM     33  H2  UNL     1      -0.652  35.433  79.411  1.00  0.00     0.209 HD
ENDBRANCH  31  32
ENDBRANCH  30  31
ENDBRANCH  15  30
TORSDOF 10
ENDMDL
MODEL 4
REMARK VINA RESULT: -7.463596620      3.233      5.029
REMARK  10 active torsions:
REMARK  status: ('A' for Active; 'I' for Inactive)
REMARK    1  A    between atoms: C1_2  and  S1_4 
REMARK    2  A    between atoms: S1_4  and  C2_5 
REMARK    3  A    between atoms: C2_5  and  C3_6 
REMARK    4  A    between atoms: C3_6  and  C4_7 
REMARK    5  A    between atoms: C4_7  and  C5_8 
REMARK    6  A    between atoms: C5_8  and  C6_9 
REMARK    7  A    between atoms: C6_9  and  N2_10 
REMARK    8  A    between atoms: N5_24  and  C15_25 
REMARK    9  A    between atoms: C15_25  and  C16_26 
REMARK   10  A    between atoms: C16_26  and  O2_27 
ROOT
HETATM    1  N2  UNL     1      -8.042  27.345  79.783  1.00  0.00    -0.110 NA
HETATM    2  N3  UNL     1      -8.005  26.944  78.448  1.00  0.00    -0.330 N 
ATOM      3  H3  UNL     1      -7.676  26.020  78.164  1.00  0.00     0.176 HD
HETATM    4  C7  UNL     1      -8.456  27.915  77.508  1.00  0.00     0.163 C 
HETATM    5  C8  UNL     1      -7.604  27.866  76.238  1.00  0.00     0.253 C 
HETATM    6  N4  UNL     1      -7.002  29.152  76.035  1.00  0.00    -0.074 N 
ATOM      7  H41 UNL     1      -7.445  29.851  76.632  1.00  0.00     0.277 HD
ATOM      8  H42 UNL     1      -7.254  29.522  75.119  1.00  0.00     0.277 HD
HETATM    9  C9  UNL     1      -5.580  29.176  76.209  1.00  0.00     0.232 C 
HETATM   10  C10 UNL     1      -5.099  30.602  76.343  1.00  0.00     0.027 C 
HETATM   11  C11 UNL     1      -3.785  30.588  77.106  1.00  0.00     0.002 C 
HETATM   12  C12 UNL     1      -3.583  31.922  77.829  1.00  0.00     0.002 C 
HETATM   13  C13 UNL     1      -3.008  31.705  79.217  1.00  0.00     0.030 C 
HETATM   14  C14 UNL     1      -3.901  32.417  80.230  1.00  0.00     0.272 C 
HETATM   15  N5  UNL     1      -3.972  31.733  81.483  1.00  0.00     0.090 N 
HETATM   16  C17 UNL     1      -5.243  31.059  81.645  1.00  0.00     0.272 C 
HETATM   17  C18 UNL     1      -5.211  29.621  81.202  1.00  0.00     0.032 C 
HETATM   18  C19 UNL     1      -6.219  29.420  80.064  1.00  0.00     0.030 C 
HETATM   19  C20 UNL     1      -7.630  29.461  80.563  1.00  0.00     0.196 C 
HETATM   20  O3  UNL     1      -8.496  28.608  79.926  1.00  0.00    -0.284 OA
ENDROOT
BRANCH   1  21
HETATM   21  C6  UNL     1      -9.006  26.398  80.417  1.00  0.00     0.145 C 
BRANCH  21  22
HETATM   22  C5  UNL     1      -8.891  25.062  79.802  1.00  0.00     0.019 C 
BRANCH  22  23
HETATM   23  C4  UNL     1     -10.053  24.202  79.656  1.00  0.00     0.002 C 
BRANCH  23  24
HETATM   24  C3  UNL     1     -11.219  24.226  80.536  1.00  0.00     0.011 C 
BRANCH  24  25
HETATM   25  C2  UNL     1     -12.216  23.119  80.464  1.00  0.00     0.084 C 
BRANCH  25  26
HETATM   26  S1  UNL     1     -13.528  23.537  79.243  1.00  0.00    -0.072 SA
BRANCH  26  27
HETATM   27  C1  UNL     1     -13.058  22.874  77.670  1.00  0.00     0.292 C 
HETATM   28  N1  UNL     1     -13.840  23.160  76.522  1.00  0.00    -0.051 NA
HETATM   29  O1  UNL     1     -12.028  22.140  77.539  1.00  0.00    -0.264 OA
ENDBRANCH  26  27
ENDBRANCH  25  26
ENDBRANCH  24  25
ENDBRANCH  23  24
ENDBRANCH  22  23
ENDBRANCH  21  22
ENDBRANCH   1  21
BRANCH  15  30
HETATM   30  C15 UNL     1      -3.820  32.671  82.571  1.00  0.00     0.298 C 
BRANCH  30  31
HETATM   31  C16 UNL     1      -4.983  32.615  83.541  1.00  0.00     0.194 C 
BRANCH  31  32
HETATM   32  O2  UNL     1      -5.447  33.891  83.849  1.00  0.00    -0.399 OA
ATOM     33  H2  UNL     1      -6.362  33.992  83.614  1.00  0.00     0.209 HD
ENDBRANCH  31  32
ENDBRANCH  30  31
ENDBRANCH  15  30
TORSDOF 10
ENDMDL
MODEL 5
REMARK VINA RESULT: -7.451953441      3.473      5.300
REMARK  10 active torsions:
REMARK  status: ('A' for Active; 'I' for Inactive)
REMARK    1  A    between atoms: C1_2  and  S1_4 
REMARK    2  A    between atoms: S1_4  and  C2_5 
REMARK    3  A    between atoms: C2_5  and  C3_6 
REMARK    4  A    between atoms: C3_6  and  C4_7 
REMARK    5  A    between atoms: C4_7  and  C5_8 
REMARK    6  A    between atoms: C5_8  and  C6_9 
REMARK    7  A    between atoms: C6_9  and  N2_10 
REMARK    8  A    between atoms: N5_24  and  C15_25 
REMARK    9  A    between atoms: C15_25  and  C16_26 
REMARK   10  A    between atoms: C16_26  and  O2_27 
ROOT
HETATM    1  N2  UNL     1      -8.019  27.404  79.763  1.00  0.00    -0.110 NA
HETATM    2  N3  UNL     1      -7.981  27.005  78.427  1.00  0.00    -0.330 N 
ATOM      3  H3  UNL     1      -7.655  26.081  78.142  1.00  0.00     0.176 HD
HETATM    4  C7  UNL     1      -8.429  27.979  77.488  1.00  0.00     0.163 C 
HETATM    5  C8  UNL     1      -7.576  27.930  76.219  1.00  0.00     0.253 C 
HETATM    6  N4  UNL     1      -6.970  29.215  76.019  1.00  0.00    -0.074 N 
ATOM      7  H41 UNL     1      -7.411  29.913  76.617  1.00  0.00     0.277 HD
ATOM      8  H42 UNL     1      -7.220  29.586  75.103  1.00  0.00     0.277 HD
HETATM    9  C9  UNL     1      -5.548  29.235  76.194  1.00  0.00     0.232 C 
HETATM   10  C10 UNL     1      -5.063  30.659  76.331  1.00  0.00     0.027 C 
HETATM   11  C11 UNL     1      -3.751  30.640  77.096  1.00  0.00     0.002 C 
HETATM   12  C12 UNL     1      -3.546  31.972  77.821  1.00  0.00     0.002 C 
HETATM   13  C13 UNL     1      -2.973  31.752  79.209  1.00  0.00     0.030 C 
HETATM   14  C14 UNL     1      -3.865  32.464  80.223  1.00  0.00     0.272 C 
HETATM   15  N5  UNL     1      -3.939  31.779  81.475  1.00  0.00     0.090 N 
HETATM   16  C17 UNL     1      -5.212  31.108  81.633  1.00  0.00     0.272 C 
HETATM   17  C18 UNL     1      -5.183  29.670  81.188  1.00  0.00     0.032 C 
HETATM   18  C19 UNL     1      -6.191  29.474  80.049  1.00  0.00     0.030 C 
HETATM   19  C20 UNL     1      -7.602  29.517  80.546  1.00  0.00     0.196 C 
HETATM   20  O3  UNL     1      -8.469  28.668  79.908  1.00  0.00    -0.284 OA
ENDROOT
BRANCH   1  21
HETATM   21  C6  UNL     1      -8.986  26.458  80.394  1.00  0.00     0.145 C 
BRANCH  21  22
HETATM   22  C5  UNL     1      -8.901  25.134  79.752  1.00  0.00     0.019 C 
BRANCH  22  23
HETATM   23  C4  UNL     1     -10.040  24.232  79.740  1.00  0.00     0.002 C 
BRANCH  23  24
HETATM   24  C3  UNL     1      -9.944  22.774  79.762  1.00  0.00     0.011 C 
BRANCH  24  25
HETATM   25  C2  UNL     1     -11.042  21.975  80.380  1.00  0.00     0.084 C 
BRANCH  25  26
HETATM   26  S1  UNL     1     -11.501  20.580  79.269  1.00  0.00    -0.072 SA
BRANCH  26  27
HETATM   27  C1  UNL     1     -11.619  21.200  77.615  1.00  0.00     0.292 C 
HETATM   28  N1  UNL     1     -12.561  22.215  77.307  1.00  0.00    -0.051 NA
HETATM   29  O1  UNL     1     -10.875  20.756  76.684  1.00  0.00    -0.264 OA
ENDBRANCH  26  27
ENDBRANCH  25  26
ENDBRANCH  24  25
ENDBRANCH  23  24
ENDBRANCH  22  23
ENDBRANCH  21  22
ENDBRANCH   1  21
BRANCH  15  30
HETATM   30  C15 UNL     1      -3.785  32.714  82.564  1.00  0.00     0.298 C 
BRANCH  30  31
HETATM   31  C16 UNL     1      -4.938  32.643  83.545  1.00  0.00     0.194 C 
BRANCH  31  32
HETATM   32  O2  UNL     1      -5.442  33.910  83.826  1.00  0.00    -0.399 OA
ATOM     33  H2  UNL     1      -5.551  34.422  83.033  1.00  0.00     0.209 HD
ENDBRANCH  31  32
ENDBRANCH  30  31
ENDBRANCH  15  30
TORSDOF 10
ENDMDL
