MODEL 1
REMARK VINA RESULT: -7.872595362      0.000      0.000
REMARK  11 active torsions:
REMARK  status: ('A' for Active; 'I' for Inactive)
REMARK    1  A    between atoms: O1_2  and  C2_3 
REMARK    2  A    between atoms: C2_3  and  C4_5 
REMARK    3  A    between atoms: C4_5  and  O2_6 
REMARK    4  A    between atoms: O2_6  and  C5_7 
REMARK    5  A    between atoms: C5_7  and  C6_8 
REMARK    6  A    between atoms: C8_15  and  C9_16 
REMARK    7  A    between atoms: C13_20  and  O4_21 
REMARK    8  A    between atoms: C14_23  and  O5_24 
REMARK    9  A    between atoms: C15_26  and  C16_27 
REMARK   10  A    between atoms: C16_27  and  O7_29 
REMARK   11  A    between atoms: O7_29  and  C17_30 
ROOT
HETATM    1  C6  UNL     1      -8.405  27.700  82.649  1.00  0.00     0.126 C 
HETATM    2  N1  UNL     1      -9.690  28.245  82.410  1.00  0.00    -0.336 N 
ATOM      3  H1  UNL     1      -9.888  29.237  82.541  1.00  0.00     0.164 HD
HETATM    4  C7  UNL     1     -10.705  27.319  81.969  1.00  0.00     0.317 C 
HETATM    5  O3  UNL     1     -11.909  27.603  82.128  1.00  0.00    -0.247 OA
HETATM    6  N2  UNL     1     -10.316  26.079  81.352  1.00  0.00    -0.333 N 
ATOM      7  H2  UNL     1     -10.933  25.585  80.708  1.00  0.00     0.165 HD
HETATM    8  C8  UNL     1      -9.008  25.569  81.692  1.00  0.00     0.138 C 
HETATM    9  C15 UNL     1      -8.034  26.710  81.520  1.00  0.00     0.138 C 
ENDROOT
BRANCH   8  10
HETATM   10  C9  UNL     1      -8.631  24.321  81.061  1.00  0.00     0.001 A 
HETATM   11  C10 UNL     1      -7.499  23.620  81.328  1.00  0.00     0.012 A 
HETATM   12  C11 UNL     1      -7.179  22.427  80.708  1.00  0.00     0.003 A 
HETATM   13  C12 UNL     1      -8.027  21.908  79.779  1.00  0.00     0.039 A 
HETATM   14  C13 UNL     1      -9.195  22.587  79.474  1.00  0.00     0.099 A 
HETATM   15  C14 UNL     1      -9.497  23.780  80.106  1.00  0.00     0.107 A 
BRANCH  14  16
HETATM   16  O4  UNL     1     -10.002  21.988  78.517  1.00  0.00    -0.358 OA
ATOM     17  H4  UNL     1     -10.934  22.004  78.699  1.00  0.00     0.217 HD
ENDBRANCH  14  16
BRANCH  15  18
HETATM   18  O5  UNL     1     -10.671  24.413  79.766  1.00  0.00    -0.357 OA
ATOM     19  H5  UNL     1     -11.412  24.428  80.360  1.00  0.00     0.217 HD
ENDBRANCH  15  18
ENDBRANCH   8  10
BRANCH   9  20
HETATM   20  C16 UNL     1      -8.228  27.355  80.202  1.00  0.00     0.267 C 
HETATM   21  O6  UNL     1      -8.540  26.597  79.239  1.00  0.00    -0.265 OA
BRANCH  20  22
HETATM   22  O7  UNL     1      -8.112  28.673  79.899  1.00  0.00    -0.316 OA
BRANCH  22  23
HETATM   23  C17 UNL     1      -7.109  29.323  79.230  1.00  0.00     0.132 C 
HETATM   24  C18 UNL     1      -6.642  28.700  77.953  1.00  0.00     0.032 C 
HETATM   25  C19 UNL     1      -5.486  29.624  77.615  1.00  0.00     0.002 C 
HETATM   26  C20 UNL     1      -4.750  29.638  78.939  1.00  0.00     0.002 C 
HETATM   27  C21 UNL     1      -5.821  29.491  80.000  1.00  0.00     0.032 C 
ENDBRANCH  22  23
ENDBRANCH  20  22
ENDBRANCH   9  20
BRANCH   1  28
HETATM   28  C5  UNL     1      -7.301  28.602  83.025  1.00  0.00     0.193 C 
BRANCH  28  29
HETATM   29  O2  UNL     1      -7.584  29.757  83.666  1.00  0.00    -0.387 OA
BRANCH  29  30
HETATM   30  C4  UNL     1      -7.035  30.067  84.850  1.00  0.00     0.199 C 
BRANCH  30  31
HETATM   31  C2  UNL     1      -7.905  31.125  85.557  1.00  0.00     0.140 C 
HETATM   32  C3  UNL     1      -9.351  30.933  85.193  1.00  0.00     0.041 C 
BRANCH  31  33
HETATM   33  O1  UNL     1      -7.659  30.985  86.902  1.00  0.00    -0.389 OA
HETATM   34  C1  UNL     1      -8.407  29.937  87.466  1.00  0.00     0.202 C 
ENDBRANCH  31  33
ENDBRANCH  30  31
ENDBRANCH  29  30
ENDBRANCH  28  29
ENDBRANCH   1  28
TORSDOF 11
ENDMDL
MODEL 2
REMARK VINA RESULT: -7.834881507      1.620      2.172
REMARK  11 active torsions:
REMARK  status: ('A' for Active; 'I' for Inactive)
REMARK    1  A    between atoms: O1_2  and  C2_3 
REMARK    2  A    between atoms: C2_3  and  C4_5 
REMARK    3  A    between atoms: C4_5  and  O2_6 
REMARK    4  A    between atoms: O2_6  and  C5_7 
REMARK    5  A    between atoms: C5_7  and  C6_8 
REMARK    6  A    between atoms: C8_15  and  C9_16 
REMARK    7  A    between atoms: C13_20  and  O4_21 
REMARK    8  A    between atoms: C14_23  and  O5_24 
REMARK    9  A    between atoms: C15_26  and  C16_27 
REMARK   10  A    between atoms: C16_27  and  O7_29 
REMARK   11  A    between atoms: O7_29  and  C17_30 
ROOT
HETATM    1  C6  UNL     1      -8.340  29.007  81.837  1.00  0.00     0.126 C 
HETATM    2  N1  UNL     1      -8.569  29.635  80.589  1.00  0.00    -0.336 N 
ATOM      3  H1  UNL     1      -8.455  30.640  80.463  1.00  0.00     0.164 HD
HETATM    4  C7  UNL     1      -8.973  28.773  79.505  1.00  0.00     0.317 C 
HETATM    5  O3  UNL     1      -9.575  29.256  78.525  1.00  0.00    -0.247 OA
HETATM    6  N2  UNL     1      -8.675  27.367  79.566  1.00  0.00    -0.333 N 
ATOM      7  H2  UNL     1      -8.587  26.801  78.722  1.00  0.00     0.165 HD
HETATM    8  C8  UNL     1      -8.507  26.798  80.883  1.00  0.00     0.138 C 
HETATM    9  C15 UNL     1      -7.549  27.695  81.630  1.00  0.00     0.138 C 
ENDROOT
BRANCH   8  10
HETATM   10  C9  UNL     1      -8.206  25.381  80.927  1.00  0.00     0.001 A 
HETATM   11  C10 UNL     1      -7.393  24.782  81.836  1.00  0.00     0.012 A 
HETATM   12  C11 UNL     1      -7.137  23.425  81.849  1.00  0.00     0.003 A 
HETATM   13  C12 UNL     1      -7.717  22.626  80.912  1.00  0.00     0.039 A 
HETATM   14  C13 UNL     1      -8.555  23.191  79.965  1.00  0.00     0.099 A 
HETATM   15  C14 UNL     1      -8.798  24.553  79.969  1.00  0.00     0.107 A 
BRANCH  14  16
HETATM   16  O4  UNL     1      -9.105  22.306  79.048  1.00  0.00    -0.358 OA
ATOM     17  H4  UNL     1      -9.844  21.798  79.362  1.00  0.00     0.217 HD
ENDBRANCH  14  16
BRANCH  15  18
HETATM   18  O5  UNL     1      -9.639  25.063  79.007  1.00  0.00    -0.357 OA
ATOM     19  H5  UNL     1      -9.946  24.526  78.285  1.00  0.00     0.217 HD
ENDBRANCH  15  18
ENDBRANCH   8  10
BRANCH   9  20
HETATM   20  C16 UNL     1      -6.346  27.957  80.808  1.00  0.00     0.267 C 
HETATM   21  O6  UNL     1      -5.229  27.671  81.328  1.00  0.00    -0.265 OA
BRANCH  20  22
HETATM   22  O7  UNL     1      -6.296  28.471  79.553  1.00  0.00    -0.316 OA
BRANCH  22  23
HETATM   23  C17 UNL     1      -5.299  29.192  78.951  1.00  0.00     0.132 C 
HETATM   24  C18 UNL     1      -5.002  30.538  79.531  1.00  0.00     0.032 C 
HETATM   25  C19 UNL     1      -3.970  31.034  78.534  1.00  0.00     0.002 C 
HETATM   26  C20 UNL     1      -4.687  30.747  77.231  1.00  0.00     0.002 C 
HETATM   27  C21 UNL     1      -5.520  29.508  77.491  1.00  0.00     0.032 C 
ENDBRANCH  22  23
ENDBRANCH  20  22
ENDBRANCH   9  20
BRANCH   1  28
HETATM   28  C5  UNL     1      -7.850  29.815  82.969  1.00  0.00     0.193 C 
BRANCH  28  29
HETATM   29  O2  UNL     1      -7.219  29.198  83.993  1.00  0.00    -0.387 OA
BRANCH  29  30
HETATM   30  C4  UNL     1      -6.734  29.878  85.042  1.00  0.00     0.199 C 
BRANCH  30  31
HETATM   31  C2  UNL     1      -7.738  30.976  85.449  1.00  0.00     0.140 C 
HETATM   32  C3  UNL     1      -8.691  30.448  86.484  1.00  0.00     0.041 C 
BRANCH  31  33
HETATM   33  O1  UNL     1      -6.985  32.036  85.894  1.00  0.00    -0.389 OA
HETATM   34  C1  UNL     1      -5.820  32.211  85.128  1.00  0.00     0.202 C 
ENDBRANCH  31  33
ENDBRANCH  30  31
ENDBRANCH  29  30
ENDBRANCH  28  29
ENDBRANCH   1  28
TORSDOF 11
ENDMDL
MODEL 3
REMARK VINA RESULT: -7.804624331      1.544      6.416
REMARK  11 active torsions:
REMARK  status: ('A' for Active; 'I' for Inactive)
REMARK    1  A    between atoms: O1_2  and  C2_3 
REMARK    2  A    between atoms: C2_3  and  C4_5 
REMARK    3  A    between atoms: C4_5  and  O2_6 
REMARK    4  A    between atoms: O2_6  and  C5_7 
REMARK    5  A    between atoms: C5_7  and  C6_8 
REMARK    6  A    between atoms: C8_15  and  C9_16 
REMARK    7  A    between atoms: C13_20  and  O4_21 
REMARK    8  A    between atoms: C14_23  and  O5_24 
REMARK    9  A    between atoms: C15_26  and  C16_27 
REMARK   10  A    between atoms: C16_27  and  O7_29 
REMARK   11  A    between atoms: O7_29  and  C17_30 
ROOT
HETATM    1  C6  UNL     1      -8.889  25.133  82.363  1.00  0.00     0.126 C 
HETATM    2  N1  UNL     1     -10.088  25.755  82.788  1.00  0.00    -0.336 N 
ATOM      3  H1  UNL     1     -10.664  25.360  83.531  1.00  0.00     0.164 HD
HETATM    4  C7  UNL     1     -10.449  26.977  82.112  1.00  0.00     0.317 C 
HETATM    5  O3  UNL     1     -11.636  27.358  82.120  1.00  0.00    -0.247 OA
HETATM    6  N2  UNL     1      -9.434  27.742  81.438  1.00  0.00    -0.333 N 
ATOM      7  H2  UNL     1      -9.534  28.745  81.282  1.00  0.00     0.165 HD
HETATM    8  C8  UNL     1      -8.266  27.018  80.992  1.00  0.00     0.138 C 
HETATM    9  C15 UNL     1      -7.784  26.197  82.165  1.00  0.00     0.138 C 
ENDROOT
BRANCH   8  10
HETATM   10  C9  UNL     1      -7.254  27.803  80.317  1.00  0.00     0.001 A 
HETATM   11  C10 UNL     1      -6.104  28.252  80.884  1.00  0.00     0.012 A 
HETATM   12  C11 UNL     1      -5.158  28.993  80.202  1.00  0.00     0.003 A 
HETATM   13  C12 UNL     1      -5.367  29.302  78.894  1.00  0.00     0.039 A 
HETATM   14  C13 UNL     1      -6.524  28.865  78.271  1.00  0.00     0.099 A 
HETATM   15  C14 UNL     1      -7.459  28.124  78.972  1.00  0.00     0.107 A 
BRANCH  14  16
HETATM   16  O4  UNL     1      -6.657  29.223  76.937  1.00  0.00    -0.358 OA
ATOM     17  H4  UNL     1      -6.025  28.833  76.343  1.00  0.00     0.217 HD
ENDBRANCH  14  16
BRANCH  15  18
HETATM   18  O5  UNL     1      -8.590  27.714  78.305  1.00  0.00    -0.357 OA
ATOM     19  H5  UNL     1      -9.334  28.294  78.192  1.00  0.00     0.217 HD
ENDBRANCH  15  18
ENDBRANCH   8  10
BRANCH   9  20
HETATM   20  C16 UNL     1      -7.680  27.044  83.374  1.00  0.00     0.267 C 
HETATM   21  O6  UNL     1      -7.531  26.444  84.477  1.00  0.00    -0.265 OA
BRANCH  20  22
HETATM   22  O7  UNL     1      -7.724  28.399  83.444  1.00  0.00    -0.316 OA
BRANCH  22  23
HETATM   23  C17 UNL     1      -8.065  29.202  84.500  1.00  0.00     0.132 C 
HETATM   24  C18 UNL     1      -9.229  30.118  84.295  1.00  0.00     0.032 C 
HETATM   25  C19 UNL     1      -9.191  30.889  85.603  1.00  0.00     0.002 C 
HETATM   26  C20 UNL     1      -7.729  31.279  85.649  1.00  0.00     0.002 C 
HETATM   27  C21 UNL     1      -6.986  30.147  84.970  1.00  0.00     0.032 C 
ENDBRANCH  22  23
ENDBRANCH  20  22
ENDBRANCH   9  20
BRANCH   1  28
HETATM   28  C5  UNL     1      -8.419  23.924  83.063  1.00  0.00     0.193 C 
BRANCH  28  29
HETATM   29  O2  UNL     1      -8.181  22.801  82.350  1.00  0.00    -0.387 OA
BRANCH  29  30
HETATM   30  C4  UNL     1      -8.989  22.406  81.355  1.00  0.00     0.199 C 
BRANCH  30  31
HETATM   31  C2  UNL     1      -8.294  22.658  80.001  1.00  0.00     0.140 C 
HETATM   32  C3  UNL     1      -7.219  21.633  79.772  1.00  0.00     0.041 C 
BRANCH  31  33
HETATM   33  O1  UNL     1      -9.288  22.625  79.051  1.00  0.00    -0.389 OA
HETATM   34  C1  UNL     1     -10.484  23.193  79.522  1.00  0.00     0.202 C 
ENDBRANCH  31  33
ENDBRANCH  30  31
ENDBRANCH  29  30
ENDBRANCH  28  29
ENDBRANCH   1  28
TORSDOF 11
ENDMDL
MODEL 4
REMARK VINA RESULT: -7.594328222      2.522      5.820
REMARK  11 active torsions:
REMARK  status: ('A' for Active; 'I' for Inactive)
REMARK    1  A    between atoms: O1_2  and  C2_3 
REMARK    2  A    between atoms: C2_3  and  C4_5 
REMARK    3  A    between atoms: C4_5  and  O2_6 
REMARK    4  A    between atoms: O2_6  and  C5_7 
REMARK    5  A    between atoms: C5_7  and  C6_8 
REMARK    6  A    between atoms: C8_15  and  C9_16 
REMARK    7  A    between atoms: C13_20  and  O4_21 
REMARK    8  A    between atoms: C14_23  and  O5_24 
REMARK    9  A    between atoms: C15_26  and  C16_27 
REMARK   10  A    between atoms: C16_27  and  O7_29 
REMARK   11  A    between atoms: O7_29  and  C17_30 
ROOT
HETATM    1  C6  UNL     1      -8.454  27.726  81.642  1.00  0.00     0.126 C 
HETATM    2  N1  UNL     1      -8.272  27.744  83.047  1.00  0.00    -0.336 N 
ATOM      3  H1  UNL     1      -8.334  28.608  83.586  1.00  0.00     0.164 HD
HETATM    4  C7  UNL     1      -7.995  26.474  83.672  1.00  0.00     0.317 C 
HETATM    5  O3  UNL     1      -7.431  26.445  84.785  1.00  0.00    -0.247 OA
HETATM    6  N2  UNL     1      -8.371  25.257  83.006  1.00  0.00    -0.333 N 
ATOM      7  H2  UNL     1      -8.549  24.396  83.522  1.00  0.00     0.165 HD
HETATM    8  C8  UNL     1      -8.484  25.315  81.566  1.00  0.00     0.138 C 
HETATM    9  C15 UNL     1      -9.335  26.519  81.241  1.00  0.00     0.138 C 
ENDROOT
BRANCH   8  10
HETATM   10  C9  UNL     1      -8.865  24.080  80.911  1.00  0.00     0.001 A 
HETATM   11  C10 UNL     1      -9.641  23.992  79.799  1.00  0.00     0.012 A 
HETATM   12  C11 UNL     1      -9.976  22.794  79.199  1.00  0.00     0.003 A 
HETATM   13  C12 UNL     1      -9.518  21.629  79.730  1.00  0.00     0.039 A 
HETATM   14  C13 UNL     1      -8.722  21.668  80.863  1.00  0.00     0.099 A 
HETATM   15  C14 UNL     1      -8.397  22.878  81.449  1.00  0.00     0.107 A 
BRANCH  14  16
HETATM   16  O4  UNL     1      -8.297  20.435  81.338  1.00  0.00    -0.358 OA
ATOM     17  H4  UNL     1      -8.339  20.323  82.281  1.00  0.00     0.217 HD
ENDBRANCH  14  16
BRANCH  15  18
HETATM   18  O5  UNL     1      -7.603  22.860  82.572  1.00  0.00    -0.357 OA
ATOM     19  H5  UNL     1      -7.155  22.068  82.847  1.00  0.00     0.217 HD
ENDBRANCH  15  18
ENDBRANCH   8  10
BRANCH   9  20
HETATM   20  C16 UNL     1     -10.572  26.507  82.054  1.00  0.00     0.267 C 
HETATM   21  O6  UNL     1     -11.177  27.610  82.182  1.00  0.00    -0.265 OA
BRANCH  20  22
HETATM   22  O7  UNL     1     -11.140  25.447  82.682  1.00  0.00    -0.316 OA
BRANCH  22  23
HETATM   23  C17 UNL     1     -12.260  24.736  82.340  1.00  0.00     0.132 C 
HETATM   24  C18 UNL     1     -12.140  23.246  82.362  1.00  0.00     0.032 C 
HETATM   25  C19 UNL     1     -13.505  22.863  81.817  1.00  0.00     0.002 C 
HETATM   26  C20 UNL     1     -13.568  23.748  80.589  1.00  0.00     0.002 C 
HETATM   27  C21 UNL     1     -12.794  24.999  80.952  1.00  0.00     0.032 C 
ENDBRANCH  22  23
ENDBRANCH  20  22
ENDBRANCH   9  20
BRANCH   1  28
HETATM   28  C5  UNL     1      -8.819  28.974  80.948  1.00  0.00     0.193 C 
BRANCH  28  29
HETATM   29  O2  UNL     1      -8.311  29.216  79.720  1.00  0.00    -0.387 OA
BRANCH  29  30
HETATM   30  C4  UNL     1      -7.050  29.639  79.542  1.00  0.00     0.199 C 
BRANCH  30  31
HETATM   31  C2  UNL     1      -6.380  28.797  78.437  1.00  0.00     0.140 C 
HETATM   32  C3  UNL     1      -7.424  28.129  77.588  1.00  0.00     0.041 C 
BRANCH  31  33
HETATM   33  O1  UNL     1      -5.578  29.663  77.732  1.00  0.00    -0.389 OA
HETATM   34  C1  UNL     1      -5.547  29.353  76.362  1.00  0.00     0.202 C 
ENDBRANCH  31  33
ENDBRANCH  30  31
ENDBRANCH  29  30
ENDBRANCH  28  29
ENDBRANCH   1  28
TORSDOF 11
ENDMDL
MODEL 5
REMARK VINA RESULT: -7.591635101      2.311      4.262
REMARK  11 active torsions:
REMARK  status: ('A' for Active; 'I' for Inactive)
REMARK    1  A    between atoms: O1_2  and  C2_3 
REMARK    2  A    between atoms: C2_3  and  C4_5 
REMARK    3  A    between atoms: C4_5  and  O2_6 
REMARK    4  A    between atoms: O2_6  and  C5_7 
REMARK    5  A    between atoms: C5_7  and  C6_8 
REMARK    6  A    between atoms: C8_15  and  C9_16 
REMARK    7  A    between atoms: C13_20  and  O4_21 
REMARK    8  A    between atoms: C14_23  and  O5_24 
REMARK    9  A    between atoms: C15_26  and  C16_27 
REMARK   10  A    between atoms: C16_27  and  O7_29 
REMARK   11  A    between atoms: O7_29  and  C17_30 
ROOT
HETATM    1  C6  UNL     1      -6.455  28.548  81.656  1.00  0.00     0.126 C 
HETATM    2  N1  UNL     1      -7.403  29.432  82.226  1.00  0.00    -0.336 N 
ATOM      3  H1  UNL     1      -7.217  30.429  82.327  1.00  0.00     0.164 HD
HETATM    4  C7  UNL     1      -8.647  28.843  82.657  1.00  0.00     0.317 C 
HETATM    5  O3  UNL     1      -9.344  29.428  83.511  1.00  0.00    -0.247 OA
HETATM    6  N2  UNL     1      -9.071  27.587  82.097  1.00  0.00    -0.333 N 
ATOM      7  H2  UNL     1     -10.054  27.320  82.064  1.00  0.00     0.165 HD
HETATM    8  C8  UNL     1      -8.032  26.724  81.584  1.00  0.00     0.138 C 
HETATM    9  C15 UNL     1      -7.161  27.571  80.687  1.00  0.00     0.138 C 
ENDROOT
BRANCH   8  10
HETATM   10  C9  UNL     1      -8.475  25.465  81.022  1.00  0.00     0.001 A 
HETATM   11  C10 UNL     1      -9.541  25.310  80.193  1.00  0.00     0.012 A 
HETATM   12  C11 UNL     1      -9.927  24.090  79.671  1.00  0.00     0.003 A 
HETATM   13  C12 UNL     1      -9.219  22.973  79.989  1.00  0.00     0.039 A 
HETATM   14  C13 UNL     1      -8.123  23.081  80.829  1.00  0.00     0.099 A 
HETATM   15  C14 UNL     1      -7.753  24.312  81.341  1.00  0.00     0.107 A 
BRANCH  14  16
HETATM   16  O4  UNL     1      -7.458  21.894  81.100  1.00  0.00    -0.358 OA
ATOM     17  H4  UNL     1      -6.818  21.625  80.451  1.00  0.00     0.217 HD
ENDBRANCH  14  16
BRANCH  15  18
HETATM   18  O5  UNL     1      -6.656  24.363  82.171  1.00  0.00    -0.357 OA
ATOM     19  H5  UNL     1      -5.817  24.007  81.901  1.00  0.00     0.217 HD
ENDBRANCH  15  18
ENDBRANCH   8  10
BRANCH   9  20
HETATM   20  C16 UNL     1      -7.997  28.330  79.729  1.00  0.00     0.267 C 
HETATM   21  O6  UNL     1      -8.407  29.464  80.108  1.00  0.00    -0.265 OA
BRANCH  20  22
HETATM   22  O7  UNL     1      -8.378  27.952  78.483  1.00  0.00    -0.316 OA
BRANCH  22  23
HETATM   23  C17 UNL     1      -7.795  28.233  77.276  1.00  0.00     0.132 C 
HETATM   24  C18 UNL     1      -7.414  27.062  76.427  1.00  0.00     0.032 C 
HETATM   25  C19 UNL     1      -6.712  27.779  75.287  1.00  0.00     0.002 C 
HETATM   26  C20 UNL     1      -5.773  28.677  76.065  1.00  0.00     0.002 C 
HETATM   27  C21 UNL     1      -6.505  29.016  77.348  1.00  0.00     0.032 C 
ENDBRANCH  22  23
ENDBRANCH  20  22
ENDBRANCH   9  20
BRANCH   1  28
HETATM   28  C5  UNL     1      -5.194  29.094  81.122  1.00  0.00     0.193 C 
BRANCH  28  29
HETATM   29  O2  UNL     1      -5.202  30.307  80.526  1.00  0.00    -0.387 OA
BRANCH  29  30
HETATM   30  C4  UNL     1      -4.390  31.298  80.920  1.00  0.00     0.199 C 
BRANCH  30  31
HETATM   31  C2  UNL     1      -3.777  31.982  79.681  1.00  0.00     0.140 C 
HETATM   32  C3  UNL     1      -2.414  32.523  80.008  1.00  0.00     0.041 C 
BRANCH  31  33
HETATM   33  O1  UNL     1      -3.761  31.029  78.689  1.00  0.00    -0.389 OA
HETATM   34  C1  UNL     1      -3.770  31.606  77.407  1.00  0.00     0.202 C 
ENDBRANCH  31  33
ENDBRANCH  30  31
ENDBRANCH  29  30
ENDBRANCH  28  29
ENDBRANCH   1  28
TORSDOF 11
ENDMDL
