MODEL 1
REMARK VINA RESULT: -8.852433324      0.000      0.000
REMARK  10 active torsions:
REMARK  status: ('A' for Active; 'I' for Inactive)
REMARK    1  A    between atoms: C4_4  and  O1_5 
REMARK    2  A    between atoms: C10_13  and  O3_14 
REMARK    3  A    between atoms: O3_14  and  C11_15 
REMARK    4  A    between atoms: C11_15  and  C12_16 
REMARK    5  A    between atoms: C11_15  and  C21_31 
REMARK    6  A    between atoms: C12_16  and  C13_17 
REMARK    7  A    between atoms: C13_17  and  O4_18 
REMARK    8  A    between atoms: O4_18  and  C14_19 
REMARK    9  A    between atoms: C19_24  and  C20_25 
REMARK   10  A    between atoms: N2_27  and  O5_29 
ROOT
HETATM    1  C11 UNL     1      -8.276  25.371  81.253  1.00  0.00     0.227 C 
ENDROOT
BRANCH   1   2
HETATM    2  O3  UNL     1      -9.537  24.839  81.331  1.00  0.00    -0.345 OA
BRANCH   2   3
HETATM    3  C10 UNL     1      -9.836  23.934  80.338  1.00  0.00     0.265 C 
HETATM    4  C2  UNL     1      -9.327  22.555  80.571  1.00  0.00     0.040 C 
HETATM    5  C1  UNL     1      -8.214  22.173  79.605  1.00  0.00     0.015 C 
HETATM    6  C3  UNL     1     -10.366  21.484  80.510  1.00  0.00     0.049 C 
HETATM    7  C4  UNL     1     -11.463  21.728  79.535  1.00  0.00     0.084 C 
HETATM    8  C5  UNL     1     -11.381  20.883  78.290  1.00  0.00     0.040 C 
HETATM    9  C9  UNL     1     -11.513  23.180  79.064  1.00  0.00     0.159 C 
HETATM   10  C6  UNL     1     -12.641  21.080  77.508  1.00  0.00     0.003 C 
HETATM   11  C7  UNL     1     -13.006  22.503  77.267  1.00  0.00     0.003 C 
HETATM   12  C8  UNL     1     -12.892  23.379  78.491  1.00  0.00     0.035 C 
HETATM   13  O2  UNL     1     -11.227  23.982  80.135  1.00  0.00    -0.353 OA
BRANCH   7  14
HETATM   14  O1  UNL     1     -12.719  21.459  80.118  1.00  0.00    -0.387 OA
ATOM     15  H1  UNL     1     -13.253  22.244  80.145  1.00  0.00     0.210 HD
ENDBRANCH   7  14
ENDBRANCH   2   3
ENDBRANCH   1   2
BRANCH   1  16
HETATM   16  C12 UNL     1      -8.277  26.886  81.239  1.00  0.00     0.070 C 
BRANCH  16  17
HETATM   17  C13 UNL     1      -8.688  27.451  79.925  1.00  0.00     0.178 C 
BRANCH  17  18
HETATM   18  O4  UNL     1      -7.724  27.558  78.946  1.00  0.00    -0.350 OA
BRANCH  18  19
HETATM   19  C14 UNL     1      -6.760  28.492  78.703  1.00  0.00     0.082 A 
HETATM   20  C15 UNL     1      -6.132  29.270  79.664  1.00  0.00     0.038 A 
HETATM   21  C16 UNL     1      -5.169  30.183  79.270  1.00  0.00     0.003 A 
HETATM   22  C17 UNL     1      -4.829  30.325  77.941  1.00  0.00     0.001 A 
HETATM   23  C18 UNL     1      -5.456  29.550  76.987  1.00  0.00     0.018 A 
HETATM   24  C19 UNL     1      -6.413  28.638  77.348  1.00  0.00     0.040 A 
BRANCH  24  25
HETATM   25  C20 UNL     1      -7.077  27.817  76.342  1.00  0.00     0.148 C 
HETATM   26  N1  UNL     1      -6.368  26.756  75.743  1.00  0.00    -0.080 NA
HETATM   27  N2  UNL     1      -8.285  28.038  75.991  1.00  0.00    -0.255 N 
ATOM     28  H2  UNL     1      -8.801  28.805  76.422  1.00  0.00     0.195 HD
BRANCH  27  29
HETATM   29  O5  UNL     1      -8.898  27.260  75.044  1.00  0.00    -0.288 OA
ATOM     30  H5  UNL     1      -9.467  27.644  74.389  1.00  0.00     0.244 HD
ENDBRANCH  27  29
ENDBRANCH  24  25
ENDBRANCH  18  19
ENDBRANCH  17  18
ENDBRANCH  16  17
ENDBRANCH   1  16
BRANCH   1  31
HETATM   31  C21 UNL     1      -7.493  24.907  82.427  1.00  0.00     0.203 C 
HETATM   32  O6  UNL     1      -7.493  25.551  83.520  1.00  0.00    -0.646 OA
HETATM   33  O7  UNL     1      -6.733  23.754  82.369  1.00  0.00    -0.646 OA
ENDBRANCH   1  31
TORSDOF 10
ENDMDL
MODEL 2
REMARK VINA RESULT: -8.826684111      3.598      5.364
REMARK  10 active torsions:
REMARK  status: ('A' for Active; 'I' for Inactive)
REMARK    1  A    between atoms: C4_4  and  O1_5 
REMARK    2  A    between atoms: C10_13  and  O3_14 
REMARK    3  A    between atoms: O3_14  and  C11_15 
REMARK    4  A    between atoms: C11_15  and  C12_16 
REMARK    5  A    between atoms: C11_15  and  C21_31 
REMARK    6  A    between atoms: C12_16  and  C13_17 
REMARK    7  A    between atoms: C13_17  and  O4_18 
REMARK    8  A    between atoms: O4_18  and  C14_19 
REMARK    9  A    between atoms: C19_24  and  C20_25 
REMARK   10  A    between atoms: N2_27  and  O5_29 
ROOT
HETATM    1  C11 UNL     1      -6.688  29.878  83.914  1.00  0.00     0.227 C 
ENDROOT
BRANCH   1   2
HETATM    2  O3  UNL     1      -7.923  29.428  83.524  1.00  0.00    -0.345 OA
BRANCH   2   3
HETATM    3  C10 UNL     1      -8.177  28.114  83.842  1.00  0.00     0.265 C 
HETATM    4  C2  UNL     1      -9.534  27.853  84.396  1.00  0.00     0.040 C 
HETATM    5  C1  UNL     1      -9.498  27.462  85.867  1.00  0.00     0.015 C 
HETATM    6  C3  UNL     1     -10.319  26.809  83.670  1.00  0.00     0.049 C 
HETATM    7  C4  UNL     1      -9.511  25.698  83.101  1.00  0.00     0.084 C 
HETATM    8  C5  UNL     1      -9.628  24.400  83.858  1.00  0.00     0.040 C 
HETATM    9  C9  UNL     1      -8.020  26.028  83.046  1.00  0.00     0.159 C 
HETATM   10  C6  UNL     1      -8.939  23.334  83.066  1.00  0.00     0.003 C 
HETATM   11  C7  UNL     1      -7.556  23.677  82.635  1.00  0.00     0.003 C 
HETATM   12  C8  UNL     1      -7.422  25.063  82.056  1.00  0.00     0.035 C 
HETATM   13  O2  UNL     1      -7.892  27.345  82.698  1.00  0.00    -0.353 OA
BRANCH   7  14
HETATM   14  O1  UNL     1      -9.903  25.423  81.774  1.00  0.00    -0.387 OA
ATOM     15  H1  UNL     1      -9.339  24.764  81.386  1.00  0.00     0.210 HD
ENDBRANCH   7  14
ENDBRANCH   2   3
ENDBRANCH   1   2
BRANCH   1  16
HETATM   16  C12 UNL     1      -5.919  30.535  82.788  1.00  0.00     0.070 C 
BRANCH  16  17
HETATM   17  C13 UNL     1      -5.571  29.587  81.695  1.00  0.00     0.178 C 
BRANCH  17  18
HETATM   18  O4  UNL     1      -6.427  29.514  80.617  1.00  0.00    -0.350 OA
BRANCH  18  19
HETATM   19  C14 UNL     1      -6.207  29.402  79.275  1.00  0.00     0.082 A 
HETATM   20  C15 UNL     1      -5.143  29.960  78.584  1.00  0.00     0.038 A 
HETATM   21  C16 UNL     1      -5.048  29.764  77.216  1.00  0.00     0.003 A 
HETATM   22  C17 UNL     1      -5.995  29.026  76.540  1.00  0.00     0.001 A 
HETATM   23  C18 UNL     1      -7.054  28.472  77.230  1.00  0.00     0.018 A 
HETATM   24  C19 UNL     1      -7.173  28.649  78.584  1.00  0.00     0.040 A 
BRANCH  24  25
HETATM   25  C20 UNL     1      -8.291  28.066  79.316  1.00  0.00     0.148 C 
HETATM   26  N1  UNL     1      -8.501  26.672  79.254  1.00  0.00    -0.080 NA
HETATM   27  N2  UNL     1      -9.083  28.787  80.011  1.00  0.00    -0.255 N 
ATOM     28  H2  UNL     1      -8.935  29.795  80.058  1.00  0.00     0.195 HD
BRANCH  27  29
HETATM   29  O5  UNL     1     -10.130  28.225  80.694  1.00  0.00    -0.288 OA
ATOM     30  H5  UNL     1     -11.021  28.305  80.375  1.00  0.00     0.244 HD
ENDBRANCH  27  29
ENDBRANCH  24  25
ENDBRANCH  18  19
ENDBRANCH  17  18
ENDBRANCH  16  17
ENDBRANCH   1  16
BRANCH   1  31
HETATM   31  C21 UNL     1      -6.869  30.867  85.008  1.00  0.00     0.203 C 
HETATM   32  O6  UNL     1      -5.902  31.218  85.751  1.00  0.00    -0.646 OA
HETATM   33  O7  UNL     1      -8.101  31.443  85.256  1.00  0.00    -0.646 OA
ENDBRANCH   1  31
TORSDOF 10
ENDMDL
MODEL 3
REMARK VINA RESULT: -8.791147270      2.053      3.305
REMARK  10 active torsions:
REMARK  status: ('A' for Active; 'I' for Inactive)
REMARK    1  A    between atoms: C4_4  and  O1_5 
REMARK    2  A    between atoms: C10_13  and  O3_14 
REMARK    3  A    between atoms: O3_14  and  C11_15 
REMARK    4  A    between atoms: C11_15  and  C12_16 
REMARK    5  A    between atoms: C11_15  and  C21_31 
REMARK    6  A    between atoms: C12_16  and  C13_17 
REMARK    7  A    between atoms: C13_17  and  O4_18 
REMARK    8  A    between atoms: O4_18  and  C14_19 
REMARK    9  A    between atoms: C19_24  and  C20_25 
REMARK   10  A    between atoms: N2_27  and  O5_29 
ROOT
HETATM    1  C11 UNL     1      -7.645  28.132  81.993  1.00  0.00     0.227 C 
ENDROOT
BRANCH   1   2
HETATM    2  O3  UNL     1      -8.695  27.681  81.237  1.00  0.00    -0.345 OA
BRANCH   2   3
HETATM    3  C10 UNL     1      -9.039  26.368  81.465  1.00  0.00     0.265 C 
HETATM    4  C2  UNL     1     -10.412  26.162  82.001  1.00  0.00     0.040 C 
HETATM    5  C1  UNL     1     -10.406  25.671  83.443  1.00  0.00     0.015 C 
HETATM    6  C3  UNL     1     -11.263  25.226  81.208  1.00  0.00     0.049 C 
HETATM    7  C4  UNL     1     -10.529  24.104  80.563  1.00  0.00     0.084 C 
HETATM    8  C5  UNL     1     -10.736  22.768  81.231  1.00  0.00     0.040 C 
HETATM    9  C9  UNL     1      -9.020  24.335  80.529  1.00  0.00     0.159 C 
HETATM   10  C6  UNL     1     -10.118  21.714  80.367  1.00  0.00     0.003 C 
HETATM   11  C7  UNL     1      -8.714  21.991  79.958  1.00  0.00     0.003 C 
HETATM   12  C8  UNL     1      -8.485  23.402  79.475  1.00  0.00     0.035 C 
HETATM   13  O2  UNL     1      -8.802  25.661  80.271  1.00  0.00    -0.353 OA
BRANCH   7  14
HETATM   14  O1  UNL     1     -10.935  23.947  79.221  1.00  0.00    -0.387 OA
ATOM     15  H1  UNL     1     -10.531  24.605  78.668  1.00  0.00     0.210 HD
ENDBRANCH   7  14
ENDBRANCH   2   3
ENDBRANCH   1   2
BRANCH   1  16
HETATM   16  C12 UNL     1      -6.956  29.335  81.384  1.00  0.00     0.070 C 
BRANCH  16  17
HETATM   17  C13 UNL     1      -5.566  29.043  80.942  1.00  0.00     0.178 C 
BRANCH  17  18
HETATM   18  O4  UNL     1      -5.362  28.793  79.602  1.00  0.00    -0.350 OA
BRANCH  18  19
HETATM   19  C14 UNL     1      -5.016  29.600  78.557  1.00  0.00     0.082 A 
HETATM   20  C15 UNL     1      -4.045  30.589  78.592  1.00  0.00     0.038 A 
HETATM   21  C16 UNL     1      -3.801  31.335  77.451  1.00  0.00     0.003 A 
HETATM   22  C17 UNL     1      -4.507  31.106  76.290  1.00  0.00     0.001 A 
HETATM   23  C18 UNL     1      -5.474  30.121  76.259  1.00  0.00     0.018 A 
HETATM   24  C19 UNL     1      -5.737  29.367  77.373  1.00  0.00     0.040 A 
BRANCH  24  25
HETATM   25  C20 UNL     1      -6.757  28.326  77.343  1.00  0.00     0.148 C 
HETATM   26  N1  UNL     1      -6.673  27.308  76.371  1.00  0.00    -0.080 NA
HETATM   27  N2  UNL     1      -7.725  28.315  78.176  1.00  0.00    -0.255 N 
ATOM     28  H2  UNL     1      -7.790  29.050  78.881  1.00  0.00     0.195 HD
BRANCH  27  29
HETATM   29  O5  UNL     1      -8.678  27.331  78.138  1.00  0.00    -0.288 OA
ATOM     30  H5  UNL     1      -9.596  27.544  78.028  1.00  0.00     0.244 HD
ENDBRANCH  27  29
ENDBRANCH  24  25
ENDBRANCH  18  19
ENDBRANCH  17  18
ENDBRANCH  16  17
ENDBRANCH   1  16
BRANCH   1  31
HETATM   31  C21 UNL     1      -8.155  28.505  83.337  1.00  0.00     0.203 C 
HETATM   32  O6  UNL     1      -7.631  28.045  84.397  1.00  0.00    -0.646 OA
HETATM   33  O7  UNL     1      -9.224  29.370  83.482  1.00  0.00    -0.646 OA
ENDBRANCH   1  31
TORSDOF 10
ENDMDL
MODEL 4
REMARK VINA RESULT: -8.766477111      0.989      1.438
REMARK  10 active torsions:
REMARK  status: ('A' for Active; 'I' for Inactive)
REMARK    1  A    between atoms: C4_4  and  O1_5 
REMARK    2  A    between atoms: C10_13  and  O3_14 
REMARK    3  A    between atoms: O3_14  and  C11_15 
REMARK    4  A    between atoms: C11_15  and  C12_16 
REMARK    5  A    between atoms: C11_15  and  C21_31 
REMARK    6  A    between atoms: C12_16  and  C13_17 
REMARK    7  A    between atoms: C13_17  and  O4_18 
REMARK    8  A    between atoms: O4_18  and  C14_19 
REMARK    9  A    between atoms: C19_24  and  C20_25 
REMARK   10  A    between atoms: N2_27  and  O5_29 
ROOT
HETATM    1  C11 UNL     1      -9.155  25.964  81.670  1.00  0.00     0.227 C 
ENDROOT
BRANCH   1   2
HETATM    2  O3  UNL     1      -9.778  24.763  81.891  1.00  0.00    -0.345 OA
BRANCH   2   3
HETATM    3  C10 UNL     1      -9.975  24.006  80.759  1.00  0.00     0.265 C 
HETATM    4  C2  UNL     1      -9.300  22.680  80.765  1.00  0.00     0.040 C 
HETATM    5  C1  UNL     1      -8.158  22.603  79.760  1.00  0.00     0.015 C 
HETATM    6  C3  UNL     1     -10.201  21.515  80.517  1.00  0.00     0.049 C 
HETATM    7  C4  UNL     1     -11.330  21.782  79.586  1.00  0.00     0.084 C 
HETATM    8  C5  UNL     1     -11.158  21.171  78.219  1.00  0.00     0.040 C 
HETATM    9  C9  UNL     1     -11.562  23.275  79.361  1.00  0.00     0.159 C 
HETATM   10  C6  UNL     1     -12.442  21.339  77.468  1.00  0.00     0.003 C 
HETATM   11  C7  UNL     1     -12.981  22.727  77.463  1.00  0.00     0.003 C 
HETATM   12  C8  UNL     1     -12.961  23.395  78.816  1.00  0.00     0.035 C 
HETATM   13  O2  UNL     1     -11.364  23.916  80.553  1.00  0.00    -0.353 OA
BRANCH   7  14
HETATM   14  O1  UNL     1     -12.537  21.268  80.104  1.00  0.00    -0.387 OA
ATOM     15  H1  UNL     1     -12.800  20.486  79.634  1.00  0.00     0.210 HD
ENDBRANCH   7  14
ENDBRANCH   2   3
ENDBRANCH   1   2
BRANCH   1  16
HETATM   16  C12 UNL     1      -8.917  26.240  80.200  1.00  0.00     0.070 C 
BRANCH  16  17
HETATM   17  C13 UNL     1      -8.404  27.614  79.946  1.00  0.00     0.178 C 
BRANCH  17  18
HETATM   18  O4  UNL     1      -7.691  27.825  78.785  1.00  0.00    -0.350 OA
BRANCH  18  19
HETATM   19  C14 UNL     1      -6.663  28.668  78.477  1.00  0.00     0.082 A 
HETATM   20  C15 UNL     1      -5.979  29.466  79.380  1.00  0.00     0.038 A 
HETATM   21  C16 UNL     1      -4.954  30.276  78.923  1.00  0.00     0.003 A 
HETATM   22  C17 UNL     1      -4.609  30.297  77.589  1.00  0.00     0.001 A 
HETATM   23  C18 UNL     1      -5.293  29.502  76.692  1.00  0.00     0.018 A 
HETATM   24  C19 UNL     1      -6.312  28.689  77.116  1.00  0.00     0.040 A 
BRANCH  24  25
HETATM   25  C20 UNL     1      -7.036  27.848  76.171  1.00  0.00     0.148 C 
HETATM   26  N1  UNL     1      -6.375  26.751  75.581  1.00  0.00    -0.080 NA
HETATM   27  N2  UNL     1      -8.254  28.082  75.865  1.00  0.00    -0.255 N 
ATOM     28  H2  UNL     1      -8.735  28.875  76.289  1.00  0.00     0.195 HD
BRANCH  27  29
HETATM   29  O5  UNL     1      -8.923  27.283  74.975  1.00  0.00    -0.288 OA
ATOM     30  H5  UNL     1      -9.197  27.617  74.130  1.00  0.00     0.244 HD
ENDBRANCH  27  29
ENDBRANCH  24  25
ENDBRANCH  18  19
ENDBRANCH  17  18
ENDBRANCH  16  17
ENDBRANCH   1  16
BRANCH   1  31
HETATM   31  C21 UNL     1     -10.007  27.048  82.225  1.00  0.00     0.203 C 
HETATM   32  O6  UNL     1     -11.231  27.156  81.911  1.00  0.00    -0.646 OA
HETATM   33  O7  UNL     1      -9.493  27.979  83.108  1.00  0.00    -0.646 OA
ENDBRANCH   1  31
TORSDOF 10
ENDMDL
MODEL 5
REMARK VINA RESULT: -8.613003125      1.208      1.887
REMARK  10 active torsions:
REMARK  status: ('A' for Active; 'I' for Inactive)
REMARK    1  A    between atoms: C4_4  and  O1_5 
REMARK    2  A    between atoms: C10_13  and  O3_14 
REMARK    3  A    between atoms: O3_14  and  C11_15 
REMARK    4  A    between atoms: C11_15  and  C12_16 
REMARK    5  A    between atoms: C11_15  and  C21_31 
REMARK    6  A    between atoms: C12_16  and  C13_17 
REMARK    7  A    between atoms: C13_17  and  O4_18 
REMARK    8  A    between atoms: O4_18  and  C14_19 
REMARK    9  A    between atoms: C19_24  and  C20_25 
REMARK   10  A    between atoms: N2_27  and  O5_29 
ROOT
HETATM    1  C11 UNL     1      -8.415  25.495  81.353  1.00  0.00     0.227 C 
ENDROOT
BRANCH   1   2
HETATM    2  O3  UNL     1      -9.735  25.617  81.701  1.00  0.00    -0.345 OA
BRANCH   2   3
HETATM    3  C10 UNL     1     -10.483  24.479  81.504  1.00  0.00     0.265 C 
HETATM    4  C2  UNL     1     -11.957  24.688  81.512  1.00  0.00     0.040 C 
HETATM    5  C1  UNL     1     -12.627  24.065  82.729  1.00  0.00     0.015 C 
HETATM    6  C3  UNL     1     -12.669  24.188  80.298  1.00  0.00     0.049 C 
HETATM    7  C4  UNL     1     -12.084  22.965  79.686  1.00  0.00     0.084 C 
HETATM    8  C5  UNL     1     -12.883  21.711  79.933  1.00  0.00     0.040 C 
HETATM    9  C9  UNL     1     -10.671  22.678  80.190  1.00  0.00     0.159 C 
HETATM   10  C6  UNL     1     -12.300  20.614  79.098  1.00  0.00     0.003 C 
HETATM   11  C7  UNL     1     -10.827  20.447  79.234  1.00  0.00     0.003 C 
HETATM   12  C8  UNL     1     -10.057  21.743  79.181  1.00  0.00     0.035 C 
HETATM   13  O2  UNL     1     -10.019  23.873  80.322  1.00  0.00    -0.353 OA
BRANCH   7  14
HETATM   14  O1  UNL     1     -11.983  23.105  78.286  1.00  0.00    -0.387 OA
ATOM     15  H1  UNL     1     -11.880  24.018  78.046  1.00  0.00     0.210 HD
ENDBRANCH   7  14
ENDBRANCH   2   3
ENDBRANCH   1   2
BRANCH   1  16
HETATM   16  C12 UNL     1      -7.791  26.812  80.941  1.00  0.00     0.070 C 
BRANCH  16  17
HETATM   17  C13 UNL     1      -8.576  27.521  79.895  1.00  0.00     0.178 C 
BRANCH  17  18
HETATM   18  O4  UNL     1      -7.917  27.891  78.742  1.00  0.00    -0.350 OA
BRANCH  18  19
HETATM   19  C14 UNL     1      -6.839  28.696  78.517  1.00  0.00     0.082 A 
HETATM   20  C15 UNL     1      -6.227  29.505  79.462  1.00  0.00     0.038 A 
HETATM   21  C16 UNL     1      -5.137  30.272  79.090  1.00  0.00     0.003 A 
HETATM   22  C17 UNL     1      -4.656  30.241  77.798  1.00  0.00     0.001 A 
HETATM   23  C18 UNL     1      -5.268  29.435  76.859  1.00  0.00     0.018 A 
HETATM   24  C19 UNL     1      -6.348  28.664  77.200  1.00  0.00     0.040 A 
BRANCH  24  25
HETATM   25  C20 UNL     1      -6.996  27.811  76.211  1.00  0.00     0.148 C 
HETATM   26  N1  UNL     1      -6.264  26.756  75.627  1.00  0.00    -0.080 NA
HETATM   27  N2  UNL     1      -8.210  27.999  75.859  1.00  0.00    -0.255 N 
ATOM     28  H2  UNL     1      -8.742  28.761  76.278  1.00  0.00     0.195 HD
BRANCH  27  29
HETATM   29  O5  UNL     1      -8.807  27.190  74.928  1.00  0.00    -0.288 OA
ATOM     30  H5  UNL     1      -9.503  27.517  74.371  1.00  0.00     0.244 HD
ENDBRANCH  27  29
ENDBRANCH  24  25
ENDBRANCH  18  19
ENDBRANCH  17  18
ENDBRANCH  16  17
ENDBRANCH   1  16
BRANCH   1  31
HETATM   31  C21 UNL     1      -7.666  24.959  82.519  1.00  0.00     0.203 C 
HETATM   32  O6  UNL     1      -7.433  25.672  83.542  1.00  0.00    -0.646 OA
HETATM   33  O7  UNL     1      -7.196  23.659  82.531  1.00  0.00    -0.646 OA
ENDBRANCH   1  31
TORSDOF 10
ENDMDL
