MODEL 1
REMARK VINA RESULT: -8.388481756      0.000      0.000
REMARK  6 active torsions:
REMARK  status: ('A' for Active; 'I' for Inactive)
REMARK    1  A    between atoms: C2_2  and  C5_5 
REMARK    2  A    between atoms: C5_5  and  C6_6 
REMARK    3  A    between atoms: C6_6  and  O1_7 
REMARK    4  A    between atoms: O1_7  and  N1_8 
REMARK    5  A    between atoms: C9_11  and  C10_12 
REMARK    6  A    between atoms: C19_31  and  C20_32 
ROOT
HETATM    1  N1  UNL     1      -3.910   2.618  13.111  1.00  0.00    -0.245 N 
HETATM    2  C7  UNL     1      -3.550   3.991  13.097  1.00  0.00     0.163 C 
HETATM    3  C8  UNL     1      -3.472   4.421  11.622  1.00  0.00     0.076 C 
HETATM    4  C9  UNL     1      -2.249   3.716  11.156  1.00  0.00     0.014 C 
HETATM    5  N5  UNL     1      -2.194   2.461  11.449  1.00  0.00    -0.349 N 
ATOM      6  H5  UNL     1      -1.425   1.899  11.085  1.00  0.00     0.166 HD
HETATM    7  C19 UNL     1      -3.182   1.840  12.272  1.00  0.00     0.112 C 
ENDROOT
BRANCH   4   8
HETATM    8  C10 UNL     1      -1.070   4.411  10.665  1.00  0.00     0.130 C 
HETATM    9  C11 UNL     1      -0.934   5.834  11.090  1.00  0.00     0.239 C 
HETATM   10  O2  UNL     1      -1.432   6.916  10.682  1.00  0.00    -0.272 OA
HETATM   11  N2  UNL     1      -0.050   5.390  12.093  1.00  0.00    -0.352 N 
HETATM   12  C12 UNL     1       0.184   4.103  11.421  1.00  0.00     0.130 C 
ATOM     13  H2  UNL     1       0.298   5.803  12.958  1.00  0.00     0.163 HD
HETATM   14  C13 UNL     1       1.457   4.079  10.702  1.00  0.00     0.147 C 
HETATM   15  N3  UNL     1       1.406   3.766   9.291  1.00  0.00    -0.384 N 
HETATM   16  C14 UNL     1       0.232   4.017   8.531  1.00  0.00     0.093 A 
ATOM     17  H3  UNL     1       2.224   3.359   8.836  1.00  0.00     0.159 HD
HETATM   18  C15 UNL     1      -0.878   4.422   9.193  1.00  0.00    -0.000 A 
HETATM   19  C18 UNL     1       0.356   4.107   7.135  1.00  0.00     0.215 A 
HETATM   20  C16 UNL     1      -1.893   5.015   8.424  1.00  0.00     0.028 A 
HETATM   21  C17 UNL     1      -1.711   5.179   7.100  1.00  0.00     0.091 A 
HETATM   22  N4  UNL     1      -0.657   4.702   6.432  1.00  0.00    -0.341 N 
ATOM     23  H4  UNL     1      -0.608   4.780   5.417  1.00  0.00     0.167 HD
HETATM   24  F1  UNL     1       1.496   3.697   6.578  1.00  0.00    -0.184 F 
ENDBRANCH   4   8
BRANCH   7  25
HETATM   25  C20 UNL     1      -3.825   0.671  11.594  1.00  0.00     0.009 C 
HETATM   26  C21 UNL     1      -5.071   1.012  10.808  1.00  0.00     0.023 C 
HETATM   27  C22 UNL     1      -2.841   0.113  10.535  1.00  0.00     0.023 C 
HETATM   28  C23 UNL     1      -4.131  -0.451  12.564  1.00  0.00     0.023 C 
ENDBRANCH   7  25
BRANCH   1  29
HETATM   29  O1  UNL     1      -4.573   2.144  14.060  1.00  0.00    -0.277 OA
BRANCH  29  30
HETATM   30  C6  UNL     1      -4.879   2.973  15.139  1.00  0.00     0.202 C 
BRANCH  30  31
HETATM   31  C5  UNL     1      -5.020   2.051  16.340  1.00  0.00     0.037 C 
BRANCH  31  32
HETATM   32  C2  UNL     1      -6.199   2.310  17.177  1.00  0.00    -0.049 C 
HETATM   33  C1  UNL     1      -5.919   2.264  18.649  1.00  0.00     0.014 C 
HETATM   34  C3  UNL     1      -7.311   1.312  16.862  1.00  0.00     0.014 C 
HETATM   35  C4  UNL     1      -6.674   3.725  16.828  1.00  0.00     0.014 C 
ENDBRANCH  31  32
ENDBRANCH  30  31
ENDBRANCH  29  30
ENDBRANCH   1  29
TORSDOF 6
ENDMDL
MODEL 2
REMARK VINA RESULT: -8.155504004      1.237      1.623
REMARK  6 active torsions:
REMARK  status: ('A' for Active; 'I' for Inactive)
REMARK    1  A    between atoms: C2_2  and  C5_5 
REMARK    2  A    between atoms: C5_5  and  C6_6 
REMARK    3  A    between atoms: C6_6  and  O1_7 
REMARK    4  A    between atoms: O1_7  and  N1_8 
REMARK    5  A    between atoms: C9_11  and  C10_12 
REMARK    6  A    between atoms: C19_31  and  C20_32 
ROOT
HETATM    1  N1  UNL     1      -4.600   3.533  12.966  1.00  0.00    -0.245 N 
HETATM    2  C7  UNL     1      -4.416   4.924  12.750  1.00  0.00     0.163 C 
HETATM    3  C8  UNL     1      -4.052   5.105  11.266  1.00  0.00     0.076 C 
HETATM    4  C9  UNL     1      -2.677   4.541  11.212  1.00  0.00     0.014 C 
HETATM    5  N5  UNL     1      -2.539   3.380  11.756  1.00  0.00    -0.349 N 
ATOM      6  H5  UNL     1      -1.644   2.898  11.678  1.00  0.00     0.166 HD
HETATM    7  C19 UNL     1      -3.607   2.753  12.468  1.00  0.00     0.112 C 
ENDROOT
BRANCH   4   8
HETATM    8  C10 UNL     1      -1.511   5.326  10.843  1.00  0.00     0.130 C 
HETATM    9  C11 UNL     1      -1.782   6.735  10.435  1.00  0.00     0.239 C 
HETATM   10  O2  UNL     1      -2.170   7.272   9.364  1.00  0.00    -0.272 OA
HETATM   11  N2  UNL     1      -1.422   7.122  11.741  1.00  0.00    -0.352 N 
HETATM   12  C12 UNL     1      -0.731   5.852  12.006  1.00  0.00     0.130 C 
ATOM     13  H2  UNL     1      -1.581   7.964  12.294  1.00  0.00     0.163 HD
HETATM   14  C13 UNL     1       0.721   5.979  11.888  1.00  0.00     0.147 C 
HETATM   15  N3  UNL     1       1.382   5.090  10.958  1.00  0.00    -0.384 N 
HETATM   16  C14 UNL     1       0.681   4.544   9.848  1.00  0.00     0.093 A 
ATOM     17  H3  UNL     1       2.363   4.851  11.101  1.00  0.00     0.159 HD
HETATM   18  C15 UNL     1      -0.653   4.766   9.769  1.00  0.00    -0.000 A 
HETATM   19  C18 UNL     1       1.433   4.057   8.767  1.00  0.00     0.215 A 
HETATM   20  C16 UNL     1      -1.256   4.557   8.517  1.00  0.00     0.028 A 
HETATM   21  C17 UNL     1      -0.496   4.183   7.470  1.00  0.00     0.091 A 
HETATM   22  N4  UNL     1       0.800   3.879   7.566  1.00  0.00    -0.341 N 
ATOM     23  H4  UNL     1       1.310   3.520   6.759  1.00  0.00     0.167 HD
HETATM   24  F1  UNL     1       2.744   3.888   8.940  1.00  0.00    -0.184 F 
ENDBRANCH   4   8
BRANCH   7  25
HETATM   25  C20 UNL     1      -3.928   1.398  11.921  1.00  0.00     0.009 C 
HETATM   26  C21 UNL     1      -5.035   1.384  10.892  1.00  0.00     0.023 C 
HETATM   27  C22 UNL     1      -2.687   0.866  11.162  1.00  0.00     0.023 C 
HETATM   28  C23 UNL     1      -4.247   0.405  13.019  1.00  0.00     0.023 C 
ENDBRANCH   7  25
BRANCH   1  29
HETATM   29  O1  UNL     1      -5.402   3.124  13.834  1.00  0.00    -0.277 OA
BRANCH  29  30
HETATM   30  C6  UNL     1      -5.064   3.278  15.178  1.00  0.00     0.202 C 
BRANCH  30  31
HETATM   31  C5  UNL     1      -6.349   3.045  15.956  1.00  0.00     0.037 C 
BRANCH  31  32
HETATM   32  C2  UNL     1      -6.274   1.975  16.960  1.00  0.00    -0.049 C 
HETATM   33  C1  UNL     1      -7.436   1.028  16.923  1.00  0.00     0.014 C 
HETATM   34  C3  UNL     1      -6.169   2.563  18.364  1.00  0.00     0.014 C 
HETATM   35  C4  UNL     1      -5.003   1.178  16.647  1.00  0.00     0.014 C 
ENDBRANCH  31  32
ENDBRANCH  30  31
ENDBRANCH  29  30
ENDBRANCH   1  29
TORSDOF 6
ENDMDL
MODEL 3
REMARK VINA RESULT: -8.124473272      1.083      1.401
REMARK  6 active torsions:
REMARK  status: ('A' for Active; 'I' for Inactive)
REMARK    1  A    between atoms: C2_2  and  C5_5 
REMARK    2  A    between atoms: C5_5  and  C6_6 
REMARK    3  A    between atoms: C6_6  and  O1_7 
REMARK    4  A    between atoms: O1_7  and  N1_8 
REMARK    5  A    between atoms: C9_11  and  C10_12 
REMARK    6  A    between atoms: C19_31  and  C20_32 
ROOT
HETATM    1  N1  UNL     1      -4.132   3.148  13.265  1.00  0.00    -0.245 N 
HETATM    2  C7  UNL     1      -3.932   4.553  13.245  1.00  0.00     0.163 C 
HETATM    3  C8  UNL     1      -3.811   4.969  11.769  1.00  0.00     0.076 C 
HETATM    4  C9  UNL     1      -2.488   4.404  11.392  1.00  0.00     0.014 C 
HETATM    5  N5  UNL     1      -2.308   3.168  11.714  1.00  0.00    -0.349 N 
ATOM      6  H5  UNL     1      -1.459   2.693  11.409  1.00  0.00     0.166 HD
HETATM    7  C19 UNL     1      -3.268   2.447  12.488  1.00  0.00     0.112 C 
ENDROOT
BRANCH   4   8
HETATM    8  C10 UNL     1      -1.368   5.224  10.960  1.00  0.00     0.130 C 
HETATM    9  C11 UNL     1      -1.695   6.640  10.625  1.00  0.00     0.239 C 
HETATM   10  O2  UNL     1      -2.176   7.205   9.608  1.00  0.00    -0.272 OA
HETATM   11  N2  UNL     1      -1.239   6.990  11.911  1.00  0.00    -0.352 N 
HETATM   12  C12 UNL     1      -0.507   5.725  12.076  1.00  0.00     0.130 C 
ATOM     13  H2  UNL     1      -1.367   7.809  12.504  1.00  0.00     0.163 HD
HETATM   14  C13 UNL     1       0.928   5.885  11.847  1.00  0.00     0.147 C 
HETATM   15  N3  UNL     1       1.528   5.041  10.838  1.00  0.00    -0.384 N 
HETATM   16  C14 UNL     1       0.750   4.519   9.769  1.00  0.00     0.093 A 
ATOM     17  H3  UNL     1       2.522   4.816  10.894  1.00  0.00     0.159 HD
HETATM   18  C15 UNL     1      -0.590   4.717   9.803  1.00  0.00    -0.000 A 
HETATM   19  C18 UNL     1       1.422   4.084   8.615  1.00  0.00     0.215 A 
HETATM   20  C16 UNL     1      -1.287   4.539   8.596  1.00  0.00     0.028 A 
HETATM   21  C17 UNL     1      -0.607   4.216   7.480  1.00  0.00     0.091 A 
HETATM   22  N4  UNL     1       0.698   3.934   7.462  1.00  0.00    -0.341 N 
ATOM     23  H4  UNL     1       1.148   3.612   6.605  1.00  0.00     0.167 HD
HETATM   24  F1  UNL     1       2.745   3.935   8.677  1.00  0.00    -0.184 F 
ENDBRANCH   4   8
BRANCH   7  25
HETATM   25  C20 UNL     1      -3.729   1.204  11.796  1.00  0.00     0.009 C 
HETATM   26  C21 UNL     1      -4.198   0.107  12.726  1.00  0.00     0.023 C 
HETATM   27  C22 UNL     1      -4.976   1.547  10.943  1.00  0.00     0.023 C 
HETATM   28  C23 UNL     1      -2.676   0.653  10.857  1.00  0.00     0.023 C 
ENDBRANCH   7  25
BRANCH   1  29
HETATM   29  O1  UNL     1      -4.795   2.613  14.181  1.00  0.00    -0.277 OA
BRANCH  29  30
HETATM   30  C6  UNL     1      -4.749   3.178  15.455  1.00  0.00     0.202 C 
BRANCH  30  31
HETATM   31  C5  UNL     1      -5.074   2.049  16.419  1.00  0.00     0.037 C 
BRANCH  31  32
HETATM   32  C2  UNL     1      -6.254   2.284  17.263  1.00  0.00    -0.049 C 
HETATM   33  C1  UNL     1      -5.966   2.234  18.734  1.00  0.00     0.014 C 
HETATM   34  C3  UNL     1      -7.350   1.270  16.947  1.00  0.00     0.014 C 
HETATM   35  C4  UNL     1      -6.753   3.692  16.925  1.00  0.00     0.014 C 
ENDBRANCH  31  32
ENDBRANCH  30  31
ENDBRANCH  29  30
ENDBRANCH   1  29
TORSDOF 6
ENDMDL
MODEL 4
REMARK VINA RESULT: -7.986847121      0.762      1.099
REMARK  6 active torsions:
REMARK  status: ('A' for Active; 'I' for Inactive)
REMARK    1  A    between atoms: C2_2  and  C5_5 
REMARK    2  A    between atoms: C5_5  and  C6_6 
REMARK    3  A    between atoms: C6_6  and  O1_7 
REMARK    4  A    between atoms: O1_7  and  N1_8 
REMARK    5  A    between atoms: C9_11  and  C10_12 
REMARK    6  A    between atoms: C19_31  and  C20_32 
ROOT
HETATM    1  N1  UNL     1      -3.945   2.825  13.235  1.00  0.00    -0.245 N 
HETATM    2  C7  UNL     1      -3.739   4.229  13.191  1.00  0.00     0.163 C 
HETATM    3  C8  UNL     1      -3.908   4.663  11.725  1.00  0.00     0.076 C 
HETATM    4  C9  UNL     1      -2.691   4.094  11.088  1.00  0.00     0.014 C 
HETATM    5  N5  UNL     1      -2.463   2.852  11.354  1.00  0.00    -0.349 N 
ATOM      6  H5  UNL     1      -1.695   2.376  10.882  1.00  0.00     0.166 HD
HETATM    7  C19 UNL     1      -3.258   2.129  12.294  1.00  0.00     0.112 C 
ENDROOT
BRANCH   4   8
HETATM    8  C10 UNL     1      -1.671   4.911  10.452  1.00  0.00     0.130 C 
HETATM    9  C11 UNL     1      -1.626   6.339  10.881  1.00  0.00     0.239 C 
HETATM   10  O2  UNL     1      -2.286   7.364  10.566  1.00  0.00    -0.272 OA
HETATM   11  N2  UNL     1      -0.569   5.987  11.744  1.00  0.00    -0.352 N 
HETATM   12  C12 UNL     1      -0.299   4.736  11.023  1.00  0.00     0.130 C 
ATOM     13  H2  UNL     1      -0.151   6.432  12.560  1.00  0.00     0.163 HD
HETATM   14  C13 UNL     1       0.858   4.849  10.135  1.00  0.00     0.147 C 
HETATM   15  N3  UNL     1       0.645   4.538   8.739  1.00  0.00    -0.384 N 
HETATM   16  C14 UNL     1      -0.643   4.666   8.153  1.00  0.00     0.093 A 
ATOM     17  H3  UNL     1       1.429   4.221   8.168  1.00  0.00     0.159 HD
HETATM   18  C15 UNL     1      -1.687   4.948   8.969  1.00  0.00    -0.000 A 
HETATM   19  C18 UNL     1      -0.725   4.773   6.755  1.00  0.00     0.215 A 
HETATM   20  C16 UNL     1      -2.855   5.434   8.358  1.00  0.00     0.028 A 
HETATM   21  C17 UNL     1      -2.877   5.621   7.024  1.00  0.00     0.091 A 
HETATM   22  N4  UNL     1      -1.882   5.260   6.209  1.00  0.00    -0.341 N 
ATOM     23  H4  UNL     1      -1.983   5.346   5.198  1.00  0.00     0.167 HD
HETATM   24  F1  UNL     1       0.363   4.489   6.039  1.00  0.00    -0.184 F 
ENDBRANCH   4   8
BRANCH   7  25
HETATM   25  C20 UNL     1      -3.858   0.897  11.693  1.00  0.00     0.009 C 
HETATM   26  C21 UNL     1      -5.105   1.145  10.875  1.00  0.00     0.023 C 
HETATM   27  C22 UNL     1      -2.846   0.297  10.685  1.00  0.00     0.023 C 
HETATM   28  C23 UNL     1      -4.141  -0.164  12.736  1.00  0.00     0.023 C 
ENDBRANCH   7  25
BRANCH   1  29
HETATM   29  O1  UNL     1      -4.419   2.283  14.257  1.00  0.00    -0.277 OA
BRANCH  29  30
HETATM   30  C6  UNL     1      -4.656   3.074  15.381  1.00  0.00     0.202 C 
BRANCH  30  31
HETATM   31  C5  UNL     1      -4.950   2.103  16.513  1.00  0.00     0.037 C 
BRANCH  31  32
HETATM   32  C2  UNL     1      -6.219   2.343  17.214  1.00  0.00    -0.049 C 
HETATM   33  C1  UNL     1      -7.289   1.345  16.888  1.00  0.00     0.014 C 
HETATM   34  C3  UNL     1      -6.747   3.741  16.903  1.00  0.00     0.014 C 
HETATM   35  C4  UNL     1      -5.913   2.238  18.711  1.00  0.00     0.014 C 
ENDBRANCH  31  32
ENDBRANCH  30  31
ENDBRANCH  29  30
ENDBRANCH   1  29
TORSDOF 6
ENDMDL
MODEL 5
REMARK VINA RESULT: -7.967732506      2.840      4.292
REMARK  6 active torsions:
REMARK  status: ('A' for Active; 'I' for Inactive)
REMARK    1  A    between atoms: C2_2  and  C5_5 
REMARK    2  A    between atoms: C5_5  and  C6_6 
REMARK    3  A    between atoms: C6_6  and  O1_7 
REMARK    4  A    between atoms: O1_7  and  N1_8 
REMARK    5  A    between atoms: C9_11  and  C10_12 
REMARK    6  A    between atoms: C19_31  and  C20_32 
ROOT
HETATM    1  N1  UNL     1      -4.641   3.936  13.243  1.00  0.00    -0.245 N 
HETATM    2  C7  UNL     1      -4.665   5.353  13.167  1.00  0.00     0.163 C 
HETATM    3  C8  UNL     1      -4.356   5.731  11.709  1.00  0.00     0.076 C 
HETATM    4  C9  UNL     1      -2.916   5.382  11.594  1.00  0.00     0.014 C 
HETATM    5  N5  UNL     1      -2.601   4.206  12.019  1.00  0.00    -0.349 N 
ATOM      6  H5  UNL     1      -1.647   3.870  11.890  1.00  0.00     0.166 HD
HETATM    7  C19 UNL     1      -3.555   3.363  12.667  1.00  0.00     0.112 C 
ENDROOT
BRANCH   4   8
HETATM    8  C10 UNL     1      -1.882   6.362  11.302  1.00  0.00     0.130 C 
HETATM    9  C11 UNL     1      -0.498   5.824  11.172  1.00  0.00     0.239 C 
HETATM   10  O2  UNL     1       0.393   5.503  12.002  1.00  0.00    -0.272 OA
HETATM   11  N2  UNL     1      -0.681   5.848   9.775  1.00  0.00    -0.352 N 
HETATM   12  C12 UNL     1      -1.816   6.777   9.866  1.00  0.00     0.130 C 
ATOM     13  H2  UNL     1      -0.206   5.393   8.996  1.00  0.00     0.163 HD
HETATM   14  C13 UNL     1      -1.433   8.150   9.542  1.00  0.00     0.147 C 
HETATM   15  N3  UNL     1      -1.707   9.159  10.540  1.00  0.00    -0.384 N 
HETATM   16  C14 UNL     1      -1.802   8.816  11.916  1.00  0.00     0.093 A 
ATOM     17  H3  UNL     1      -1.833  10.130  10.253  1.00  0.00     0.159 HD
HETATM   18  C15 UNL     1      -1.772   7.502  12.246  1.00  0.00    -0.000 A 
HETATM   19  C18 UNL     1      -1.640   9.839  12.865  1.00  0.00     0.215 A 
HETATM   20  C16 UNL     1      -1.493   7.193  13.587  1.00  0.00     0.028 A 
HETATM   21  C17 UNL     1      -1.244   8.189  14.459  1.00  0.00     0.091 A 
HETATM   22  N4  UNL     1      -1.360   9.484  14.157  1.00  0.00    -0.341 N 
ATOM     23  H4  UNL     1      -1.243  10.197  14.877  1.00  0.00     0.167 HD
HETATM   24  F1  UNL     1      -1.668  11.101  12.438  1.00  0.00    -0.184 F 
ENDBRANCH   4   8
BRANCH   7  25
HETATM   25  C20 UNL     1      -3.685   2.036  11.988  1.00  0.00     0.009 C 
HETATM   26  C21 UNL     1      -4.223   0.932  12.871  1.00  0.00     0.023 C 
HETATM   27  C22 UNL     1      -4.728   2.164  10.850  1.00  0.00     0.023 C 
HETATM   28  C23 UNL     1      -2.381   1.589  11.360  1.00  0.00     0.023 C 
ENDBRANCH   7  25
BRANCH   1  29
HETATM   29  O1  UNL     1      -5.360   3.331  14.068  1.00  0.00    -0.277 OA
BRANCH  29  30
HETATM   30  C6  UNL     1      -4.984   3.338  15.411  1.00  0.00     0.202 C 
BRANCH  30  31
HETATM   31  C5  UNL     1      -6.266   3.123  16.199  1.00  0.00     0.037 C 
BRANCH  31  32
HETATM   32  C2  UNL     1      -6.251   1.953  17.089  1.00  0.00    -0.049 C 
HETATM   33  C1  UNL     1      -7.460   1.076  16.956  1.00  0.00     0.014 C 
HETATM   34  C3  UNL     1      -6.123   2.388  18.546  1.00  0.00     0.014 C 
HETATM   35  C4  UNL     1      -5.021   1.128  16.696  1.00  0.00     0.014 C 
ENDBRANCH  31  32
ENDBRANCH  30  31
ENDBRANCH  29  30
ENDBRANCH   1  29
TORSDOF 6
ENDMDL
