MODEL 1
REMARK VINA RESULT: -7.851588062      0.000      0.000
REMARK  7 active torsions:
REMARK  status: ('A' for Active; 'I' for Inactive)
REMARK    1  A    between atoms: C4_5  and  C5_6 
REMARK    2  A    between atoms: C6_7  and  C7_8 
REMARK    3  A    between atoms: C10_12  and  O2_13 
REMARK    4  A    between atoms: O2_13  and  C11_14 
REMARK    5  A    between atoms: C14_18  and  C15_19 
REMARK    6  A    between atoms: C17_22  and  O5_23 
REMARK    7  A    between atoms: C19_26  and  O6_27 
ROOT
HETATM    1  C7  UNL     1      -4.279   5.090  13.116  1.00  0.00     0.047 C 
HETATM    2  C8  UNL     1      -4.749   5.493  14.497  1.00  0.00     0.063 C 
HETATM    3  C9  UNL     1      -4.998   4.343  15.392  1.00  0.00     0.047 C 
HETATM    4 BR1  UNL     1      -6.527   4.290  16.545  1.00  0.00    -0.051 Br
HETATM    5  C10 UNL     1      -4.123   3.350  15.365  1.00  0.00     0.195 C 
HETATM    6  O3  UNL     1      -3.045   3.507  14.476  1.00  0.00    -0.319 OA
HETATM    7  C14 UNL     1      -3.301   3.970  13.136  1.00  0.00     0.174 C 
ENDROOT
BRANCH   1   8
HETATM    8  C6  UNL     1      -3.742   6.317  12.457  1.00  0.00    -0.020 C 
HETATM    9  C5  UNL     1      -4.174   6.864  11.360  1.00  0.00     0.004 C 
BRANCH   9  10
HETATM   10  C4  UNL     1      -5.294   6.384  10.525  1.00  0.00     0.173 C 
HETATM   11  O1  UNL     1      -6.543   6.691  11.030  1.00  0.00    -0.375 OA
HETATM   12  C3  UNL     1      -6.884   8.009  10.985  1.00  0.00     0.202 C 
HETATM   13  C2  UNL     1      -6.132   8.844  10.061  1.00  0.00    -0.063 C 
HETATM   14  C1  UNL     1      -6.021  10.141  10.277  1.00  0.00     0.016 C 
HETATM   15  C20 UNL     1      -5.484   8.256   8.871  1.00  0.00     0.070 C 
HETATM   16  C19 UNL     1      -5.113   6.825   9.097  1.00  0.00     0.155 C 
BRANCH  16  17
HETATM   17  O6  UNL     1      -3.772   6.648   8.757  1.00  0.00    -0.392 OA
ATOM     18  H6  UNL     1      -3.570   7.237   8.040  1.00  0.00     0.210 HD
ENDBRANCH  16  17
ENDBRANCH   9  10
ENDBRANCH   1   8
BRANCH   7  19
HETATM   19  C15 UNL     1      -3.712   2.770  12.364  1.00  0.00    -0.001 A 
HETATM   20  C16 UNL     1      -4.948   2.164  12.258  1.00  0.00     0.154 A 
HETATM   21  O4  UNL     1      -4.864   1.113  11.457  1.00  0.00    -0.300 OA
HETATM   22  C17 UNL     1      -3.656   0.968  11.017  1.00  0.00     0.183 A 
HETATM   23  C18 UNL     1      -2.892   1.982  11.557  1.00  0.00     0.075 A 
BRANCH  22  24
HETATM   24  O5  UNL     1      -3.228  -0.036  10.157  1.00  0.00    -0.341 OA
ATOM     25  H5  UNL     1      -2.376  -0.075   9.738  1.00  0.00     0.220 HD
ENDBRANCH  22  24
ENDBRANCH   7  19
BRANCH   5  26
HETATM   26  O2  UNL     1      -4.318   2.270  16.179  1.00  0.00    -0.325 OA
BRANCH  26  27
HETATM   27  C11 UNL     1      -5.150   1.176  15.903  1.00  0.00     0.123 C 
HETATM   28  C12 UNL     1      -5.690   0.666  17.234  1.00  0.00     0.040 C 
HETATM   29  C13 UNL     1      -4.426   0.037  15.227  1.00  0.00     0.040 C 
ENDBRANCH  26  27
ENDBRANCH   5  26
TORSDOF 7
ENDMDL
MODEL 2
REMARK VINA RESULT: -7.646972927      3.337      6.384
REMARK  7 active torsions:
REMARK  status: ('A' for Active; 'I' for Inactive)
REMARK    1  A    between atoms: C4_5  and  C5_6 
REMARK    2  A    between atoms: C6_7  and  C7_8 
REMARK    3  A    between atoms: C10_12  and  O2_13 
REMARK    4  A    between atoms: O2_13  and  C11_14 
REMARK    5  A    between atoms: C14_18  and  C15_19 
REMARK    6  A    between atoms: C17_22  and  O5_23 
REMARK    7  A    between atoms: C19_26  and  O6_27 
ROOT
HETATM    1  C7  UNL     1      -2.448   4.437  13.363  1.00  0.00     0.047 C 
HETATM    2  C8  UNL     1      -1.333   5.441  13.171  1.00  0.00     0.063 C 
HETATM    3  C9  UNL     1      -0.804   5.476  11.791  1.00  0.00     0.047 C 
HETATM    4 BR1  UNL     1       1.077   5.601  11.447  1.00  0.00    -0.051 Br
HETATM    5  C10 UNL     1      -1.681   5.416  10.802  1.00  0.00     0.195 C 
HETATM    6  O3  UNL     1      -3.031   5.324  11.184  1.00  0.00    -0.319 OA
HETATM    7  C14 UNL     1      -3.406   4.403  12.225  1.00  0.00     0.174 C 
ENDROOT
BRANCH   1   8
HETATM    8  C6  UNL     1      -3.106   4.751  14.666  1.00  0.00    -0.020 C 
HETATM    9  C5  UNL     1      -4.059   4.078  15.239  1.00  0.00     0.004 C 
BRANCH   9  10
HETATM   10  C4  UNL     1      -4.699   2.853  14.721  1.00  0.00     0.173 C 
HETATM   11  O1  UNL     1      -4.298   1.696  15.360  1.00  0.00    -0.375 OA
HETATM   12  C3  UNL     1      -4.734   1.555  16.642  1.00  0.00     0.202 C 
HETATM   13  C2  UNL     1      -5.874   2.369  17.035  1.00  0.00    -0.063 C 
HETATM   14  C1  UNL     1      -6.059   2.686  18.302  1.00  0.00     0.016 C 
HETATM   15  C20 UNL     1      -6.838   2.852  16.025  1.00  0.00     0.070 C 
HETATM   16  C19 UNL     1      -6.196   3.016  14.685  1.00  0.00     0.155 C 
BRANCH  16  17
HETATM   17  O6  UNL     1      -6.479   4.293  14.202  1.00  0.00    -0.392 OA
ATOM     18  H6  UNL     1      -7.414   4.441  14.294  1.00  0.00     0.210 HD
ENDBRANCH  16  17
ENDBRANCH   9  10
ENDBRANCH   1   8
BRANCH   7  19
HETATM   19  C15 UNL     1      -3.544   3.080  11.566  1.00  0.00    -0.001 A 
HETATM   20  C16 UNL     1      -4.478   2.638  10.651  1.00  0.00     0.154 A 
HETATM   21  O4  UNL     1      -4.224   1.380  10.323  1.00  0.00    -0.300 OA
HETATM   22  C17 UNL     1      -3.183   0.943  10.956  1.00  0.00     0.183 A 
HETATM   23  C18 UNL     1      -2.718   1.971  11.750  1.00  0.00     0.075 A 
BRANCH  22  24
HETATM   24  O5  UNL     1      -2.648  -0.334  10.841  1.00  0.00    -0.341 OA
ATOM     25  H5  UNL     1      -2.449  -0.776  10.025  1.00  0.00     0.220 HD
ENDBRANCH  22  24
ENDBRANCH   7  19
BRANCH   5  26
HETATM   26  O2  UNL     1      -1.231   5.446   9.512  1.00  0.00    -0.325 OA
BRANCH  26  27
HETATM   27  C11 UNL     1      -1.477   4.471   8.534  1.00  0.00     0.123 C 
HETATM   28  C12 UNL     1      -0.741   3.206   8.955  1.00  0.00     0.040 C 
HETATM   29  C13 UNL     1      -0.979   4.868   7.166  1.00  0.00     0.040 C 
ENDBRANCH  26  27
ENDBRANCH   5  26
TORSDOF 7
ENDMDL
MODEL 3
REMARK VINA RESULT: -7.469009318      2.120      6.312
REMARK  7 active torsions:
REMARK  status: ('A' for Active; 'I' for Inactive)
REMARK    1  A    between atoms: C4_5  and  C5_6 
REMARK    2  A    between atoms: C6_7  and  C7_8 
REMARK    3  A    between atoms: C10_12  and  O2_13 
REMARK    4  A    between atoms: O2_13  and  C11_14 
REMARK    5  A    between atoms: C14_18  and  C15_19 
REMARK    6  A    between atoms: C17_22  and  O5_23 
REMARK    7  A    between atoms: C19_26  and  O6_27 
ROOT
HETATM    1  C7  UNL     1      -3.163   4.455  13.630  1.00  0.00     0.047 C 
HETATM    2  C8  UNL     1      -3.233   5.964  13.546  1.00  0.00     0.063 C 
HETATM    3  C9  UNL     1      -3.593   6.461  12.200  1.00  0.00     0.047 C 
HETATM    4 BR1  UNL     1      -2.710   7.976  11.428  1.00  0.00    -0.051 Br
HETATM    5  C10 UNL     1      -4.550   5.818  11.551  1.00  0.00     0.195 C 
HETATM    6  O3  UNL     1      -5.119   4.722  12.224  1.00  0.00    -0.319 OA
HETATM    7  C14 UNL     1      -4.255   3.776  12.882  1.00  0.00     0.174 C 
ENDROOT
BRANCH   1   8
HETATM    8  C6  UNL     1      -3.140   4.094  15.079  1.00  0.00    -0.020 C 
HETATM    9  C5  UNL     1      -4.090   3.516  15.752  1.00  0.00     0.004 C 
BRANCH   9  10
HETATM   10  C4  UNL     1      -5.402   3.091  15.226  1.00  0.00     0.173 C 
HETATM   11  O1  UNL     1      -5.673   1.749  15.409  1.00  0.00    -0.375 OA
HETATM   12  C3  UNL     1      -5.905   1.370  16.696  1.00  0.00     0.202 C 
HETATM   13  C2  UNL     1      -6.263   2.426  17.630  1.00  0.00    -0.063 C 
HETATM   14  C1  UNL     1      -6.027   2.280  18.921  1.00  0.00     0.016 C 
HETATM   15  C20 UNL     1      -6.893   3.674  17.153  1.00  0.00     0.070 C 
HETATM   16  C19 UNL     1      -6.494   3.988  15.747  1.00  0.00     0.155 C 
BRANCH  16  17
HETATM   17  O6  UNL     1      -6.034   5.304  15.692  1.00  0.00    -0.392 OA
ATOM     18  H6  UNL     1      -5.716   5.540  16.555  1.00  0.00     0.210 HD
ENDBRANCH  16  17
ENDBRANCH   9  10
ENDBRANCH   1   8
BRANCH   7  19
HETATM   19  C15 UNL     1      -3.798   2.840  11.825  1.00  0.00    -0.001 A 
HETATM   20  C16 UNL     1      -4.524   1.965  11.041  1.00  0.00     0.154 A 
HETATM   21  O4  UNL     1      -3.710   1.318  10.221  1.00  0.00    -0.300 OA
HETATM   22  C17 UNL     1      -2.486   1.696  10.398  1.00  0.00     0.183 A 
HETATM   23  C18 UNL     1      -2.486   2.651  11.395  1.00  0.00     0.075 A 
BRANCH  22  24
HETATM   24  O5  UNL     1      -1.385   1.215   9.701  1.00  0.00    -0.341 OA
ATOM     25  H5  UNL     1      -0.993   1.626   8.939  1.00  0.00     0.220 HD
ENDBRANCH  22  24
ENDBRANCH   7  19
BRANCH   5  26
HETATM   26  O2  UNL     1      -4.913   6.248  10.306  1.00  0.00    -0.325 OA
BRANCH  26  27
HETATM   27  C11 UNL     1      -6.175   6.739   9.943  1.00  0.00     0.123 C 
HETATM   28  C12 UNL     1      -5.997   7.563   8.674  1.00  0.00     0.040 C 
HETATM   29  C13 UNL     1      -6.789   7.630  10.995  1.00  0.00     0.040 C 
ENDBRANCH  26  27
ENDBRANCH   5  26
TORSDOF 7
ENDMDL
MODEL 4
REMARK VINA RESULT: -7.366820437      2.197      2.964
REMARK  7 active torsions:
REMARK  status: ('A' for Active; 'I' for Inactive)
REMARK    1  A    between atoms: C4_5  and  C5_6 
REMARK    2  A    between atoms: C6_7  and  C7_8 
REMARK    3  A    between atoms: C10_12  and  O2_13 
REMARK    4  A    between atoms: O2_13  and  C11_14 
REMARK    5  A    between atoms: C14_18  and  C15_19 
REMARK    6  A    between atoms: C17_22  and  O5_23 
REMARK    7  A    between atoms: C19_26  and  O6_27 
ROOT
HETATM    1  C7  UNL     1      -3.805   4.940  12.178  1.00  0.00     0.047 C 
HETATM    2  C8  UNL     1      -4.249   5.683  13.419  1.00  0.00     0.063 C 
HETATM    3  C9  UNL     1      -4.599   4.790  14.545  1.00  0.00     0.047 C 
HETATM    4 BR1  UNL     1      -6.135   5.122  15.641  1.00  0.00    -0.051 Br
HETATM    5  C10 UNL     1      -3.809   3.751  14.765  1.00  0.00     0.195 C 
HETATM    6  O3  UNL     1      -2.716   3.616  13.891  1.00  0.00    -0.319 OA
HETATM    7  C14 UNL     1      -2.923   3.780  12.475  1.00  0.00     0.174 C 
ENDROOT
BRANCH   1   8
HETATM    8  C6  UNL     1      -3.164   5.939  11.272  1.00  0.00    -0.020 C 
HETATM    9  C5  UNL     1      -2.768   5.741  10.050  1.00  0.00     0.004 C 
BRANCH   9  10
HETATM   10  C4  UNL     1      -2.867   4.477   9.293  1.00  0.00     0.173 C 
HETATM   11  O1  UNL     1      -3.784   4.510   8.261  1.00  0.00    -0.375 OA
HETATM   12  C3  UNL     1      -3.439   5.289   7.197  1.00  0.00     0.202 C 
HETATM   13  C2  UNL     1      -2.031   5.628   7.070  1.00  0.00    -0.063 C 
HETATM   14  C1  UNL     1      -1.666   6.719   6.424  1.00  0.00     0.016 C 
HETATM   15  C20 UNL     1      -0.990   4.760   7.658  1.00  0.00     0.070 C 
HETATM   16  C19 UNL     1      -1.502   4.020   8.852  1.00  0.00     0.155 C 
BRANCH  16  17
HETATM   17  O6  UNL     1      -0.619   4.211   9.914  1.00  0.00    -0.392 OA
ATOM     18  H6  UNL     1      -0.122   5.003   9.744  1.00  0.00     0.210 HD
ENDBRANCH  16  17
ENDBRANCH   9  10
ENDBRANCH   1   8
BRANCH   7  19
HETATM   19  C15 UNL     1      -3.427   2.473  11.985  1.00  0.00    -0.001 A 
HETATM   20  C16 UNL     1      -4.723   2.012  11.859  1.00  0.00     0.154 A 
HETATM   21  O4  UNL     1      -4.715   0.780  11.375  1.00  0.00    -0.300 OA
HETATM   22  C17 UNL     1      -3.503   0.378  11.166  1.00  0.00     0.183 A 
HETATM   23  C18 UNL     1      -2.656   1.403  11.532  1.00  0.00     0.075 A 
BRANCH  22  24
HETATM   24  O5  UNL     1      -3.143  -0.866  10.662  1.00  0.00    -0.341 OA
ATOM     25  H5  UNL     1      -2.564  -1.486  11.089  1.00  0.00     0.220 HD
ENDBRANCH  22  24
ENDBRANCH   7  19
BRANCH   5  26
HETATM   26  O2  UNL     1      -4.098   2.904  15.797  1.00  0.00    -0.325 OA
BRANCH  26  27
HETATM   27  C11 UNL     1      -5.071   1.894  15.780  1.00  0.00     0.123 C 
HETATM   28  C12 UNL     1      -5.567   1.714  17.209  1.00  0.00     0.040 C 
HETATM   29  C13 UNL     1      -4.537   0.566  15.302  1.00  0.00     0.040 C 
ENDBRANCH  26  27
ENDBRANCH   5  26
TORSDOF 7
ENDMDL
MODEL 5
REMARK VINA RESULT: -7.306852379      4.276      5.767
REMARK  7 active torsions:
REMARK  status: ('A' for Active; 'I' for Inactive)
REMARK    1  A    between atoms: C4_5  and  C5_6 
REMARK    2  A    between atoms: C6_7  and  C7_8 
REMARK    3  A    between atoms: C10_12  and  O2_13 
REMARK    4  A    between atoms: O2_13  and  C11_14 
REMARK    5  A    between atoms: C14_18  and  C15_19 
REMARK    6  A    between atoms: C17_22  and  O5_23 
REMARK    7  A    between atoms: C19_26  and  O6_27 
ROOT
HETATM    1  C7  UNL     1      -0.509   4.622  11.357  1.00  0.00     0.047 C 
HETATM    2  C8  UNL     1      -0.221   5.729  12.348  1.00  0.00     0.063 C 
HETATM    3  C9  UNL     1      -1.354   6.016  13.254  1.00  0.00     0.047 C 
HETATM    4 BR1  UNL     1      -1.845   7.814  13.698  1.00  0.00    -0.051 Br
HETATM    5  C10 UNL     1      -2.017   4.981  13.745  1.00  0.00     0.195 C 
HETATM    6  O3  UNL     1      -1.561   3.713  13.343  1.00  0.00    -0.319 OA
HETATM    7  C14 UNL     1      -1.258   3.484  11.954  1.00  0.00     0.174 C 
ENDROOT
BRANCH   1   8
HETATM    8  C6  UNL     1       0.798   4.210  10.764  1.00  0.00    -0.020 C 
HETATM    9  C5  UNL     1       1.201   4.417   9.546  1.00  0.00     0.004 C 
BRANCH   9  10
HETATM   10  C4  UNL     1       0.447   5.109   8.482  1.00  0.00     0.173 C 
HETATM   11  O1  UNL     1       1.076   6.236   7.990  1.00  0.00    -0.375 OA
HETATM   12  C3  UNL     1       2.194   6.005   7.247  1.00  0.00     0.202 C 
HETATM   13  C2  UNL     1       2.349   4.663   6.707  1.00  0.00    -0.063 C 
HETATM   14  C1  UNL     1       3.550   4.196   6.424  1.00  0.00     0.016 C 
HETATM   15  C20 UNL     1       1.170   3.805   6.469  1.00  0.00     0.070 C 
HETATM   16  C19 UNL     1       0.050   4.138   7.401  1.00  0.00     0.155 C 
BRANCH  16  17
HETATM   17  O6  UNL     1      -0.390   2.966   8.015  1.00  0.00    -0.392 OA
ATOM     18  H6  UNL     1       0.111   2.241   7.658  1.00  0.00     0.210 HD
ENDBRANCH  16  17
ENDBRANCH   9  10
ENDBRANCH   1   8
BRANCH   7  19
HETATM   19  C15 UNL     1      -2.556   3.181  11.300  1.00  0.00    -0.001 A 
HETATM   20  C16 UNL     1      -3.138   3.743  10.181  1.00  0.00     0.154 A 
HETATM   21  O4  UNL     1      -4.308   3.168   9.947  1.00  0.00    -0.300 OA
HETATM   22  C17 UNL     1      -4.555   2.257  10.832  1.00  0.00     0.183 A 
HETATM   23  C18 UNL     1      -3.486   2.225  11.705  1.00  0.00     0.075 A 
BRANCH  22  24
HETATM   24  O5  UNL     1      -5.696   1.466  10.877  1.00  0.00    -0.341 OA
ATOM     25  H5  UNL     1      -5.970   0.856  10.203  1.00  0.00     0.220 HD
ENDBRANCH  22  24
ENDBRANCH   7  19
BRANCH   5  26
HETATM   26  O2  UNL     1      -3.070   5.205  14.587  1.00  0.00    -0.325 OA
BRANCH  26  27
HETATM   27  C11 UNL     1      -4.379   4.736  14.406  1.00  0.00     0.123 C 
HETATM   28  C12 UNL     1      -4.924   5.380  13.137  1.00  0.00     0.040 C 
HETATM   29  C13 UNL     1      -5.300   5.100  15.545  1.00  0.00     0.040 C 
ENDBRANCH  26  27
ENDBRANCH   5  26
TORSDOF 7
ENDMDL
