MODEL 1
REMARK VINA RESULT: -8.952130776      0.000      0.000
REMARK  5 active torsions:
REMARK  status: ('A' for Active; 'I' for Inactive)
REMARK    1  A    between atoms: C14_16  and  O3_17 
REMARK    2  A    between atoms: C14_16  and  C15_19 
REMARK    3  A    between atoms: C15_19  and  N1_21 
REMARK       I    between atoms: N1_21  and  C16_23 
REMARK    4  A    between atoms: C16_23  and  C17_25 
REMARK    5  A    between atoms: C18_26  and  C19_27 
ROOT
HETATM    1  C1  UNL     1      -4.394   1.118  11.013  1.00  0.00     0.078 C 
HETATM    2  C2  UNL     1      -4.118   1.850  12.339  1.00  0.00     0.161 C 
HETATM    3  C3  UNL     1      -4.459   0.828  13.432  1.00  0.00     0.078 C 
HETATM    4  O1  UNL     1      -2.752   2.063  12.385  1.00  0.00    -0.326 OA
HETATM    5  C4  UNL     1      -2.348   2.909  11.384  1.00  0.00     0.270 A 
HETATM    6  O2  UNL     1      -3.306   3.372  10.520  1.00  0.00    -0.352 OA
HETATM    7  C5  UNL     1      -3.009   4.720  10.827  1.00  0.00     0.172 A 
HETATM    8  C6  UNL     1      -2.059   4.317  11.817  1.00  0.00     0.074 A 
HETATM    9  C7  UNL     1      -2.210   4.583  13.248  1.00  0.00     0.020 C 
HETATM   10  C8  UNL     1      -3.415   4.076  13.946  1.00  0.00     0.021 C 
HETATM   11  C9  UNL     1      -3.785   5.123  15.009  1.00  0.00     0.008 C 
HETATM   12  C10 UNL     1      -5.268   5.193  15.056  1.00  0.00     0.004 C 
HETATM   13  C11 UNL     1      -5.722   3.994  14.259  1.00  0.00     0.038 C 
HETATM   14  C12 UNL     1      -4.657   3.992  13.142  1.00  0.00     0.071 C 
HETATM   15  C13 UNL     1      -4.821   5.354  12.468  1.00  0.00     0.084 C 
HETATM   16  C14 UNL     1      -4.254   5.442  11.124  1.00  0.00     0.135 C 
HETATM   17  O5  UNL     1      -4.886   2.949  12.365  1.00  0.00    -0.344 OA
ENDROOT
BRANCH  16  18
HETATM   18  O3  UNL     1      -5.225   4.953  10.211  1.00  0.00    -0.382 OA
ATOM     19  H3  UNL     1      -5.295   4.020  10.371  1.00  0.00     0.210 HD
ENDBRANCH  16  18
BRANCH  16  20
HETATM   20  C15 UNL     1      -4.077   6.899  10.727  1.00  0.00     0.309 C 
HETATM   21  F1  UNL     1      -3.512   7.654  11.732  1.00  0.00    -0.224 F 
BRANCH  20  22
HETATM   22  N1  UNL     1      -5.361   7.541  10.433  1.00  0.00    -0.325 N 
HETATM   23  C16 UNL     1      -5.803   7.719   9.100  1.00  0.00     0.243 C 
HETATM   24  O4  UNL     1      -5.007   7.280   8.197  1.00  0.00    -0.269 OA
ATOM     25  H1  UNL     1      -5.946   7.867  11.202  1.00  0.00     0.165 HD
BRANCH  23  26
HETATM   26  C17 UNL     1      -7.033   8.333   8.673  1.00  0.00     0.075 C 
HETATM   27  C18 UNL     1      -7.254   8.569   7.405  1.00  0.00     0.017 C 
BRANCH  27  28
HETATM   28  C19 UNL     1      -8.472   9.182   6.943  1.00  0.00    -0.036 A 
HETATM   29  C20 UNL     1      -9.635   9.073   7.659  1.00  0.00     0.011 A 
HETATM   30  C21 UNL     1     -10.795   9.683   7.171  1.00  0.00     0.001 A 
HETATM   31  C22 UNL     1     -10.770  10.382   5.989  1.00  0.00     0.000 A 
HETATM   32  C23 UNL     1      -9.605  10.497   5.262  1.00  0.00     0.001 A 
HETATM   33  C24 UNL     1      -8.461   9.897   5.740  1.00  0.00     0.011 A 
ENDBRANCH  27  28
ENDBRANCH  23  26
ENDBRANCH  20  22
ENDBRANCH  16  20
TORSDOF 5
ENDMDL
MODEL 2
REMARK VINA RESULT: -8.841039895      2.502      8.235
REMARK  5 active torsions:
REMARK  status: ('A' for Active; 'I' for Inactive)
REMARK    1  A    between atoms: C14_16  and  O3_17 
REMARK    2  A    between atoms: C14_16  and  C15_19 
REMARK    3  A    between atoms: C15_19  and  N1_21 
REMARK       I    between atoms: N1_21  and  C16_23 
REMARK    4  A    between atoms: C16_23  and  C17_25 
REMARK    5  A    between atoms: C18_26  and  C19_27 
ROOT
HETATM    1  C1  UNL     1      -8.053   6.506   7.547  1.00  0.00     0.078 C 
HETATM    2  C2  UNL     1      -7.412   7.878   7.820  1.00  0.00     0.161 C 
HETATM    3  C3  UNL     1      -7.995   8.807   6.746  1.00  0.00     0.078 C 
HETATM    4  O1  UNL     1      -7.905   8.298   9.042  1.00  0.00    -0.326 OA
HETATM    5  C4  UNL     1      -7.495   7.470  10.055  1.00  0.00     0.270 A 
HETATM    6  O2  UNL     1      -6.716   6.393   9.717  1.00  0.00    -0.352 OA
HETATM    7  C5  UNL     1      -5.672   6.810  10.575  1.00  0.00     0.172 A 
HETATM    8  C6  UNL     1      -6.381   8.008  10.906  1.00  0.00     0.074 A 
HETATM    9  C7  UNL     1      -5.915   9.352  10.563  1.00  0.00     0.020 C 
HETATM   10  C8  UNL     1      -5.669   9.682   9.140  1.00  0.00     0.021 C 
HETATM   11  C9  UNL     1      -4.464  10.636   9.108  1.00  0.00     0.008 C 
HETATM   12  C10 UNL     1      -3.658  10.283   7.912  1.00  0.00     0.004 C 
HETATM   13  C11 UNL     1      -4.551   9.356   7.122  1.00  0.00     0.038 C 
HETATM   14  C12 UNL     1      -5.212   8.570   8.274  1.00  0.00     0.071 C 
HETATM   15  C13 UNL     1      -4.037   7.918   9.003  1.00  0.00     0.084 C 
HETATM   16  C14 UNL     1      -4.397   6.781   9.846  1.00  0.00     0.135 C 
HETATM   17  O5  UNL     1      -6.081   7.729   7.744  1.00  0.00    -0.344 OA
ENDROOT
BRANCH  16  18
HETATM   18  O3  UNL     1      -4.435   5.625   9.023  1.00  0.00    -0.382 OA
ATOM     19  H3  UNL     1      -3.673   5.675   8.459  1.00  0.00     0.210 HD
ENDBRANCH  16  18
BRANCH  16  20
HETATM   20  C15 UNL     1      -3.279   6.491  10.836  1.00  0.00     0.309 C 
HETATM   21  F1  UNL     1      -2.210   5.849  10.249  1.00  0.00    -0.224 F 
BRANCH  20  22
HETATM   22  N1  UNL     1      -3.724   5.601  11.911  1.00  0.00    -0.325 N 
HETATM   23  C16 UNL     1      -3.413   5.873  13.264  1.00  0.00     0.243 C 
HETATM   24  O4  UNL     1      -2.728   6.939  13.464  1.00  0.00    -0.269 OA
ATOM     25  H1  UNL     1      -4.268   4.769  11.680  1.00  0.00     0.165 HD
BRANCH  23  26
HETATM   26  C17 UNL     1      -3.782   5.086  14.411  1.00  0.00     0.075 C 
HETATM   27  C18 UNL     1      -4.995   4.607  14.527  1.00  0.00     0.017 C 
BRANCH  27  28
HETATM   28  C19 UNL     1      -5.399   3.817  15.660  1.00  0.00    -0.036 A 
HETATM   29  C20 UNL     1      -6.387   4.248  16.507  1.00  0.00     0.011 A 
HETATM   30  C21 UNL     1      -6.746   3.448  17.596  1.00  0.00     0.001 A 
HETATM   31  C22 UNL     1      -6.117   2.247  17.817  1.00  0.00     0.000 A 
HETATM   32  C23 UNL     1      -5.123   1.806  16.971  1.00  0.00     0.001 A 
HETATM   33  C24 UNL     1      -4.767   2.591  15.897  1.00  0.00     0.011 A 
ENDBRANCH  27  28
ENDBRANCH  23  26
ENDBRANCH  20  22
ENDBRANCH  16  20
TORSDOF 5
ENDMDL
MODEL 3
REMARK VINA RESULT: -8.688736690      2.474      8.387
REMARK  5 active torsions:
REMARK  status: ('A' for Active; 'I' for Inactive)
REMARK    1  A    between atoms: C14_16  and  O3_17 
REMARK    2  A    between atoms: C14_16  and  C15_19 
REMARK    3  A    between atoms: C15_19  and  N1_21 
REMARK       I    between atoms: N1_21  and  C16_23 
REMARK    4  A    between atoms: C16_23  and  C17_25 
REMARK    5  A    between atoms: C18_26  and  C19_27 
ROOT
HETATM    1  C1  UNL     1      -8.484   7.778   8.807  1.00  0.00     0.078 C 
HETATM    2  C2  UNL     1      -7.203   8.291   8.125  1.00  0.00     0.161 C 
HETATM    3  C3  UNL     1      -7.669   8.841   6.770  1.00  0.00     0.078 C 
HETATM    4  O1  UNL     1      -6.768   9.366   8.880  1.00  0.00    -0.326 OA
HETATM    5  C4  UNL     1      -6.404   8.972  10.141  1.00  0.00     0.270 A 
HETATM    6  O2  UNL     1      -6.542   7.644  10.455  1.00  0.00    -0.352 OA
HETATM    7  C5  UNL     1      -5.170   7.522  10.777  1.00  0.00     0.172 A 
HETATM    8  C6  UNL     1      -4.925   8.874  10.378  1.00  0.00     0.074 A 
HETATM    9  C7  UNL     1      -4.078   9.248   9.245  1.00  0.00     0.020 C 
HETATM   10  C8  UNL     1      -4.411   8.725   7.899  1.00  0.00     0.021 C 
HETATM   11  C9  UNL     1      -3.077   8.476   7.177  1.00  0.00     0.008 C 
HETATM   12  C10 UNL     1      -3.241   7.239   6.372  1.00  0.00     0.004 C 
HETATM   13  C11 UNL     1      -4.726   6.970   6.400  1.00  0.00     0.038 C 
HETATM   14  C12 UNL     1      -5.050   7.389   7.849  1.00  0.00     0.071 C 
HETATM   15  C13 UNL     1      -4.181   6.470   8.707  1.00  0.00     0.084 C 
HETATM   16  C14 UNL     1      -4.609   6.347  10.097  1.00  0.00     0.135 C 
HETATM   17  O5  UNL     1      -6.352   7.259   8.028  1.00  0.00    -0.344 OA
ENDROOT
BRANCH  16  18
HETATM   18  O3  UNL     1      -5.608   5.339  10.156  1.00  0.00    -0.382 OA
ATOM     19  H3  UNL     1      -6.140   5.446   9.377  1.00  0.00     0.210 HD
ENDBRANCH  16  18
BRANCH  16  20
HETATM   20  C15 UNL     1      -3.476   5.790  10.946  1.00  0.00     0.309 C 
HETATM   21  F1  UNL     1      -2.699   4.883  10.258  1.00  0.00    -0.224 F 
BRANCH  20  22
HETATM   22  N1  UNL     1      -3.979   5.064  12.115  1.00  0.00    -0.325 N 
HETATM   23  C16 UNL     1      -3.698   5.507  13.429  1.00  0.00     0.243 C 
HETATM   24  O4  UNL     1      -2.986   6.570  13.507  1.00  0.00    -0.269 OA
ATOM     25  H1  UNL     1      -4.542   4.225  11.979  1.00  0.00     0.165 HD
BRANCH  23  26
HETATM   26  C17 UNL     1      -4.124   4.890  14.657  1.00  0.00     0.075 C 
HETATM   27  C18 UNL     1      -5.082   3.999  14.657  1.00  0.00     0.017 C 
BRANCH  27  28
HETATM   28  C19 UNL     1      -5.535   3.363  15.867  1.00  0.00    -0.036 A 
HETATM   29  C20 UNL     1      -6.326   4.031  16.764  1.00  0.00     0.011 A 
HETATM   30  C21 UNL     1      -6.741   3.375  17.927  1.00  0.00     0.001 A 
HETATM   31  C22 UNL     1      -6.359   2.077  18.169  1.00  0.00     0.000 A 
HETATM   32  C23 UNL     1      -5.564   1.397  17.272  1.00  0.00     0.001 A 
HETATM   33  C24 UNL     1      -5.154   2.041  16.126  1.00  0.00     0.011 A 
ENDBRANCH  27  28
ENDBRANCH  23  26
ENDBRANCH  20  22
ENDBRANCH  16  20
TORSDOF 5
ENDMDL
MODEL 4
REMARK VINA RESULT: -8.570578451      1.890      3.554
REMARK  5 active torsions:
REMARK  status: ('A' for Active; 'I' for Inactive)
REMARK    1  A    between atoms: C14_16  and  O3_17 
REMARK    2  A    between atoms: C14_16  and  C15_19 
REMARK    3  A    between atoms: C15_19  and  N1_21 
REMARK       I    between atoms: N1_21  and  C16_23 
REMARK    4  A    between atoms: C16_23  and  C17_25 
REMARK    5  A    between atoms: C18_26  and  C19_27 
ROOT
HETATM    1  C1  UNL     1      -4.096   0.139  12.286  1.00  0.00     0.078 C 
HETATM    2  C2  UNL     1      -3.139   0.885  11.339  1.00  0.00     0.161 C 
HETATM    3  C3  UNL     1      -2.308  -0.218  10.669  1.00  0.00     0.078 C 
HETATM    4  O1  UNL     1      -3.933   1.456  10.361  1.00  0.00    -0.326 OA
HETATM    5  C4  UNL     1      -4.769   2.404  10.891  1.00  0.00     0.270 A 
HETATM    6  O2  UNL     1      -4.712   2.614  12.244  1.00  0.00    -0.352 OA
HETATM    7  C5  UNL     1      -4.407   3.984  12.074  1.00  0.00     0.172 A 
HETATM    8  C6  UNL     1      -4.354   3.827  10.653  1.00  0.00     0.074 A 
HETATM    9  C7  UNL     1      -3.138   4.006   9.858  1.00  0.00     0.020 C 
HETATM   10  C8  UNL     1      -1.950   3.177  10.171  1.00  0.00     0.021 C 
HETATM   11  C9  UNL     1      -0.716   4.059   9.923  1.00  0.00     0.008 C 
HETATM   12  C10 UNL     1       0.277   3.727  10.975  1.00  0.00     0.004 C 
HETATM   13  C11 UNL     1      -0.264   2.471  11.614  1.00  0.00     0.038 C 
HETATM   14  C12 UNL     1      -1.775   2.782  11.588  1.00  0.00     0.071 C 
HETATM   15  C13 UNL     1      -1.906   4.067  12.406  1.00  0.00     0.084 C 
HETATM   16  C14 UNL     1      -3.250   4.337  12.908  1.00  0.00     0.135 C 
HETATM   17  O5  UNL     1      -2.414   1.737  12.079  1.00  0.00    -0.344 OA
ENDROOT
BRANCH  16  18
HETATM   18  O3  UNL     1      -3.409   3.629  14.128  1.00  0.00    -0.382 OA
ATOM     19  H3  UNL     1      -2.537   3.374  14.403  1.00  0.00     0.210 HD
ENDBRANCH  16  18
BRANCH  16  20
HETATM   20  C15 UNL     1      -3.372   5.798  13.313  1.00  0.00     0.309 C 
HETATM   21  F1  UNL     1      -3.764   5.950  14.626  1.00  0.00    -0.224 F 
BRANCH  20  22
HETATM   22  N1  UNL     1      -4.388   6.498  12.522  1.00  0.00    -0.325 N 
HETATM   23  C16 UNL     1      -4.027   7.309  11.420  1.00  0.00     0.243 C 
HETATM   24  O4  UNL     1      -2.770   7.377  11.179  1.00  0.00    -0.269 OA
ATOM     25  H1  UNL     1      -5.372   6.399  12.770  1.00  0.00     0.165 HD
BRANCH  23  26
HETATM   26  C17 UNL     1      -4.917   8.050  10.566  1.00  0.00     0.075 C 
HETATM   27  C18 UNL     1      -6.041   7.519  10.154  1.00  0.00     0.017 C 
BRANCH  27  28
HETATM   28  C19 UNL     1      -6.954   8.231   9.298  1.00  0.00    -0.036 A 
HETATM   29  C20 UNL     1      -6.702   9.521   8.913  1.00  0.00     0.011 A 
HETATM   30  C21 UNL     1      -7.618  10.174   8.082  1.00  0.00     0.001 A 
HETATM   31  C22 UNL     1      -8.755   9.532   7.658  1.00  0.00     0.000 A 
HETATM   32  C23 UNL     1      -9.016   8.234   8.039  1.00  0.00     0.001 A 
HETATM   33  C24 UNL     1      -8.116   7.589   8.858  1.00  0.00     0.011 A 
ENDBRANCH  27  28
ENDBRANCH  23  26
ENDBRANCH  20  22
ENDBRANCH  16  20
TORSDOF 5
ENDMDL
MODEL 5
REMARK VINA RESULT: -8.537121847      4.171      7.579
REMARK  5 active torsions:
REMARK  status: ('A' for Active; 'I' for Inactive)
REMARK    1  A    between atoms: C14_16  and  O3_17 
REMARK    2  A    between atoms: C14_16  and  C15_19 
REMARK    3  A    between atoms: C15_19  and  N1_21 
REMARK       I    between atoms: N1_21  and  C16_23 
REMARK    4  A    between atoms: C16_23  and  C17_25 
REMARK    5  A    between atoms: C18_26  and  C19_27 
ROOT
HETATM    1  C1  UNL     1      -1.175   5.225   6.253  1.00  0.00     0.078 C 
HETATM    2  C2  UNL     1      -0.604   4.692   7.579  1.00  0.00     0.161 C 
HETATM    3  C3  UNL     1       0.461   3.666   7.165  1.00  0.00     0.078 C 
HETATM    4  O1  UNL     1       0.054   5.755   8.170  1.00  0.00    -0.326 OA
HETATM    5  C4  UNL     1      -0.820   6.758   8.501  1.00  0.00     0.270 A 
HETATM    6  O2  UNL     1      -2.143   6.574   8.189  1.00  0.00    -0.352 OA
HETATM    7  C5  UNL     1      -2.539   6.735   9.538  1.00  0.00     0.172 A 
HETATM    8  C6  UNL     1      -1.175   6.840   9.958  1.00  0.00     0.074 A 
HETATM    9  C7  UNL     1      -0.512   5.867  10.826  1.00  0.00     0.020 C 
HETATM   10  C8  UNL     1      -0.454   4.449  10.398  1.00  0.00     0.021 C 
HETATM   11  C9  UNL     1      -0.576   3.596  11.671  1.00  0.00     0.008 C 
HETATM   12  C10 UNL     1      -1.397   2.409  11.325  1.00  0.00     0.004 C 
HETATM   13  C11 UNL     1      -1.477   2.438   9.818  1.00  0.00     0.038 C 
HETATM   14  C12 UNL     1      -1.590   3.959   9.582  1.00  0.00     0.071 C 
HETATM   15  C13 UNL     1      -2.859   4.360  10.334  1.00  0.00     0.084 C 
HETATM   16  C14 UNL     1      -3.436   5.636   9.920  1.00  0.00     0.135 C 
HETATM   17  O5  UNL     1      -1.620   4.167   8.279  1.00  0.00    -0.344 OA
ENDROOT
BRANCH  16  18
HETATM   18  O3  UNL     1      -4.267   5.392   8.794  1.00  0.00    -0.382 OA
ATOM     19  H3  UNL     1      -3.726   4.939   8.158  1.00  0.00     0.210 HD
ENDBRANCH  16  18
BRANCH  16  20
HETATM   20  C15 UNL     1      -4.399   6.143  10.983  1.00  0.00     0.309 C 
HETATM   21  F1  UNL     1      -4.192   7.471  11.290  1.00  0.00    -0.224 F 
BRANCH  20  22
HETATM   22  N1  UNL     1      -4.239   5.422  12.248  1.00  0.00    -0.325 N 
HETATM   23  C16 UNL     1      -5.295   5.348  13.188  1.00  0.00     0.243 C 
HETATM   24  O4  UNL     1      -6.375   5.948  12.845  1.00  0.00    -0.269 OA
ATOM     25  H1  UNL     1      -3.351   4.965  12.456  1.00  0.00     0.165 HD
BRANCH  23  26
HETATM   26  C17 UNL     1      -5.271   4.680  14.462  1.00  0.00     0.075 C 
HETATM   27  C18 UNL     1      -6.014   3.623  14.673  1.00  0.00     0.017 C 
BRANCH  27  28
HETATM   28  C19 UNL     1      -6.017   2.931  15.936  1.00  0.00    -0.036 A 
HETATM   29  C20 UNL     1      -5.640   1.616  16.022  1.00  0.00     0.011 A 
HETATM   30  C21 UNL     1      -5.659   0.983  17.268  1.00  0.00     0.001 A 
HETATM   31  C22 UNL     1      -6.051   1.669  18.392  1.00  0.00     0.000 A 
HETATM   32  C23 UNL     1      -6.431   2.991  18.316  1.00  0.00     0.001 A 
HETATM   33  C24 UNL     1      -6.413   3.617  17.089  1.00  0.00     0.011 A 
ENDBRANCH  27  28
ENDBRANCH  23  26
ENDBRANCH  20  22
ENDBRANCH  16  20
TORSDOF 5
ENDMDL
