MODEL 1
REMARK VINA RESULT: -6.363433532      0.000      0.000
REMARK  10 active torsions:
REMARK  status: ('A' for Active; 'I' for Inactive)
REMARK    1  A    between atoms: C2_2  and  C3_3 
REMARK    2  A    between atoms: C3_3  and  C4_4 
REMARK    3  A    between atoms: C4_4  and  C5_5 
REMARK    4  A    between atoms: C5_5  and  C6_6 
REMARK    5  A    between atoms: C7_7  and  C8_8 
REMARK    6  A    between atoms: C8_8  and  N1_9 
REMARK    7  A    between atoms: C11_12  and  O1_13 
REMARK    8  A    between atoms: O1_13  and  C12_14 
REMARK    9  A    between atoms: C12_14  and  C13_15 
REMARK   10  A    between atoms: C13_15  and  O2_16 
ROOT
HETATM    1  N1  UNL     1      -0.191  39.715   1.214  1.00  0.00     0.129 N 
HETATM    2  C9  UNL     1      -0.339  39.252   2.574  1.00  0.00     0.423 C 
HETATM    3  C10 UNL     1       0.777  38.320   2.990  1.00  0.00     0.104 C 
HETATM    4  C11 UNL     1       2.099  38.593   2.339  1.00  0.00     0.071 A 
HETATM    5  C15 UNL     1       2.890  39.760   2.869  1.00  0.00     0.048 A 
HETATM    6  C16 UNL     1       2.220  39.853   1.579  1.00  0.00     0.058 A 
HETATM    7  C17 UNL     1       0.938  40.611   1.385  1.00  0.00     0.258 C 
HETATM    8  C18 UNL     1       0.552  41.395   2.601  1.00  0.00     0.271 C 
HETATM    9  N2  UNL     1      -0.319  40.507   3.299  1.00  0.00    -0.041 N 
ATOM     10  H21 UNL     1      -0.068  40.394   4.281  1.00  0.00     0.279 HD
ATOM     11  H22 UNL     1      -1.251  40.896   3.443  1.00  0.00     0.279 HD
ENDROOT
BRANCH   1  12
HETATM   12  C8  UNL     1      -1.360  40.510   0.881  1.00  0.00     0.303 C 
BRANCH  12  13
HETATM   13  C7  UNL     1      -1.841  40.271  -0.483  1.00  0.00    -0.001 C 
HETATM   14  C6  UNL     1      -1.959  41.200  -1.393  1.00  0.00    -0.029 C 
BRANCH  14  15
HETATM   15  C5  UNL     1      -1.640  42.597  -1.209  1.00  0.00     0.027 C 
BRANCH  15  16
HETATM   16  C4  UNL     1      -0.398  43.175  -1.765  1.00  0.00     0.004 C 
BRANCH  16  17
HETATM   17  C3  UNL     1       0.776  43.493  -0.967  1.00  0.00    -0.000 C 
BRANCH  17  18
HETATM   18  C2  UNL     1       1.918  44.119  -1.655  1.00  0.00    -0.005 C 
HETATM   19  C1  UNL     1       1.763  43.804  -3.165  1.00  0.00     0.005 C 
ENDBRANCH  17  18
ENDBRANCH  16  17
ENDBRANCH  15  16
ENDBRANCH  14  15
ENDBRANCH  12  13
ENDBRANCH   1  12
BRANCH   4  20
HETATM   20  O1  UNL     1       2.807  37.532   1.891  1.00  0.00    -0.378 OA
BRANCH  20  21
HETATM   21  C12 UNL     1       2.281  36.337   1.637  1.00  0.00     0.195 C 
BRANCH  21  22
HETATM   22  C13 UNL     1       2.592  35.170   2.506  1.00  0.00     0.193 C 
BRANCH  22  23
HETATM   23  O2  UNL     1       2.427  33.951   1.783  1.00  0.00    -0.394 OA
HETATM   24  C14 UNL     1       2.768  32.881   2.618  1.00  0.00     0.201 C 
ENDBRANCH  22  23
ENDBRANCH  21  22
ENDBRANCH  20  21
ENDBRANCH   4  20
TORSDOF 10
ENDMDL
MODEL 2
REMARK VINA RESULT: -6.244371992      1.802      3.206
REMARK  10 active torsions:
REMARK  status: ('A' for Active; 'I' for Inactive)
REMARK    1  A    between atoms: C2_2  and  C3_3 
REMARK    2  A    between atoms: C3_3  and  C4_4 
REMARK    3  A    between atoms: C4_4  and  C5_5 
REMARK    4  A    between atoms: C5_5  and  C6_6 
REMARK    5  A    between atoms: C7_7  and  C8_8 
REMARK    6  A    between atoms: C8_8  and  N1_9 
REMARK    7  A    between atoms: C11_12  and  O1_13 
REMARK    8  A    between atoms: O1_13  and  C12_14 
REMARK    9  A    between atoms: C12_14  and  C13_15 
REMARK   10  A    between atoms: C13_15  and  O2_16 
ROOT
HETATM    1  N1  UNL     1      -0.179  39.759   1.086  1.00  0.00     0.129 N 
HETATM    2  C9  UNL     1      -0.397  39.326   2.446  1.00  0.00     0.423 C 
HETATM    3  C10 UNL     1       0.690  38.395   2.936  1.00  0.00     0.104 C 
HETATM    4  C11 UNL     1       2.044  38.645   2.346  1.00  0.00     0.071 A 
HETATM    5  C15 UNL     1       2.816  39.818   2.890  1.00  0.00     0.048 A 
HETATM    6  C16 UNL     1       2.212  39.889   1.567  1.00  0.00     0.058 A 
HETATM    7  C17 UNL     1       0.947  40.651   1.294  1.00  0.00     0.258 C 
HETATM    8  C18 UNL     1       0.507  41.462   2.474  1.00  0.00     0.271 C 
HETATM    9  N2  UNL     1      -0.404  40.595   3.145  1.00  0.00    -0.041 N 
ATOM     10  H21 UNL     1      -0.202  40.501   4.141  1.00  0.00     0.279 HD
ATOM     11  H22 UNL     1      -1.339  40.993   3.236  1.00  0.00     0.279 HD
ENDROOT
BRANCH   1  12
HETATM   12  C8  UNL     1      -1.324  40.555   0.679  1.00  0.00     0.303 C 
BRANCH  12  13
HETATM   13  C7  UNL     1      -1.575  40.496  -0.764  1.00  0.00    -0.001 C 
HETATM   14  C6  UNL     1      -2.362  41.315  -1.406  1.00  0.00    -0.029 C 
BRANCH  14  15
HETATM   15  C5  UNL     1      -3.106  42.401  -0.809  1.00  0.00     0.027 C 
BRANCH  15  16
HETATM   16  C4  UNL     1      -4.562  42.287  -0.573  1.00  0.00     0.004 C 
BRANCH  16  17
HETATM   17  C3  UNL     1      -5.464  41.527  -1.423  1.00  0.00    -0.000 C 
BRANCH  17  18
HETATM   18  C2  UNL     1      -6.283  40.482  -0.785  1.00  0.00    -0.005 C 
HETATM   19  C1  UNL     1      -5.410  39.837   0.322  1.00  0.00     0.005 C 
ENDBRANCH  17  18
ENDBRANCH  16  17
ENDBRANCH  15  16
ENDBRANCH  14  15
ENDBRANCH  12  13
ENDBRANCH   1  12
BRANCH   4  20
HETATM   20  O1  UNL     1       2.764  37.571   1.954  1.00  0.00    -0.378 OA
BRANCH  20  21
HETATM   21  C12 UNL     1       2.237  36.386   1.657  1.00  0.00     0.195 C 
BRANCH  21  22
HETATM   22  C13 UNL     1       2.514  35.196   2.506  1.00  0.00     0.193 C 
BRANCH  22  23
HETATM   23  O2  UNL     1       2.456  34.003   1.727  1.00  0.00    -0.394 OA
HETATM   24  C14 UNL     1       2.786  32.914   2.543  1.00  0.00     0.201 C 
ENDBRANCH  22  23
ENDBRANCH  21  22
ENDBRANCH  20  21
ENDBRANCH   4  20
TORSDOF 10
ENDMDL
MODEL 3
REMARK VINA RESULT: -6.096824716      1.833      3.052
REMARK  10 active torsions:
REMARK  status: ('A' for Active; 'I' for Inactive)
REMARK    1  A    between atoms: C2_2  and  C3_3 
REMARK    2  A    between atoms: C3_3  and  C4_4 
REMARK    3  A    between atoms: C4_4  and  C5_5 
REMARK    4  A    between atoms: C5_5  and  C6_6 
REMARK    5  A    between atoms: C7_7  and  C8_8 
REMARK    6  A    between atoms: C8_8  and  N1_9 
REMARK    7  A    between atoms: C11_12  and  O1_13 
REMARK    8  A    between atoms: O1_13  and  C12_14 
REMARK    9  A    between atoms: C12_14  and  C13_15 
REMARK   10  A    between atoms: C13_15  and  O2_16 
ROOT
HETATM    1  N1  UNL     1      -0.215  39.833   1.144  1.00  0.00     0.129 N 
HETATM    2  C9  UNL     1      -0.411  39.336   2.486  1.00  0.00     0.423 C 
HETATM    3  C10 UNL     1       0.670  38.366   2.906  1.00  0.00     0.104 C 
HETATM    4  C11 UNL     1       2.015  38.624   2.299  1.00  0.00     0.071 A 
HETATM    5  C15 UNL     1       2.819  39.756   2.883  1.00  0.00     0.048 A 
HETATM    6  C16 UNL     1       2.188  39.902   1.578  1.00  0.00     0.058 A 
HETATM    7  C17 UNL     1       0.930  40.696   1.371  1.00  0.00     0.258 C 
HETATM    8  C18 UNL     1       0.529  41.455   2.598  1.00  0.00     0.271 C 
HETATM    9  N2  UNL     1      -0.383  40.569   3.246  1.00  0.00    -0.041 N 
ATOM     10  H21 UNL     1      -0.162  40.423   4.231  1.00  0.00     0.279 HD
ATOM     11  H22 UNL     1      -1.308  40.977   3.376  1.00  0.00     0.279 HD
ENDROOT
BRANCH   1  12
HETATM   12  C8  UNL     1      -1.355  40.665   0.802  1.00  0.00     0.303 C 
BRANCH  12  13
HETATM   13  C7  UNL     1      -1.419  40.982  -0.628  1.00  0.00    -0.001 C 
HETATM   14  C6  UNL     1      -2.508  41.343  -1.251  1.00  0.00    -0.029 C 
BRANCH  14  15
HETATM   15  C5  UNL     1      -3.812  41.487  -0.643  1.00  0.00     0.027 C 
BRANCH  15  16
HETATM   16  C4  UNL     1      -4.905  42.193  -1.345  1.00  0.00     0.004 C 
BRANCH  16  17
HETATM   17  C3  UNL     1      -6.016  41.519  -1.999  1.00  0.00    -0.000 C 
BRANCH  17  18
HETATM   18  C2  UNL     1      -6.335  41.917  -3.381  1.00  0.00    -0.005 C 
HETATM   19  C1  UNL     1      -5.093  42.661  -3.936  1.00  0.00     0.005 C 
ENDBRANCH  17  18
ENDBRANCH  16  17
ENDBRANCH  15  16
ENDBRANCH  14  15
ENDBRANCH  12  13
ENDBRANCH   1  12
BRANCH   4  20
HETATM   20  O1  UNL     1       2.710  37.560   1.840  1.00  0.00    -0.378 OA
BRANCH  20  21
HETATM   21  C12 UNL     1       2.180  36.359   1.623  1.00  0.00     0.195 C 
BRANCH  21  22
HETATM   22  C13 UNL     1       2.529  35.205   2.495  1.00  0.00     0.193 C 
BRANCH  22  23
HETATM   23  O2  UNL     1       2.492  33.988   1.750  1.00  0.00    -0.394 OA
HETATM   24  C14 UNL     1       2.855  32.932   2.593  1.00  0.00     0.201 C 
ENDBRANCH  22  23
ENDBRANCH  21  22
ENDBRANCH  20  21
ENDBRANCH   4  20
TORSDOF 10
ENDMDL
MODEL 4
REMARK VINA RESULT: -6.081438191      2.062      3.656
REMARK  10 active torsions:
REMARK  status: ('A' for Active; 'I' for Inactive)
REMARK    1  A    between atoms: C2_2  and  C3_3 
REMARK    2  A    between atoms: C3_3  and  C4_4 
REMARK    3  A    between atoms: C4_4  and  C5_5 
REMARK    4  A    between atoms: C5_5  and  C6_6 
REMARK    5  A    between atoms: C7_7  and  C8_8 
REMARK    6  A    between atoms: C8_8  and  N1_9 
REMARK    7  A    between atoms: C11_12  and  O1_13 
REMARK    8  A    between atoms: O1_13  and  C12_14 
REMARK    9  A    between atoms: C12_14  and  C13_15 
REMARK   10  A    between atoms: C13_15  and  O2_16 
ROOT
HETATM    1  N1  UNL     1       0.136  39.895   0.955  1.00  0.00     0.129 N 
HETATM    2  C9  UNL     1      -0.248  39.352   2.237  1.00  0.00     0.423 C 
HETATM    3  C10 UNL     1       0.726  38.308   2.736  1.00  0.00     0.104 C 
HETATM    4  C11 UNL     1       2.147  38.520   2.309  1.00  0.00     0.071 A 
HETATM    5  C15 UNL     1       2.925  39.581   3.041  1.00  0.00     0.048 A 
HETATM    6  C16 UNL     1       2.467  39.816   1.679  1.00  0.00     0.058 A 
HETATM    7  C17 UNL     1       1.284  40.685   1.361  1.00  0.00     0.258 C 
HETATM    8  C18 UNL     1       0.772  41.410   2.566  1.00  0.00     0.271 C 
HETATM    9  N2  UNL     1      -0.254  40.548   3.055  1.00  0.00    -0.041 N 
ATOM     10  H21 UNL     1      -0.163  40.348   4.051  1.00  0.00     0.279 HD
ATOM     11  H22 UNL     1      -1.168  40.998   3.093  1.00  0.00     0.279 HD
ENDROOT
BRANCH   1  12
HETATM   12  C8  UNL     1      -0.912  40.801   0.519  1.00  0.00     0.303 C 
BRANCH  12  13
HETATM   13  C7  UNL     1      -1.996  40.118  -0.192  1.00  0.00    -0.001 C 
HETATM   14  C6  UNL     1      -3.253  40.174   0.157  1.00  0.00    -0.029 C 
BRANCH  14  15
HETATM   15  C5  UNL     1      -3.775  40.908   1.286  1.00  0.00     0.027 C 
BRANCH  15  16
HETATM   16  C4  UNL     1      -5.172  40.721   1.737  1.00  0.00     0.004 C 
BRANCH  16  17
HETATM   17  C3  UNL     1      -6.258  40.318   0.859  1.00  0.00    -0.000 C 
BRANCH  17  18
HETATM   18  C2  UNL     1      -6.677  41.267  -0.187  1.00  0.00    -0.005 C 
HETATM   19  C1  UNL     1      -6.722  40.477  -1.521  1.00  0.00     0.005 C 
ENDBRANCH  17  18
ENDBRANCH  16  17
ENDBRANCH  15  16
ENDBRANCH  14  15
ENDBRANCH  12  13
ENDBRANCH   1  12
BRANCH   4  20
HETATM   20  O1  UNL     1       2.841  37.440   1.885  1.00  0.00    -0.378 OA
BRANCH  20  21
HETATM   21  C12 UNL     1       2.290  36.263   1.600  1.00  0.00     0.195 C 
BRANCH  21  22
HETATM   22  C13 UNL     1       2.549  35.075   2.457  1.00  0.00     0.193 C 
BRANCH  22  23
HETATM   23  O2  UNL     1       2.550  33.884   1.672  1.00  0.00    -0.394 OA
HETATM   24  C14 UNL     1       2.814  32.792   2.507  1.00  0.00     0.201 C 
ENDBRANCH  22  23
ENDBRANCH  21  22
ENDBRANCH  20  21
ENDBRANCH   4  20
TORSDOF 10
ENDMDL
MODEL 5
REMARK VINA RESULT: -6.003610731      2.187      4.038
REMARK  10 active torsions:
REMARK  status: ('A' for Active; 'I' for Inactive)
REMARK    1  A    between atoms: C2_2  and  C3_3 
REMARK    2  A    between atoms: C3_3  and  C4_4 
REMARK    3  A    between atoms: C4_4  and  C5_5 
REMARK    4  A    between atoms: C5_5  and  C6_6 
REMARK    5  A    between atoms: C7_7  and  C8_8 
REMARK    6  A    between atoms: C8_8  and  N1_9 
REMARK    7  A    between atoms: C11_12  and  O1_13 
REMARK    8  A    between atoms: O1_13  and  C12_14 
REMARK    9  A    between atoms: C12_14  and  C13_15 
REMARK   10  A    between atoms: C13_15  and  O2_16 
ROOT
HETATM    1  N1  UNL     1      -0.015  39.898   1.054  1.00  0.00     0.129 N 
HETATM    2  C9  UNL     1      -0.300  39.399   2.379  1.00  0.00     0.423 C 
HETATM    3  C10 UNL     1       0.718  38.383   2.844  1.00  0.00     0.104 C 
HETATM    4  C11 UNL     1       2.103  38.592   2.310  1.00  0.00     0.071 A 
HETATM    5  C15 UNL     1       2.918  39.686   2.947  1.00  0.00     0.048 A 
HETATM    6  C16 UNL     1       2.363  39.867   1.613  1.00  0.00     0.058 A 
HETATM    7  C17 UNL     1       1.149  40.713   1.349  1.00  0.00     0.258 C 
HETATM    8  C18 UNL     1       0.715  41.477   2.562  1.00  0.00     0.271 C 
HETATM    9  N2  UNL     1      -0.263  40.624   3.152  1.00  0.00    -0.041 N 
ATOM     10  H21 UNL     1      -0.099  40.461   4.146  1.00  0.00     0.279 HD
ATOM     11  H22 UNL     1      -1.177  41.067   3.239  1.00  0.00     0.279 HD
ENDROOT
BRANCH   1  12
HETATM   12  C8  UNL     1      -1.101  40.779   0.662  1.00  0.00     0.303 C 
BRANCH  12  13
HETATM   13  C7  UNL     1      -2.099  40.112  -0.180  1.00  0.00    -0.001 C 
HETATM   14  C6  UNL     1      -3.385  40.143   0.042  1.00  0.00    -0.029 C 
BRANCH  14  15
HETATM   15  C5  UNL     1      -4.029  40.832   1.138  1.00  0.00     0.027 C 
BRANCH  15  16
HETATM   16  C4  UNL     1      -5.400  40.475   1.561  1.00  0.00     0.004 C 
BRANCH  16  17
HETATM   17  C3  UNL     1      -5.842  40.460   2.946  1.00  0.00    -0.000 C 
BRANCH  17  18
HETATM   18  C2  UNL     1      -4.808  40.540   3.992  1.00  0.00    -0.005 C 
HETATM   19  C1  UNL     1      -5.312  39.695   5.191  1.00  0.00     0.005 C 
ENDBRANCH  17  18
ENDBRANCH  16  17
ENDBRANCH  15  16
ENDBRANCH  14  15
ENDBRANCH  12  13
ENDBRANCH   1  12
BRANCH   4  20
HETATM   20  O1  UNL     1       2.778  37.504   1.877  1.00  0.00    -0.378 OA
BRANCH  20  21
HETATM   21  C12 UNL     1       2.217  36.319   1.649  1.00  0.00     0.195 C 
BRANCH  21  22
HETATM   22  C13 UNL     1       2.545  35.146   2.503  1.00  0.00     0.193 C 
BRANCH  22  23
HETATM   23  O2  UNL     1       2.465  33.940   1.746  1.00  0.00    -0.394 OA
HETATM   24  C14 UNL     1       2.837  32.867   2.565  1.00  0.00     0.201 C 
ENDBRANCH  22  23
ENDBRANCH  21  22
ENDBRANCH  20  21
ENDBRANCH   4  20
TORSDOF 10
ENDMDL
