MODEL 1
REMARK VINA RESULT: -5.237098110      0.000      0.000
REMARK  10 active torsions:
REMARK  status: ('A' for Active; 'I' for Inactive)
REMARK    1  A    between atoms: C2_2  and  C3_3 
REMARK    2  A    between atoms: C3_3  and  C4_4 
REMARK    3  A    between atoms: C3_3  and  O1_6 
REMARK    4  A    between atoms: O1_6  and  C6_7 
REMARK    5  A    between atoms: C6_7  and  C7_8 
REMARK    6  A    between atoms: C7_8  and  O2_9 
REMARK    7  A    between atoms: C7_8  and  C8_11 
REMARK    8  A    between atoms: C8_11  and  N1_12 
REMARK    9  A    between atoms: N2_15  and  C11_16 
REMARK   10  A    between atoms: C11_16  and  C14_19 
ROOT
HETATM    1  N1  UNL     1      -3.442  41.766   0.934  1.00  0.00    -0.288 NA
HETATM    2  C9  UNL     1      -4.892  41.672   1.012  1.00  0.00     0.110 C 
HETATM    3  C10 UNL     1      -5.688  41.906  -0.178  1.00  0.00     0.110 C 
HETATM    4  N2  UNL     1      -5.065  41.754  -1.448  1.00  0.00    -0.282 NA
HETATM    5  C16 UNL     1      -3.700  42.062  -1.515  1.00  0.00     0.072 C 
HETATM    6  C17 UNL     1      -3.069  42.481  -0.209  1.00  0.00     0.071 C 
ENDROOT
BRANCH   1   7
HETATM    7  C8  UNL     1      -2.816  40.549   1.275  1.00  0.00     0.128 C 
BRANCH   7   8
HETATM    8  C7  UNL     1      -1.532  40.289   0.584  1.00  0.00     0.155 C 
BRANCH   8   9
HETATM    9  C6  UNL     1      -0.420  39.923   1.568  1.00  0.00     0.201 C 
BRANCH   9  10
HETATM   10  O1  UNL     1      -0.074  38.608   1.349  1.00  0.00    -0.383 OA
BRANCH  10  11
HETATM   11  C3  UNL     1       1.251  38.328   1.624  1.00  0.00     0.120 C 
BRANCH  11  12
HETATM   12  C2  UNL     1       1.419  37.278   2.693  1.00  0.00     0.027 C 
HETATM   13  C1  UNL     1       2.170  36.074   2.105  1.00  0.00     0.007 C 
ENDBRANCH  11  12
BRANCH  11  14
HETATM   14  C4  UNL     1       1.946  39.603   2.004  1.00  0.00     0.027 C 
HETATM   15  C5  UNL     1       3.241  39.392   2.748  1.00  0.00     0.007 C 
ENDBRANCH  11  14
ENDBRANCH  10  11
ENDBRANCH   9  10
ENDBRANCH   8   9
BRANCH   8  16
HETATM   16  O2  UNL     1      -1.521  39.326  -0.384  1.00  0.00    -0.392 OA
ATOM     17  H2  UNL     1      -1.431  38.495   0.066  1.00  0.00     0.210 HD
ENDBRANCH   8  16
ENDBRANCH   7   8
ENDBRANCH   1   7
BRANCH   4  18
HETATM   18  C11 UNL     1      -5.815  42.447  -2.470  1.00  0.00     0.009 C 
HETATM   19  C12 UNL     1      -6.338  43.790  -2.002  1.00  0.00     0.032 C 
HETATM   20  C13 UNL     1      -6.998  41.620  -2.910  1.00  0.00     0.032 C 
BRANCH  18  21
HETATM   21  C14 UNL     1      -4.902  42.711  -3.669  1.00  0.00     0.020 C 
HETATM   22  C15 UNL     1      -5.600  42.407  -4.968  1.00  0.00     0.007 C 
ENDBRANCH  18  21
ENDBRANCH   4  18
TORSDOF 10
ENDMDL
MODEL 2
REMARK VINA RESULT: -5.217432762      3.081      4.539
REMARK  10 active torsions:
REMARK  status: ('A' for Active; 'I' for Inactive)
REMARK    1  A    between atoms: C2_2  and  C3_3 
REMARK    2  A    between atoms: C3_3  and  C4_4 
REMARK    3  A    between atoms: C3_3  and  O1_6 
REMARK    4  A    between atoms: O1_6  and  C6_7 
REMARK    5  A    between atoms: C6_7  and  C7_8 
REMARK    6  A    between atoms: C7_8  and  O2_9 
REMARK    7  A    between atoms: C7_8  and  C8_11 
REMARK    8  A    between atoms: C8_11  and  N1_12 
REMARK    9  A    between atoms: N2_15  and  C11_16 
REMARK   10  A    between atoms: C11_16  and  C14_19 
ROOT
HETATM    1  N1  UNL     1      -2.272  42.550   0.383  1.00  0.00    -0.288 NA
HETATM    2  C9  UNL     1      -2.049  42.485  -1.054  1.00  0.00     0.110 C 
HETATM    3  C10 UNL     1      -0.837  43.050  -1.615  1.00  0.00     0.110 C 
HETATM    4  N2  UNL     1       0.289  43.217  -0.761  1.00  0.00    -0.282 NA
HETATM    5  C16 UNL     1       0.015  43.488   0.586  1.00  0.00     0.072 C 
HETATM    6  C17 UNL     1      -1.449  43.529   0.951  1.00  0.00     0.071 C 
ENDROOT
BRANCH   1   7
HETATM    7  C8  UNL     1      -2.390  41.268   0.956  1.00  0.00     0.128 C 
BRANCH   7   8
HETATM    8  C7  UNL     1      -1.438  40.259   0.439  1.00  0.00     0.155 C 
BRANCH   8   9
HETATM    9  C6  UNL     1      -0.427  39.832   1.504  1.00  0.00     0.201 C 
BRANCH   9  10
HETATM   10  O1  UNL     1       0.027  38.572   1.179  1.00  0.00    -0.383 OA
BRANCH  10  11
HETATM   11  C3  UNL     1       1.338  38.341   1.548  1.00  0.00     0.120 C 
BRANCH  11  12
HETATM   12  C2  UNL     1       1.466  37.322   2.651  1.00  0.00     0.027 C 
HETATM   13  C1  UNL     1       2.222  36.093   2.121  1.00  0.00     0.007 C 
ENDBRANCH  11  12
BRANCH  11  14
HETATM   14  C4  UNL     1       1.968  39.646   1.941  1.00  0.00     0.027 C 
HETATM   15  C5  UNL     1       3.173  39.494   2.836  1.00  0.00     0.007 C 
ENDBRANCH  11  14
ENDBRANCH  10  11
ENDBRANCH   9  10
ENDBRANCH   8   9
BRANCH   8  16
HETATM   16  O2  UNL     1      -1.959  39.108  -0.081  1.00  0.00    -0.392 OA
ATOM     17  H2  UNL     1      -2.848  39.312  -0.344  1.00  0.00     0.210 HD
ENDBRANCH   8  16
ENDBRANCH   7   8
ENDBRANCH   1   7
BRANCH   4  18
HETATM   18  C11 UNL     1       1.212  44.178  -1.318  1.00  0.00     0.009 C 
HETATM   19  C12 UNL     1       2.541  44.202  -0.592  1.00  0.00     0.032 C 
HETATM   20  C13 UNL     1       0.628  45.568  -1.258  1.00  0.00     0.032 C 
BRANCH  18  21
HETATM   21  C14 UNL     1       1.500  43.809  -2.775  1.00  0.00     0.020 C 
HETATM   22  C15 UNL     1       2.873  44.262  -3.196  1.00  0.00     0.007 C 
ENDBRANCH  18  21
ENDBRANCH   4  18
TORSDOF 10
ENDMDL
MODEL 3
REMARK VINA RESULT: -5.146386846      2.893      4.774
REMARK  10 active torsions:
REMARK  status: ('A' for Active; 'I' for Inactive)
REMARK    1  A    between atoms: C2_2  and  C3_3 
REMARK    2  A    between atoms: C3_3  and  C4_4 
REMARK    3  A    between atoms: C3_3  and  O1_6 
REMARK    4  A    between atoms: O1_6  and  C6_7 
REMARK    5  A    between atoms: C6_7  and  C7_8 
REMARK    6  A    between atoms: C7_8  and  O2_9 
REMARK    7  A    between atoms: C7_8  and  C8_11 
REMARK    8  A    between atoms: C8_11  and  N1_12 
REMARK    9  A    between atoms: N2_15  and  C11_16 
REMARK   10  A    between atoms: C11_16  and  C14_19 
ROOT
HETATM    1  N1  UNL     1      -2.576  42.376   0.127  1.00  0.00    -0.288 NA
HETATM    2  C9  UNL     1      -2.085  42.185  -1.229  1.00  0.00     0.110 C 
HETATM    3  C10 UNL     1      -0.836  42.803  -1.631  1.00  0.00     0.110 C 
HETATM    4  N2  UNL     1       0.095  43.165  -0.617  1.00  0.00    -0.282 NA
HETATM    5  C16 UNL     1      -0.444  43.546   0.618  1.00  0.00     0.072 C 
HETATM    6  C17 UNL     1      -1.950  43.483   0.712  1.00  0.00     0.071 C 
ENDROOT
BRANCH   1   7
HETATM    7  C8  UNL     1      -2.701  41.154   0.820  1.00  0.00     0.128 C 
BRANCH   7   8
HETATM    8  C7  UNL     1      -1.610  40.182   0.580  1.00  0.00     0.155 C 
BRANCH   8   9
HETATM    9  C6  UNL     1      -0.856  39.843   1.867  1.00  0.00     0.201 C 
BRANCH   9  10
HETATM   10  O1  UNL     1      -0.274  38.605   1.706  1.00  0.00    -0.383 OA
BRANCH  10  11
HETATM   11  C3  UNL     1       0.846  38.410   2.490  1.00  0.00     0.120 C 
BRANCH  11  12
HETATM   12  C2  UNL     1       2.118  38.863   1.819  1.00  0.00     0.027 C 
HETATM   13  C1  UNL     1       2.957  39.673   2.820  1.00  0.00     0.007 C 
ENDBRANCH  11  12
BRANCH  11  14
HETATM   14  C4  UNL     1       0.923  36.960   2.871  1.00  0.00     0.027 C 
HETATM   15  C5  UNL     1       2.076  36.224   2.236  1.00  0.00     0.007 C 
ENDBRANCH  11  14
ENDBRANCH  10  11
ENDBRANCH   9  10
ENDBRANCH   8   9
BRANCH   8  16
HETATM   16  O2  UNL     1      -1.943  38.989   0.003  1.00  0.00    -0.392 OA
ATOM     17  H2  UNL     1      -1.956  39.140  -0.934  1.00  0.00     0.210 HD
ENDBRANCH   8  16
ENDBRANCH   7   8
ENDBRANCH   1   7
BRANCH   4  18
HETATM   18  C11 UNL     1       1.031  44.148  -1.113  1.00  0.00     0.009 C 
HETATM   19  C12 UNL     1       0.466  45.553  -1.096  1.00  0.00     0.032 C 
HETATM   20  C13 UNL     1       1.430  43.829  -2.533  1.00  0.00     0.032 C 
BRANCH  18  21
HETATM   21  C14 UNL     1       2.274  44.150  -0.221  1.00  0.00     0.020 C 
HETATM   22  C15 UNL     1       3.498  44.582  -0.986  1.00  0.00     0.007 C 
ENDBRANCH  18  21
ENDBRANCH   4  18
TORSDOF 10
ENDMDL
MODEL 4
REMARK VINA RESULT: -5.110805096      0.421      1.358
REMARK  10 active torsions:
REMARK  status: ('A' for Active; 'I' for Inactive)
REMARK    1  A    between atoms: C2_2  and  C3_3 
REMARK    2  A    between atoms: C3_3  and  C4_4 
REMARK    3  A    between atoms: C3_3  and  O1_6 
REMARK    4  A    between atoms: O1_6  and  C6_7 
REMARK    5  A    between atoms: C6_7  and  C7_8 
REMARK    6  A    between atoms: C7_8  and  O2_9 
REMARK    7  A    between atoms: C7_8  and  C8_11 
REMARK    8  A    between atoms: C8_11  and  N1_12 
REMARK    9  A    between atoms: N2_15  and  C11_16 
REMARK   10  A    between atoms: C11_16  and  C14_19 
ROOT
HETATM    1  N1  UNL     1      -3.550  41.764   0.720  1.00  0.00    -0.288 NA
HETATM    2  C9  UNL     1      -4.998  41.858   0.830  1.00  0.00     0.110 C 
HETATM    3  C10 UNL     1      -5.788  42.138  -0.354  1.00  0.00     0.110 C 
HETATM    4  N2  UNL     1      -5.221  41.852  -1.628  1.00  0.00    -0.282 NA
HETATM    5  C16 UNL     1      -3.831  41.982  -1.735  1.00  0.00     0.072 C 
HETATM    6  C17 UNL     1      -3.119  42.375  -0.463  1.00  0.00     0.071 C 
ENDROOT
BRANCH   1   7
HETATM    7  C8  UNL     1      -3.073  40.494   1.106  1.00  0.00     0.128 C 
BRANCH   7   8
HETATM    8  C7  UNL     1      -1.666  40.215   0.740  1.00  0.00     0.155 C 
BRANCH   8   9
HETATM    9  C6  UNL     1      -0.836  39.793   1.953  1.00  0.00     0.201 C 
BRANCH   9  10
HETATM   10  O1  UNL     1      -0.176  38.627   1.632  1.00  0.00    -0.383 OA
BRANCH  10  11
HETATM   11  C3  UNL     1       1.040  38.481   2.272  1.00  0.00     0.120 C 
BRANCH  11  12
HETATM   12  C2  UNL     1       1.806  39.776   2.378  1.00  0.00     0.027 C 
HETATM   13  C1  UNL     1       3.259  39.473   2.772  1.00  0.00     0.007 C 
ENDBRANCH  11  12
BRANCH  11  14
HETATM   14  C4  UNL     1       1.842  37.436   1.554  1.00  0.00     0.027 C 
HETATM   15  C5  UNL     1       2.005  36.153   2.331  1.00  0.00     0.007 C 
ENDBRANCH  11  14
ENDBRANCH  10  11
ENDBRANCH   9  10
ENDBRANCH   8   9
BRANCH   8  16
HETATM   16  O2  UNL     1      -1.440  39.277  -0.227  1.00  0.00    -0.392 OA
ATOM     17  H2  UNL     1      -2.133  38.633  -0.142  1.00  0.00     0.210 HD
ENDBRANCH   8  16
ENDBRANCH   7   8
ENDBRANCH   1   7
BRANCH   4  18
HETATM   18  C11 UNL     1      -5.904  42.589  -2.666  1.00  0.00     0.009 C 
HETATM   19  C12 UNL     1      -6.267  43.997  -2.241  1.00  0.00     0.032 C 
HETATM   20  C13 UNL     1      -7.178  41.885  -3.064  1.00  0.00     0.032 C 
BRANCH  18  21
HETATM   21  C14 UNL     1      -4.984  42.707  -3.883  1.00  0.00     0.020 C 
HETATM   22  C15 UNL     1      -5.697  42.313  -5.150  1.00  0.00     0.007 C 
ENDBRANCH  18  21
ENDBRANCH   4  18
TORSDOF 10
ENDMDL
MODEL 5
REMARK VINA RESULT: -5.038946713      1.097      2.086
REMARK  10 active torsions:
REMARK  status: ('A' for Active; 'I' for Inactive)
REMARK    1  A    between atoms: C2_2  and  C3_3 
REMARK    2  A    between atoms: C3_3  and  C4_4 
REMARK    3  A    between atoms: C3_3  and  O1_6 
REMARK    4  A    between atoms: O1_6  and  C6_7 
REMARK    5  A    between atoms: C6_7  and  C7_8 
REMARK    6  A    between atoms: C7_8  and  O2_9 
REMARK    7  A    between atoms: C7_8  and  C8_11 
REMARK    8  A    between atoms: C8_11  and  N1_12 
REMARK    9  A    between atoms: N2_15  and  C11_16 
REMARK   10  A    between atoms: C11_16  and  C14_19 
ROOT
HETATM    1  N1  UNL     1      -2.616  40.960  -0.054  1.00  0.00    -0.288 NA
HETATM    2  C9  UNL     1      -2.307  41.724  -1.253  1.00  0.00     0.110 C 
HETATM    3  C10 UNL     1      -3.388  42.276  -2.046  1.00  0.00     0.110 C 
HETATM    4  N2  UNL     1      -4.652  42.474  -1.422  1.00  0.00    -0.282 NA
HETATM    5  C16 UNL     1      -4.994  41.573  -0.406  1.00  0.00     0.072 C 
HETATM    6  C17 UNL     1      -3.948  40.532  -0.089  1.00  0.00     0.071 C 
ENDROOT
BRANCH   1   7
HETATM    7  C8  UNL     1      -2.065  41.548   1.103  1.00  0.00     0.128 C 
BRANCH   7   8
HETATM    8  C7  UNL     1      -1.281  40.631   1.961  1.00  0.00     0.155 C 
BRANCH   8   9
HETATM    9  C6  UNL     1      -0.319  39.768   1.142  1.00  0.00     0.201 C 
BRANCH   9  10
HETATM   10  O1  UNL     1      -0.245  38.529   1.739  1.00  0.00    -0.383 OA
BRANCH  10  11
HETATM   11  C3  UNL     1       0.887  38.350   2.511  1.00  0.00     0.120 C 
BRANCH  11  12
HETATM   12  C2  UNL     1       2.144  38.824   1.826  1.00  0.00     0.027 C 
HETATM   13  C1  UNL     1       2.998  39.618   2.828  1.00  0.00     0.007 C 
ENDBRANCH  11  12
BRANCH  11  14
HETATM   14  C4  UNL     1       0.991  36.902   2.889  1.00  0.00     0.027 C 
HETATM   15  C5  UNL     1       2.123  36.175   2.208  1.00  0.00     0.007 C 
ENDBRANCH  11  14
ENDBRANCH  10  11
ENDBRANCH   9  10
ENDBRANCH   8   9
BRANCH   8  16
HETATM   16  O2  UNL     1      -0.540  41.185   2.966  1.00  0.00    -0.392 OA
ATOM     17  H2  UNL     1      -1.160  41.553   3.584  1.00  0.00     0.210 HD
ENDBRANCH   8  16
ENDBRANCH   7   8
ENDBRANCH   1   7
BRANCH   4  18
HETATM   18  C11 UNL     1      -5.698  42.578  -2.413  1.00  0.00     0.009 C 
HETATM   19  C12 UNL     1      -6.552  43.817  -2.235  1.00  0.00     0.032 C 
HETATM   20  C13 UNL     1      -6.610  41.377  -2.347  1.00  0.00     0.032 C 
BRANCH  18  21
HETATM   21  C14 UNL     1      -5.064  42.662  -3.803  1.00  0.00     0.020 C 
HETATM   22  C15 UNL     1      -5.941  42.022  -4.846  1.00  0.00     0.007 C 
ENDBRANCH  18  21
ENDBRANCH   4  18
TORSDOF 10
ENDMDL
