MODEL 1
REMARK VINA RESULT: -6.453972651      0.000      0.000
REMARK  4 active torsions:
REMARK  status: ('A' for Active; 'I' for Inactive)
REMARK    1  A    between atoms: C2_2  and  N1_3 
REMARK    2  A    between atoms: N2_6  and  C5_7 
REMARK    3  A    between atoms: C5_7  and  C6_8 
REMARK    4  A    between atoms: C8_12  and  N4_13 
ROOT
HETATM    1  C6  UNL     1      -2.478   4.137  12.877  1.00  0.00    -0.002 A 
HETATM    2  C7  UNL     1      -1.593   3.530  12.004  1.00  0.00     0.099 A 
HETATM    3  N3  UNL     1      -0.451   4.086  11.563  1.00  0.00    -0.350 N 
ATOM      4  H3  UNL     1       0.158   3.582  10.918  1.00  0.00     0.166 HD
HETATM    5  C8  UNL     1      -0.131   5.305  11.985  1.00  0.00     0.126 A 
HETATM    6  C9  UNL     1      -0.939   6.001  12.855  1.00  0.00     0.088 A 
HETATM    7  N5  UNL     1      -0.828   7.226  13.415  1.00  0.00    -0.356 N 
ATOM      8  H5  UNL     1      -0.056   7.872  13.257  1.00  0.00     0.166 HD
HETATM    9  C10 UNL     1      -1.878   7.468  14.206  1.00  0.00     0.012 A 
HETATM   10  C11 UNL     1      -2.206   8.658  15.024  1.00  0.00     0.068 C 
HETATM   11  C12 UNL     1      -2.688   6.326  14.134  1.00  0.00    -0.026 A 
HETATM   12  C13 UNL     1      -3.955   6.144  14.845  1.00  0.00     0.051 C 
HETATM   13  C14 UNL     1      -2.116   5.401  13.296  1.00  0.00     0.012 A 
ENDROOT
BRANCH   1  14
HETATM   14  C5  UNL     1      -3.677   3.479  13.359  1.00  0.00     0.313 C 
BRANCH  14  15
HETATM   15  N2  UNL     1      -3.444   2.244  14.122  1.00  0.00     0.096 N 
HETATM   16  C4  UNL     1      -3.276   2.614  15.533  1.00  0.00     0.303 C 
HETATM   17  C3  UNL     1      -4.521   2.392  16.318  1.00  0.00     0.302 C 
HETATM   18  N1  UNL     1      -4.814   0.966  16.401  1.00  0.00     0.091 N 
HETATM   19  C16 UNL     1      -4.460   0.325  15.134  1.00  0.00     0.302 C 
HETATM   20  C15 UNL     1      -4.571   1.344  14.000  1.00  0.00     0.303 C 
BRANCH  18  21
HETATM   21  C2  UNL     1      -6.199   0.751  16.729  1.00  0.00     0.268 C 
HETATM   22  C1  UNL     1      -6.900   2.027  17.131  1.00  0.00     0.037 C 
ENDBRANCH  18  21
ENDBRANCH  14  15
ENDBRANCH   1  14
BRANCH   5  23
HETATM   23  N4  UNL     1       0.973   5.871  11.572  1.00  0.00    -0.384 N 
ATOM     24  H42 UNL     1       1.443   5.480  10.756  1.00  0.00     0.157 HD
ATOM     25  H41 UNL     1       1.344   6.684  12.064  1.00  0.00     0.157 HD
ENDBRANCH   5  23
TORSDOF 4
ENDMDL
MODEL 2
REMARK VINA RESULT: -6.252382355      1.918      6.780
REMARK  4 active torsions:
REMARK  status: ('A' for Active; 'I' for Inactive)
REMARK    1  A    between atoms: C2_2  and  N1_3 
REMARK    2  A    between atoms: N2_6  and  C5_7 
REMARK    3  A    between atoms: C5_7  and  C6_8 
REMARK    4  A    between atoms: C8_12  and  N4_13 
ROOT
HETATM    1  C6  UNL     1      -3.363   3.604  13.911  1.00  0.00    -0.002 A 
HETATM    2  C7  UNL     1      -3.246   3.445  15.280  1.00  0.00     0.099 A 
HETATM    3  N3  UNL     1      -3.512   2.306  15.942  1.00  0.00    -0.350 N 
ATOM      4  H3  UNL     1      -3.406   2.256  16.956  1.00  0.00     0.166 HD
HETATM    5  C8  UNL     1      -3.915   1.245  15.251  1.00  0.00     0.126 A 
HETATM    6  C9  UNL     1      -4.065   1.291  13.884  1.00  0.00     0.088 A 
HETATM    7  N5  UNL     1      -4.451   0.363  12.980  1.00  0.00    -0.356 N 
ATOM      8  H5  UNL     1      -4.713  -0.596  13.205  1.00  0.00     0.166 HD
HETATM    9  C10 UNL     1      -4.441   0.885  11.750  1.00  0.00     0.012 A 
HETATM   10  C11 UNL     1      -4.782   0.271  10.446  1.00  0.00     0.068 C 
HETATM   11  C12 UNL     1      -4.022   2.215  11.898  1.00  0.00    -0.026 A 
HETATM   12  C13 UNL     1      -3.863   3.176  10.804  1.00  0.00     0.051 C 
HETATM   13  C14 UNL     1      -3.784   2.484  13.222  1.00  0.00     0.012 A 
ENDROOT
BRANCH   1  14
HETATM   14  C5  UNL     1      -3.024   4.842  13.235  1.00  0.00     0.313 C 
BRANCH  14  15
HETATM   15  N2  UNL     1      -2.294   5.818  14.057  1.00  0.00     0.096 N 
HETATM   16  C4  UNL     1      -1.100   6.231  13.307  1.00  0.00     0.303 C 
HETATM   17  C3  UNL     1      -1.295   7.543  12.630  1.00  0.00     0.302 C 
HETATM   18  N1  UNL     1      -1.425   8.604  13.622  1.00  0.00     0.091 N 
HETATM   19  C16 UNL     1      -2.175   8.101  14.774  1.00  0.00     0.302 C 
HETATM   20  C15 UNL     1      -3.113   6.982  14.320  1.00  0.00     0.303 C 
BRANCH  18  21
HETATM   21  C2  UNL     1      -2.061   9.761  13.047  1.00  0.00     0.268 C 
HETATM   22  C1  UNL     1      -2.096  10.931  14.000  1.00  0.00     0.037 C 
ENDBRANCH  18  21
ENDBRANCH  14  15
ENDBRANCH   1  14
BRANCH   5  23
HETATM   23  N4  UNL     1      -4.181   0.124  15.869  1.00  0.00    -0.384 N 
ATOM     24  H42 UNL     1      -4.108   0.101  16.886  1.00  0.00     0.157 HD
ATOM     25  H41 UNL     1      -4.454  -0.701  15.334  1.00  0.00     0.157 HD
ENDBRANCH   5  23
TORSDOF 4
ENDMDL
MODEL 3
REMARK VINA RESULT: -6.203674266      1.941      6.050
REMARK  4 active torsions:
REMARK  status: ('A' for Active; 'I' for Inactive)
REMARK    1  A    between atoms: C2_2  and  N1_3 
REMARK    2  A    between atoms: N2_6  and  C5_7 
REMARK    3  A    between atoms: C5_7  and  C6_8 
REMARK    4  A    between atoms: C8_12  and  N4_13 
ROOT
HETATM    1  C6  UNL     1      -4.080   2.870  12.111  1.00  0.00    -0.002 A 
HETATM    2  C7  UNL     1      -3.732   2.185  10.961  1.00  0.00     0.099 A 
HETATM    3  N3  UNL     1      -3.605   0.849  10.876  1.00  0.00    -0.350 N 
ATOM      4  H3  UNL     1      -3.345   0.406   9.995  1.00  0.00     0.166 HD
HETATM    5  C8  UNL     1      -3.826   0.117  11.963  1.00  0.00     0.126 A 
HETATM    6  C9  UNL     1      -4.179   0.695  13.161  1.00  0.00     0.088 A 
HETATM    7  N5  UNL     1      -4.452   0.172  14.377  1.00  0.00    -0.356 N 
ATOM      8  H5  UNL     1      -4.433  -0.822  14.602  1.00  0.00     0.166 HD
HETATM    9  C10 UNL     1      -4.750   1.146  15.242  1.00  0.00     0.012 A 
HETATM   10  C11 UNL     1      -5.112   1.076  16.676  1.00  0.00     0.068 C 
HETATM   11  C12 UNL     1      -4.658   2.345  14.521  1.00  0.00    -0.026 A 
HETATM   12  C13 UNL     1      -4.903   3.681  15.069  1.00  0.00     0.051 C 
HETATM   13  C14 UNL     1      -4.303   2.081  13.221  1.00  0.00     0.012 A 
ENDROOT
BRANCH   1  14
HETATM   14  C5  UNL     1      -4.247   4.311  12.143  1.00  0.00     0.313 C 
BRANCH  14  15
HETATM   15  N2  UNL     1      -3.045   5.083  11.795  1.00  0.00     0.096 N 
HETATM   16  C4  UNL     1      -3.435   6.495  11.690  1.00  0.00     0.303 C 
HETATM   17  C3  UNL     1      -3.087   7.261  12.919  1.00  0.00     0.302 C 
HETATM   18  N1  UNL     1      -1.639   7.346  13.063  1.00  0.00     0.091 N 
HETATM   19  C16 UNL     1      -1.034   6.088  12.622  1.00  0.00     0.302 C 
HETATM   20  C15 UNL     1      -2.032   4.948  12.821  1.00  0.00     0.303 C 
BRANCH  18  21
HETATM   21  C2  UNL     1      -1.281   7.653  14.423  1.00  0.00     0.268 C 
HETATM   22  C1  UNL     1      -2.360   8.429  15.140  1.00  0.00     0.037 C 
ENDBRANCH  18  21
ENDBRANCH  14  15
ENDBRANCH   1  14
BRANCH   5  23
HETATM   23  N4  UNL     1      -3.710  -1.184  11.910  1.00  0.00    -0.384 N 
ATOM     24  H42 UNL     1      -2.796  -1.581  11.693  1.00  0.00     0.157 HD
ATOM     25  H41 UNL     1      -4.522  -1.776  12.085  1.00  0.00     0.157 HD
ENDBRANCH   5  23
TORSDOF 4
ENDMDL
MODEL 4
REMARK VINA RESULT: -6.201912223      1.808      6.114
REMARK  4 active torsions:
REMARK  status: ('A' for Active; 'I' for Inactive)
REMARK    1  A    between atoms: C2_2  and  N1_3 
REMARK    2  A    between atoms: N2_6  and  C5_7 
REMARK    3  A    between atoms: C5_7  and  C6_8 
REMARK    4  A    between atoms: C8_12  and  N4_13 
ROOT
HETATM    1  C6  UNL     1      -4.177   3.381  13.325  1.00  0.00    -0.002 A 
HETATM    2  C7  UNL     1      -3.476   2.283  12.859  1.00  0.00     0.099 A 
HETATM    3  N3  UNL     1      -3.494   1.066  13.429  1.00  0.00    -0.350 N 
ATOM      4  H3  UNL     1      -2.951   0.298  13.035  1.00  0.00     0.166 HD
HETATM    5  C8  UNL     1      -4.233   0.883  14.519  1.00  0.00     0.126 A 
HETATM    6  C9  UNL     1      -4.973   1.906  15.067  1.00  0.00     0.088 A 
HETATM    7  N5  UNL     1      -5.785   1.963  16.145  1.00  0.00    -0.356 N 
ATOM      8  H5  UNL     1      -5.986   1.180  16.767  1.00  0.00     0.166 HD
HETATM    9  C10 UNL     1      -6.289   3.193  16.279  1.00  0.00     0.012 A 
HETATM   10  C11 UNL     1      -7.216   3.744  17.294  1.00  0.00     0.068 C 
HETATM   11  C12 UNL     1      -5.758   3.945  15.221  1.00  0.00    -0.026 A 
HETATM   12  C13 UNL     1      -6.038   5.361  14.968  1.00  0.00     0.051 C 
HETATM   13  C14 UNL     1      -4.936   3.157  14.456  1.00  0.00     0.012 A 
ENDROOT
BRANCH   1  14
HETATM   14  C5  UNL     1      -4.161   4.664  12.649  1.00  0.00     0.313 C 
BRANCH  14  15
HETATM   15  N2  UNL     1      -2.851   5.333  12.618  1.00  0.00     0.096 N 
HETATM   16  C4  UNL     1      -2.980   6.530  11.776  1.00  0.00     0.303 C 
HETATM   17  C3  UNL     1      -3.146   7.766  12.590  1.00  0.00     0.302 C 
HETATM   18  N1  UNL     1      -1.926   8.039  13.340  1.00  0.00     0.091 N 
HETATM   19  C16 UNL     1      -1.341   6.775  13.789  1.00  0.00     0.302 C 
HETATM   20  C15 UNL     1      -2.446   5.731  13.949  1.00  0.00     0.303 C 
BRANCH  18  21
HETATM   21  C2  UNL     1      -2.199   8.915  14.450  1.00  0.00     0.268 C 
HETATM   22  C1  UNL     1      -1.134   8.838  15.518  1.00  0.00     0.037 C 
ENDBRANCH  18  21
ENDBRANCH  14  15
ENDBRANCH   1  14
BRANCH   5  23
HETATM   23  N4  UNL     1      -4.270  -0.290  15.095  1.00  0.00    -0.384 N 
ATOM     24  H42 UNL     1      -4.301  -1.120  14.504  1.00  0.00     0.157 HD
ATOM     25  H41 UNL     1      -4.267  -0.358  16.113  1.00  0.00     0.157 HD
ENDBRANCH   5  23
TORSDOF 4
ENDMDL
MODEL 5
REMARK VINA RESULT: -6.163134384      2.585      6.454
REMARK  4 active torsions:
REMARK  status: ('A' for Active; 'I' for Inactive)
REMARK    1  A    between atoms: C2_2  and  N1_3 
REMARK    2  A    between atoms: N2_6  and  C5_7 
REMARK    3  A    between atoms: C5_7  and  C6_8 
REMARK    4  A    between atoms: C8_12  and  N4_13 
ROOT
HETATM    1  C6  UNL     1      -4.084   1.590  13.576  1.00  0.00    -0.002 A 
HETATM    2  C7  UNL     1      -3.931   0.310  14.078  1.00  0.00     0.099 A 
HETATM    3  N3  UNL     1      -4.426  -0.115  15.253  1.00  0.00    -0.350 N 
ATOM      4  H3  UNL     1      -4.275  -1.074  15.565  1.00  0.00     0.166 HD
HETATM    5  C8  UNL     1      -5.117   0.740  16.001  1.00  0.00     0.126 A 
HETATM    6  C9  UNL     1      -5.332   2.038  15.598  1.00  0.00     0.088 A 
HETATM    7  N5  UNL     1      -5.989   3.070  16.171  1.00  0.00    -0.356 N 
ATOM      8  H5  UNL     1      -6.466   3.031  17.071  1.00  0.00     0.166 HD
HETATM    9  C10 UNL     1      -5.924   4.151  15.387  1.00  0.00     0.012 A 
HETATM   10  C11 UNL     1      -6.482   5.509  15.580  1.00  0.00     0.068 C 
HETATM   11  C12 UNL     1      -5.184   3.767  14.260  1.00  0.00    -0.026 A 
HETATM   12  C13 UNL     1      -4.859   4.637  13.127  1.00  0.00     0.051 C 
HETATM   13  C14 UNL     1      -4.807   2.452  14.376  1.00  0.00     0.012 A 
ENDROOT
BRANCH   1  14
HETATM   14  C5  UNL     1      -3.568   1.990  12.281  1.00  0.00     0.313 C 
BRANCH  14  15
HETATM   15  N2  UNL     1      -2.108   2.160  12.220  1.00  0.00     0.096 N 
HETATM   16  C4  UNL     1      -1.618   1.404  11.060  1.00  0.00     0.303 C 
HETATM   17  C3  UNL     1      -1.371   2.286   9.886  1.00  0.00     0.302 C 
HETATM   18  N1  UNL     1      -0.261   3.190  10.163  1.00  0.00     0.091 N 
HETATM   19  C16 UNL     1      -0.313   3.605  11.566  1.00  0.00     0.302 C 
HETATM   20  C15 UNL     1      -1.760   3.556  12.057  1.00  0.00     0.303 C 
BRANCH  18  21
HETATM   21  C2  UNL     1      -0.298   4.324   9.278  1.00  0.00     0.268 C 
HETATM   22  C1  UNL     1      -0.216   3.923   7.825  1.00  0.00     0.037 C 
ENDBRANCH  18  21
ENDBRANCH  14  15
ENDBRANCH   1  14
BRANCH   5  23
HETATM   23  N4  UNL     1      -5.610   0.355  17.148  1.00  0.00    -0.384 N 
ATOM     24  H42 UNL     1      -6.622   0.251  17.231  1.00  0.00     0.157 HD
ATOM     25  H41 UNL     1      -4.988   0.165  17.934  1.00  0.00     0.157 HD
ENDBRANCH   5  23
TORSDOF 4
ENDMDL
