MODEL 1
REMARK VINA RESULT: -6.504870011      0.000      0.000
REMARK  5 active torsions:
REMARK  status: ('A' for Active; 'I' for Inactive)
REMARK    1  A    between atoms: C2_2  and  C3_3 
REMARK    2  A    between atoms: C3_3  and  C6_6 
REMARK    3  A    between atoms: C6_6  and  C7_7 
REMARK    4  A    between atoms: C7_7  and  O1_8 
REMARK    5  A    between atoms: N1_11  and  C9_12 
ROOT
HETATM    1  C7  UNL     1      -4.875   2.142  12.163  1.00  0.00     0.070 C 
HETATM    2  C8  UNL     1      -4.710   2.728  13.311  1.00  0.00     0.083 C 
HETATM    3  N1  UNL     1      -4.828   4.190  13.479  1.00  0.00    -0.231 N 
HETATM    4  N3  UNL     1      -5.450   4.369  14.764  1.00  0.00    -0.260 N 
ATOM      5  H3  UNL     1      -5.690   5.258  15.201  1.00  0.00     0.190 HD
HETATM    6  C10 UNL     1      -5.668   3.075  15.311  1.00  0.00     0.250 C 
HETATM    7  O2  UNL     1      -6.557   2.701  16.054  1.00  0.00    -0.271 OA
HETATM    8  C11 UNL     1      -4.480   2.307  14.705  1.00  0.00     0.082 C 
HETATM    9  C12 UNL     1      -3.261   2.991  15.297  1.00  0.00     0.032 C 
HETATM   10  C13 UNL     1      -4.529   0.901  15.097  1.00  0.00     0.032 C 
ENDROOT
BRANCH   1  11
HETATM   11  C6  UNL     1      -4.766   0.713  11.920  1.00  0.00     0.079 C 
BRANCH  11  12
HETATM   12  C3  UNL     1      -3.412   0.242  11.429  1.00  0.00    -0.025 C 
HETATM   13  C4  UNL     1      -3.596  -0.082   9.964  1.00  0.00     0.019 C 
HETATM   14  C5  UNL     1      -2.325   1.271  11.660  1.00  0.00     0.019 C 
BRANCH  12  15
HETATM   15  C2  UNL     1      -2.954  -0.991  12.123  1.00  0.00    -0.028 C 
HETATM   16  C1  UNL     1      -2.926  -2.121  11.398  1.00  0.00     0.007 C 
ENDBRANCH  12  15
ENDBRANCH  11  12
ENDBRANCH   1  11
BRANCH   1  17
HETATM   17  O1  UNL     1      -5.196   2.895  11.010  1.00  0.00    -0.363 OA
ATOM     18  H1  UNL     1      -6.000   2.621  10.584  1.00  0.00     0.217 HD
ENDBRANCH   1  17
BRANCH   3  19
HETATM   19  C9  UNL     1      -4.372   5.234  12.677  1.00  0.00     0.206 C 
HETATM   20  N2  UNL     1      -5.304   5.854  11.766  1.00  0.00    -0.068 NA
HETATM   21  S1  UNL     1      -2.897   5.868  12.752  1.00  0.00    -0.042 SA
ENDBRANCH   3  19
TORSDOF 5
ENDMDL
MODEL 2
REMARK VINA RESULT: -6.497200711      0.336      1.287
REMARK  5 active torsions:
REMARK  status: ('A' for Active; 'I' for Inactive)
REMARK    1  A    between atoms: C2_2  and  C3_3 
REMARK    2  A    between atoms: C3_3  and  C6_6 
REMARK    3  A    between atoms: C6_6  and  C7_7 
REMARK    4  A    between atoms: C7_7  and  O1_8 
REMARK    5  A    between atoms: N1_11  and  C9_12 
ROOT
HETATM    1  C7  UNL     1      -4.873   1.998  12.196  1.00  0.00     0.070 C 
HETATM    2  C8  UNL     1      -4.707   2.599  13.335  1.00  0.00     0.083 C 
HETATM    3  N1  UNL     1      -4.829   4.064  13.484  1.00  0.00    -0.231 N 
HETATM    4  N3  UNL     1      -5.448   4.258  14.767  1.00  0.00    -0.260 N 
ATOM      5  H3  UNL     1      -5.690   5.153  15.193  1.00  0.00     0.190 HD
HETATM    6  C10 UNL     1      -5.661   2.972  15.332  1.00  0.00     0.250 C 
HETATM    7  O2  UNL     1      -6.548   2.605  16.082  1.00  0.00    -0.271 OA
HETATM    8  C11 UNL     1      -4.473   2.198  14.734  1.00  0.00     0.082 C 
HETATM    9  C12 UNL     1      -3.254   2.894  15.314  1.00  0.00     0.032 C 
HETATM   10  C13 UNL     1      -4.517   0.798  15.145  1.00  0.00     0.032 C 
ENDROOT
BRANCH   1  11
HETATM   11  C6  UNL     1      -4.761   0.565  11.972  1.00  0.00     0.079 C 
BRANCH  11  12
HETATM   12  C3  UNL     1      -3.460   0.110  11.343  1.00  0.00    -0.025 C 
HETATM   13  C4  UNL     1      -3.193  -1.268  11.905  1.00  0.00     0.019 C 
HETATM   14  C5  UNL     1      -3.518   0.113   9.830  1.00  0.00     0.019 C 
BRANCH  12  15
HETATM   15  C2  UNL     1      -2.316   0.988  11.704  1.00  0.00    -0.028 C 
HETATM   16  C1  UNL     1      -1.583   1.479  10.691  1.00  0.00     0.007 C 
ENDBRANCH  12  15
ENDBRANCH  11  12
ENDBRANCH   1  11
BRANCH   1  17
HETATM   17  O1  UNL     1      -5.199   2.734  11.033  1.00  0.00    -0.363 OA
ATOM     18  H1  UNL     1      -5.296   3.667  11.184  1.00  0.00     0.217 HD
ENDBRANCH   1  17
BRANCH   3  19
HETATM   19  C9  UNL     1      -4.377   5.098  12.666  1.00  0.00     0.206 C 
HETATM   20  N2  UNL     1      -5.337   5.777  11.829  1.00  0.00    -0.068 NA
HETATM   21  S1  UNL     1      -2.872   5.659  12.648  1.00  0.00    -0.042 SA
ENDBRANCH   3  19
TORSDOF 5
ENDMDL
MODEL 3
REMARK VINA RESULT: -6.494539857      2.554      3.454
REMARK  5 active torsions:
REMARK  status: ('A' for Active; 'I' for Inactive)
REMARK    1  A    between atoms: C2_2  and  C3_3 
REMARK    2  A    between atoms: C3_3  and  C6_6 
REMARK    3  A    between atoms: C6_6  and  C7_7 
REMARK    4  A    between atoms: C7_7  and  O1_8 
REMARK    5  A    between atoms: N1_11  and  C9_12 
ROOT
HETATM    1  C7  UNL     1      -4.580   1.150  13.265  1.00  0.00     0.070 C 
HETATM    2  C8  UNL     1      -4.345   2.293  13.835  1.00  0.00     0.083 C 
HETATM    3  N1  UNL     1      -4.275   2.447  15.302  1.00  0.00    -0.231 N 
HETATM    4  N3  UNL     1      -3.232   3.411  15.528  1.00  0.00    -0.260 N 
ATOM      5  H3  UNL     1      -2.910   3.753  16.433  1.00  0.00     0.190 HD
HETATM    6  C10 UNL     1      -2.735   3.801  14.255  1.00  0.00     0.250 C 
HETATM    7  O2  UNL     1      -1.609   4.147  13.949  1.00  0.00    -0.271 OA
HETATM    8  C11 UNL     1      -4.006   3.659  13.398  1.00  0.00     0.082 C 
HETATM    9  C12 UNL     1      -4.961   4.682  13.988  1.00  0.00     0.032 C 
HETATM   10  C13 UNL     1      -3.715   3.964  12.000  1.00  0.00     0.032 C 
ENDROOT
BRANCH   1  11
HETATM   11  C6  UNL     1      -4.671   0.924  11.831  1.00  0.00     0.079 C 
BRANCH  11  12
HETATM   12  C3  UNL     1      -3.595   0.031  11.247  1.00  0.00    -0.025 C 
HETATM   13  C4  UNL     1      -3.912  -0.085   9.774  1.00  0.00     0.019 C 
HETATM   14  C5  UNL     1      -2.201   0.567  11.497  1.00  0.00     0.019 C 
BRANCH  12  15
HETATM   15  C2  UNL     1      -3.611  -1.335  11.834  1.00  0.00    -0.028 C 
HETATM   16  C1  UNL     1      -2.644  -2.179  11.438  1.00  0.00     0.007 C 
ENDBRANCH  12  15
ENDBRANCH  11  12
ENDBRANCH   1  11
BRANCH   1  17
HETATM   17  O1  UNL     1      -4.767  -0.018  14.040  1.00  0.00    -0.363 OA
ATOM     18  H1  UNL     1      -4.361   0.021  14.897  1.00  0.00     0.217 HD
ENDBRANCH   1  17
BRANCH   3  19
HETATM   19  C9  UNL     1      -5.071   1.902  16.309  1.00  0.00     0.206 C 
HETATM   20  N2  UNL     1      -4.613   0.704  16.970  1.00  0.00    -0.068 NA
HETATM   21  S1  UNL     1      -6.430   2.562  16.858  1.00  0.00    -0.042 SA
ENDBRANCH   3  19
TORSDOF 5
ENDMDL
MODEL 4
REMARK VINA RESULT: -6.384880525      2.657      5.085
REMARK  5 active torsions:
REMARK  status: ('A' for Active; 'I' for Inactive)
REMARK    1  A    between atoms: C2_2  and  C3_3 
REMARK    2  A    between atoms: C3_3  and  C6_6 
REMARK    3  A    between atoms: C6_6  and  C7_7 
REMARK    4  A    between atoms: C7_7  and  O1_8 
REMARK    5  A    between atoms: N1_11  and  C9_12 
ROOT
HETATM    1  C7  UNL     1      -4.350   1.207  15.064  1.00  0.00     0.070 C 
HETATM    2  C8  UNL     1      -4.007   2.055  14.142  1.00  0.00     0.083 C 
HETATM    3  N1  UNL     1      -4.019   1.711  12.706  1.00  0.00    -0.231 N 
HETATM    4  N3  UNL     1      -4.462   2.907  12.039  1.00  0.00    -0.260 N 
ATOM      5  H3  UNL     1      -4.593   3.026  11.035  1.00  0.00     0.190 HD
HETATM    6  C10 UNL     1      -4.683   3.891  13.040  1.00  0.00     0.250 C 
HETATM    7  O2  UNL     1      -5.492   4.801  13.050  1.00  0.00    -0.271 OA
HETATM    8  C11 UNL     1      -3.628   3.478  14.082  1.00  0.00     0.082 C 
HETATM    9  C12 UNL     1      -2.306   3.670  13.360  1.00  0.00     0.032 C 
HETATM   10  C13 UNL     1      -3.708   4.341  15.257  1.00  0.00     0.032 C 
ENDROOT
BRANCH   1  11
HETATM   11  C6  UNL     1      -4.355   1.471  16.495  1.00  0.00     0.079 C 
BRANCH  11  12
HETATM   12  C3  UNL     1      -5.728   1.589  17.125  1.00  0.00    -0.025 C 
HETATM   13  C4  UNL     1      -6.274   0.180  17.186  1.00  0.00     0.019 C 
HETATM   14  C5  UNL     1      -5.683   2.249  18.487  1.00  0.00     0.019 C 
BRANCH  12  15
HETATM   15  C2  UNL     1      -6.659   2.411  16.309  1.00  0.00    -0.028 C 
HETATM   16  C1  UNL     1      -6.934   3.646  16.760  1.00  0.00     0.007 C 
ENDBRANCH  12  15
ENDBRANCH  11  12
ENDBRANCH   1  11
BRANCH   1  17
HETATM   17  O1  UNL     1      -4.770  -0.099  14.723  1.00  0.00    -0.363 OA
ATOM     18  H1  UNL     1      -5.687  -0.268  14.907  1.00  0.00     0.217 HD
ENDBRANCH   1  17
BRANCH   3  19
HETATM   19  C9  UNL     1      -3.608   0.554  12.048  1.00  0.00     0.206 C 
HETATM   20  N2  UNL     1      -4.540  -0.544  11.949  1.00  0.00    -0.068 NA
HETATM   21  S1  UNL     1      -2.194   0.376  11.306  1.00  0.00    -0.042 SA
ENDBRANCH   3  19
TORSDOF 5
ENDMDL
MODEL 5
REMARK VINA RESULT: -6.176393977      2.772      4.192
REMARK  5 active torsions:
REMARK  status: ('A' for Active; 'I' for Inactive)
REMARK    1  A    between atoms: C2_2  and  C3_3 
REMARK    2  A    between atoms: C3_3  and  C6_6 
REMARK    3  A    between atoms: C6_6  and  C7_7 
REMARK    4  A    between atoms: C7_7  and  O1_8 
REMARK    5  A    between atoms: N1_11  and  C9_12 
ROOT
HETATM    1  C7  UNL     1      -4.495   2.905  13.425  1.00  0.00     0.070 C 
HETATM    2  C8  UNL     1      -4.274   4.179  13.298  1.00  0.00     0.083 C 
HETATM    3  N1  UNL     1      -3.396   4.731  12.247  1.00  0.00    -0.231 N 
HETATM    4  N3  UNL     1      -4.026   5.959  11.842  1.00  0.00    -0.260 N 
ATOM      5  H3  UNL     1      -3.692   6.601  11.124  1.00  0.00     0.190 HD
HETATM    6  C10 UNL     1      -5.200   6.111  12.628  1.00  0.00     0.250 C 
HETATM    7  O2  UNL     1      -6.253   6.645  12.332  1.00  0.00    -0.271 OA
HETATM    8  C11 UNL     1      -4.761   5.418  13.930  1.00  0.00     0.082 C 
HETATM    9  C12 UNL     1      -3.611   6.274  14.431  1.00  0.00     0.032 C 
HETATM   10  C13 UNL     1      -5.857   5.404  14.895  1.00  0.00     0.032 C 
ENDROOT
BRANCH   1  11
HETATM   11  C6  UNL     1      -5.337   2.289  14.437  1.00  0.00     0.079 C 
BRANCH  11  12
HETATM   12  C3  UNL     1      -4.598   1.699  15.622  1.00  0.00    -0.025 C 
HETATM   13  C4  UNL     1      -4.434   0.229  15.312  1.00  0.00     0.019 C 
HETATM   14  C5  UNL     1      -3.274   2.387  15.876  1.00  0.00     0.019 C 
BRANCH  12  15
HETATM   15  C2  UNL     1      -5.366   1.823  16.889  1.00  0.00    -0.028 C 
HETATM   16  C1  UNL     1      -6.629   2.271  16.793  1.00  0.00     0.007 C 
ENDBRANCH  12  15
ENDBRANCH  11  12
ENDBRANCH   1  11
BRANCH   1  17
HETATM   17  O1  UNL     1      -3.904   1.979  12.533  1.00  0.00    -0.363 OA
ATOM     18  H1  UNL     1      -4.069   2.170  11.617  1.00  0.00     0.217 HD
ENDBRANCH   1  17
BRANCH   3  19
HETATM   19  C9  UNL     1      -2.165   4.286  11.769  1.00  0.00     0.206 C 
HETATM   20  N2  UNL     1      -1.208   3.769  12.717  1.00  0.00    -0.068 NA
HETATM   21  S1  UNL     1      -1.757   4.222  10.216  1.00  0.00    -0.042 SA
ENDBRANCH   3  19
TORSDOF 5
ENDMDL
