MODEL 1
REMARK VINA RESULT: -6.826301685      0.000      0.000
REMARK  5 active torsions:
REMARK  status: ('A' for Active; 'I' for Inactive)
REMARK    1  A    between atoms: C2_2  and  C3_3 
REMARK    2  A    between atoms: C3_3  and  N1_4 
REMARK    3  A    between atoms: N1_4  and  C4_6 
REMARK    4  A    between atoms: C7_11  and  C8_12 
REMARK       I    between atoms: C8_12  and  N3_14 
REMARK    5  A    between atoms: N3_14  and  C9_16 
ROOT
HETATM    1  C4  UNL     1      -4.463   0.766  15.529  1.00  0.00     0.145 A 
HETATM    2  N2  UNL     1      -4.583   0.106  14.373  1.00  0.00    -0.339 N 
ATOM      3  H2  UNL     1      -5.038  -0.806  14.338  1.00  0.00     0.168 HD
HETATM    4  C5  UNL     1      -4.106   0.658  13.289  1.00  0.00     0.030 A 
HETATM    5  C6  UNL     1      -4.191  -0.008  11.928  1.00  0.00     0.070 C 
HETATM    6  C7  UNL     1      -3.507   1.881  13.395  1.00  0.00     0.098 A 
HETATM    7  S1  UNL     1      -3.655   2.198  15.071  1.00  0.00    -0.047 SA
ENDROOT
BRANCH   6   8
HETATM    8  C8  UNL     1      -2.894   2.724  12.373  1.00  0.00     0.266 C 
HETATM    9  O1  UNL     1      -3.470   3.790  12.054  1.00  0.00    -0.267 OA
HETATM   10  N3  UNL     1      -1.700   2.369  11.757  1.00  0.00    -0.307 N 
ATOM     11  H3  UNL     1      -1.613   1.423  11.385  1.00  0.00     0.170 HD
BRANCH  10  12
HETATM   12  C9  UNL     1      -0.699   3.167  11.629  1.00  0.00     0.124 A 
HETATM   13  C10 UNL     1       0.170   3.252  10.570  1.00  0.00     0.076 A 
HETATM   14  C11 UNL     1       1.096   4.253  10.862  1.00  0.00     0.025 A 
HETATM   15  C12 UNL     1       2.212   4.665   9.975  1.00  0.00     0.070 C 
HETATM   16  N4  UNL     1       0.755   4.722  12.067  1.00  0.00    -0.304 N 
HETATM   17  N5  UNL     1      -0.301   4.086  12.523  1.00  0.00    -0.285 N 
ATOM     18  H4  UNL     1       1.246   5.467  12.562  1.00  0.00     0.186 HD
ATOM     19  H5  UNL     1      -0.752   4.265  13.420  1.00  0.00     0.188 HD
ENDBRANCH  10  12
ENDBRANCH   6   8
BRANCH   1  20
HETATM   20  N1  UNL     1      -4.850   0.436  16.732  1.00  0.00    -0.370 N 
ATOM     21  H1  UNL     1      -4.210  -0.006  17.393  1.00  0.00     0.161 HD
BRANCH  20  22
HETATM   22  C3  UNL     1      -6.221   0.723  17.091  1.00  0.00     0.121 C 
BRANCH  22  23
HETATM   23  C2  UNL     1      -6.343   1.999  17.885  1.00  0.00     0.015 C 
HETATM   24  C1  UNL     1      -6.858   3.096  16.989  1.00  0.00     0.006 C 
ENDBRANCH  22  23
ENDBRANCH  20  22
ENDBRANCH   1  20
TORSDOF 5
ENDMDL
MODEL 2
REMARK VINA RESULT: -6.727301254      0.969      1.025
REMARK  5 active torsions:
REMARK  status: ('A' for Active; 'I' for Inactive)
REMARK    1  A    between atoms: C2_2  and  C3_3 
REMARK    2  A    between atoms: C3_3  and  N1_4 
REMARK    3  A    between atoms: N1_4  and  C4_6 
REMARK    4  A    between atoms: C7_11  and  C8_12 
REMARK       I    between atoms: C8_12  and  N3_14 
REMARK    5  A    between atoms: N3_14  and  C9_16 
ROOT
HETATM    1  C4  UNL     1      -4.440   0.670  14.661  1.00  0.00     0.145 A 
HETATM    2  N2  UNL     1      -4.385  -0.163  13.619  1.00  0.00    -0.339 N 
ATOM      3  H2  UNL     1      -4.818  -1.085  13.664  1.00  0.00     0.168 HD
HETATM    4  C5  UNL     1      -3.764   0.232  12.539  1.00  0.00     0.030 A 
HETATM    5  C6  UNL     1      -3.645  -0.638  11.301  1.00  0.00     0.070 C 
HETATM    6  C7  UNL     1      -3.203   1.477  12.534  1.00  0.00     0.098 A 
HETATM    7  S1  UNL     1      -3.593   2.042  14.101  1.00  0.00    -0.047 SA
ENDROOT
BRANCH   6   8
HETATM    8  C8  UNL     1      -2.460   2.174  11.487  1.00  0.00     0.266 C 
HETATM    9  O1  UNL     1      -3.099   2.883  10.675  1.00  0.00    -0.267 OA
HETATM   10  N3  UNL     1      -1.080   2.064  11.378  1.00  0.00    -0.307 N 
ATOM     11  H3  UNL     1      -0.668   1.131  11.397  1.00  0.00     0.170 HD
BRANCH  10  12
HETATM   12  C9  UNL     1      -0.292   3.074  11.256  1.00  0.00     0.124 A 
HETATM   13  C10 UNL     1       0.280   3.550  10.102  1.00  0.00     0.076 A 
HETATM   14  C11 UNL     1       1.056   4.658  10.441  1.00  0.00     0.025 A 
HETATM   15  C12 UNL     1       1.847   5.469   9.482  1.00  0.00     0.070 C 
HETATM   16  N4  UNL     1       0.926   4.801  11.764  1.00  0.00    -0.304 N 
HETATM   17  N5  UNL     1       0.132   3.871  12.248  1.00  0.00    -0.285 N 
ATOM     18  H4  UNL     1       1.378   5.528  12.318  1.00  0.00     0.186 HD
ATOM     19  H5  UNL     1      -0.123   3.771  13.231  1.00  0.00     0.188 HD
ENDBRANCH  10  12
ENDBRANCH   6   8
BRANCH   1  20
HETATM   20  N1  UNL     1      -4.991   0.516  15.836  1.00  0.00    -0.370 N 
ATOM     21  H1  UNL     1      -5.420  -0.369  16.108  1.00  0.00     0.161 HD
BRANCH  20  22
HETATM   22  C3  UNL     1      -4.970   1.649  16.735  1.00  0.00     0.121 C 
BRANCH  22  23
HETATM   23  C2  UNL     1      -6.078   1.582  17.754  1.00  0.00     0.015 C 
HETATM   24  C1  UNL     1      -7.371   1.231  17.064  1.00  0.00     0.006 C 
ENDBRANCH  22  23
ENDBRANCH  20  22
ENDBRANCH   1  20
TORSDOF 5
ENDMDL
MODEL 3
REMARK VINA RESULT: -6.615747665      1.448      1.535
REMARK  5 active torsions:
REMARK  status: ('A' for Active; 'I' for Inactive)
REMARK    1  A    between atoms: C2_2  and  C3_3 
REMARK    2  A    between atoms: C3_3  and  N1_4 
REMARK    3  A    between atoms: N1_4  and  C4_6 
REMARK    4  A    between atoms: C7_11  and  C8_12 
REMARK       I    between atoms: C8_12  and  N3_14 
REMARK    5  A    between atoms: N3_14  and  C9_16 
ROOT
HETATM    1  C4  UNL     1      -4.337   0.701  14.751  1.00  0.00     0.145 A 
HETATM    2  N2  UNL     1      -4.382  -0.223  13.788  1.00  0.00    -0.339 N 
ATOM      3  H2  UNL     1      -4.706  -1.169  13.986  1.00  0.00     0.168 HD
HETATM    4  C5  UNL     1      -4.000   0.115  12.584  1.00  0.00     0.030 A 
HETATM    5  C6  UNL     1      -4.012  -0.858  11.420  1.00  0.00     0.070 C 
HETATM    6  C7  UNL     1      -3.576   1.397  12.376  1.00  0.00     0.098 A 
HETATM    7  S1  UNL     1      -3.742   2.077  13.937  1.00  0.00    -0.047 SA
ENDROOT
BRANCH   6   8
HETATM    8  C8  UNL     1      -3.100   2.048  11.158  1.00  0.00     0.266 C 
HETATM    9  O1  UNL     1      -3.886   2.801  10.539  1.00  0.00    -0.267 OA
HETATM   10  N3  UNL     1      -1.809   1.849  10.684  1.00  0.00    -0.307 N 
ATOM     11  H3  UNL     1      -1.468   0.891  10.604  1.00  0.00     0.170 HD
BRANCH  10  12
HETATM   12  C9  UNL     1      -1.021   2.806  10.340  1.00  0.00     0.124 A 
HETATM   13  C10 UNL     1       0.037   3.312  11.054  1.00  0.00     0.076 A 
HETATM   14  C11 UNL     1       0.605   4.337  10.297  1.00  0.00     0.025 A 
HETATM   15  C12 UNL     1       1.777   5.149  10.709  1.00  0.00     0.070 C 
HETATM   16  N4  UNL     1      -0.122   4.408   9.178  1.00  0.00    -0.304 N 
HETATM   17  N5  UNL     1      -1.081   3.508   9.198  1.00  0.00    -0.285 N 
ATOM     18  H4  UNL     1       0.043   5.067   8.417  1.00  0.00     0.186 HD
ATOM     19  H5  UNL     1      -1.766   3.365   8.457  1.00  0.00     0.188 HD
ENDBRANCH  10  12
ENDBRANCH   6   8
BRANCH   1  20
HETATM   20  N1  UNL     1      -4.659   0.617  16.015  1.00  0.00    -0.370 N 
ATOM     21  H1  UNL     1      -4.701  -0.284  16.493  1.00  0.00     0.161 HD
BRANCH  20  22
HETATM   22  C3  UNL     1      -4.951   1.850  16.711  1.00  0.00     0.121 C 
BRANCH  22  23
HETATM   23  C2  UNL     1      -6.038   1.674  17.741  1.00  0.00     0.015 C 
HETATM   24  C1  UNL     1      -7.304   1.227  17.058  1.00  0.00     0.006 C 
ENDBRANCH  22  23
ENDBRANCH  20  22
ENDBRANCH   1  20
TORSDOF 5
ENDMDL
MODEL 4
REMARK VINA RESULT: -6.506883015      1.290      1.743
REMARK  5 active torsions:
REMARK  status: ('A' for Active; 'I' for Inactive)
REMARK    1  A    between atoms: C2_2  and  C3_3 
REMARK    2  A    between atoms: C3_3  and  N1_4 
REMARK    3  A    between atoms: N1_4  and  C4_6 
REMARK    4  A    between atoms: C7_11  and  C8_12 
REMARK       I    between atoms: C8_12  and  N3_14 
REMARK    5  A    between atoms: N3_14  and  C9_16 
ROOT
HETATM    1  C4  UNL     1      -4.508   0.919  15.685  1.00  0.00     0.145 A 
HETATM    2  N2  UNL     1      -3.915   2.104  15.848  1.00  0.00    -0.339 N 
ATOM      3  H2  UNL     1      -3.871   2.544  16.767  1.00  0.00     0.168 HD
HETATM    4  C5  UNL     1      -3.393   2.687  14.802  1.00  0.00     0.030 A 
HETATM    5  C6  UNL     1      -2.697   4.034  14.879  1.00  0.00     0.070 C 
HETATM    6  C7  UNL     1      -3.481   2.052  13.596  1.00  0.00     0.098 A 
HETATM    7  S1  UNL     1      -4.323   0.623  14.015  1.00  0.00    -0.047 SA
ENDROOT
BRANCH   6   8
HETATM    8  C8  UNL     1      -2.997   2.456  12.278  1.00  0.00     0.266 C 
HETATM    9  O1  UNL     1      -3.681   3.271  11.617  1.00  0.00    -0.267 OA
HETATM   10  N3  UNL     1      -1.811   1.958  11.755  1.00  0.00    -0.307 N 
ATOM     11  H3  UNL     1      -1.660   0.950  11.777  1.00  0.00     0.170 HD
BRANCH  10  12
HETATM   12  C9  UNL     1      -0.891   2.699  11.244  1.00  0.00     0.124 A 
HETATM   13  C10 UNL     1      -0.707   3.004   9.918  1.00  0.00     0.076 A 
HETATM   14  C11 UNL     1       0.409   3.835   9.827  1.00  0.00     0.025 A 
HETATM   15  C12 UNL     1       0.952   4.395   8.564  1.00  0.00     0.070 C 
HETATM   16  N4  UNL     1       0.846   3.995  11.080  1.00  0.00    -0.304 N 
HETATM   17  N5  UNL     1       0.084   3.328  11.918  1.00  0.00    -0.285 N 
ATOM     18  H4  UNL     1       1.656   4.554  11.347  1.00  0.00     0.186 HD
ATOM     19  H5  UNL     1       0.213   3.294  12.929  1.00  0.00     0.188 HD
ENDBRANCH  10  12
ENDBRANCH   6   8
BRANCH   1  20
HETATM   20  N1  UNL     1      -5.097   0.144  16.558  1.00  0.00    -0.370 N 
ATOM     21  H1  UNL     1      -5.012  -0.872  16.507  1.00  0.00     0.161 HD
BRANCH  20  22
HETATM   22  C3  UNL     1      -5.873   0.782  17.598  1.00  0.00     0.121 C 
BRANCH  22  23
HETATM   23  C2  UNL     1      -7.140   1.398  17.062  1.00  0.00     0.015 C 
HETATM   24  C1  UNL     1      -7.052   2.898  17.175  1.00  0.00     0.006 C 
ENDBRANCH  22  23
ENDBRANCH  20  22
ENDBRANCH   1  20
TORSDOF 5
ENDMDL
MODEL 5
REMARK VINA RESULT: -6.415370226      1.500      1.877
REMARK  5 active torsions:
REMARK  status: ('A' for Active; 'I' for Inactive)
REMARK    1  A    between atoms: C2_2  and  C3_3 
REMARK    2  A    between atoms: C3_3  and  N1_4 
REMARK    3  A    between atoms: N1_4  and  C4_6 
REMARK    4  A    between atoms: C7_11  and  C8_12 
REMARK       I    between atoms: C8_12  and  N3_14 
REMARK    5  A    between atoms: N3_14  and  C9_16 
ROOT
HETATM    1  C4  UNL     1      -4.483   0.869  15.525  1.00  0.00     0.145 A 
HETATM    2  N2  UNL     1      -3.960   2.097  15.524  1.00  0.00    -0.339 N 
ATOM      3  H2  UNL     1      -3.953   2.663  16.372  1.00  0.00     0.168 HD
HETATM    4  C5  UNL     1      -3.455   2.557  14.410  1.00  0.00     0.030 A 
HETATM    5  C6  UNL     1      -2.837   3.939  14.301  1.00  0.00     0.070 C 
HETATM    6  C7  UNL     1      -3.490   1.755  13.304  1.00  0.00     0.098 A 
HETATM    7  S1  UNL     1      -4.257   0.352  13.915  1.00  0.00    -0.047 SA
ENDROOT
BRANCH   6   8
HETATM    8  C8  UNL     1      -3.010   1.997  11.946  1.00  0.00     0.266 C 
HETATM    9  O1  UNL     1      -3.828   2.406  11.089  1.00  0.00    -0.267 OA
HETATM   10  N3  UNL     1      -1.683   1.784  11.595  1.00  0.00    -0.307 N 
ATOM     11  H3  UNL     1      -1.251   0.899  11.857  1.00  0.00     0.170 HD
BRANCH  10  12
HETATM   12  C9  UNL     1      -0.968   2.644  10.957  1.00  0.00     0.124 A 
HETATM   13  C10 UNL     1       0.102   3.358  11.436  1.00  0.00     0.076 A 
HETATM   14  C11 UNL     1       0.568   4.165  10.399  1.00  0.00     0.025 A 
HETATM   15  C12 UNL     1       1.718   5.099  10.498  1.00  0.00     0.070 C 
HETATM   16  N4  UNL     1      -0.227   3.912   9.355  1.00  0.00    -0.304 N 
HETATM   17  N5  UNL     1      -1.133   3.016   9.678  1.00  0.00    -0.285 N 
ATOM     18  H4  UNL     1      -0.143   4.351   8.438  1.00  0.00     0.186 HD
ATOM     19  H5  UNL     1      -1.853   2.657   9.051  1.00  0.00     0.188 HD
ENDBRANCH  10  12
ENDBRANCH   6   8
BRANCH   1  20
HETATM   20  N1  UNL     1      -5.041   0.191  16.494  1.00  0.00    -0.370 N 
ATOM     21  H1  UNL     1      -5.023  -0.829  16.506  1.00  0.00     0.161 HD
BRANCH  20  22
HETATM   22  C3  UNL     1      -5.684   0.944  17.548  1.00  0.00     0.121 C 
BRANCH  22  23
HETATM   23  C2  UNL     1      -7.033   1.468  17.127  1.00  0.00     0.015 C 
HETATM   24  C1  UNL     1      -7.005   2.974  17.126  1.00  0.00     0.006 C 
ENDBRANCH  22  23
ENDBRANCH  20  22
ENDBRANCH   1  20
TORSDOF 5
ENDMDL
