MODEL 1
REMARK VINA RESULT: -7.470351794      0.000      0.000
REMARK  4 active torsions:
REMARK  status: ('A' for Active; 'I' for Inactive)
REMARK    1  A    between atoms: N3_17  and  C11_18 
REMARK    2  A    between atoms: C11_18  and  C12_19 
REMARK    3  A    between atoms: C12_19  and  C13_20 
REMARK    4  A    between atoms: C15_22  and  N4_24 
ROOT
HETATM    1  C1  UNL     1      -1.990   4.962  14.390  1.00  0.00     0.024 C 
HETATM    2  C2  UNL     1      -2.114   4.224  13.312  1.00  0.00    -0.004 C 
HETATM    3  C3  UNL     1      -1.178   4.168  12.201  1.00  0.00     0.102 C 
HETATM    4  N1  UNL     1      -0.084   4.837  12.077  1.00  0.00    -0.385 N 
ATOM      5  H11 UNL     1       0.573   4.797  11.297  1.00  0.00     0.157 HD
ATOM      6  H12 UNL     1       0.282   5.508  12.752  1.00  0.00     0.157 HD
HETATM    7  N2  UNL     1      -1.697   3.217  11.245  1.00  0.00    -0.369 N 
ATOM      8  H2  UNL     1      -1.166   2.801  10.480  1.00  0.00     0.161 HD
HETATM    9  C4  UNL     1      -3.096   2.944  11.541  1.00  0.00     0.114 C 
HETATM   10  C5  UNL     1      -3.359   1.495  11.962  1.00  0.00    -0.017 C 
HETATM   11  C6  UNL     1      -4.734   1.038  11.615  1.00  0.00     0.018 C 
HETATM   12  C7  UNL     1      -2.334   0.612  11.257  1.00  0.00     0.018 C 
HETATM   13  C8  UNL     1      -3.040   1.876  13.341  1.00  0.00     0.076 C 
HETATM   14  C9  UNL     1      -3.196   3.312  12.997  1.00  0.00     0.100 C 
HETATM   15  C10 UNL     1      -4.542   3.640  13.494  1.00  0.00     0.237 C 
HETATM   16  O1  UNL     1      -5.157   4.697  13.140  1.00  0.00    -0.272 OA
HETATM   17  N3  UNL     1      -5.019   2.635  14.387  1.00  0.00    -0.318 N 
HETATM   18  C15 UNL     1      -3.975   1.642  14.447  1.00  0.00     0.202 C 
HETATM   19  C16 UNL     1      -4.455   0.240  14.472  1.00  0.00     0.071 C 
ENDROOT
BRANCH  18  20
HETATM   20  N4  UNL     1      -3.253   1.902  15.706  1.00  0.00    -0.052 N 
ATOM     21  H43 UNL     1      -3.761   1.579  16.529  1.00  0.00     0.277 HD
ATOM     22  H42 UNL     1      -2.427   1.314  15.817  1.00  0.00     0.277 HD
ATOM     23  H41 UNL     1      -3.038   2.898  15.739  1.00  0.00     0.277 HD
ENDBRANCH  18  20
BRANCH  17  24
HETATM   24  C11 UNL     1      -6.288   2.719  15.023  1.00  0.00     0.128 C 
BRANCH  24  25
HETATM   25  C12 UNL     1      -6.287   3.474  16.324  1.00  0.00     0.020 C 
BRANCH  25  26
HETATM   26  C13 UNL     1      -6.480   2.446  17.439  1.00  0.00    -0.003 C 
HETATM   27  C14 UNL     1      -7.287   1.270  16.924  1.00  0.00     0.005 C 
ENDBRANCH  25  26
ENDBRANCH  24  25
ENDBRANCH  17  24
TORSDOF 4
ENDMDL
MODEL 2
REMARK VINA RESULT: -7.377287155      2.411      4.571
REMARK  4 active torsions:
REMARK  status: ('A' for Active; 'I' for Inactive)
REMARK    1  A    between atoms: N3_17  and  C11_18 
REMARK    2  A    between atoms: C11_18  and  C12_19 
REMARK    3  A    between atoms: C12_19  and  C13_20 
REMARK    4  A    between atoms: C15_22  and  N4_24 
ROOT
HETATM    1  C1  UNL     1      -1.789   1.416  10.473  1.00  0.00     0.024 C 
HETATM    2  C2  UNL     1      -2.760   1.146  11.314  1.00  0.00    -0.004 C 
HETATM    3  C3  UNL     1      -3.219  -0.180  11.693  1.00  0.00     0.102 C 
HETATM    4  N1  UNL     1      -2.767  -1.308  11.264  1.00  0.00    -0.385 N 
ATOM      5  H11 UNL     1      -3.089  -2.238  11.530  1.00  0.00     0.157 HD
ATOM      6  H12 UNL     1      -2.011  -1.427  10.589  1.00  0.00     0.157 HD
HETATM    7  N2  UNL     1      -4.288  -0.011  12.650  1.00  0.00    -0.369 N 
ATOM      8  H2  UNL     1      -4.657  -0.743  13.258  1.00  0.00     0.161 HD
HETATM    9  C4  UNL     1      -4.759   1.366  12.614  1.00  0.00     0.114 C 
HETATM   10  C5  UNL     1      -4.512   2.131  13.918  1.00  0.00    -0.017 C 
HETATM   11  C6  UNL     1      -5.516   3.206  14.151  1.00  0.00     0.018 C 
HETATM   12  C7  UNL     1      -4.564   1.125  15.064  1.00  0.00     0.018 C 
HETATM   13  C8  UNL     1      -3.176   2.471  13.421  1.00  0.00     0.076 C 
HETATM   14  C9  UNL     1      -3.576   2.098  12.040  1.00  0.00     0.100 C 
HETATM   15  C10 UNL     1      -3.859   3.394  11.403  1.00  0.00     0.237 C 
HETATM   16  O1  UNL     1      -4.501   3.485  10.307  1.00  0.00    -0.272 OA
HETATM   17  N3  UNL     1      -3.328   4.473  12.171  1.00  0.00    -0.318 N 
HETATM   18  C15 UNL     1      -2.715   3.861  13.324  1.00  0.00     0.202 C 
HETATM   19  C16 UNL     1      -2.919   4.597  14.596  1.00  0.00     0.071 C 
ENDROOT
BRANCH  18  20
HETATM   20  N4  UNL     1      -1.269   3.834  13.037  1.00  0.00    -0.052 N 
ATOM     21  H43 UNL     1      -0.964   2.954  12.622  1.00  0.00     0.277 HD
ATOM     22  H42 UNL     1      -1.008   4.446  12.264  1.00  0.00     0.277 HD
ATOM     23  H41 UNL     1      -0.777   4.056  13.902  1.00  0.00     0.277 HD
ENDBRANCH  18  20
BRANCH  17  24
HETATM   24  C11 UNL     1      -3.448   5.829  11.765  1.00  0.00     0.128 C 
BRANCH  24  25
HETATM   25  C12 UNL     1      -4.726   6.499  12.192  1.00  0.00     0.020 C 
BRANCH  25  26
HETATM   26  C13 UNL     1      -5.483   6.874  10.919  1.00  0.00    -0.003 C 
HETATM   27  C14 UNL     1      -6.757   7.616  11.274  1.00  0.00     0.005 C 
ENDBRANCH  25  26
ENDBRANCH  24  25
ENDBRANCH  17  24
TORSDOF 4
ENDMDL
MODEL 3
REMARK VINA RESULT: -6.902789869      1.840      5.444
REMARK  4 active torsions:
REMARK  status: ('A' for Active; 'I' for Inactive)
REMARK    1  A    between atoms: N3_17  and  C11_18 
REMARK    2  A    between atoms: C11_18  and  C12_19 
REMARK    3  A    between atoms: C12_19  and  C13_20 
REMARK    4  A    between atoms: C15_22  and  N4_24 
ROOT
HETATM    1  C1  UNL     1      -3.962   0.812  15.450  1.00  0.00     0.024 C 
HETATM    2  C2  UNL     1      -4.833   1.794  15.436  1.00  0.00    -0.004 C 
HETATM    3  C3  UNL     1      -5.971   1.940  16.328  1.00  0.00     0.102 C 
HETATM    4  N1  UNL     1      -6.327   1.133  17.268  1.00  0.00    -0.385 N 
ATOM      5  H11 UNL     1      -7.126   1.236  17.893  1.00  0.00     0.157 HD
ATOM      6  H12 UNL     1      -5.850   0.267  17.519  1.00  0.00     0.157 HD
HETATM    7  N2  UNL     1      -6.646   3.167  15.971  1.00  0.00    -0.369 N 
ATOM      8  H2  UNL     1      -7.336   3.649  16.548  1.00  0.00     0.161 HD
HETATM    9  C4  UNL     1      -6.189   3.610  14.662  1.00  0.00     0.114 C 
HETATM   10  C5  UNL     1      -5.433   4.943  14.698  1.00  0.00    -0.017 C 
HETATM   11  C6  UNL     1      -5.561   5.708  13.427  1.00  0.00     0.018 C 
HETATM   12  C7  UNL     1      -5.998   5.767  15.851  1.00  0.00     0.018 C 
HETATM   13  C8  UNL     1      -4.205   4.196  14.983  1.00  0.00     0.076 C 
HETATM   14  C9  UNL     1      -4.850   2.933  14.541  1.00  0.00     0.100 C 
HETATM   15  C10 UNL     1      -4.337   2.747  13.174  1.00  0.00     0.237 C 
HETATM   16  O1  UNL     1      -4.872   1.932  12.355  1.00  0.00    -0.272 OA
HETATM   17  N3  UNL     1      -3.206   3.582  12.930  1.00  0.00    -0.318 N 
HETATM   18  C15 UNL     1      -3.005   4.327  14.148  1.00  0.00     0.202 C 
HETATM   19  C16 UNL     1      -2.628   5.747  13.949  1.00  0.00     0.071 C 
ENDROOT
BRANCH  18  20
HETATM   20  N4  UNL     1      -1.897   3.652  14.847  1.00  0.00    -0.052 N 
ATOM     21  H43 UNL     1      -2.127   3.406  15.810  1.00  0.00     0.277 HD
ATOM     22  H42 UNL     1      -1.730   2.706  14.504  1.00  0.00     0.277 HD
ATOM     23  H41 UNL     1      -1.075   4.251  14.776  1.00  0.00     0.277 HD
ENDBRANCH  18  20
BRANCH  17  24
HETATM   24  C11 UNL     1      -2.511   3.580  11.691  1.00  0.00     0.128 C 
BRANCH  24  25
HETATM   25  C12 UNL     1      -1.378   2.593  11.610  1.00  0.00     0.020 C 
BRANCH  25  26
HETATM   26  C13 UNL     1      -1.777   1.536  10.581  1.00  0.00    -0.003 C 
HETATM   27  C14 UNL     1      -2.152   0.246  11.285  1.00  0.00     0.005 C 
ENDBRANCH  25  26
ENDBRANCH  24  25
ENDBRANCH  17  24
TORSDOF 4
ENDMDL
MODEL 4
REMARK VINA RESULT: -6.815242343      1.473      1.568
REMARK  4 active torsions:
REMARK  status: ('A' for Active; 'I' for Inactive)
REMARK    1  A    between atoms: N3_17  and  C11_18 
REMARK    2  A    between atoms: C11_18  and  C12_19 
REMARK    3  A    between atoms: C12_19  and  C13_20 
REMARK    4  A    between atoms: C15_22  and  N4_24 
ROOT
HETATM    1  C1  UNL     1      -3.391   6.083  14.864  1.00  0.00     0.024 C 
HETATM    2  C2  UNL     1      -3.487   5.513  13.686  1.00  0.00    -0.004 C 
HETATM    3  C3  UNL     1      -2.867   5.979  12.457  1.00  0.00     0.102 C 
HETATM    4  N1  UNL     1      -2.135   7.029  12.309  1.00  0.00    -0.385 N 
ATOM      5  H11 UNL     1      -1.700   7.357  11.447  1.00  0.00     0.157 HD
ATOM      6  H12 UNL     1      -1.886   7.688  13.047  1.00  0.00     0.157 HD
HETATM    7  N2  UNL     1      -3.220   5.046  11.412  1.00  0.00    -0.369 N 
ATOM      8  H2  UNL     1      -2.764   4.979  10.502  1.00  0.00     0.161 HD
HETATM    9  C4  UNL     1      -4.329   4.215  11.858  1.00  0.00     0.114 C 
HETATM   10  C5  UNL     1      -3.965   2.733  11.994  1.00  0.00    -0.017 C 
HETATM   11  C6  UNL     1      -5.132   1.833  11.777  1.00  0.00     0.018 C 
HETATM   12  C7  UNL     1      -2.883   2.423  10.965  1.00  0.00     0.018 C 
HETATM   13  C8  UNL     1      -3.498   3.011  13.355  1.00  0.00     0.076 C 
HETATM   14  C9  UNL     1      -4.221   4.308  13.356  1.00  0.00     0.100 C 
HETATM   15  C10 UNL     1      -5.448   4.016  14.116  1.00  0.00     0.237 C 
HETATM   16  O1  UNL     1      -6.458   4.791  14.097  1.00  0.00    -0.272 OA
HETATM   17  N3  UNL     1      -5.327   2.790  14.836  1.00  0.00    -0.318 N 
HETATM   18  C15 UNL     1      -4.016   2.281  14.518  1.00  0.00     0.202 C 
HETATM   19  C16 UNL     1      -3.955   0.813  14.316  1.00  0.00     0.071 C 
ENDROOT
BRANCH  18  20
HETATM   20  N4  UNL     1      -3.168   2.621  15.674  1.00  0.00    -0.052 N 
ATOM     21  H43 UNL     1      -2.444   3.304  15.448  1.00  0.00     0.277 HD
ATOM     22  H42 UNL     1      -3.659   3.173  16.377  1.00  0.00     0.277 HD
ATOM     23  H41 UNL     1      -2.789   1.751  16.047  1.00  0.00     0.277 HD
ENDBRANCH  18  20
BRANCH  17  24
HETATM   24  C11 UNL     1      -6.367   2.288  15.665  1.00  0.00     0.128 C 
BRANCH  24  25
HETATM   25  C12 UNL     1      -6.529   3.012  16.974  1.00  0.00     0.020 C 
BRANCH  25  26
HETATM   26  C13 UNL     1      -6.205   2.011  18.083  1.00  0.00    -0.003 C 
HETATM   27  C14 UNL     1      -5.975   0.636  17.488  1.00  0.00     0.005 C 
ENDBRANCH  25  26
ENDBRANCH  24  25
ENDBRANCH  17  24
TORSDOF 4
ENDMDL
MODEL 5
REMARK VINA RESULT: -6.702690368      1.267      1.790
REMARK  4 active torsions:
REMARK  status: ('A' for Active; 'I' for Inactive)
REMARK    1  A    between atoms: N3_17  and  C11_18 
REMARK    2  A    between atoms: C11_18  and  C12_19 
REMARK    3  A    between atoms: C12_19  and  C13_20 
REMARK    4  A    between atoms: C15_22  and  N4_24 
ROOT
HETATM    1  C1  UNL     1      -1.632   4.807  13.026  1.00  0.00     0.024 C 
HETATM    2  C2  UNL     1      -1.849   3.816  12.194  1.00  0.00    -0.004 C 
HETATM    3  C3  UNL     1      -0.958   3.380  11.132  1.00  0.00     0.102 C 
HETATM    4  N1  UNL     1       0.182   3.892  10.818  1.00  0.00    -0.385 N 
ATOM      5  H11 UNL     1       0.807   3.586  10.074  1.00  0.00     0.157 HD
ATOM      6  H12 UNL     1       0.622   4.688  11.280  1.00  0.00     0.157 HD
HETATM    7  N2  UNL     1      -1.582   2.252  10.478  1.00  0.00    -0.369 N 
ATOM      8  H2  UNL     1      -1.111   1.599   9.852  1.00  0.00     0.161 HD
HETATM    9  C4  UNL     1      -2.988   2.192  10.852  1.00  0.00     0.114 C 
HETATM   10  C5  UNL     1      -3.352   0.940  11.657  1.00  0.00    -0.017 C 
HETATM   11  C6  UNL     1      -4.770   0.526  11.461  1.00  0.00     0.018 C 
HETATM   12  C7  UNL     1      -2.425  -0.186  11.211  1.00  0.00     0.018 C 
HETATM   13  C8  UNL     1      -2.958   1.654  12.874  1.00  0.00     0.076 C 
HETATM   14  C9  UNL     1      -3.010   2.950  12.152  1.00  0.00     0.100 C 
HETATM   15  C10 UNL     1      -4.309   3.515  12.552  1.00  0.00     0.237 C 
HETATM   16  O1  UNL     1      -4.849   4.484  11.927  1.00  0.00    -0.272 OA
HETATM   17  N3  UNL     1      -4.836   2.836  13.691  1.00  0.00    -0.318 N 
HETATM   18  C15 UNL     1      -3.873   1.812  14.012  1.00  0.00     0.202 C 
HETATM   19  C16 UNL     1      -4.463   0.516  14.425  1.00  0.00     0.071 C 
ENDROOT
BRANCH  18  20
HETATM   20  N4  UNL     1      -3.092   2.342  15.143  1.00  0.00    -0.052 N 
ATOM     21  H43 UNL     1      -3.461   2.055  16.050  1.00  0.00     0.277 HD
ATOM     22  H42 UNL     1      -2.173   1.908  15.229  1.00  0.00     0.277 HD
ATOM     23  H41 UNL     1      -3.043   3.355  15.038  1.00  0.00     0.277 HD
ENDBRANCH  18  20
BRANCH  17  24
HETATM   24  C11 UNL     1      -6.072   3.200  14.291  1.00  0.00     0.128 C 
BRANCH  24  25
HETATM   25  C12 UNL     1      -5.943   4.025  15.541  1.00  0.00     0.020 C 
BRANCH  25  26
HETATM   26  C13 UNL     1      -5.926   5.492  15.111  1.00  0.00    -0.003 C 
HETATM   27  C14 UNL     1      -4.505   6.020  15.132  1.00  0.00     0.005 C 
ENDBRANCH  25  26
ENDBRANCH  24  25
ENDBRANCH  17  24
TORSDOF 4
ENDMDL
