MODEL 1
REMARK VINA RESULT: -8.527985714      0.000      0.000
REMARK  3 active torsions:
REMARK  status: ('A' for Active; 'I' for Inactive)
REMARK    1  A    between atoms: C2_2  and  C3_3 
REMARK    2  A    between atoms: C4_6  and  C5_7 
REMARK    3  A    between atoms: C5_7  and  C6_9 
ROOT
HETATM    1  C3  UNL     1      -3.400   0.802  12.049  1.00  0.00     0.015 A 
HETATM    2  N1  UNL     1      -3.889   0.700  13.300  1.00  0.00    -0.355 N 
ATOM      3  H1  UNL     1      -4.403  -0.141  13.562  1.00  0.00     0.166 HD
HETATM    4  C4  UNL     1      -3.722   1.673  14.212  1.00  0.00     0.090 A 
HETATM    5  C10 UNL     1      -3.013   2.794  13.765  1.00  0.00    -0.025 A 
HETATM    6  C11 UNL     1      -2.915   3.953  14.685  1.00  0.00     0.051 C 
HETATM    7  C12 UNL     1      -2.497   2.932  12.512  1.00  0.00    -0.046 A 
HETATM    8  C13 UNL     1      -1.733   4.099  12.033  1.00  0.00     0.049 C 
HETATM    9  C14 UNL     1      -2.687   1.903  11.606  1.00  0.00    -0.033 A 
HETATM   10  C15 UNL     1      -2.098   1.918  10.246  1.00  0.00     0.050 C 
ENDROOT
BRANCH   4  11
HETATM   11  C5  UNL     1      -4.126   1.626  15.579  1.00  0.00     0.216 C 
HETATM   12  O1  UNL     1      -3.165   1.591  16.452  1.00  0.00    -0.285 OA
BRANCH  11  13
HETATM   13  C6  UNL     1      -5.447   1.619  16.162  1.00  0.00     0.109 A 
HETATM   14  C7  UNL     1      -6.348   2.696  16.078  1.00  0.00     0.042 A 
HETATM   15  C8  UNL     1      -6.038   4.000  15.415  1.00  0.00     0.071 C 
HETATM   16  N2  UNL     1      -7.473   2.405  16.699  1.00  0.00    -0.301 N 
HETATM   17  N3  UNL     1      -7.358   1.175  17.195  1.00  0.00    -0.266 N 
ATOM     18  H2  UNL     1      -8.286   3.014  16.784  1.00  0.00     0.186 HD
HETATM   19  C9  UNL     1      -6.139   0.669  16.887  1.00  0.00     0.276 A 
ATOM     20  H3  UNL     1      -8.079   0.686  17.726  1.00  0.00     0.190 HD
HETATM   21  O2  UNL     1      -5.717  -0.462  17.203  1.00  0.00    -0.266 OA
ENDBRANCH  11  13
ENDBRANCH   4  11
BRANCH   1  22
HETATM   22  C2  UNL     1      -3.713  -0.255  11.013  1.00  0.00     0.053 C 
HETATM   23  C1  UNL     1      -3.111  -1.572  11.500  1.00  0.00     0.011 C 
ENDBRANCH   1  22
TORSDOF 3
ENDMDL
MODEL 2
REMARK VINA RESULT: -8.403346867      1.147      2.798
REMARK  3 active torsions:
REMARK  status: ('A' for Active; 'I' for Inactive)
REMARK    1  A    between atoms: C2_2  and  C3_3 
REMARK    2  A    between atoms: C4_6  and  C5_7 
REMARK    3  A    between atoms: C5_7  and  C6_9 
ROOT
HETATM    1  C3  UNL     1      -2.545   3.609  12.919  1.00  0.00     0.015 A 
HETATM    2  N1  UNL     1      -2.922   3.215  14.150  1.00  0.00    -0.355 N 
ATOM      3  H1  UNL     1      -2.735   3.828  14.944  1.00  0.00     0.166 HD
HETATM    4  C4  UNL     1      -3.538   2.039  14.364  1.00  0.00     0.090 A 
HETATM    5  C10 UNL     1      -3.748   1.259  13.222  1.00  0.00    -0.025 A 
HETATM    6  C11 UNL     1      -4.301  -0.103  13.417  1.00  0.00     0.051 C 
HETATM    7  C12 UNL     1      -3.387   1.624  11.961  1.00  0.00    -0.046 A 
HETATM    8  C13 UNL     1      -3.619   0.820  10.746  1.00  0.00     0.049 C 
HETATM    9  C14 UNL     1      -2.762   2.847  11.784  1.00  0.00    -0.033 A 
HETATM   10  C15 UNL     1      -2.403   3.373  10.446  1.00  0.00     0.050 C 
ENDROOT
BRANCH   4  11
HETATM   11  C5  UNL     1      -4.050   1.571  15.611  1.00  0.00     0.216 C 
HETATM   12  O1  UNL     1      -3.185   1.016  16.405  1.00  0.00    -0.285 OA
BRANCH  11  13
HETATM   13  C6  UNL     1      -5.389   1.620  16.147  1.00  0.00     0.109 A 
HETATM   14  C7  UNL     1      -6.246   2.728  16.021  1.00  0.00     0.042 A 
HETATM   15  C8  UNL     1      -5.866   4.011  15.355  1.00  0.00     0.071 C 
HETATM   16  N2  UNL     1      -7.402   2.486  16.604  1.00  0.00    -0.301 N 
HETATM   17  N3  UNL     1      -7.351   1.259  17.117  1.00  0.00    -0.266 N 
ATOM     18  H2  UNL     1      -8.195   3.126  16.655  1.00  0.00     0.186 HD
HETATM   19  C9  UNL     1      -6.141   0.705  16.857  1.00  0.00     0.276 A 
ATOM     20  H3  UNL     1      -8.107   0.803  17.628  1.00  0.00     0.190 HD
HETATM   21  O2  UNL     1      -5.772  -0.437  17.201  1.00  0.00    -0.266 OA
ENDBRANCH  11  13
ENDBRANCH   4  11
BRANCH   1  22
HETATM   22  C2  UNL     1      -1.745   4.879  12.730  1.00  0.00     0.053 C 
HETATM   23  C1  UNL     1      -1.744   5.627  14.061  1.00  0.00     0.011 C 
ENDBRANCH   1  22
TORSDOF 3
ENDMDL
MODEL 3
REMARK VINA RESULT: -8.100419539      1.460      1.515
REMARK  3 active torsions:
REMARK  status: ('A' for Active; 'I' for Inactive)
REMARK    1  A    between atoms: C2_2  and  C3_3 
REMARK    2  A    between atoms: C4_6  and  C5_7 
REMARK    3  A    between atoms: C5_7  and  C6_9 
ROOT
HETATM    1  C3  UNL     1      -3.395   1.299  11.746  1.00  0.00     0.015 A 
HETATM    2  N1  UNL     1      -4.419   1.398  12.615  1.00  0.00    -0.355 N 
ATOM      3  H1  UNL     1      -5.149   0.686  12.603  1.00  0.00     0.166 HD
HETATM    4  C4  UNL     1      -4.508   2.409  13.497  1.00  0.00     0.090 A 
HETATM    5  C10 UNL     1      -3.471   3.346  13.438  1.00  0.00    -0.025 A 
HETATM    6  C11 UNL     1      -3.588   4.551  14.295  1.00  0.00     0.051 C 
HETATM    7  C12 UNL     1      -2.416   3.277  12.580  1.00  0.00    -0.046 A 
HETATM    8  C13 UNL     1      -1.306   4.247  12.520  1.00  0.00     0.049 C 
HETATM    9  C14 UNL     1      -2.359   2.215  11.693  1.00  0.00    -0.033 A 
HETATM   10  C15 UNL     1      -1.215   2.004  10.774  1.00  0.00     0.050 C 
ENDROOT
BRANCH   4  11
HETATM   11  C5  UNL     1      -5.502   2.559  14.509  1.00  0.00     0.216 C 
HETATM   12  O1  UNL     1      -6.411   3.458  14.281  1.00  0.00    -0.285 OA
BRANCH  11  13
HETATM   13  C6  UNL     1      -5.673   1.859  15.760  1.00  0.00     0.109 A 
HETATM   14  C7  UNL     1      -6.271   2.424  16.901  1.00  0.00     0.042 A 
HETATM   15  C8  UNL     1      -6.766   3.833  16.978  1.00  0.00     0.071 C 
HETATM   16  N2  UNL     1      -6.292   1.554  17.890  1.00  0.00    -0.301 N 
HETATM   17  N3  UNL     1      -5.730   0.429  17.454  1.00  0.00    -0.266 N 
ATOM     18  H2  UNL     1      -6.671   1.714  18.823  1.00  0.00     0.186 HD
HETATM   19  C9  UNL     1      -5.342   0.581  16.164  1.00  0.00     0.276 A 
ATOM     20  H3  UNL     1      -5.609  -0.420  18.007  1.00  0.00     0.190 HD
HETATM   21  O2  UNL     1      -4.784  -0.287  15.463  1.00  0.00    -0.266 OA
ENDBRANCH  11  13
ENDBRANCH   4  11
BRANCH   1  22
HETATM   22  C2  UNL     1      -3.389   0.220  10.685  1.00  0.00     0.053 C 
HETATM   23  C1  UNL     1      -3.224  -1.123  11.394  1.00  0.00     0.011 C 
ENDBRANCH   1  22
TORSDOF 3
ENDMDL
MODEL 4
REMARK VINA RESULT: -7.617640442      1.775      2.338
REMARK  3 active torsions:
REMARK  status: ('A' for Active; 'I' for Inactive)
REMARK    1  A    between atoms: C2_2  and  C3_3 
REMARK    2  A    between atoms: C4_6  and  C5_7 
REMARK    3  A    between atoms: C5_7  and  C6_9 
ROOT
HETATM    1  C3  UNL     1      -2.323   2.857  12.363  1.00  0.00     0.015 A 
HETATM    2  N1  UNL     1      -3.485   2.449  12.909  1.00  0.00    -0.355 N 
ATOM      3  H1  UNL     1      -3.858   1.535  12.652  1.00  0.00     0.166 HD
HETATM    4  C4  UNL     1      -4.168   3.212  13.781  1.00  0.00     0.090 A 
HETATM    5  C10 UNL     1      -3.590   4.453  14.068  1.00  0.00    -0.025 A 
HETATM    6  C11 UNL     1      -4.366   5.388  14.918  1.00  0.00     0.051 C 
HETATM    7  C12 UNL     1      -2.415   4.898  13.543  1.00  0.00    -0.046 A 
HETATM    8  C13 UNL     1      -1.785   6.195  13.851  1.00  0.00     0.049 C 
HETATM    9  C14 UNL     1      -1.740   4.078  12.654  1.00  0.00    -0.033 A 
HETATM   10  C15 UNL     1      -0.417   4.433  12.089  1.00  0.00     0.050 C 
ENDROOT
BRANCH   4  11
HETATM   11  C5  UNL     1      -5.357   2.838  14.475  1.00  0.00     0.216 C 
HETATM   12  O1  UNL     1      -6.466   3.309  13.991  1.00  0.00    -0.285 OA
BRANCH  11  13
HETATM   13  C6  UNL     1      -5.535   2.004  15.639  1.00  0.00     0.109 A 
HETATM   14  C7  UNL     1      -6.204   2.415  16.806  1.00  0.00     0.042 A 
HETATM   15  C8  UNL     1      -6.777   3.782  17.007  1.00  0.00     0.071 C 
HETATM   16  N2  UNL     1      -6.214   1.447  17.698  1.00  0.00    -0.301 N 
HETATM   17  N3  UNL     1      -5.577   0.402  17.173  1.00  0.00    -0.266 N 
ATOM     18  H2  UNL     1      -6.635   1.489  18.626  1.00  0.00     0.186 HD
HETATM   19  C9  UNL     1      -5.151   0.708  15.923  1.00  0.00     0.276 A 
ATOM     20  H3  UNL     1      -5.430  -0.492  17.640  1.00  0.00     0.190 HD
HETATM   21  O2  UNL     1      -4.521  -0.053  15.160  1.00  0.00    -0.266 OA
ENDBRANCH  11  13
ENDBRANCH   4  11
BRANCH   1  22
HETATM   22  C2  UNL     1      -1.645   2.029  11.293  1.00  0.00     0.053 C 
HETATM   23  C1  UNL     1      -2.275   0.638  11.316  1.00  0.00     0.011 C 
ENDBRANCH   1  22
TORSDOF 3
ENDMDL
MODEL 5
REMARK VINA RESULT: -7.530305887      2.559      5.875
REMARK  3 active torsions:
REMARK  status: ('A' for Active; 'I' for Inactive)
REMARK    1  A    between atoms: C2_2  and  C3_3 
REMARK    2  A    between atoms: C4_6  and  C5_7 
REMARK    3  A    between atoms: C5_7  and  C6_9 
ROOT
HETATM    1  C3  UNL     1      -6.114   2.315  15.583  1.00  0.00     0.015 A 
HETATM    2  N1  UNL     1      -5.516   1.929  14.440  1.00  0.00    -0.355 N 
ATOM      3  H1  UNL     1      -5.427   0.932  14.240  1.00  0.00     0.166 HD
HETATM    4  C4  UNL     1      -5.031   2.817  13.554  1.00  0.00     0.090 A 
HETATM    5  C10 UNL     1      -5.187   4.161  13.911  1.00  0.00    -0.025 A 
HETATM    6  C11 UNL     1      -4.553   5.178  13.037  1.00  0.00     0.051 C 
HETATM    7  C12 UNL     1      -5.791   4.591  15.052  1.00  0.00    -0.046 A 
HETATM    8  C13 UNL     1      -5.979   6.004  15.432  1.00  0.00     0.049 C 
HETATM    9  C14 UNL     1      -6.283   3.643  15.934  1.00  0.00    -0.033 A 
HETATM   10  C15 UNL     1      -7.027   4.006  17.163  1.00  0.00     0.050 C 
ENDROOT
BRANCH   4  11
HETATM   11  C5  UNL     1      -4.459   2.513  12.283  1.00  0.00     0.216 C 
HETATM   12  O1  UNL     1      -5.241   2.672  11.258  1.00  0.00    -0.285 OA
BRANCH  11  13
HETATM   13  C6  UNL     1      -3.132   2.060  11.941  1.00  0.00     0.109 A 
HETATM   14  C7  UNL     1      -2.784   0.709  11.765  1.00  0.00     0.042 A 
HETATM   15  C8  UNL     1      -3.732  -0.433  11.952  1.00  0.00     0.071 C 
HETATM   16  N2  UNL     1      -1.509   0.597  11.456  1.00  0.00    -0.301 N 
HETATM   17  N3  UNL     1      -0.989   1.822  11.420  1.00  0.00    -0.266 N 
ATOM     18  H2  UNL     1      -1.008  -0.273  11.278  1.00  0.00     0.186 HD
HETATM   19  C9  UNL     1      -1.949   2.734  11.710  1.00  0.00     0.276 A 
ATOM     20  H3  UNL     1      -0.016   2.042  11.206  1.00  0.00     0.190 HD
HETATM   21  O2  UNL     1      -1.789   3.971  11.759  1.00  0.00    -0.266 OA
ENDBRANCH  11  13
ENDBRANCH   4  11
BRANCH   1  22
HETATM   22  C2  UNL     1      -6.536   1.291  16.613  1.00  0.00     0.053 C 
HETATM   23  C1  UNL     1      -5.293   0.900  17.410  1.00  0.00     0.011 C 
ENDBRANCH   1  22
TORSDOF 3
ENDMDL
