MODEL 1
REMARK VINA RESULT: -7.661513356      0.000      0.000
REMARK  7 active torsions:
REMARK  status: ('A' for Active; 'I' for Inactive)
REMARK    1  A    between atoms: C3_3  and  C4_4 
REMARK    2  A    between atoms: C4_4  and  C7_7 
REMARK    3  A    between atoms: C7_7  and  C8_8 
REMARK    4  A    between atoms: C8_8  and  C9_9 
REMARK    5  A    between atoms: C9_9  and  C10_10 
REMARK    6  A    between atoms: C11_13  and  N2_14 
REMARK       I    between atoms: N2_14  and  C12_16 
REMARK    7  A    between atoms: C15_23  and  O3_24 
ROOT
HETATM    1  C1  UNL     1      -6.214   4.636  15.245  1.00  0.00     0.112 C 
HETATM    2  C2  UNL     1      -5.037   5.409  14.855  1.00  0.00    -0.110 C 
HETATM    3  C3  UNL     1      -4.076   6.060  14.535  1.00  0.00    -0.098 C 
ENDROOT
BRANCH   3   4
HETATM    4  C4  UNL     1      -2.875   6.877  14.108  1.00  0.00     0.016 C 
HETATM    5  C5  UNL     1      -2.646   7.976  15.093  1.00  0.00     0.029 C 
HETATM    6  C6  UNL     1      -3.240   7.365  12.717  1.00  0.00     0.029 C 
BRANCH   4   7
HETATM    7  C7  UNL     1      -1.765   5.908  14.092  1.00  0.00     0.022 C 
BRANCH   7   8
HETATM    8  C8  UNL     1      -2.071   4.485  13.850  1.00  0.00     0.008 C 
BRANCH   8   9
HETATM    9  C9  UNL     1      -1.973   3.935  12.469  1.00  0.00     0.061 C 
BRANCH   9  10
HETATM   10  C10 UNL     1      -2.872   2.709  12.459  1.00  0.00     0.065 A 
HETATM   11  N1  UNL     1      -3.269   2.137  13.625  1.00  0.00    -0.192 N 
HETATM   12  C11 UNL     1      -4.040   1.037  13.578  1.00  0.00     0.688 A 
ATOM     13  H1  UNL     1      -2.987   2.536  14.521  1.00  0.00     0.184 HD
HETATM   14  N3  UNL     1      -4.399   0.529  12.380  1.00  0.00    -0.153 N 
HETATM   15  C14 UNL     1      -4.018   1.080  11.218  1.00  0.00     0.294 A 
ATOM     16  H3  UNL     1      -4.984  -0.306  12.358  1.00  0.00     0.187 HD
HETATM   17  O2  UNL     1      -4.365   0.592  10.095  1.00  0.00    -0.265 OA
HETATM   18  C15 UNL     1      -3.217   2.223  11.220  1.00  0.00     0.158 A 
BRANCH  12  19
HETATM   19  N2  UNL     1      -4.425   0.465  14.663  1.00  0.00    -0.160 N 
HETATM   20  C12 UNL     1      -4.357   1.021  15.957  1.00  0.00     0.231 C 
HETATM   21  C13 UNL     1      -5.563   1.293  16.782  1.00  0.00     0.118 C 
HETATM   22  O1  UNL     1      -3.193   1.287  16.397  1.00  0.00    -0.273 OA
ATOM     23  H2  UNL     1      -4.813  -0.475  14.582  1.00  0.00     0.187 HD
ENDBRANCH  12  19
BRANCH  18  24
HETATM   24  O3  UNL     1      -2.853   2.755  10.024  1.00  0.00    -0.354 OA
ATOM     25  H3  UNL     1      -3.174   2.485   9.173  1.00  0.00     0.218 HD
ENDBRANCH  18  24
ENDBRANCH   9  10
ENDBRANCH   8   9
ENDBRANCH   7   8
ENDBRANCH   4   7
ENDBRANCH   3   4
TORSDOF 7
ENDMDL
MODEL 2
REMARK VINA RESULT: -7.640253357      1.517      4.626
REMARK  7 active torsions:
REMARK  status: ('A' for Active; 'I' for Inactive)
REMARK    1  A    between atoms: C3_3  and  C4_4 
REMARK    2  A    between atoms: C4_4  and  C7_7 
REMARK    3  A    between atoms: C7_7  and  C8_8 
REMARK    4  A    between atoms: C8_8  and  C9_9 
REMARK    5  A    between atoms: C9_9  and  C10_10 
REMARK    6  A    between atoms: C11_13  and  N2_14 
REMARK       I    between atoms: N2_14  and  C12_16 
REMARK    7  A    between atoms: C15_23  and  O3_24 
ROOT
HETATM    1  C1  UNL     1      -1.154   9.223  15.414  1.00  0.00     0.112 C 
HETATM    2  C2  UNL     1      -1.927   8.093  14.901  1.00  0.00    -0.110 C 
HETATM    3  C3  UNL     1      -2.565   7.157  14.493  1.00  0.00    -0.098 C 
ENDROOT
BRANCH   3   4
HETATM    4  C4  UNL     1      -3.344   5.966  13.977  1.00  0.00     0.016 C 
HETATM    5  C5  UNL     1      -2.474   4.752  14.006  1.00  0.00     0.029 C 
HETATM    6  C6  UNL     1      -3.769   6.383  12.580  1.00  0.00     0.029 C 
BRANCH   4   7
HETATM    7  C7  UNL     1      -4.485   5.851  14.901  1.00  0.00     0.022 C 
BRANCH   7   8
HETATM    8  C8  UNL     1      -5.626   4.999  14.515  1.00  0.00     0.008 C 
BRANCH   8   9
HETATM    9  C9  UNL     1      -6.364   4.238  15.562  1.00  0.00     0.061 C 
BRANCH   9  10
HETATM   10  C10 UNL     1      -5.729   2.857  15.577  1.00  0.00     0.065 A 
HETATM   11  N1  UNL     1      -5.089   2.381  14.478  1.00  0.00    -0.192 N 
HETATM   12  C11 UNL     1      -4.565   1.144  14.518  1.00  0.00     0.688 A 
ATOM     13  H1  UNL     1      -5.007   2.953  13.638  1.00  0.00     0.184 HD
HETATM   14  N3  UNL     1      -4.687   0.407  15.642  1.00  0.00    -0.153 N 
HETATM   15  C14 UNL     1      -5.315   0.859  16.738  1.00  0.00     0.294 A 
ATOM     16  H3  UNL     1      -4.285  -0.530  15.659  1.00  0.00     0.187 HD
HETATM   17  O2  UNL     1      -5.422   0.154  17.792  1.00  0.00    -0.265 OA
HETATM   18  C15 UNL     1      -5.874   2.138  16.740  1.00  0.00     0.158 A 
BRANCH  12  19
HETATM   19  N2  UNL     1      -3.960   0.659  13.491  1.00  0.00    -0.160 N 
HETATM   20  C12 UNL     1      -4.113   1.100  12.160  1.00  0.00     0.231 C 
HETATM   21  C13 UNL     1      -2.997   1.681  11.371  1.00  0.00     0.118 C 
HETATM   22  O1  UNL     1      -5.274   0.976  11.655  1.00  0.00    -0.273 OA
ATOM     23  H2  UNL     1      -3.313  -0.112  13.653  1.00  0.00     0.187 HD
ENDBRANCH  12  19
BRANCH  18  24
HETATM   24  O3  UNL     1      -6.500   2.563  17.868  1.00  0.00    -0.354 OA
ATOM     25  H3  UNL     1      -6.076   2.852  18.667  1.00  0.00     0.218 HD
ENDBRANCH  18  24
ENDBRANCH   9  10
ENDBRANCH   8   9
ENDBRANCH   7   8
ENDBRANCH   4   7
ENDBRANCH   3   4
TORSDOF 7
ENDMDL
MODEL 3
REMARK VINA RESULT: -7.601589933      1.972      4.753
REMARK  7 active torsions:
REMARK  status: ('A' for Active; 'I' for Inactive)
REMARK    1  A    between atoms: C3_3  and  C4_4 
REMARK    2  A    between atoms: C4_4  and  C7_7 
REMARK    3  A    between atoms: C7_7  and  C8_8 
REMARK    4  A    between atoms: C8_8  and  C9_9 
REMARK    5  A    between atoms: C9_9  and  C10_10 
REMARK    6  A    between atoms: C11_13  and  N2_14 
REMARK       I    between atoms: N2_14  and  C12_16 
REMARK    7  A    between atoms: C15_23  and  O3_24 
ROOT
HETATM    1  C1  UNL     1      -6.098   5.049  14.640  1.00  0.00     0.112 C 
HETATM    2  C2  UNL     1      -6.188   3.929  15.574  1.00  0.00    -0.110 C 
HETATM    3  C3  UNL     1      -6.275   3.000  16.336  1.00  0.00    -0.098 C 
ENDROOT
BRANCH   3   4
HETATM    4  C4  UNL     1      -6.401   1.847  17.309  1.00  0.00     0.016 C 
HETATM    5  C5  UNL     1      -7.643   1.075  17.007  1.00  0.00     0.029 C 
HETATM    6  C6  UNL     1      -6.410   2.517  18.672  1.00  0.00     0.029 C 
BRANCH   4   7
HETATM    7  C7  UNL     1      -5.184   1.048  17.083  1.00  0.00     0.022 C 
BRANCH   7   8
HETATM    8  C8  UNL     1      -4.363   1.330  15.891  1.00  0.00     0.008 C 
BRANCH   8   9
HETATM    9  C9  UNL     1      -4.328   0.347  14.771  1.00  0.00     0.061 C 
BRANCH   9  10
HETATM   10  C10 UNL     1      -3.936   1.151  13.542  1.00  0.00     0.065 A 
HETATM   11  N1  UNL     1      -3.449   2.412  13.670  1.00  0.00    -0.192 N 
HETATM   12  C11 UNL     1      -3.141   3.104  12.560  1.00  0.00     0.688 A 
ATOM     13  H1  UNL     1      -3.320   2.827  14.593  1.00  0.00     0.184 HD
HETATM   14  N3  UNL     1      -3.320   2.533  11.351  1.00  0.00    -0.153 N 
HETATM   15  C14 UNL     1      -3.799   1.288  11.203  1.00  0.00     0.294 A 
ATOM     16  H3  UNL     1      -3.083   3.068  10.516  1.00  0.00     0.187 HD
HETATM   17  O2  UNL     1      -3.963   0.761  10.056  1.00  0.00    -0.265 OA
HETATM   18  C15 UNL     1      -4.133   0.535  12.329  1.00  0.00     0.158 A 
BRANCH  12  19
HETATM   19  N2  UNL     1      -2.686   4.304  12.646  1.00  0.00    -0.160 N 
HETATM   20  C12 UNL     1      -1.466   4.683  13.242  1.00  0.00     0.231 C 
HETATM   21  C13 UNL     1      -0.363   5.324  12.481  1.00  0.00     0.118 C 
HETATM   22  O1  UNL     1      -1.348   4.447  14.487  1.00  0.00    -0.273 OA
ATOM     23  H2  UNL     1      -3.260   5.049  12.249  1.00  0.00     0.187 HD
ENDBRANCH  12  19
BRANCH  18  24
HETATM   24  O3  UNL     1      -4.612  -0.723  12.141  1.00  0.00    -0.354 OA
ATOM     25  H3  UNL     1      -4.839  -1.115  11.306  1.00  0.00     0.218 HD
ENDBRANCH  18  24
ENDBRANCH   9  10
ENDBRANCH   8   9
ENDBRANCH   7   8
ENDBRANCH   4   7
ENDBRANCH   3   4
TORSDOF 7
ENDMDL
MODEL 4
REMARK VINA RESULT: -7.531109819      1.816      4.896
REMARK  7 active torsions:
REMARK  status: ('A' for Active; 'I' for Inactive)
REMARK    1  A    between atoms: C3_3  and  C4_4 
REMARK    2  A    between atoms: C4_4  and  C7_7 
REMARK    3  A    between atoms: C7_7  and  C8_8 
REMARK    4  A    between atoms: C8_8  and  C9_9 
REMARK    5  A    between atoms: C9_9  and  C10_10 
REMARK    6  A    between atoms: C11_13  and  N2_14 
REMARK       I    between atoms: N2_14  and  C12_16 
REMARK    7  A    between atoms: C15_23  and  O3_24 
ROOT
HETATM    1  C1  UNL     1      -6.153   5.102  14.700  1.00  0.00     0.112 C 
HETATM    2  C2  UNL     1      -6.220   3.940  15.584  1.00  0.00    -0.110 C 
HETATM    3  C3  UNL     1      -6.289   2.978  16.305  1.00  0.00    -0.098 C 
ENDROOT
BRANCH   3   4
HETATM    4  C4  UNL     1      -6.391   1.783  17.228  1.00  0.00     0.016 C 
HETATM    5  C5  UNL     1      -7.693   1.087  17.000  1.00  0.00     0.029 C 
HETATM    6  C6  UNL     1      -6.249   2.379  18.618  1.00  0.00     0.029 C 
BRANCH   4   7
HETATM    7  C7  UNL     1      -5.241   0.940  16.858  1.00  0.00     0.022 C 
BRANCH   7   8
HETATM    8  C8  UNL     1      -4.235   1.485  15.927  1.00  0.00     0.008 C 
BRANCH   8   9
HETATM    9  C9  UNL     1      -3.977   0.792  14.632  1.00  0.00     0.061 C 
BRANCH   9  10
HETATM   10  C10 UNL     1      -3.761   1.903  13.618  1.00  0.00     0.065 A 
HETATM   11  N1  UNL     1      -3.105   3.038  13.969  1.00  0.00    -0.192 N 
HETATM   12  C11 UNL     1      -2.958   4.012  13.054  1.00  0.00     0.688 A 
ATOM     13  H1  UNL     1      -2.729   3.150  14.911  1.00  0.00     0.184 HD
HETATM   14  N3  UNL     1      -3.463   3.839  11.814  1.00  0.00    -0.153 N 
HETATM   15  C14 UNL     1      -4.114   2.725  11.448  1.00  0.00     0.294 A 
ATOM     16  H3  UNL     1      -3.345   4.585  11.129  1.00  0.00     0.187 HD
HETATM   17  O2  UNL     1      -4.585   2.575  10.275  1.00  0.00    -0.265 OA
HETATM   18  C15 UNL     1      -4.289   1.689  12.367  1.00  0.00     0.158 A 
BRANCH  12  19
HETATM   19  N2  UNL     1      -2.349   5.104  13.357  1.00  0.00    -0.160 N 
HETATM   20  C12 UNL     1      -2.932   6.388  13.399  1.00  0.00     0.231 C 
HETATM   21  C13 UNL     1      -3.018   7.193  14.644  1.00  0.00     0.118 C 
HETATM   22  O1  UNL     1      -3.391   6.836  12.299  1.00  0.00    -0.273 OA
ATOM     23  H2  UNL     1      -1.358   5.036  13.586  1.00  0.00     0.187 HD
ENDBRANCH  12  19
BRANCH  18  24
HETATM   24  O3  UNL     1      -4.951   0.575  11.959  1.00  0.00    -0.354 OA
ATOM     25  H3  UNL     1      -5.195  -0.161  12.508  1.00  0.00     0.218 HD
ENDBRANCH  18  24
ENDBRANCH   9  10
ENDBRANCH   8   9
ENDBRANCH   7   8
ENDBRANCH   4   7
ENDBRANCH   3   4
TORSDOF 7
ENDMDL
MODEL 5
REMARK VINA RESULT: -7.300705992      1.748      4.419
REMARK  7 active torsions:
REMARK  status: ('A' for Active; 'I' for Inactive)
REMARK    1  A    between atoms: C3_3  and  C4_4 
REMARK    2  A    between atoms: C4_4  and  C7_7 
REMARK    3  A    between atoms: C7_7  and  C8_8 
REMARK    4  A    between atoms: C8_8  and  C9_9 
REMARK    5  A    between atoms: C9_9  and  C10_10 
REMARK    6  A    between atoms: C11_13  and  N2_14 
REMARK       I    between atoms: N2_14  and  C12_16 
REMARK    7  A    between atoms: C15_23  and  O3_24 
ROOT
HETATM    1  C1  UNL     1      -5.433   6.897  10.631  1.00  0.00     0.112 C 
HETATM    2  C2  UNL     1      -4.773   6.687  11.918  1.00  0.00    -0.110 C 
HETATM    3  C3  UNL     1      -4.235   6.498  12.979  1.00  0.00    -0.098 C 
ENDROOT
BRANCH   3   4
HETATM    4  C4  UNL     1      -3.582   6.270  14.324  1.00  0.00     0.016 C 
HETATM    5  C5  UNL     1      -2.846   7.504  14.735  1.00  0.00     0.029 C 
HETATM    6  C6  UNL     1      -2.684   5.067  14.098  1.00  0.00     0.029 C 
BRANCH   4   7
HETATM    7  C7  UNL     1      -4.706   5.971  15.228  1.00  0.00     0.022 C 
BRANCH   7   8
HETATM    8  C8  UNL     1      -5.715   4.984  14.799  1.00  0.00     0.008 C 
BRANCH   8   9
HETATM    9  C9  UNL     1      -6.386   4.126  15.816  1.00  0.00     0.061 C 
BRANCH   9  10
HETATM   10  C10 UNL     1      -5.728   2.761  15.687  1.00  0.00     0.065 A 
HETATM   11  N1  UNL     1      -4.872   2.503  14.666  1.00  0.00    -0.192 N 
HETATM   12  C11 UNL     1      -4.332   1.276  14.567  1.00  0.00     0.688 A 
ATOM     13  H1  UNL     1      -4.643   3.228  13.985  1.00  0.00     0.184 HD
HETATM   14  N3  UNL     1      -4.651   0.335  15.480  1.00  0.00    -0.153 N 
HETATM   15  C14 UNL     1      -5.494   0.570  16.496  1.00  0.00     0.294 A 
ATOM     16  H3  UNL     1      -4.235  -0.592  15.393  1.00  0.00     0.187 HD
HETATM   17  O2  UNL     1      -5.785  -0.326  17.351  1.00  0.00    -0.265 OA
HETATM   18  C15 UNL     1      -6.078   1.830  16.636  1.00  0.00     0.158 A 
BRANCH  12  19
HETATM   19  N2  UNL     1      -3.525   0.996  13.605  1.00  0.00    -0.160 N 
HETATM   20  C12 UNL     1      -3.892   0.492  12.340  1.00  0.00     0.231 C 
HETATM   21  C13 UNL     1      -3.649   1.233  11.076  1.00  0.00     0.118 C 
HETATM   22  O1  UNL     1      -4.454  -0.650  12.329  1.00  0.00    -0.273 OA
ATOM     23  H2  UNL     1      -2.530   1.151  13.772  1.00  0.00     0.187 HD
ENDBRANCH  12  19
BRANCH  18  24
HETATM   24  O3  UNL     1      -6.924   2.033  17.680  1.00  0.00    -0.354 OA
ATOM     25  H3  UNL     1      -7.185   1.383  18.321  1.00  0.00     0.218 HD
ENDBRANCH  18  24
ENDBRANCH   9  10
ENDBRANCH   8   9
ENDBRANCH   7   8
ENDBRANCH   4   7
ENDBRANCH   3   4
TORSDOF 7
ENDMDL
