MODEL 1
REMARK VINA RESULT: -5.858663547      0.000      0.000
REMARK  6 active torsions:
REMARK  status: ('A' for Active; 'I' for Inactive)
REMARK    1  A    between atoms: C2_2  and  N1_3 
REMARK    2  A    between atoms: N1_3  and  C3_5 
REMARK    3  A    between atoms: C3_5  and  N2_7 
REMARK    4  A    between atoms: N2_7  and  C4_9 
REMARK    5  A    between atoms: C5_12  and  C6_13 
REMARK    6  A    between atoms: C6_13  and  C7_14 
ROOT
HETATM    1  C4  UNL     1      -4.620   2.685  11.381  1.00  0.00     0.150 A 
HETATM    2  N3  UNL     1      -4.661   2.892  12.697  1.00  0.00    -0.339 N 
ATOM      3  H3  UNL     1      -4.882   2.128  13.335  1.00  0.00     0.168 HD
HETATM    4  C5  UNL     1      -4.416   4.084  13.153  1.00  0.00     0.025 A 
HETATM    5  C11 UNL     1      -4.126   5.070  12.246  1.00  0.00     0.078 A 
HETATM    6  S2  UNL     1      -4.222   4.226  10.766  1.00  0.00    -0.064 SA
ENDROOT
BRANCH   4   7
HETATM    7  C6  UNL     1      -4.435   4.430  14.636  1.00  0.00     0.134 C 
BRANCH   7   8
HETATM    8  C7  UNL     1      -4.913   3.293  15.442  1.00  0.00     0.086 A 
HETATM    9  N4  UNL     1      -6.181   2.964  15.770  1.00  0.00    -0.348 N 
HETATM   10  C8  UNL     1      -6.203   1.858  16.517  1.00  0.00     0.022 A 
ATOM     11  H4  UNL     1      -7.009   3.489  15.486  1.00  0.00     0.167 HD
HETATM   12  C9  UNL     1      -7.382   1.160  17.086  1.00  0.00     0.069 C 
HETATM   13  C10 UNL     1      -4.888   1.474  16.666  1.00  0.00     0.114 A 
HETATM   14  N5  UNL     1      -4.123   2.357  16.006  1.00  0.00    -0.354 N 
ATOM     15  H5  UNL     1      -3.106   2.326  15.942  1.00  0.00     0.166 HD
ENDBRANCH   7   8
ENDBRANCH   4   7
BRANCH   1  16
HETATM   16  N2  UNL     1      -4.835   1.567  10.724  1.00  0.00    -0.314 N 
ATOM     17  H2  UNL     1      -5.656   1.437  10.133  1.00  0.00     0.170 HD
BRANCH  16  18
HETATM   18  C3  UNL     1      -3.842   0.539  10.889  1.00  0.00     0.173 C 
HETATM   19  S1  UNL     1      -4.201  -0.816  11.720  1.00  0.00    -0.041 SA
BRANCH  18  20
HETATM   20  N1  UNL     1      -2.551   0.685  10.339  1.00  0.00    -0.367 N 
ATOM     21  H1  UNL     1      -2.414   0.627   9.329  1.00  0.00     0.161 HD
BRANCH  20  22
HETATM   22  C2  UNL     1      -1.433   0.915  11.210  1.00  0.00     0.117 C 
HETATM   23  C1  UNL     1      -0.883   2.330  10.980  1.00  0.00     0.026 C 
ENDBRANCH  20  22
ENDBRANCH  18  20
ENDBRANCH  16  18
ENDBRANCH   1  16
TORSDOF 6
ENDMDL
MODEL 2
REMARK VINA RESULT: -5.803617187      2.217      5.655
REMARK  6 active torsions:
REMARK  status: ('A' for Active; 'I' for Inactive)
REMARK    1  A    between atoms: C2_2  and  N1_3 
REMARK    2  A    between atoms: N1_3  and  C3_5 
REMARK    3  A    between atoms: C3_5  and  N2_7 
REMARK    4  A    between atoms: N2_7  and  C4_9 
REMARK    5  A    between atoms: C5_12  and  C6_13 
REMARK    6  A    between atoms: C6_13  and  C7_14 
ROOT
HETATM    1  C4  UNL     1      -2.897   3.621  14.415  1.00  0.00     0.150 A 
HETATM    2  N3  UNL     1      -2.881   2.909  13.289  1.00  0.00    -0.339 N 
ATOM      3  H3  UNL     1      -3.338   1.999  13.246  1.00  0.00     0.168 HD
HETATM    4  C5  UNL     1      -2.275   3.395  12.248  1.00  0.00     0.025 A 
HETATM    5  C11 UNL     1      -1.679   4.623  12.367  1.00  0.00     0.078 A 
HETATM    6  S2  UNL     1      -2.023   5.025  13.990  1.00  0.00    -0.064 SA
ENDROOT
BRANCH   4   7
HETATM    7  C6  UNL     1      -2.198   2.667  10.912  1.00  0.00     0.134 C 
BRANCH   7   8
HETATM    8  C7  UNL     1      -2.828   1.337  10.993  1.00  0.00     0.086 A 
HETATM    9  N4  UNL     1      -2.255   0.147  11.274  1.00  0.00    -0.348 N 
HETATM   10  C8  UNL     1      -3.164  -0.831  11.253  1.00  0.00     0.022 A 
ATOM     11  H4  UNL     1      -1.264   0.013  11.474  1.00  0.00     0.167 HD
HETATM   12  C9  UNL     1      -2.959  -2.278  11.504  1.00  0.00     0.069 C 
HETATM   13  C10 UNL     1      -4.364  -0.227  10.943  1.00  0.00     0.114 A 
HETATM   14  N5  UNL     1      -4.137   1.087  10.791  1.00  0.00    -0.354 N 
ATOM     15  H5  UNL     1      -4.843   1.785  10.559  1.00  0.00     0.166 HD
ENDBRANCH   7   8
ENDBRANCH   4   7
BRANCH   1  16
HETATM   16  N2  UNL     1      -3.448   3.314  15.568  1.00  0.00    -0.314 N 
ATOM     17  H2  UNL     1      -2.929   3.356  16.444  1.00  0.00     0.170 HD
BRANCH  16  18
HETATM   18  C3  UNL     1      -4.829   2.914  15.517  1.00  0.00     0.173 C 
HETATM   19  S1  UNL     1      -5.972   3.977  15.048  1.00  0.00    -0.041 SA
BRANCH  18  20
HETATM   20  N1  UNL     1      -5.216   1.603  15.870  1.00  0.00    -0.367 N 
ATOM     21  H1  UNL     1      -5.124   0.841  15.197  1.00  0.00     0.161 HD
BRANCH  20  22
HETATM   22  C2  UNL     1      -5.741   1.350  17.183  1.00  0.00     0.117 C 
HETATM   23  C1  UNL     1      -7.258   1.138  17.101  1.00  0.00     0.026 C 
ENDBRANCH  20  22
ENDBRANCH  18  20
ENDBRANCH  16  18
ENDBRANCH   1  16
TORSDOF 6
ENDMDL
MODEL 3
REMARK VINA RESULT: -5.715825579      2.227      5.114
REMARK  6 active torsions:
REMARK  status: ('A' for Active; 'I' for Inactive)
REMARK    1  A    between atoms: C2_2  and  N1_3 
REMARK    2  A    between atoms: N1_3  and  C3_5 
REMARK    3  A    between atoms: C3_5  and  N2_7 
REMARK    4  A    between atoms: N2_7  and  C4_9 
REMARK    5  A    between atoms: C5_12  and  C6_13 
REMARK    6  A    between atoms: C6_13  and  C7_14 
ROOT
HETATM    1  C4  UNL     1      -5.344   4.073  14.532  1.00  0.00     0.150 A 
HETATM    2  N3  UNL     1      -5.105   3.556  13.327  1.00  0.00    -0.339 N 
ATOM      3  H3  UNL     1      -5.642   2.758  12.990  1.00  0.00     0.168 HD
HETATM    4  C5  UNL     1      -4.176   4.087  12.589  1.00  0.00     0.025 A 
HETATM    5  C11 UNL     1      -3.488   5.158  13.096  1.00  0.00     0.078 A 
HETATM    6  S2  UNL     1      -4.218   5.352  14.627  1.00  0.00    -0.064 SA
ENDROOT
BRANCH   4   7
HETATM    7  C6  UNL     1      -3.822   3.577  11.198  1.00  0.00     0.134 C 
BRANCH   7   8
HETATM    8  C7  UNL     1      -3.979   2.114  11.112  1.00  0.00     0.086 A 
HETATM    9  N4  UNL     1      -3.066   1.151  11.361  1.00  0.00    -0.348 N 
HETATM   10  C8  UNL     1      -3.594  -0.060  11.170  1.00  0.00     0.022 A 
ATOM     11  H4  UNL     1      -2.105   1.324  11.655  1.00  0.00     0.167 HD
HETATM   12  C9  UNL     1      -2.940  -1.382  11.332  1.00  0.00     0.069 C 
HETATM   13  C10 UNL     1      -4.899   0.152  10.782  1.00  0.00     0.114 A 
HETATM   14  N5  UNL     1      -5.111   1.476  10.754  1.00  0.00    -0.354 N 
ATOM     15  H5  UNL     1      -5.990   1.929  10.502  1.00  0.00     0.166 HD
ENDBRANCH   7   8
ENDBRANCH   4   7
BRANCH   1  16
HETATM   16  N2  UNL     1      -6.229   3.689  15.424  1.00  0.00    -0.314 N 
ATOM     17  H2  UNL     1      -7.117   4.174  15.548  1.00  0.00     0.170 HD
BRANCH  16  18
HETATM   18  C3  UNL     1      -5.867   2.542  16.215  1.00  0.00     0.173 C 
HETATM   19  S1  UNL     1      -7.020   1.684  16.983  1.00  0.00    -0.041 SA
BRANCH  18  20
HETATM   20  N1  UNL     1      -4.519   2.144  16.338  1.00  0.00    -0.367 N 
ATOM     21  H1  UNL     1      -3.804   2.824  16.598  1.00  0.00     0.161 HD
BRANCH  20  22
HETATM   22  C2  UNL     1      -4.161   0.775  16.093  1.00  0.00     0.117 C 
HETATM   23  C1  UNL     1      -4.378   0.441  14.611  1.00  0.00     0.026 C 
ENDBRANCH  20  22
ENDBRANCH  18  20
ENDBRANCH  16  18
ENDBRANCH   1  16
TORSDOF 6
ENDMDL
MODEL 4
REMARK VINA RESULT: -5.684241937      2.064      3.201
REMARK  6 active torsions:
REMARK  status: ('A' for Active; 'I' for Inactive)
REMARK    1  A    between atoms: C2_2  and  N1_3 
REMARK    2  A    between atoms: N1_3  and  C3_5 
REMARK    3  A    between atoms: C3_5  and  N2_7 
REMARK    4  A    between atoms: N2_7  and  C4_9 
REMARK    5  A    between atoms: C5_12  and  C6_13 
REMARK    6  A    between atoms: C6_13  and  C7_14 
ROOT
HETATM    1  C4  UNL     1      -2.185   1.409  11.536  1.00  0.00     0.150 A 
HETATM    2  N3  UNL     1      -2.927   2.192  12.318  1.00  0.00    -0.339 N 
ATOM      3  H3  UNL     1      -2.516   3.003  12.779  1.00  0.00     0.168 HD
HETATM    4  C5  UNL     1      -4.183   1.905  12.483  1.00  0.00     0.025 A 
HETATM    5  C11 UNL     1      -4.679   0.802  11.839  1.00  0.00     0.078 A 
HETATM    6  S2  UNL     1      -3.299   0.224  11.017  1.00  0.00    -0.064 SA
ENDROOT
BRANCH   4   7
HETATM    7  C6  UNL     1      -5.121   2.732  13.353  1.00  0.00     0.134 C 
BRANCH   7   8
HETATM    8  C7  UNL     1      -5.099   2.268  14.751  1.00  0.00     0.086 A 
HETATM    9  N4  UNL     1      -5.963   2.550  15.749  1.00  0.00    -0.348 N 
HETATM   10  C8  UNL     1      -5.599   1.935  16.876  1.00  0.00     0.022 A 
ATOM     11  H4  UNL     1      -6.782   3.151  15.655  1.00  0.00     0.167 HD
HETATM   12  C9  UNL     1      -6.268   1.976  18.200  1.00  0.00     0.069 C 
HETATM   13  C10 UNL     1      -4.452   1.234  16.573  1.00  0.00     0.114 A 
HETATM   14  N5  UNL     1      -4.166   1.450  15.280  1.00  0.00    -0.354 N 
ATOM     15  H5  UNL     1      -3.371   1.057  14.777  1.00  0.00     0.166 HD
ENDBRANCH   7   8
ENDBRANCH   4   7
BRANCH   1  16
HETATM   16  N2  UNL     1      -0.909   1.523  11.241  1.00  0.00    -0.314 N 
ATOM     17  H2  UNL     1      -0.290   0.714  11.199  1.00  0.00     0.170 HD
BRANCH  16  18
HETATM   18  C3  UNL     1      -0.440   2.858  10.984  1.00  0.00     0.173 C 
HETATM   19  S1  UNL     1      -0.696   3.548   9.529  1.00  0.00    -0.041 SA
BRANCH  18  20
HETATM   20  N1  UNL     1       0.244   3.590  11.978  1.00  0.00    -0.367 N 
ATOM     21  H1  UNL     1       0.916   3.123  12.588  1.00  0.00     0.161 HD
BRANCH  20  22
HETATM   22  C2  UNL     1      -0.015   4.995  12.126  1.00  0.00     0.117 C 
HETATM   23  C1  UNL     1      -1.140   5.208  13.148  1.00  0.00     0.026 C 
ENDBRANCH  20  22
ENDBRANCH  18  20
ENDBRANCH  16  18
ENDBRANCH   1  16
TORSDOF 6
ENDMDL
MODEL 5
REMARK VINA RESULT: -5.673397300      2.804      4.517
REMARK  6 active torsions:
REMARK  status: ('A' for Active; 'I' for Inactive)
REMARK    1  A    between atoms: C2_2  and  N1_3 
REMARK    2  A    between atoms: N1_3  and  C3_5 
REMARK    3  A    between atoms: C3_5  and  N2_7 
REMARK    4  A    between atoms: N2_7  and  C4_9 
REMARK    5  A    between atoms: C5_12  and  C6_13 
REMARK    6  A    between atoms: C6_13  and  C7_14 
ROOT
HETATM    1  C4  UNL     1      -2.213   4.454  13.983  1.00  0.00     0.150 A 
HETATM    2  N3  UNL     1      -2.886   3.304  13.967  1.00  0.00    -0.339 N 
ATOM      3  H3  UNL     1      -2.405   2.425  13.781  1.00  0.00     0.168 HD
HETATM    4  C5  UNL     1      -4.166   3.322  14.194  1.00  0.00     0.025 A 
HETATM    5  C11 UNL     1      -4.757   4.534  14.437  1.00  0.00     0.078 A 
HETATM    6  S2  UNL     1      -3.429   5.602  14.328  1.00  0.00    -0.064 SA
ENDROOT
BRANCH   4   7
HETATM    7  C6  UNL     1      -5.030   2.068  14.200  1.00  0.00     0.134 C 
BRANCH   7   8
HETATM    8  C7  UNL     1      -4.694   1.184  13.070  1.00  0.00     0.086 A 
HETATM    9  N4  UNL     1      -4.002   0.025  13.080  1.00  0.00    -0.348 N 
HETATM   10  C8  UNL     1      -3.910  -0.480  11.847  1.00  0.00     0.022 A 
ATOM     11  H4  UNL     1      -3.606  -0.407  13.914  1.00  0.00     0.167 HD
HETATM   12  C9  UNL     1      -3.238  -1.731  11.417  1.00  0.00     0.069 C 
HETATM   13  C10 UNL     1      -4.572   0.405  11.024  1.00  0.00     0.114 A 
HETATM   14  N5  UNL     1      -5.040   1.405  11.785  1.00  0.00    -0.354 N 
ATOM     15  H5  UNL     1      -5.573   2.206  11.447  1.00  0.00     0.166 HD
ENDBRANCH   7   8
ENDBRANCH   4   7
BRANCH   1  16
HETATM   16  N2  UNL     1      -0.930   4.652  13.781  1.00  0.00    -0.314 N 
ATOM     17  H2  UNL     1      -0.281   4.818  14.550  1.00  0.00     0.170 HD
BRANCH  16  18
HETATM   18  C3  UNL     1      -0.497   4.620  12.409  1.00  0.00     0.173 C 
HETATM   19  S1  UNL     1      -0.828   5.872  11.419  1.00  0.00    -0.041 SA
BRANCH  18  20
HETATM   20  N1  UNL     1       0.217   3.514  11.901  1.00  0.00    -0.367 N 
ATOM     21  H1  UNL     1       1.046   3.171  12.387  1.00  0.00     0.161 HD
BRANCH  20  22
HETATM   22  C2  UNL     1      -0.232   2.875  10.696  1.00  0.00     0.117 C 
HETATM   23  C1  UNL     1      -1.198   1.735  11.045  1.00  0.00     0.026 C 
ENDBRANCH  20  22
ENDBRANCH  18  20
ENDBRANCH  16  18
ENDBRANCH   1  16
TORSDOF 6
ENDMDL
