MODEL 1
REMARK VINA RESULT: -6.648509887      0.000      0.000
REMARK  3 active torsions:
REMARK  status: ('A' for Active; 'I' for Inactive)
REMARK    1  A    between atoms: C3_7  and  C4_8 
REMARK    2  A    between atoms: C7_11  and  N3_12 
REMARK    3  A    between atoms: N3_12  and  C8_14 
ROOT
HETATM    1  C1  UNL     1      -4.827   5.691  13.711  1.00  0.00     0.072 C 
HETATM    2  C2  UNL     1      -5.373   4.764  14.759  1.00  0.00     0.050 A 
HETATM    3  N1  UNL     1      -6.303   5.176  15.600  1.00  0.00    -0.302 N 
ATOM      4  H1  UNL     1      -6.672   6.125  15.662  1.00  0.00     0.186 HD
HETATM    5  N2  UNL     1      -6.683   4.131  16.364  1.00  0.00    -0.298 N 
ATOM      6  H2  UNL     1      -7.385   4.163  17.104  1.00  0.00     0.187 HD
HETATM    7  C3  UNL     1      -5.985   3.033  15.990  1.00  0.00     0.078 A 
HETATM    8  C7  UNL     1      -5.146   3.469  14.969  1.00  0.00     0.081 A 
ENDROOT
BRANCH   8   9
HETATM    9  N3  UNL     1      -4.128   2.649  14.375  1.00  0.00    -0.375 N 
ATOM     10  H3  UNL     1      -3.176   2.681  14.740  1.00  0.00     0.160 HD
BRANCH   9  11
HETATM   11  C8  UNL     1      -4.438   1.774  13.262  1.00  0.00     0.155 C 
HETATM   12  C9  UNL     1      -4.145   0.329  13.479  1.00  0.00     0.142 C 
HETATM   13  S1  UNL     1      -4.108  -0.535  11.908  1.00  0.00     0.035 S 
HETATM   14  O1  UNL     1      -2.471  -0.480  11.372  1.00  0.00    -0.256 OA
HETATM   15  C10 UNL     1      -4.951   0.530  10.728  1.00  0.00     0.229 C 
HETATM   16  N4  UNL     1      -4.258   1.800  10.805  1.00  0.00    -0.372 N 
HETATM   17  C11 UNL     1      -3.748   2.259  12.049  1.00  0.00     0.097 C 
ATOM     18  H4  UNL     1      -4.137   2.366   9.965  1.00  0.00     0.161 HD
HETATM   19  S2  UNL     1      -2.462   3.230  12.222  1.00  0.00    -0.063 SA
ENDBRANCH   9  11
ENDBRANCH   8   9
BRANCH   7  20
HETATM   20  C4  UNL     1      -6.192   1.659  16.463  1.00  0.00    -0.057 C 
HETATM   21  C5  UNL     1      -7.594   1.357  16.839  1.00  0.00     0.045 C 
HETATM   22  C6  UNL     1      -5.106   0.991  17.188  1.00  0.00     0.045 C 
ENDBRANCH   7  20
TORSDOF 3
ENDMDL
MODEL 2
REMARK VINA RESULT: -6.476003570      0.541      2.961
REMARK  3 active torsions:
REMARK  status: ('A' for Active; 'I' for Inactive)
REMARK    1  A    between atoms: C3_7  and  C4_8 
REMARK    2  A    between atoms: C7_11  and  N3_12 
REMARK    3  A    between atoms: N3_12  and  C8_14 
ROOT
HETATM    1  C1  UNL     1      -5.976   1.533  16.601  1.00  0.00     0.072 C 
HETATM    2  C2  UNL     1      -5.881   2.870  15.922  1.00  0.00     0.050 A 
HETATM    3  N1  UNL     1      -6.709   3.845  16.244  1.00  0.00    -0.302 N 
ATOM      4  H1  UNL     1      -7.491   3.773  16.896  1.00  0.00     0.186 HD
HETATM    5  N2  UNL     1      -6.350   4.955  15.566  1.00  0.00    -0.298 N 
ATOM      6  H2  UNL     1      -6.820   5.859  15.617  1.00  0.00     0.187 HD
HETATM    7  C3  UNL     1      -5.263   4.676  14.807  1.00  0.00     0.078 A 
HETATM    8  C7  UNL     1      -4.992   3.332  15.046  1.00  0.00     0.081 A 
ENDROOT
BRANCH   8   9
HETATM    9  N3  UNL     1      -3.994   2.586  14.331  1.00  0.00    -0.375 N 
ATOM     10  H3  UNL     1      -3.013   2.668  14.601  1.00  0.00     0.160 HD
BRANCH   9  11
HETATM   11  C8  UNL     1      -4.364   1.718  13.232  1.00  0.00     0.155 C 
HETATM   12  C9  UNL     1      -4.090   0.268  13.438  1.00  0.00     0.142 C 
HETATM   13  S1  UNL     1      -4.132  -0.597  11.868  1.00  0.00     0.035 S 
HETATM   14  O1  UNL     1      -2.517  -0.573  11.266  1.00  0.00    -0.256 OA
HETATM   15  C10 UNL     1      -5.002   0.483  10.722  1.00  0.00     0.229 C 
HETATM   16  N4  UNL     1      -4.283   1.741  10.770  1.00  0.00    -0.372 N 
HETATM   17  C11 UNL     1      -3.715   2.189  11.992  1.00  0.00     0.097 C 
ATOM     18  H4  UNL     1      -4.185   2.304   9.926  1.00  0.00     0.161 HD
HETATM   19  S2  UNL     1      -2.405   3.137  12.113  1.00  0.00    -0.063 SA
ENDBRANCH   9  11
ENDBRANCH   8   9
BRANCH   7  20
HETATM   20  C4  UNL     1      -4.468   5.633  14.030  1.00  0.00    -0.057 C 
HETATM   21  C5  UNL     1      -3.650   6.550  14.860  1.00  0.00     0.045 C 
HETATM   22  C6  UNL     1      -5.000   6.121  12.753  1.00  0.00     0.045 C 
ENDBRANCH   7  20
TORSDOF 3
ENDMDL
MODEL 3
REMARK VINA RESULT: -5.984253743      3.258      4.751
REMARK  3 active torsions:
REMARK  status: ('A' for Active; 'I' for Inactive)
REMARK    1  A    between atoms: C3_7  and  C4_8 
REMARK    2  A    between atoms: C7_11  and  N3_12 
REMARK    3  A    between atoms: N3_12  and  C8_14 
ROOT
HETATM    1  C1  UNL     1      -3.463   3.404  15.250  1.00  0.00     0.072 C 
HETATM    2  C2  UNL     1      -3.648   2.148  14.446  1.00  0.00     0.050 A 
HETATM    3  N1  UNL     1      -4.362   1.146  14.922  1.00  0.00    -0.302 N 
ATOM      4  H1  UNL     1      -4.778   1.100  15.853  1.00  0.00     0.186 HD
HETATM    5  N2  UNL     1      -4.451   0.192  13.972  1.00  0.00    -0.298 N 
ATOM      6  H2  UNL     1      -4.940  -0.697  14.070  1.00  0.00     0.187 HD
HETATM    7  C3  UNL     1      -3.785   0.607  12.867  1.00  0.00     0.078 A 
HETATM    8  C7  UNL     1      -3.272   1.857  13.202  1.00  0.00     0.081 A 
ENDROOT
BRANCH   8   9
HETATM    9  N3  UNL     1      -2.378   2.598  12.359  1.00  0.00    -0.375 N 
ATOM     10  H3  UNL     1      -1.461   2.212  12.133  1.00  0.00     0.160 HD
BRANCH   9  11
HETATM   11  C8  UNL     1      -2.763   3.888  11.824  1.00  0.00     0.155 C 
HETATM   12  C9  UNL     1      -4.160   3.982  11.315  1.00  0.00     0.142 C 
HETATM   13  S1  UNL     1      -4.339   5.425  10.266  1.00  0.00     0.035 S 
HETATM   14  O1  UNL     1      -3.992   4.897   8.662  1.00  0.00    -0.256 OA
HETATM   15  C10 UNL     1      -2.944   6.498  10.645  1.00  0.00     0.229 C 
HETATM   16  N4  UNL     1      -1.770   5.673  10.446  1.00  0.00    -0.372 N 
HETATM   17  C11 UNL     1      -1.807   4.291  10.772  1.00  0.00     0.097 C 
ATOM     18  H4  UNL     1      -0.916   6.084  10.071  1.00  0.00     0.161 HD
HETATM   19  S2  UNL     1      -0.913   3.144  10.056  1.00  0.00    -0.063 SA
ENDBRANCH   9  11
ENDBRANCH   8   9
BRANCH   7  20
HETATM   20  C4  UNL     1      -3.755  -0.060  11.561  1.00  0.00    -0.057 C 
HETATM   21  C5  UNL     1      -4.880   0.311  10.668  1.00  0.00     0.045 C 
HETATM   22  C6  UNL     1      -3.201  -1.416  11.473  1.00  0.00     0.045 C 
ENDBRANCH   7  20
TORSDOF 3
ENDMDL
MODEL 4
REMARK VINA RESULT: -5.981919850      2.177      3.968
REMARK  3 active torsions:
REMARK  status: ('A' for Active; 'I' for Inactive)
REMARK    1  A    between atoms: C3_7  and  C4_8 
REMARK    2  A    between atoms: C7_11  and  N3_12 
REMARK    3  A    between atoms: N3_12  and  C8_14 
ROOT
HETATM    1  C1  UNL     1      -4.139  -0.117  14.537  1.00  0.00     0.072 C 
HETATM    2  C2  UNL     1      -4.664   1.264  14.812  1.00  0.00     0.050 A 
HETATM    3  N1  UNL     1      -5.149   1.571  16.000  1.00  0.00    -0.302 N 
ATOM      4  H1  UNL     1      -5.271   0.925  16.780  1.00  0.00     0.186 HD
HETATM    5  N2  UNL     1      -5.458   2.885  16.010  1.00  0.00    -0.298 N 
ATOM      6  H2  UNL     1      -5.858   3.393  16.799  1.00  0.00     0.187 HD
HETATM    7  C3  UNL     1      -5.151   3.420  14.804  1.00  0.00     0.078 A 
HETATM    8  C7  UNL     1      -4.655   2.358  14.054  1.00  0.00     0.081 A 
ENDROOT
BRANCH   8   9
HETATM    9  N3  UNL     1      -4.335   2.455  12.657  1.00  0.00    -0.375 N 
ATOM     10  H3  UNL     1      -5.045   2.231  11.960  1.00  0.00     0.160 HD
BRANCH   9  11
HETATM   11  C8  UNL     1      -3.015   2.870  12.228  1.00  0.00     0.155 C 
HETATM   12  C9  UNL     1      -2.969   4.102  11.390  1.00  0.00     0.142 C 
HETATM   13  S1  UNL     1      -1.392   4.214  10.545  1.00  0.00     0.035 S 
HETATM   14  O1  UNL     1      -1.604   3.420   9.030  1.00  0.00    -0.256 OA
HETATM   15  C10 UNL     1      -0.272   3.111  11.421  1.00  0.00     0.229 C 
HETATM   16  N4  UNL     1      -0.936   1.823  11.421  1.00  0.00    -0.372 N 
HETATM   17  C11 UNL     1      -2.351   1.751  11.529  1.00  0.00     0.097 C 
ATOM     18  H4  UNL     1      -0.387   0.967  11.343  1.00  0.00     0.161 HD
HETATM   19  S2  UNL     1      -3.268   0.564  10.916  1.00  0.00    -0.063 SA
ENDBRANCH   9  11
ENDBRANCH   8   9
BRANCH   7  20
HETATM   20  C4  UNL     1      -5.193   4.840  14.440  1.00  0.00    -0.057 C 
HETATM   21  C5  UNL     1      -3.924   5.565  14.693  1.00  0.00     0.045 C 
HETATM   22  C6  UNL     1      -6.461   5.566  14.573  1.00  0.00     0.045 C 
ENDBRANCH   7  20
TORSDOF 3
ENDMDL
MODEL 5
REMARK VINA RESULT: -5.842433726      2.994      4.413
REMARK  3 active torsions:
REMARK  status: ('A' for Active; 'I' for Inactive)
REMARK    1  A    between atoms: C3_7  and  C4_8 
REMARK    2  A    between atoms: C7_11  and  N3_12 
REMARK    3  A    between atoms: N3_12  and  C8_14 
ROOT
HETATM    1  C1  UNL     1      -3.884  -0.659  11.490  1.00  0.00     0.072 C 
HETATM    2  C2  UNL     1      -4.193   0.289  12.614  1.00  0.00     0.050 A 
HETATM    3  N1  UNL     1      -4.330  -0.158  13.848  1.00  0.00    -0.302 N 
ATOM      4  H1  UNL     1      -4.308  -1.138  14.134  1.00  0.00     0.186 HD
HETATM    5  N2  UNL     1      -4.504   0.898  14.670  1.00  0.00    -0.298 N 
ATOM      6  H2  UNL     1      -4.642   0.847  15.679  1.00  0.00     0.187 HD
HETATM    7  C3  UNL     1      -4.466   2.037  13.938  1.00  0.00     0.078 A 
HETATM    8  C7  UNL     1      -4.276   1.617  12.625  1.00  0.00     0.081 A 
ENDROOT
BRANCH   8   9
HETATM    9  N3  UNL     1      -4.314   2.503  11.496  1.00  0.00    -0.375 N 
ATOM     10  H3  UNL     1      -5.203   2.905  11.199  1.00  0.00     0.160 HD
BRANCH   9  11
HETATM   11  C8  UNL     1      -3.102   2.835  10.774  1.00  0.00     0.155 C 
HETATM   12  C9  UNL     1      -1.828   2.541  11.489  1.00  0.00     0.142 C 
HETATM   13  S1  UNL     1      -0.472   3.427  10.720  1.00  0.00     0.035 S 
HETATM   14  O1  UNL     1      -0.362   4.939  11.541  1.00  0.00    -0.256 OA
HETATM   15  C10 UNL     1      -1.045   3.903   9.082  1.00  0.00     0.229 C 
HETATM   16  N4  UNL     1      -2.274   4.636   9.312  1.00  0.00    -0.372 N 
HETATM   17  C11 UNL     1      -3.144   4.254  10.367  1.00  0.00     0.097 C 
ATOM     18  H4  UNL     1      -2.513   5.428   8.715  1.00  0.00     0.161 HD
HETATM   19  S2  UNL     1      -4.136   5.261  11.161  1.00  0.00    -0.063 SA
ENDBRANCH   9  11
ENDBRANCH   8   9
BRANCH   7  20
HETATM   20  C4  UNL     1      -4.469   3.411  14.455  1.00  0.00    -0.057 C 
HETATM   21  C5  UNL     1      -3.131   3.904  14.863  1.00  0.00     0.045 C 
HETATM   22  C6  UNL     1      -5.651   3.889  15.180  1.00  0.00     0.045 C 
ENDBRANCH   7  20
TORSDOF 3
ENDMDL
