MODEL 1
REMARK VINA RESULT: -7.688021018      0.000      0.000
REMARK  3 active torsions:
REMARK  status: ('A' for Active; 'I' for Inactive)
REMARK    1  A    between atoms: C5_5  and  C6_6 
REMARK    2  A    between atoms: C6_6  and  C7_7 
REMARK    3  A    between atoms: C7_7  and  N1_8 
ROOT
HETATM    1  C1  UNL     1      -6.240   5.455  15.171  1.00  0.00     0.049 C 
HETATM    2  C2  UNL     1      -5.536   4.241  14.736  1.00  0.00    -0.043 A 
HETATM    3  C3  UNL     1      -4.731   4.244  13.590  1.00  0.00     0.022 A 
HETATM    4  C4  UNL     1      -4.050   3.135  13.139  1.00  0.00     0.001 A 
HETATM    5  C5  UNL     1      -3.219   2.921  12.058  1.00  0.00    -0.029 A 
HETATM    6  C10 UNL     1      -2.841   1.587  12.143  1.00  0.00     0.096 A 
HETATM    7  N2  UNL     1      -3.421   1.042  13.222  1.00  0.00    -0.363 N 
ATOM      8  H2  UNL     1      -3.312   0.073  13.519  1.00  0.00     0.165 HD
HETATM    9  C11 UNL     1      -4.162   1.959  13.848  1.00  0.00     0.071 A 
HETATM   10  C12 UNL     1      -4.944   1.902  14.988  1.00  0.00     0.080 A 
HETATM   11  N3  UNL     1      -5.025   0.726  15.653  1.00  0.00    -0.305 N 
ATOM     12  H3  UNL     1      -4.518  -0.093  15.318  1.00  0.00     0.171 HD
HETATM   13  C13 UNL     1      -5.782   0.651  16.762  1.00  0.00     0.327 A 
HETATM   14  O1  UNL     1      -5.897  -0.420  17.424  1.00  0.00    -0.247 OA
HETATM   15  N4  UNL     1      -6.440   1.742  17.187  1.00  0.00    -0.275 N 
ATOM     16  H4  UNL     1      -7.012   1.677  18.030  1.00  0.00     0.173 HD
HETATM   17  C14 UNL     1      -6.368   2.927  16.531  1.00  0.00     0.262 A 
HETATM   18  O2  UNL     1      -6.991   3.915  16.957  1.00  0.00    -0.267 OA
HETATM   19  C15 UNL     1      -5.603   3.025  15.400  1.00  0.00     0.067 A 
ENDROOT
BRANCH   5  20
HETATM   20  C6  UNL     1      -2.812   3.881  11.028  1.00  0.00     0.071 C 
BRANCH  20  21
HETATM   21  C7  UNL     1      -1.391   4.347  11.124  1.00  0.00     0.276 C 
BRANCH  21  22
HETATM   22  N1  UNL     1      -0.582   3.655  10.166  1.00  0.00     0.080 N 
HETATM   23  C8  UNL     1       0.837   3.859  10.373  1.00  0.00     0.309 C 
HETATM   24  C9  UNL     1      -0.922   3.886   8.799  1.00  0.00     0.309 C 
ENDBRANCH  21  22
ENDBRANCH  20  21
ENDBRANCH   5  20
TORSDOF 3
ENDMDL
MODEL 2
REMARK VINA RESULT: -7.566920640      1.050      1.446
REMARK  3 active torsions:
REMARK  status: ('A' for Active; 'I' for Inactive)
REMARK    1  A    between atoms: C5_5  and  C6_6 
REMARK    2  A    between atoms: C6_6  and  C7_7 
REMARK    3  A    between atoms: C7_7  and  N1_8 
ROOT
HETATM    1  C1  UNL     1      -6.249   5.427  15.218  1.00  0.00     0.049 C 
HETATM    2  C2  UNL     1      -5.522   4.236  14.755  1.00  0.00    -0.043 A 
HETATM    3  C3  UNL     1      -4.711   4.283  13.614  1.00  0.00     0.022 A 
HETATM    4  C4  UNL     1      -4.010   3.199  13.138  1.00  0.00     0.001 A 
HETATM    5  C5  UNL     1      -3.170   3.027  12.056  1.00  0.00    -0.029 A 
HETATM    6  C10 UNL     1      -2.770   1.698  12.108  1.00  0.00     0.096 A 
HETATM    7  N2  UNL     1      -3.345   1.115  13.168  1.00  0.00    -0.363 N 
ATOM      8  H2  UNL     1      -3.221   0.140  13.440  1.00  0.00     0.165 HD
HETATM    9  C11 UNL     1      -4.105   2.002  13.815  1.00  0.00     0.071 A 
HETATM   10  C12 UNL     1      -4.891   1.901  14.948  1.00  0.00     0.080 A 
HETATM   11  N3  UNL     1      -4.956   0.707  15.582  1.00  0.00    -0.305 N 
ATOM     12  H3  UNL     1      -4.433  -0.094  15.228  1.00  0.00     0.171 HD
HETATM   13  C13 UNL     1      -5.716   0.590  16.684  1.00  0.00     0.327 A 
HETATM   14  O1  UNL     1      -5.816  -0.500  17.318  1.00  0.00    -0.247 OA
HETATM   15  N4  UNL     1      -6.396   1.658  17.135  1.00  0.00    -0.275 N 
ATOM     16  H4  UNL     1      -6.970   1.561  17.972  1.00  0.00     0.173 HD
HETATM   17  C14 UNL     1      -6.341   2.861  16.511  1.00  0.00     0.262 A 
HETATM   18  O2  UNL     1      -6.982   3.827  16.959  1.00  0.00    -0.267 OA
HETATM   19  C15 UNL     1      -5.572   3.002  15.387  1.00  0.00     0.067 A 
ENDROOT
BRANCH   5  20
HETATM   20  C6  UNL     1      -2.775   4.021  11.054  1.00  0.00     0.071 C 
BRANCH  20  21
HETATM   21  C7  UNL     1      -1.412   4.612  11.252  1.00  0.00     0.276 C 
BRANCH  21  22
HETATM   22  N1  UNL     1      -1.524   5.938  11.781  1.00  0.00     0.080 N 
HETATM   23  C8  UNL     1      -1.318   5.995  13.213  1.00  0.00     0.309 C 
HETATM   24  C9  UNL     1      -2.715   6.639  11.422  1.00  0.00     0.309 C 
ENDBRANCH  21  22
ENDBRANCH  20  21
ENDBRANCH   5  20
TORSDOF 3
ENDMDL
MODEL 3
REMARK VINA RESULT: -7.439044675      3.304      4.587
REMARK  3 active torsions:
REMARK  status: ('A' for Active; 'I' for Inactive)
REMARK    1  A    between atoms: C5_5  and  C6_6 
REMARK    2  A    between atoms: C6_6  and  C7_7 
REMARK    3  A    between atoms: C7_7  and  N1_8 
ROOT
HETATM    1  C1  UNL     1      -4.679   1.717  16.449  1.00  0.00     0.049 C 
HETATM    2  C2  UNL     1      -4.201   2.321  15.198  1.00  0.00    -0.043 A 
HETATM    3  C3  UNL     1      -3.900   3.687  15.123  1.00  0.00     0.022 A 
HETATM    4  C4  UNL     1      -3.449   4.302  13.977  1.00  0.00     0.001 A 
HETATM    5  C5  UNL     1      -3.101   5.606  13.689  1.00  0.00    -0.029 A 
HETATM    6  C10 UNL     1      -2.723   5.598  12.352  1.00  0.00     0.096 A 
HETATM    7  N2  UNL     1      -2.843   4.351  11.876  1.00  0.00    -0.363 N 
ATOM      8  H2  UNL     1      -2.630   4.065  10.921  1.00  0.00     0.165 HD
HETATM    9  C11 UNL     1      -3.282   3.540  12.841  1.00  0.00     0.071 A 
HETATM   10  C12 UNL     1      -3.564   2.186  12.860  1.00  0.00     0.080 A 
HETATM   11  N3  UNL     1      -3.385   1.476  11.722  1.00  0.00    -0.305 N 
ATOM     12  H3  UNL     1      -3.049   1.934  10.875  1.00  0.00     0.171 HD
HETATM   13  C13 UNL     1      -3.656   0.159  11.721  1.00  0.00     0.327 A 
HETATM   14  O1  UNL     1      -3.509  -0.555  10.689  1.00  0.00    -0.247 OA
HETATM   15  N4  UNL     1      -4.096  -0.426  12.848  1.00  0.00    -0.275 N 
ATOM     16  H4  UNL     1      -4.299  -1.425  12.839  1.00  0.00     0.173 HD
HETATM   17  C14 UNL     1      -4.280   0.273  13.996  1.00  0.00     0.262 A 
HETATM   18  O2  UNL     1      -4.687  -0.303  15.020  1.00  0.00    -0.267 OA
HETATM   19  C15 UNL     1      -4.010   1.615  14.019  1.00  0.00     0.067 A 
ENDROOT
BRANCH   5  20
HETATM   20  C6  UNL     1      -3.120   6.765  14.585  1.00  0.00     0.071 C 
BRANCH  20  21
HETATM   21  C7  UNL     1      -2.494   8.007  14.027  1.00  0.00     0.276 C 
BRANCH  21  22
HETATM   22  N1  UNL     1      -1.140   8.121  14.480  1.00  0.00     0.080 N 
HETATM   23  C8  UNL     1      -0.978   9.099  15.535  1.00  0.00     0.309 C 
HETATM   24  C9  UNL     1      -0.169   8.332  13.454  1.00  0.00     0.309 C 
ENDBRANCH  21  22
ENDBRANCH  20  21
ENDBRANCH   5  20
TORSDOF 3
ENDMDL
MODEL 4
REMARK VINA RESULT: -7.431591420      3.176      6.650
REMARK  3 active torsions:
REMARK  status: ('A' for Active; 'I' for Inactive)
REMARK    1  A    between atoms: C5_5  and  C6_6 
REMARK    2  A    between atoms: C6_6  and  C7_7 
REMARK    3  A    between atoms: C7_7  and  N1_8 
ROOT
HETATM    1  C1  UNL     1      -4.718   0.515  11.104  1.00  0.00     0.049 C 
HETATM    2  C2  UNL     1      -4.182   1.658  11.858  1.00  0.00    -0.043 A 
HETATM    3  C3  UNL     1      -4.950   2.303  12.835  1.00  0.00     0.022 A 
HETATM    4  C4  UNL     1      -4.496   3.375  13.569  1.00  0.00     0.001 A 
HETATM    5  C5  UNL     1      -5.073   4.144  14.559  1.00  0.00    -0.029 A 
HETATM    6  C10 UNL     1      -4.108   5.081  14.907  1.00  0.00     0.096 A 
HETATM    7  N2  UNL     1      -3.016   4.874  14.159  1.00  0.00    -0.363 N 
ATOM      8  H2  UNL     1      -2.157   5.421  14.211  1.00  0.00     0.165 HD
HETATM    9  C11 UNL     1      -3.221   3.843  13.336  1.00  0.00     0.071 A 
HETATM   10  C12 UNL     1      -2.420   3.242  12.381  1.00  0.00     0.080 A 
HETATM   11  N3  UNL     1      -1.175   3.733  12.185  1.00  0.00    -0.305 N 
ATOM     12  H3  UNL     1      -0.841   4.527  12.732  1.00  0.00     0.171 HD
HETATM   13  C13 UNL     1      -0.382   3.163  11.261  1.00  0.00     0.327 A 
HETATM   14  O1  UNL     1       0.789   3.579  11.033  1.00  0.00    -0.247 OA
HETATM   15  N4  UNL     1      -0.841   2.118  10.553  1.00  0.00    -0.275 N 
ATOM     16  H4  UNL     1      -0.233   1.690   9.853  1.00  0.00     0.173 HD
HETATM   17  C14 UNL     1      -2.087   1.613  10.738  1.00  0.00     0.262 A 
HETATM   18  O2  UNL     1      -2.475   0.643  10.065  1.00  0.00    -0.267 OA
HETATM   19  C15 UNL     1      -2.909   2.180  11.675  1.00  0.00     0.067 A 
ENDROOT
BRANCH   5  20
HETATM   20  C6  UNL     1      -6.416   4.018  15.133  1.00  0.00     0.071 C 
BRANCH  20  21
HETATM   21  C7  UNL     1      -6.469   3.361  16.479  1.00  0.00     0.276 C 
BRANCH  21  22
HETATM   22  N1  UNL     1      -6.313   1.943  16.340  1.00  0.00     0.080 N 
HETATM   23  C8  UNL     1      -7.367   1.192  16.989  1.00  0.00     0.309 C 
HETATM   24  C9  UNL     1      -5.034   1.431  16.717  1.00  0.00     0.309 C 
ENDBRANCH  21  22
ENDBRANCH  20  21
ENDBRANCH   5  20
TORSDOF 3
ENDMDL
MODEL 5
REMARK VINA RESULT: -7.325420839      3.288      3.953
REMARK  3 active torsions:
REMARK  status: ('A' for Active; 'I' for Inactive)
REMARK    1  A    between atoms: C5_5  and  C6_6 
REMARK    2  A    between atoms: C6_6  and  C7_7 
REMARK    3  A    between atoms: C7_7  and  N1_8 
ROOT
HETATM    1  C1  UNL     1      -6.499   5.670  14.716  1.00  0.00     0.049 C 
HETATM    2  C2  UNL     1      -5.121   5.198  14.522  1.00  0.00    -0.043 A 
HETATM    3  C3  UNL     1      -4.168   5.994  13.875  1.00  0.00     0.022 A 
HETATM    4  C4  UNL     1      -2.866   5.601  13.668  1.00  0.00     0.001 A 
HETATM    5  C5  UNL     1      -1.785   6.214  13.067  1.00  0.00    -0.029 A 
HETATM    6  C10 UNL     1      -0.740   5.305  13.172  1.00  0.00     0.096 A 
HETATM    7  N2  UNL     1      -1.183   4.210  13.804  1.00  0.00    -0.363 N 
ATOM      8  H2  UNL     1      -0.620   3.385  14.014  1.00  0.00     0.165 HD
HETATM    9  C11 UNL     1      -2.472   4.359  14.119  1.00  0.00     0.071 A 
HETATM   10  C12 UNL     1      -3.373   3.533  14.765  1.00  0.00     0.080 A 
HETATM   11  N3  UNL     1      -2.943   2.323  15.192  1.00  0.00    -0.305 N 
ATOM     12  H3  UNL     1      -1.977   2.034  15.039  1.00  0.00     0.171 HD
HETATM   13  C13 UNL     1      -3.805   1.505  15.820  1.00  0.00     0.327 A 
HETATM   14  O1  UNL     1      -3.463   0.362  16.240  1.00  0.00    -0.247 OA
HETATM   15  N4  UNL     1      -5.074   1.904  16.013  1.00  0.00    -0.275 N 
ATOM     16  H4  UNL     1      -5.722   1.278  16.491  1.00  0.00     0.173 HD
HETATM   17  C14 UNL     1      -5.519   3.114  15.592  1.00  0.00     0.262 A 
HETATM   18  O2  UNL     1      -6.699   3.450  15.791  1.00  0.00    -0.267 OA
HETATM   19  C15 UNL     1      -4.657   3.963  14.950  1.00  0.00     0.067 A 
ENDROOT
BRANCH   5  20
HETATM   20  C6  UNL     1      -1.732   7.539  12.443  1.00  0.00     0.071 C 
BRANCH  20  21
HETATM   21  C7  UNL     1      -0.971   8.573  13.217  1.00  0.00     0.276 C 
BRANCH  21  22
HETATM   22  N1  UNL     1      -1.785   9.089  14.277  1.00  0.00     0.080 N 
HETATM   23  C8  UNL     1      -2.038  10.510  14.154  1.00  0.00     0.309 C 
HETATM   24  C9  UNL     1      -1.337   8.777  15.597  1.00  0.00     0.309 C 
ENDBRANCH  21  22
ENDBRANCH  20  21
ENDBRANCH   5  20
TORSDOF 3
ENDMDL
