MODEL 1
REMARK VINA RESULT: -6.955239298      0.000      0.000
REMARK  10 active torsions:
REMARK  status: ('A' for Active; 'I' for Inactive)
REMARK    1  A    between atoms: N1_1  and  C1_4 
REMARK    2  A    between atoms: C2_7  and  S1_8 
REMARK    3  A    between atoms: S1_8  and  C3_9 
REMARK    4  A    between atoms: C4_10  and  C5_11 
REMARK    5  A    between atoms: C5_11  and  O1_12 
REMARK    6  A    between atoms: C5_11  and  O2_14 
REMARK    7  A    between atoms: N3_16  and  O3_17 
REMARK    8  A    between atoms: C6_19  and  N4_20 
REMARK    9  A    between atoms: N4_20  and  N5_22 
REMARK   10  A    between atoms: C7_25  and  N6_26 
ROOT
HETATM    1  C1  UNL     1      36.561 -23.652  42.556  1.00  0.00     0.679 C 
HETATM    2  N2  UNL     1      37.505 -22.776  42.098  1.00  0.00    -0.168 N 
ATOM      3  H2  UNL     1      37.591 -21.885  42.588  1.00  0.00     0.186 HD
HETATM    4  C2  UNL     1      38.340 -22.989  41.047  1.00  0.00     0.192 C 
HETATM    5  N3  UNL     1      38.423 -24.076  40.240  1.00  0.00    -0.179 N 
HETATM    6  C6  UNL     1      37.532 -25.068  40.006  1.00  0.00     0.194 C 
HETATM    7  C7  UNL     1      36.315 -25.151  40.648  1.00  0.00     0.163 C 
HETATM    8  N7  UNL     1      35.913 -24.594  41.822  1.00  0.00    -0.173 N 
ATOM      9  H7  UNL     1      35.022 -24.922  42.195  1.00  0.00     0.186 HD
ENDROOT
BRANCH   4  10
HETATM   10  S1  UNL     1      39.443 -21.645  40.704  1.00  0.00    -0.063 SA
BRANCH  10  11
HETATM   11  C3  UNL     1      38.544 -20.120  40.556  1.00  0.00     0.054 C 
HETATM   12  C4  UNL     1      38.411 -19.297  41.588  1.00  0.00     0.040 C 
BRANCH  12  13
HETATM   13  C5  UNL     1      39.058 -19.722  42.882  1.00  0.00     0.278 C 
BRANCH  13  14
HETATM   14  O1  UNL     1      38.059 -20.248  43.684  1.00  0.00    -0.368 OA
ATOM     15  H1  UNL     1      38.199 -21.187  43.725  1.00  0.00     0.213 HD
ENDBRANCH  13  14
BRANCH  13  16
HETATM   16  O2  UNL     1      39.622 -18.644  43.560  1.00  0.00    -0.368 OA
ATOM     17  H2  UNL     1      40.568 -18.630  43.477  1.00  0.00     0.213 HD
ENDBRANCH  13  16
ENDBRANCH  12  13
ENDBRANCH  10  11
ENDBRANCH   4  10
BRANCH   5  18
HETATM   18  O3  UNL     1      39.597 -24.166  39.558  1.00  0.00    -0.279 OA
ATOM     19  H3  UNL     1      39.525 -24.623  38.729  1.00  0.00     0.245 HD
ENDBRANCH   5  18
BRANCH   1  20
HETATM   20  N1  UNL     1      36.297 -23.533  43.805  1.00  0.00    -0.234 N 
ATOM     21  H12 UNL     1      35.373 -23.210  44.095  1.00  0.00     0.174 HD
ATOM     22  H11 UNL     1      37.071 -23.783  44.422  1.00  0.00     0.174 HD
ENDBRANCH   1  20
BRANCH   6  23
HETATM   23  N4  UNL     1      37.899 -26.059  39.058  1.00  0.00    -0.287 N 
ATOM     24  H4  UNL     1      37.369 -26.100  38.188  1.00  0.00     0.188 HD
BRANCH  23  25
HETATM   25  N5  UNL     1      38.933 -26.982  39.232  1.00  0.00    -0.343 N 
ATOM     26  H52 UNL     1      39.670 -26.723  39.887  1.00  0.00     0.176 HD
ATOM     27  H51 UNL     1      38.995 -27.882  38.754  1.00  0.00     0.176 HD
ENDBRANCH  23  25
ENDBRANCH   6  23
BRANCH   7  28
HETATM   28  N6  UNL     1      35.443 -25.870  40.036  1.00  0.00    -0.382 N 
ATOM     29  H62 UNL     1      35.773 -26.766  39.677  1.00  0.00     0.157 HD
ATOM     30  H61 UNL     1      34.517 -25.447  39.980  1.00  0.00     0.157 HD
ENDBRANCH   7  28
TORSDOF 10
ENDMDL
MODEL 2
REMARK VINA RESULT: -6.894065053      1.002      1.152
REMARK  10 active torsions:
REMARK  status: ('A' for Active; 'I' for Inactive)
REMARK    1  A    between atoms: N1_1  and  C1_4 
REMARK    2  A    between atoms: C2_7  and  S1_8 
REMARK    3  A    between atoms: S1_8  and  C3_9 
REMARK    4  A    between atoms: C4_10  and  C5_11 
REMARK    5  A    between atoms: C5_11  and  O1_12 
REMARK    6  A    between atoms: C5_11  and  O2_14 
REMARK    7  A    between atoms: N3_16  and  O3_17 
REMARK    8  A    between atoms: C6_19  and  N4_20 
REMARK    9  A    between atoms: N4_20  and  N5_22 
REMARK   10  A    between atoms: C7_25  and  N6_26 
ROOT
HETATM    1  C1  UNL     1      35.868 -24.306  42.728  1.00  0.00     0.679 C 
HETATM    2  N2  UNL     1      36.703 -23.263  42.445  1.00  0.00    -0.168 N 
ATOM      3  H2  UNL     1      36.640 -22.439  43.044  1.00  0.00     0.186 HD
HETATM    4  C2  UNL     1      37.611 -23.226  41.435  1.00  0.00     0.192 C 
HETATM    5  N3  UNL     1      37.885 -24.179  40.509  1.00  0.00    -0.179 N 
HETATM    6  C6  UNL     1      37.153 -25.241  40.096  1.00  0.00     0.194 C 
HETATM    7  C7  UNL     1      35.927 -25.564  40.640  1.00  0.00     0.163 C 
HETATM    8  N7  UNL     1      35.394 -25.222  41.842  1.00  0.00    -0.173 N 
ATOM      9  H7  UNL     1      34.538 -25.708  42.111  1.00  0.00     0.186 HD
ENDROOT
BRANCH   4  10
HETATM   10  S1  UNL     1      38.534 -21.717  41.333  1.00  0.00    -0.063 SA
BRANCH  10  11
HETATM   11  C3  UNL     1      37.445 -20.313  41.379  1.00  0.00     0.054 C 
HETATM   12  C4  UNL     1      37.910 -19.091  41.599  1.00  0.00     0.040 C 
BRANCH  12  13
HETATM   13  C5  UNL     1      39.398 -18.957  41.806  1.00  0.00     0.278 C 
BRANCH  13  14
HETATM   14  O1  UNL     1      39.596 -18.623  43.136  1.00  0.00    -0.368 OA
ATOM     15  H1  UNL     1      39.032 -17.883  43.325  1.00  0.00     0.213 HD
ENDBRANCH  13  14
BRANCH  13  16
HETATM   16  O2  UNL     1      39.940 -17.937  41.028  1.00  0.00    -0.368 OA
ATOM     17  H2  UNL     1      40.593 -17.438  41.504  1.00  0.00     0.213 HD
ENDBRANCH  13  16
ENDBRANCH  12  13
ENDBRANCH  10  11
ENDBRANCH   4  10
BRANCH   5  18
HETATM   18  O3  UNL     1      39.093 -24.026  39.902  1.00  0.00    -0.279 OA
ATOM     19  H3  UNL     1      39.062 -24.113  38.957  1.00  0.00     0.245 HD
ENDBRANCH   5  18
BRANCH   1  20
HETATM   20  N1  UNL     1      35.526 -24.386  43.961  1.00  0.00    -0.234 N 
ATOM     21  H12 UNL     1      36.224 -24.643  44.660  1.00  0.00     0.174 HD
ATOM     22  H11 UNL     1      34.543 -24.176  44.137  1.00  0.00     0.174 HD
ENDBRANCH   1  20
BRANCH   6  23
HETATM   23  N4  UNL     1      37.700 -26.044  39.061  1.00  0.00    -0.287 N 
ATOM     24  H4  UNL     1      37.252 -26.008  38.147  1.00  0.00     0.188 HD
BRANCH  23  25
HETATM   25  N5  UNL     1      38.809 -26.881  39.207  1.00  0.00    -0.343 N 
ATOM     26  H52 UNL     1      39.370 -26.753  40.050  1.00  0.00     0.176 HD
ATOM     27  H51 UNL     1      39.088 -27.598  38.537  1.00  0.00     0.176 HD
ENDBRANCH  23  25
ENDBRANCH   6  23
BRANCH   7  28
HETATM   28  N6  UNL     1      35.196 -26.306  39.886  1.00  0.00    -0.382 N 
ATOM     29  H62 UNL     1      35.456 -27.290  39.837  1.00  0.00     0.157 HD
ATOM     30  H61 UNL     1      34.436 -25.809  39.422  1.00  0.00     0.157 HD
ENDBRANCH   7  28
TORSDOF 10
ENDMDL
MODEL 3
REMARK VINA RESULT: -6.521680083      3.217      6.019
REMARK  10 active torsions:
REMARK  status: ('A' for Active; 'I' for Inactive)
REMARK    1  A    between atoms: N1_1  and  C1_4 
REMARK    2  A    between atoms: C2_7  and  S1_8 
REMARK    3  A    between atoms: S1_8  and  C3_9 
REMARK    4  A    between atoms: C4_10  and  C5_11 
REMARK    5  A    between atoms: C5_11  and  O1_12 
REMARK    6  A    between atoms: C5_11  and  O2_14 
REMARK    7  A    between atoms: N3_16  and  O3_17 
REMARK    8  A    between atoms: C6_19  and  N4_20 
REMARK    9  A    between atoms: N4_20  and  N5_22 
REMARK   10  A    between atoms: C7_25  and  N6_26 
ROOT
HETATM    1  C1  UNL     1      39.451 -22.418  40.123  1.00  0.00     0.679 C 
HETATM    2  N2  UNL     1      38.266 -22.770  40.706  1.00  0.00    -0.168 N 
ATOM      3  H2  UNL     1      37.807 -23.612  40.358  1.00  0.00     0.186 HD
HETATM    4  C2  UNL     1      37.646 -22.095  41.708  1.00  0.00     0.192 C 
HETATM    5  N3  UNL     1      38.043 -20.960  42.336  1.00  0.00    -0.179 N 
HETATM    6  C6  UNL     1      38.925 -20.006  41.954  1.00  0.00     0.194 C 
HETATM    7  C7  UNL     1      39.649 -20.079  40.783  1.00  0.00     0.163 C 
HETATM    8  N7  UNL     1      39.956 -21.160  40.019  1.00  0.00    -0.173 N 
ATOM      9  H7  UNL     1      40.645 -21.011  39.281  1.00  0.00     0.186 HD
ENDROOT
BRANCH   4  10
HETATM   10  S1  UNL     1      36.113 -22.811  42.235  1.00  0.00    -0.063 SA
BRANCH  10  11
HETATM   11  C3  UNL     1      36.007 -24.509  41.722  1.00  0.00     0.054 C 
HETATM   12  C4  UNL     1      35.904 -25.490  42.610  1.00  0.00     0.040 C 
BRANCH  12  13
HETATM   13  C5  UNL     1      35.882 -25.090  44.063  1.00  0.00     0.278 C 
BRANCH  13  14
HETATM   14  O1  UNL     1      37.184 -25.177  44.529  1.00  0.00    -0.368 OA
ATOM     15  H1  UNL     1      37.355 -26.093  44.712  1.00  0.00     0.213 HD
ENDBRANCH  13  14
BRANCH  13  16
HETATM   16  O2  UNL     1      35.100 -25.952  44.827  1.00  0.00    -0.368 OA
ATOM     17  H2  UNL     1      34.724 -26.648  44.302  1.00  0.00     0.213 HD
ENDBRANCH  13  16
ENDBRANCH  12  13
ENDBRANCH  10  11
ENDBRANCH   4  10
BRANCH   5  18
HETATM   18  O3  UNL     1      37.445 -20.760  43.542  1.00  0.00    -0.279 OA
ATOM     19  H3  UNL     1      36.575 -20.382  43.481  1.00  0.00     0.245 HD
ENDBRANCH   5  18
BRANCH   1  20
HETATM   20  N1  UNL     1      40.113 -23.406  39.642  1.00  0.00    -0.234 N 
ATOM     21  H12 UNL     1      40.785 -23.895  40.234  1.00  0.00     0.174 HD
ATOM     22  H11 UNL     1      39.897 -23.619  38.669  1.00  0.00     0.174 HD
ENDBRANCH   1  20
BRANCH   6  23
HETATM   23  N4  UNL     1      39.097 -18.896  42.823  1.00  0.00    -0.287 N 
ATOM     24  H4  UNL     1      38.778 -17.985  42.495  1.00  0.00     0.188 HD
BRANCH  23  25
HETATM   25  N5  UNL     1      39.672 -18.963  44.094  1.00  0.00    -0.343 N 
ATOM     26  H52 UNL     1      40.654 -19.236  44.136  1.00  0.00     0.176 HD
ATOM     27  H51 UNL     1      39.182 -18.759  44.965  1.00  0.00     0.176 HD
ENDBRANCH  23  25
ENDBRANCH   6  23
BRANCH   7  28
HETATM   28  N6  UNL     1      40.100 -18.948  40.371  1.00  0.00    -0.382 N 
ATOM     29  H62 UNL     1      40.848 -18.533  40.926  1.00  0.00     0.157 HD
ATOM     30  H61 UNL     1      39.644 -18.599  39.528  1.00  0.00     0.157 HD
ENDBRANCH   7  28
TORSDOF 10
ENDMDL
MODEL 4
REMARK VINA RESULT: -6.469442154      3.179      5.808
REMARK  10 active torsions:
REMARK  status: ('A' for Active; 'I' for Inactive)
REMARK    1  A    between atoms: N1_1  and  C1_4 
REMARK    2  A    between atoms: C2_7  and  S1_8 
REMARK    3  A    between atoms: S1_8  and  C3_9 
REMARK    4  A    between atoms: C4_10  and  C5_11 
REMARK    5  A    between atoms: C5_11  and  O1_12 
REMARK    6  A    between atoms: C5_11  and  O2_14 
REMARK    7  A    between atoms: N3_16  and  O3_17 
REMARK    8  A    between atoms: C6_19  and  N4_20 
REMARK    9  A    between atoms: N4_20  and  N5_22 
REMARK   10  A    between atoms: C7_25  and  N6_26 
ROOT
HETATM    1  C1  UNL     1      37.717 -25.025  39.961  1.00  0.00     0.679 C 
HETATM    2  N2  UNL     1      39.053 -24.960  39.681  1.00  0.00    -0.168 N 
ATOM      3  H2  UNL     1      39.484 -25.787  39.267  1.00  0.00     0.186 HD
HETATM    4  C2  UNL     1      39.857 -23.888  39.906  1.00  0.00     0.192 C 
HETATM    5  N3  UNL     1      39.533 -22.685  40.442  1.00  0.00    -0.179 N 
HETATM    6  C6  UNL     1      38.474 -22.317  41.201  1.00  0.00     0.194 C 
HETATM    7  C7  UNL     1      37.452 -23.180  41.534  1.00  0.00     0.163 C 
HETATM    8  N7  UNL     1      37.062 -24.335  40.932  1.00  0.00    -0.173 N 
ATOM      9  H7  UNL     1      36.175 -24.730  41.246  1.00  0.00     0.186 HD
ENDROOT
BRANCH   4  10
HETATM   10  S1  UNL     1      41.549 -24.131  39.439  1.00  0.00    -0.063 SA
BRANCH  10  11
HETATM   11  C3  UNL     1      41.823 -25.813  38.933  1.00  0.00     0.054 C 
HETATM   12  C4  UNL     1      42.267 -26.101  37.717  1.00  0.00     0.040 C 
BRANCH  12  13
HETATM   13  C5  UNL     1      42.523 -24.936  36.794  1.00  0.00     0.278 C 
BRANCH  13  14
HETATM   14  O1  UNL     1      42.097 -25.314  35.532  1.00  0.00    -0.368 OA
ATOM     15  H1  UNL     1      42.716 -24.955  34.908  1.00  0.00     0.213 HD
ENDBRANCH  13  14
BRANCH  13  16
HETATM   16  O2  UNL     1      43.879 -24.630  36.709  1.00  0.00    -0.368 OA
ATOM     17  H2  UNL     1      44.233 -24.354  37.547  1.00  0.00     0.213 HD
ENDBRANCH  13  16
ENDBRANCH  12  13
ENDBRANCH  10  11
ENDBRANCH   4  10
BRANCH   5  18
HETATM   18  O3  UNL     1      40.430 -21.700  40.167  1.00  0.00    -0.279 OA
ATOM     19  H3  UNL     1      40.283 -20.899  40.655  1.00  0.00     0.245 HD
ENDBRANCH   5  18
BRANCH   1  20
HETATM   20  N1  UNL     1      37.062 -25.830  39.208  1.00  0.00    -0.234 N 
ATOM     21  H12 UNL     1      36.943 -25.609  38.219  1.00  0.00     0.174 HD
ATOM     22  H11 UNL     1      36.702 -26.654  39.690  1.00  0.00     0.174 HD
ENDBRANCH   1  20
BRANCH   6  23
HETATM   23  N4  UNL     1      38.437 -20.971  41.655  1.00  0.00    -0.287 N 
ATOM     24  H4  UNL     1      37.679 -20.379  41.317  1.00  0.00     0.188 HD
BRANCH  23  25
HETATM   25  N5  UNL     1      39.364 -20.402  42.530  1.00  0.00    -0.343 N 
ATOM     26  H52 UNL     1      40.007 -21.043  42.995  1.00  0.00     0.176 HD
ATOM     27  H51 UNL     1      39.438 -19.404  42.729  1.00  0.00     0.176 HD
ENDBRANCH  23  25
ENDBRANCH   6  23
BRANCH   7  28
HETATM   28  N6  UNL     1      36.773 -22.822  42.565  1.00  0.00    -0.382 N 
ATOM     29  H62 UNL     1      36.478 -21.847  42.591  1.00  0.00     0.157 HD
ATOM     30  H61 UNL     1      36.616 -23.569  43.242  1.00  0.00     0.157 HD
ENDBRANCH   7  28
TORSDOF 10
ENDMDL
MODEL 5
REMARK VINA RESULT: -6.363903201      1.333      1.567
REMARK  10 active torsions:
REMARK  status: ('A' for Active; 'I' for Inactive)
REMARK    1  A    between atoms: N1_1  and  C1_4 
REMARK    2  A    between atoms: C2_7  and  S1_8 
REMARK    3  A    between atoms: S1_8  and  C3_9 
REMARK    4  A    between atoms: C4_10  and  C5_11 
REMARK    5  A    between atoms: C5_11  and  O1_12 
REMARK    6  A    between atoms: C5_11  and  O2_14 
REMARK    7  A    between atoms: N3_16  and  O3_17 
REMARK    8  A    between atoms: C6_19  and  N4_20 
REMARK    9  A    between atoms: N4_20  and  N5_22 
REMARK   10  A    between atoms: C7_25  and  N6_26 
ROOT
HETATM    1  C1  UNL     1      36.929 -23.331  41.335  1.00  0.00     0.679 C 
HETATM    2  N2  UNL     1      37.835 -22.315  41.212  1.00  0.00    -0.168 N 
ATOM      3  H2  UNL     1      37.504 -21.369  41.408  1.00  0.00     0.186 HD
HETATM    4  C2  UNL     1      39.137 -22.454  40.850  1.00  0.00     0.192 C 
HETATM    5  N3  UNL     1      39.811 -23.589  40.537  1.00  0.00    -0.179 N 
HETATM    6  C6  UNL     1      39.356 -24.807  40.160  1.00  0.00     0.194 C 
HETATM    7  C7  UNL     1      38.014 -25.113  40.073  1.00  0.00     0.163 C 
HETATM    8  N7  UNL     1      36.947 -24.513  40.663  1.00  0.00    -0.173 N 
ATOM      9  H7  UNL     1      36.057 -25.005  40.594  1.00  0.00     0.186 HD
ENDROOT
BRANCH   4  10
HETATM   10  S1  UNL     1      40.043 -20.933  40.773  1.00  0.00    -0.063 SA
BRANCH  10  11
HETATM   11  C3  UNL     1      38.934 -19.544  40.773  1.00  0.00     0.054 C 
HETATM   12  C4  UNL     1      38.513 -19.001  41.908  1.00  0.00     0.040 C 
BRANCH  12  13
HETATM   13  C5  UNL     1      39.021 -19.619  43.186  1.00  0.00     0.278 C 
BRANCH  13  14
HETATM   14  O1  UNL     1      37.952 -20.278  43.772  1.00  0.00    -0.368 OA
ATOM     15  H1  UNL     1      38.119 -20.303  44.707  1.00  0.00     0.213 HD
ENDBRANCH  13  14
BRANCH  13  16
HETATM   16  O2  UNL     1      39.471 -18.657  44.085  1.00  0.00    -0.368 OA
ATOM     17  H2  UNL     1      39.043 -17.819  43.951  1.00  0.00     0.213 HD
ENDBRANCH  13  16
ENDBRANCH  12  13
ENDBRANCH  10  11
ENDBRANCH   4  10
BRANCH   5  18
HETATM   18  O3  UNL     1      41.164 -23.465  40.617  1.00  0.00    -0.279 OA
ATOM     19  H3  UNL     1      41.639 -24.099  40.093  1.00  0.00     0.245 HD
ENDBRANCH   5  18
BRANCH   1  20
HETATM   20  N1  UNL     1      35.991 -23.098  42.178  1.00  0.00    -0.234 N 
ATOM     21  H12 UNL     1      36.227 -22.770  43.114  1.00  0.00     0.174 HD
ATOM     22  H11 UNL     1      35.053 -23.273  41.817  1.00  0.00     0.174 HD
ENDBRANCH   1  20
BRANCH   6  23
HETATM   23  N4  UNL     1      40.327 -25.796  39.853  1.00  0.00    -0.287 N 
ATOM     24  H4  UNL     1      40.297 -26.668  40.380  1.00  0.00     0.188 HD
BRANCH  23  25
HETATM   25  N5  UNL     1      41.321 -25.660  38.881  1.00  0.00    -0.343 N 
ATOM     26  H52 UNL     1      41.219 -24.881  38.230  1.00  0.00     0.176 HD
ATOM     27  H51 UNL     1      42.127 -26.278  38.784  1.00  0.00     0.176 HD
ENDBRANCH  23  25
ENDBRANCH   6  23
BRANCH   7  28
HETATM   28  N6  UNL     1      37.752 -26.123  39.323  1.00  0.00    -0.382 N 
ATOM     29  H62 UNL     1      38.202 -26.132  38.408  1.00  0.00     0.157 HD
ATOM     30  H61 UNL     1      37.113 -26.799  39.741  1.00  0.00     0.157 HD
ENDBRANCH   7  28
TORSDOF 10
ENDMDL
