MODEL 1
REMARK VINA RESULT: -8.088881442      0.000      0.000
REMARK  7 active torsions:
REMARK  status: ('A' for Active; 'I' for Inactive)
REMARK    1  A    between atoms: N1_1  and  C1_4 
REMARK    2  A    between atoms: C2_7  and  C3_8 
REMARK       I    between atoms: C3_8  and  N3_10 
REMARK    3  A    between atoms: N3_10  and  C4_12 
REMARK    4  A    between atoms: C6_21  and  C7_22 
REMARK    5  A    between atoms: C7_22  and  O2_23 
REMARK    6  A    between atoms: C7_22  and  N8_25 
REMARK    7  A    between atoms: N8_25  and  O3_26 
ROOT
HETATM    1  C1  UNL     1      39.895 -22.117  39.943  1.00  0.00     0.676 A 
HETATM    2  N2  UNL     1      38.824 -22.869  40.221  1.00  0.00    -0.186 N 
ATOM      3  H2  UNL     1      38.740 -23.797  39.809  1.00  0.00     0.184 HD
HETATM    4  C2  UNL     1      37.869 -22.417  41.029  1.00  0.00     0.119 A 
HETATM    5  C5  UNL     1      38.011 -21.142  41.582  1.00  0.00     0.065 A 
HETATM    6  C6  UNL     1      39.106 -20.361  41.304  1.00  0.00     0.075 A 
HETATM    7  N9  UNL     1      40.039 -20.865  40.483  1.00  0.00    -0.192 N 
ATOM      8  H9  UNL     1      40.865 -20.310  40.258  1.00  0.00     0.184 HD
ENDROOT
BRANCH   4   9
HETATM    9  C3  UNL     1      36.683 -23.203  41.359  1.00  0.00     0.287 C 
HETATM   10  O1  UNL     1      36.141 -23.926  40.485  1.00  0.00    -0.265 OA
HETATM   11  N3  UNL     1      36.154 -23.133  42.683  1.00  0.00    -0.152 N 
ATOM     12  H3  UNL     1      35.943 -22.225  43.096  1.00  0.00     0.188 HD
BRANCH  11  13
HETATM   13  C4  UNL     1      35.938 -24.225  43.372  1.00  0.00     0.713 A 
HETATM   14  N4  UNL     1      36.651 -24.712  44.405  1.00  0.00    -0.113 N 
HETATM   15  N5  UNL     1      36.066 -25.840  44.791  1.00  0.00     0.009 NA
ATOM     16  H4  UNL     1      37.485 -24.292  44.815  1.00  0.00     0.203 HD
HETATM   17  N6  UNL     1      35.006 -26.083  44.038  1.00  0.00    -0.212 N 
HETATM   18  N7  UNL     1      34.934 -25.093  43.172  1.00  0.00    -0.118 N 
ATOM     19  H6  UNL     1      34.371 -26.878  44.112  1.00  0.00     0.206 HD
ATOM     20  H7  UNL     1      34.217 -24.999  42.453  1.00  0.00     0.207 HD
ENDBRANCH  11  13
ENDBRANCH   4   9
BRANCH   1  21
HETATM   21  N1  UNL     1      40.799 -22.588  39.156  1.00  0.00    -0.234 N 
ATOM     22  H12 UNL     1      40.566 -22.819  38.191  1.00  0.00     0.174 HD
ATOM     23  H11 UNL     1      41.745 -22.721  39.515  1.00  0.00     0.174 HD
ENDBRANCH   1  21
BRANCH   6  24
HETATM   24  C7  UNL     1      39.259 -19.044  41.871  1.00  0.00     0.289 C 
BRANCH  24  25
HETATM   25  O2  UNL     1      39.912 -18.117  41.092  1.00  0.00    -0.372 OA
ATOM     26  H2  UNL     1      39.620 -17.217  41.175  1.00  0.00     0.212 HD
ENDBRANCH  24  25
BRANCH  24  27
HETATM   27  N8  UNL     1      39.959 -19.102  43.152  1.00  0.00    -0.065 NA
BRANCH  27  28
HETATM   28  O3  UNL     1      39.141 -18.753  44.164  1.00  0.00    -0.293 OA
ATOM     29  H3  UNL     1      39.600 -18.220  44.803  1.00  0.00     0.238 HD
ENDBRANCH  27  28
ENDBRANCH  24  27
ENDBRANCH   6  24
TORSDOF 7
ENDMDL
MODEL 2
REMARK VINA RESULT: -8.087314283      0.897      1.562
REMARK  7 active torsions:
REMARK  status: ('A' for Active; 'I' for Inactive)
REMARK    1  A    between atoms: N1_1  and  C1_4 
REMARK    2  A    between atoms: C2_7  and  C3_8 
REMARK       I    between atoms: C3_8  and  N3_10 
REMARK    3  A    between atoms: N3_10  and  C4_12 
REMARK    4  A    between atoms: C6_21  and  C7_22 
REMARK    5  A    between atoms: C7_22  and  O2_23 
REMARK    6  A    between atoms: C7_22  and  N8_25 
REMARK    7  A    between atoms: N8_25  and  O3_26 
ROOT
HETATM    1  C1  UNL     1      39.940 -22.517  39.723  1.00  0.00     0.676 A 
HETATM    2  N2  UNL     1      38.976 -23.408  39.980  1.00  0.00    -0.186 N 
ATOM      3  H2  UNL     1      38.939 -24.278  39.449  1.00  0.00     0.184 HD
HETATM    4  C2  UNL     1      38.067 -23.172  40.921  1.00  0.00     0.119 A 
HETATM    5  C5  UNL     1      38.142 -21.973  41.636  1.00  0.00     0.065 A 
HETATM    6  C6  UNL     1      39.128 -21.051  41.380  1.00  0.00     0.075 A 
HETATM    7  N9  UNL     1      40.019 -21.339  40.421  1.00  0.00    -0.192 N 
ATOM      8  H9  UNL     1      40.763 -20.675  40.209  1.00  0.00     0.184 HD
ENDROOT
BRANCH   4   9
HETATM    9  C3  UNL     1      36.997 -24.115  41.235  1.00  0.00     0.287 C 
HETATM   10  O1  UNL     1      36.902 -25.197  40.600  1.00  0.00    -0.265 OA
HETATM   11  N3  UNL     1      36.067 -23.788  42.267  1.00  0.00    -0.152 N 
ATOM     12  H3  UNL     1      35.577 -22.894  42.241  1.00  0.00     0.188 HD
BRANCH  11  13
HETATM   13  C4  UNL     1      35.840 -24.625  43.247  1.00  0.00     0.713 A 
HETATM   14  N4  UNL     1      34.857 -25.540  43.349  1.00  0.00    -0.113 N 
HETATM   15  N5  UNL     1      35.016 -26.163  44.511  1.00  0.00     0.009 NA
ATOM     16  H4  UNL     1      34.127 -25.722  42.661  1.00  0.00     0.203 HD
HETATM   17  N6  UNL     1      36.068 -25.673  45.148  1.00  0.00    -0.212 N 
HETATM   18  N7  UNL     1      36.566 -24.734  44.371  1.00  0.00    -0.118 N 
ATOM     19  H6  UNL     1      36.422 -25.965  46.060  1.00  0.00     0.206 HD
ATOM     20  H7  UNL     1      37.387 -24.170  44.591  1.00  0.00     0.207 HD
ENDBRANCH  11  13
ENDBRANCH   4   9
BRANCH   1  21
HETATM   21  N1  UNL     1      40.803 -22.781  38.804  1.00  0.00    -0.234 N 
ATOM     22  H12 UNL     1      41.655 -23.291  39.036  1.00  0.00     0.174 HD
ATOM     23  H11 UNL     1      40.618 -22.473  37.850  1.00  0.00     0.174 HD
ENDBRANCH   1  21
BRANCH   6  24
HETATM   24  C7  UNL     1      39.211 -19.812  42.114  1.00  0.00     0.289 C 
BRANCH  24  25
HETATM   25  O2  UNL     1      38.429 -19.718  43.242  1.00  0.00    -0.372 OA
ATOM     26  H2  UNL     1      38.060 -18.862  43.428  1.00  0.00     0.212 HD
ENDBRANCH  24  25
BRANCH  24  27
HETATM   27  N8  UNL     1      38.877 -18.674  41.261  1.00  0.00    -0.065 NA
BRANCH  27  28
HETATM   28  O3  UNL     1      39.979 -17.960  40.959  1.00  0.00    -0.293 OA
ATOM     29  H3  UNL     1      39.840 -17.435  40.180  1.00  0.00     0.238 HD
ENDBRANCH  27  28
ENDBRANCH  24  27
ENDBRANCH   6  24
TORSDOF 7
ENDMDL
MODEL 3
REMARK VINA RESULT: -8.018612186      2.247      3.308
REMARK  7 active torsions:
REMARK  status: ('A' for Active; 'I' for Inactive)
REMARK    1  A    between atoms: N1_1  and  C1_4 
REMARK    2  A    between atoms: C2_7  and  C3_8 
REMARK       I    between atoms: C3_8  and  N3_10 
REMARK    3  A    between atoms: N3_10  and  C4_12 
REMARK    4  A    between atoms: C6_21  and  C7_22 
REMARK    5  A    between atoms: C7_22  and  O2_23 
REMARK    6  A    between atoms: C7_22  and  N8_25 
REMARK    7  A    between atoms: N8_25  and  O3_26 
ROOT
HETATM    1  C1  UNL     1      39.557 -20.482  40.679  1.00  0.00     0.676 A 
HETATM    2  N2  UNL     1      38.361 -20.825  41.167  1.00  0.00    -0.186 N 
ATOM      3  H2  UNL     1      37.760 -20.111  41.578  1.00  0.00     0.184 HD
HETATM    4  C2  UNL     1      37.946 -22.088  41.122  1.00  0.00     0.119 A 
HETATM    5  C5  UNL     1      38.788 -23.046  40.551  1.00  0.00     0.065 A 
HETATM    6  C6  UNL     1      40.018 -22.705  40.047  1.00  0.00     0.075 A 
HETATM    7  N9  UNL     1      40.387 -21.418  40.118  1.00  0.00    -0.192 N 
ATOM      8  H9  UNL     1      41.295 -21.133  39.751  1.00  0.00     0.184 HD
ENDROOT
BRANCH   4   9
HETATM    9  C3  UNL     1      36.648 -22.507  41.644  1.00  0.00     0.287 C 
HETATM   10  O1  UNL     1      35.603 -22.307  40.974  1.00  0.00    -0.265 OA
HETATM   11  N3  UNL     1      36.590 -23.143  42.920  1.00  0.00    -0.152 N 
ATOM     12  H3  UNL     1      37.021 -22.696  43.729  1.00  0.00     0.188 HD
BRANCH  11  13
HETATM   13  C4  UNL     1      35.987 -24.296  43.062  1.00  0.00     0.713 A 
HETATM   14  N4  UNL     1      35.561 -25.137  42.099  1.00  0.00    -0.113 N 
HETATM   15  N5  UNL     1      35.008 -26.182  42.705  1.00  0.00     0.009 NA
ATOM     16  H4  UNL     1      35.647 -24.997  41.093  1.00  0.00     0.203 HD
HETATM   17  N6  UNL     1      35.071 -26.032  44.018  1.00  0.00    -0.212 N 
HETATM   18  N7  UNL     1      35.669 -24.878  44.229  1.00  0.00    -0.118 N 
ATOM     19  H6  UNL     1      34.725 -26.681  44.726  1.00  0.00     0.206 HD
ATOM     20  H7  UNL     1      35.864 -24.482  45.149  1.00  0.00     0.207 HD
ENDBRANCH  11  13
ENDBRANCH   4   9
BRANCH   1  21
HETATM   21  N1  UNL     1      39.925 -19.248  40.740  1.00  0.00    -0.234 N 
ATOM     22  H12 UNL     1      39.227 -18.513  40.851  1.00  0.00     0.174 HD
ATOM     23  H11 UNL     1      40.918 -19.026  40.678  1.00  0.00     0.174 HD
ENDBRANCH   1  21
BRANCH   6  24
HETATM   24  C7  UNL     1      40.892 -23.689  39.457  1.00  0.00     0.289 C 
BRANCH  24  25
HETATM   25  O2  UNL     1      40.333 -24.917  39.186  1.00  0.00    -0.372 OA
ATOM     26  H2  UNL     1      40.173 -25.114  38.270  1.00  0.00     0.212 HD
ENDBRANCH  24  25
BRANCH  24  27
HETATM   27  N8  UNL     1      42.063 -23.925  40.299  1.00  0.00    -0.065 NA
BRANCH  27  28
HETATM   28  O3  UNL     1      41.820 -23.556  41.572  1.00  0.00    -0.293 OA
ATOM     29  H3  UNL     1      42.259 -22.739  41.778  1.00  0.00     0.238 HD
ENDBRANCH  27  28
ENDBRANCH  24  27
ENDBRANCH   6  24
TORSDOF 7
ENDMDL
MODEL 4
REMARK VINA RESULT: -7.995951990      2.465      5.049
REMARK  7 active torsions:
REMARK  status: ('A' for Active; 'I' for Inactive)
REMARK    1  A    between atoms: N1_1  and  C1_4 
REMARK    2  A    between atoms: C2_7  and  C3_8 
REMARK       I    between atoms: C3_8  and  N3_10 
REMARK    3  A    between atoms: N3_10  and  C4_12 
REMARK    4  A    between atoms: C6_21  and  C7_22 
REMARK    5  A    between atoms: C7_22  and  O2_23 
REMARK    6  A    between atoms: C7_22  and  N8_25 
REMARK    7  A    between atoms: N8_25  and  O3_26 
ROOT
HETATM    1  C1  UNL     1      37.384 -22.245  41.456  1.00  0.00     0.676 A 
HETATM    2  N2  UNL     1      38.399 -23.082  41.217  1.00  0.00    -0.186 N 
ATOM      3  H2  UNL     1      38.217 -24.081  41.127  1.00  0.00     0.184 HD
HETATM    4  C2  UNL     1      39.641 -22.625  41.096  1.00  0.00     0.119 A 
HETATM    5  C5  UNL     1      39.862 -21.250  41.222  1.00  0.00     0.065 A 
HETATM    6  C6  UNL     1      38.827 -20.382  41.467  1.00  0.00     0.075 A 
HETATM    7  N9  UNL     1      37.594 -20.895  41.581  1.00  0.00    -0.192 N 
ATOM      8  H9  UNL     1      36.805 -20.276  41.762  1.00  0.00     0.184 HD
ENDROOT
BRANCH   4   9
HETATM    9  C3  UNL     1      40.780 -23.502  40.836  1.00  0.00     0.287 C 
HETATM   10  O1  UNL     1      41.238 -24.231  41.752  1.00  0.00    -0.265 OA
HETATM   11  N3  UNL     1      41.359 -23.515  39.531  1.00  0.00    -0.152 N 
ATOM     12  H3  UNL     1      41.649 -22.639  39.098  1.00  0.00     0.188 HD
BRANCH  11  13
HETATM   13  C4  UNL     1      41.520 -24.642  38.886  1.00  0.00     0.713 A 
HETATM   14  N4  UNL     1      40.996 -25.849  39.175  1.00  0.00    -0.113 N 
HETATM   15  N5  UNL     1      41.430 -26.699  38.251  1.00  0.00     0.009 NA
ATOM     16  H4  UNL     1      40.381 -26.069  39.958  1.00  0.00     0.203 HD
HETATM   17  N6  UNL     1      42.209 -26.070  37.385  1.00  0.00    -0.212 N 
HETATM   18  N7  UNL     1      42.261 -24.815  37.780  1.00  0.00    -0.118 N 
ATOM     19  H6  UNL     1      42.677 -26.477  36.575  1.00  0.00     0.206 HD
ATOM     20  H7  UNL     1      42.788 -24.078  37.311  1.00  0.00     0.207 HD
ENDBRANCH  11  13
ENDBRANCH   4   9
BRANCH   1  21
HETATM   21  N1  UNL     1      36.193 -22.724  41.567  1.00  0.00    -0.234 N 
ATOM     22  H12 UNL     1      35.534 -22.306  42.223  1.00  0.00     0.174 HD
ATOM     23  H11 UNL     1      35.927 -23.522  40.990  1.00  0.00     0.174 HD
ENDBRANCH   1  21
BRANCH   6  24
HETATM   24  C7  UNL     1      39.048 -18.962  41.599  1.00  0.00     0.289 C 
BRANCH  24  25
HETATM   25  O2  UNL     1      39.872 -18.384  40.662  1.00  0.00    -0.372 OA
ATOM     26  H2  UNL     1      40.594 -17.866  40.998  1.00  0.00     0.212 HD
ENDBRANCH  24  25
BRANCH  24  27
HETATM   27  N8  UNL     1      39.595 -18.636  42.914  1.00  0.00    -0.065 NA
BRANCH  27  28
HETATM   28  O3  UNL     1      38.938 -19.298  43.886  1.00  0.00    -0.293 OA
ATOM     29  H3  UNL     1      38.736 -20.186  43.614  1.00  0.00     0.238 HD
ENDBRANCH  27  28
ENDBRANCH  24  27
ENDBRANCH   6  24
TORSDOF 7
ENDMDL
MODEL 5
REMARK VINA RESULT: -7.941350944      2.410      6.116
REMARK  7 active torsions:
REMARK  status: ('A' for Active; 'I' for Inactive)
REMARK    1  A    between atoms: N1_1  and  C1_4 
REMARK    2  A    between atoms: C2_7  and  C3_8 
REMARK       I    between atoms: C3_8  and  N3_10 
REMARK    3  A    between atoms: N3_10  and  C4_12 
REMARK    4  A    between atoms: C6_21  and  C7_22 
REMARK    5  A    between atoms: C7_22  and  O2_23 
REMARK    6  A    between atoms: C7_22  and  N8_25 
REMARK    7  A    between atoms: N8_25  and  O3_26 
ROOT
HETATM    1  C1  UNL     1      36.362 -25.226  40.142  1.00  0.00     0.676 A 
HETATM    2  N2  UNL     1      37.227 -24.262  39.809  1.00  0.00    -0.186 N 
ATOM      3  H2  UNL     1      37.474 -24.123  38.830  1.00  0.00     0.184 HD
HETATM    4  C2  UNL     1      37.767 -23.483  40.742  1.00  0.00     0.119 A 
HETATM    5  C5  UNL     1      37.409 -23.694  42.077  1.00  0.00     0.065 A 
HETATM    6  C6  UNL     1      36.522 -24.681  42.429  1.00  0.00     0.075 A 
HETATM    7  N9  UNL     1      36.007 -25.438  41.450  1.00  0.00    -0.192 N 
ATOM      8  H9  UNL     1      35.345 -26.178  41.680  1.00  0.00     0.184 HD
ENDROOT
BRANCH   4   9
HETATM    9  C3  UNL     1      38.716 -22.419  40.425  1.00  0.00     0.287 C 
HETATM   10  O1  UNL     1      38.858 -22.033  39.236  1.00  0.00    -0.265 OA
HETATM   11  N3  UNL     1      39.474 -21.832  41.482  1.00  0.00    -0.152 N 
ATOM     12  H3  UNL     1      40.010 -22.428  42.112  1.00  0.00     0.188 HD
BRANCH  11  13
HETATM   13  C4  UNL     1      39.488 -20.534  41.648  1.00  0.00     0.713 A 
HETATM   14  N4  UNL     1      39.444 -19.842  42.803  1.00  0.00    -0.113 N 
HETATM   15  N5  UNL     1      39.480 -18.551  42.492  1.00  0.00     0.009 NA
ATOM     16  H4  UNL     1      39.394 -20.237  43.742  1.00  0.00     0.203 HD
HETATM   17  N6  UNL     1      39.546 -18.403  41.178  1.00  0.00    -0.212 N 
HETATM   18  N7  UNL     1      39.550 -19.617  40.669  1.00  0.00    -0.118 N 
ATOM     19  H6  UNL     1      39.586 -17.523  40.663  1.00  0.00     0.206 HD
ATOM     20  H7  UNL     1      39.593 -19.831  39.673  1.00  0.00     0.207 HD
ENDBRANCH  11  13
ENDBRANCH   4   9
BRANCH   1  21
HETATM   21  N1  UNL     1      35.859 -25.961  39.211  1.00  0.00    -0.234 N 
ATOM     22  H12 UNL     1      35.390 -25.527  38.416  1.00  0.00     0.174 HD
ATOM     23  H11 UNL     1      35.942 -26.975  39.283  1.00  0.00     0.174 HD
ENDBRANCH   1  21
BRANCH   6  24
HETATM   24  C7  UNL     1      36.148 -24.904  43.805  1.00  0.00     0.289 C 
BRANCH  24  25
HETATM   25  O2  UNL     1      37.174 -25.182  44.678  1.00  0.00    -0.372 OA
ATOM     26  H2  UNL     1      37.782 -24.472  44.852  1.00  0.00     0.212 HD
ENDBRANCH  24  25
BRANCH  24  27
HETATM   27  N8  UNL     1      35.181 -25.994  43.916  1.00  0.00    -0.065 NA
BRANCH  27  28
HETATM   28  O3  UNL     1      34.826 -26.193  45.200  1.00  0.00    -0.293 OA
ATOM     29  H3  UNL     1      34.701 -27.118  45.377  1.00  0.00     0.238 HD
ENDBRANCH  27  28
ENDBRANCH  24  27
ENDBRANCH   6  24
TORSDOF 7
ENDMDL
