MODEL 1
REMARK VINA RESULT: -7.539780088      0.000      0.000
REMARK  6 active torsions:
REMARK  status: ('A' for Active; 'I' for Inactive)
REMARK    1  A    between atoms: C2_2  and  C3_3 
REMARK    2  A    between atoms: C3_3  and  C5_5 
REMARK    3  A    between atoms: C3_3  and  N4_16 
REMARK    4  A    between atoms: C5_5  and  N1_6 
REMARK       I    between atoms: N4_16  and  C12_18 
REMARK    5  A    between atoms: C12_18  and  C13_20 
REMARK    6  A    between atoms: C16_23  and  N5_24 
ROOT
HETATM    1  C3  UNL     1      -2.613   5.717  13.070  1.00  0.00     0.061 C 
HETATM    2  C4  UNL     1      -1.112   5.604  13.429  1.00  0.00     0.044 C 
ENDROOT
BRANCH   1   3
HETATM    3  C2  UNL     1      -3.010   7.103  13.396  1.00  0.00     0.032 C 
HETATM    4  C1  UNL     1      -2.612   7.547  14.795  1.00  0.00     0.008 C 
ENDBRANCH   1   3
BRANCH   1   5
HETATM    5  C5  UNL     1      -2.651   5.335  11.613  1.00  0.00     0.096 C 
BRANCH   5   6
HETATM    6  N1  UNL     1      -1.914   4.217  11.187  1.00  0.00    -0.347 N 
HETATM    7  C6  UNL     1      -0.653   4.147  10.521  1.00  0.00     0.130 C 
HETATM    8  C7  UNL     1      -0.339   2.682  10.231  1.00  0.00     0.034 C 
HETATM    9  C8  UNL     1      -1.699   2.027  10.301  1.00  0.00     0.076 C 
HETATM   10  C9  UNL     1      -1.683   0.654  10.915  1.00  0.00     0.154 C 
HETATM   11  C11 UNL     1      -2.349   2.850  11.375  1.00  0.00     0.103 C 
HETATM   12  N2  UNL     1      -2.979   0.737  11.623  1.00  0.00    -0.330 N 
HETATM   13  C10 UNL     1      -3.870  -0.380  11.749  1.00  0.00     0.170 C 
HETATM   14  N3  UNL     1      -3.071   2.054  12.075  1.00  0.00    -0.291 N 
ATOM     15  H3  UNL     1      -3.644   2.348  12.867  1.00  0.00     0.188 HD
ENDBRANCH   5   6
ENDBRANCH   1   5
BRANCH   1  16
HETATM   16  N4  UNL     1      -3.300   4.776  13.893  1.00  0.00    -0.347 N 
HETATM   17  C12 UNL     1      -4.686   4.569  13.824  1.00  0.00     0.222 C 
HETATM   18  O1  UNL     1      -5.391   5.223  13.026  1.00  0.00    -0.273 OA
ATOM     19  H4  UNL     1      -2.758   4.229  14.563  1.00  0.00     0.163 HD
BRANCH  17  20
HETATM   20  C13 UNL     1      -5.378   3.566  14.695  1.00  0.00     0.078 C 
HETATM   21  C14 UNL     1      -6.259   4.260  15.699  1.00  0.00     0.016 C 
HETATM   22  C15 UNL     1      -7.048   3.234  16.466  1.00  0.00     0.033 C 
HETATM   23  C16 UNL     1      -6.190   2.147  17.035  1.00  0.00     0.183 C 
HETATM   24  C17 UNL     1      -5.225   1.553  16.045  1.00  0.00     0.033 C 
HETATM   25  C18 UNL     1      -4.406   2.690  15.446  1.00  0.00     0.016 C 
BRANCH  23  26
HETATM   26  N5  UNL     1      -7.090   1.116  17.546  1.00  0.00    -0.075 N 
ATOM     27  H53 UNL     1      -7.852   1.493  18.109  1.00  0.00     0.274 HD
ATOM     28  H52 UNL     1      -7.664   0.690  16.819  1.00  0.00     0.274 HD
ATOM     29  H51 UNL     1      -6.515   0.440  18.050  1.00  0.00     0.274 HD
ENDBRANCH  23  26
ENDBRANCH  17  20
ENDBRANCH   1  16
TORSDOF 6
ENDMDL
MODEL 2
REMARK VINA RESULT: -7.438507553      1.927      4.171
REMARK  6 active torsions:
REMARK  status: ('A' for Active; 'I' for Inactive)
REMARK    1  A    between atoms: C2_2  and  C3_3 
REMARK    2  A    between atoms: C3_3  and  C5_5 
REMARK    3  A    between atoms: C3_3  and  N4_16 
REMARK    4  A    between atoms: C5_5  and  N1_6 
REMARK       I    between atoms: N4_16  and  C12_18 
REMARK    5  A    between atoms: C12_18  and  C13_20 
REMARK    6  A    between atoms: C16_23  and  N5_24 
ROOT
HETATM    1  C3  UNL     1      -3.618   1.372  11.557  1.00  0.00     0.061 C 
HETATM    2  C4  UNL     1      -4.890   0.845  10.852  1.00  0.00     0.044 C 
ENDROOT
BRANCH   1   3
HETATM    3  C2  UNL     1      -2.564   0.365  11.312  1.00  0.00     0.032 C 
HETATM    4  C1  UNL     1      -3.086  -1.058  11.190  1.00  0.00     0.008 C 
ENDBRANCH   1   3
BRANCH   1   5
HETATM    5  C5  UNL     1      -3.409   2.726  10.930  1.00  0.00     0.096 C 
BRANCH   5   6
HETATM    6  N1  UNL     1      -2.151   3.341  11.050  1.00  0.00    -0.347 N 
HETATM    7  C6  UNL     1      -1.538   3.966  12.177  1.00  0.00     0.130 C 
HETATM    8  C7  UNL     1      -0.187   4.530  11.743  1.00  0.00     0.034 C 
HETATM    9  C8  UNL     1      -0.334   4.635  10.243  1.00  0.00     0.076 C 
HETATM   10  C9  UNL     1       0.922   4.304   9.483  1.00  0.00     0.154 C 
HETATM   11  C11 UNL     1      -1.200   3.441   9.964  1.00  0.00     0.103 C 
HETATM   12  N2  UNL     1       0.285   3.637   8.327  1.00  0.00    -0.330 N 
HETATM   13  C10 UNL     1       0.779   3.763   6.986  1.00  0.00     0.170 C 
HETATM   14  N3  UNL     1      -0.800   2.936   8.855  1.00  0.00    -0.291 N 
ATOM     15  H3  UNL     1      -1.225   2.121   8.412  1.00  0.00     0.188 HD
ENDBRANCH   5   6
ENDBRANCH   1   5
BRANCH   1  16
HETATM   16  N4  UNL     1      -3.932   1.463  12.946  1.00  0.00    -0.347 N 
HETATM   17  C12 UNL     1      -4.776   2.451  13.476  1.00  0.00     0.222 C 
HETATM   18  O1  UNL     1      -5.292   3.315  12.735  1.00  0.00    -0.273 OA
ATOM     19  H4  UNL     1      -3.523   0.779  13.584  1.00  0.00     0.163 HD
BRANCH  17  20
HETATM   20  C13 UNL     1      -5.095   2.516  14.938  1.00  0.00     0.078 C 
HETATM   21  C14 UNL     1      -5.017   1.144  15.554  1.00  0.00     0.016 C 
HETATM   22  C15 UNL     1      -5.200   1.254  17.043  1.00  0.00     0.033 C 
HETATM   23  C16 UNL     1      -6.416   2.040  17.423  1.00  0.00     0.183 C 
HETATM   24  C17 UNL     1      -6.541   3.353  16.699  1.00  0.00     0.033 C 
HETATM   25  C18 UNL     1      -6.470   3.074  15.203  1.00  0.00     0.016 C 
BRANCH  23  26
HETATM   26  N5  UNL     1      -6.347   2.261  18.865  1.00  0.00    -0.075 N 
ATOM     27  H53 UNL     1      -6.449   1.403  19.407  1.00  0.00     0.274 HD
ATOM     28  H52 UNL     1      -5.413   2.510  19.189  1.00  0.00     0.274 HD
ATOM     29  H51 UNL     1      -7.050   2.966  19.093  1.00  0.00     0.274 HD
ENDBRANCH  23  26
ENDBRANCH  17  20
ENDBRANCH   1  16
TORSDOF 6
ENDMDL
MODEL 3
REMARK VINA RESULT: -7.346916217      1.172      1.579
REMARK  6 active torsions:
REMARK  status: ('A' for Active; 'I' for Inactive)
REMARK    1  A    between atoms: C2_2  and  C3_3 
REMARK    2  A    between atoms: C3_3  and  C5_5 
REMARK    3  A    between atoms: C3_3  and  N4_16 
REMARK    4  A    between atoms: C5_5  and  N1_6 
REMARK       I    between atoms: N4_16  and  C12_18 
REMARK    5  A    between atoms: C12_18  and  C13_20 
REMARK    6  A    between atoms: C16_23  and  N5_24 
ROOT
HETATM    1  C3  UNL     1      -2.903   5.871  13.004  1.00  0.00     0.061 C 
HETATM    2  C4  UNL     1      -2.740   7.019  14.028  1.00  0.00     0.044 C 
ENDROOT
BRANCH   1   3
HETATM    3  C2  UNL     1      -3.371   6.499  11.751  1.00  0.00     0.032 C 
HETATM    4  C1  UNL     1      -4.493   5.739  11.061  1.00  0.00     0.008 C 
ENDBRANCH   1   3
BRANCH   1   5
HETATM    5  C5  UNL     1      -1.534   5.241  12.967  1.00  0.00     0.096 C 
BRANCH   5   6
HETATM    6  N1  UNL     1      -1.171   4.477  11.845  1.00  0.00    -0.347 N 
HETATM    7  C6  UNL     1      -0.273   4.780  10.778  1.00  0.00     0.130 C 
HETATM    8  C7  UNL     1      -0.294   3.622   9.783  1.00  0.00     0.034 C 
HETATM    9  C8  UNL     1      -1.605   2.938  10.093  1.00  0.00     0.076 C 
HETATM   10  C9  UNL     1      -1.549   1.438   9.988  1.00  0.00     0.154 C 
HETATM   11  C11 UNL     1      -1.687   3.152  11.577  1.00  0.00     0.103 C 
HETATM   12  N2  UNL     1      -2.463   1.126  11.109  1.00  0.00    -0.330 N 
HETATM   13  C10 UNL     1      -3.386   0.029  11.078  1.00  0.00     0.170 C 
HETATM   14  N3  UNL     1      -2.197   2.090  12.083  1.00  0.00    -0.291 N 
ATOM     15  H3  UNL     1      -2.386   1.964  13.078  1.00  0.00     0.188 HD
ENDBRANCH   5   6
ENDBRANCH   1   5
BRANCH   1  16
HETATM   16  N4  UNL     1      -3.889   4.987  13.538  1.00  0.00    -0.347 N 
HETATM   17  C12 UNL     1      -3.605   4.036  14.531  1.00  0.00     0.222 C 
HETATM   18  O1  UNL     1      -2.450   3.917  14.990  1.00  0.00    -0.273 OA
ATOM     19  H4  UNL     1      -4.843   5.050  13.182  1.00  0.00     0.163 HD
BRANCH  17  20
HETATM   20  C13 UNL     1      -4.664   3.130  15.079  1.00  0.00     0.078 C 
HETATM   21  C14 UNL     1      -5.772   3.933  15.706  1.00  0.00     0.016 C 
HETATM   22  C15 UNL     1      -6.885   3.010  16.120  1.00  0.00     0.033 C 
HETATM   23  C16 UNL     1      -6.408   1.856  16.945  1.00  0.00     0.183 C 
HETATM   24  C17 UNL     1      -5.217   1.144  16.363  1.00  0.00     0.033 C 
HETATM   25  C18 UNL     1      -4.125   2.178  16.118  1.00  0.00     0.016 C 
BRANCH  23  26
HETATM   26  N5  UNL     1      -7.532   0.934  17.081  1.00  0.00    -0.075 N 
ATOM     27  H53 UNL     1      -7.989   0.990  17.991  1.00  0.00     0.274 HD
ATOM     28  H52 UNL     1      -8.338   1.198  16.514  1.00  0.00     0.274 HD
ATOM     29  H51 UNL     1      -7.181   0.000  16.865  1.00  0.00     0.274 HD
ENDBRANCH  23  26
ENDBRANCH  17  20
ENDBRANCH   1  16
TORSDOF 6
ENDMDL
MODEL 4
REMARK VINA RESULT: -7.327236524      1.309      4.293
REMARK  6 active torsions:
REMARK  status: ('A' for Active; 'I' for Inactive)
REMARK    1  A    between atoms: C2_2  and  C3_3 
REMARK    2  A    between atoms: C3_3  and  C5_5 
REMARK    3  A    between atoms: C3_3  and  N4_16 
REMARK    4  A    between atoms: C5_5  and  N1_6 
REMARK       I    between atoms: N4_16  and  C12_18 
REMARK    5  A    between atoms: C12_18  and  C13_20 
REMARK    6  A    between atoms: C16_23  and  N5_24 
ROOT
HETATM    1  C3  UNL     1      -3.617   1.204  11.544  1.00  0.00     0.061 C 
HETATM    2  C4  UNL     1      -4.883   0.617  10.877  1.00  0.00     0.044 C 
ENDROOT
BRANCH   1   3
HETATM    3  C2  UNL     1      -2.538   0.220  11.320  1.00  0.00     0.032 C 
HETATM    4  C1  UNL     1      -3.020  -1.222  11.261  1.00  0.00     0.008 C 
ENDBRANCH   1   3
BRANCH   1   5
HETATM    5  C5  UNL     1      -3.456   2.540  10.866  1.00  0.00     0.096 C 
BRANCH   5   6
HETATM    6  N1  UNL     1      -2.313   3.309  11.147  1.00  0.00    -0.347 N 
HETATM    7  C6  UNL     1      -0.972   3.164  10.682  1.00  0.00     0.130 C 
HETATM    8  C7  UNL     1      -0.110   4.233  11.349  1.00  0.00     0.034 C 
HETATM    9  C8  UNL     1      -0.927   4.614  12.562  1.00  0.00     0.076 C 
HETATM   10  C9  UNL     1      -0.871   6.080  12.898  1.00  0.00     0.154 C 
HETATM   11  C11 UNL     1      -2.319   4.465  12.017  1.00  0.00     0.103 C 
HETATM   12  N2  UNL     1      -2.269   6.232  13.358  1.00  0.00    -0.330 N 
HETATM   13  C10 UNL     1      -2.641   7.086  14.449  1.00  0.00     0.170 C 
HETATM   14  N3  UNL     1      -3.026   5.407  12.525  1.00  0.00    -0.291 N 
ATOM     15  H3  UNL     1      -4.021   5.537  12.342  1.00  0.00     0.188 HD
ENDBRANCH   5   6
ENDBRANCH   1   5
BRANCH   1  16
HETATM   16  N4  UNL     1      -3.914   1.337  12.934  1.00  0.00    -0.347 N 
HETATM   17  C12 UNL     1      -4.800   2.302  13.438  1.00  0.00     0.222 C 
HETATM   18  O1  UNL     1      -5.369   3.108  12.672  1.00  0.00    -0.273 OA
ATOM     19  H4  UNL     1      -3.462   0.701  13.591  1.00  0.00     0.163 HD
BRANCH  17  20
HETATM   20  C13 UNL     1      -5.098   2.410  14.901  1.00  0.00     0.078 C 
HETATM   21  C14 UNL     1      -5.034   1.055  15.552  1.00  0.00     0.016 C 
HETATM   22  C15 UNL     1      -5.197   1.207  17.040  1.00  0.00     0.033 C 
HETATM   23  C16 UNL     1      -6.396   2.022  17.414  1.00  0.00     0.183 C 
HETATM   24  C17 UNL     1      -6.509   3.318  16.657  1.00  0.00     0.033 C 
HETATM   25  C18 UNL     1      -6.462   2.998  15.168  1.00  0.00     0.016 C 
BRANCH  23  26
HETATM   26  N5  UNL     1      -6.306   2.281  18.849  1.00  0.00    -0.075 N 
ATOM     27  H53 UNL     1      -6.471   1.450  19.416  1.00  0.00     0.274 HD
ATOM     28  H52 UNL     1      -5.354   2.466  19.164  1.00  0.00     0.274 HD
ATOM     29  H51 UNL     1      -6.952   3.044  19.056  1.00  0.00     0.274 HD
ENDBRANCH  23  26
ENDBRANCH  17  20
ENDBRANCH   1  16
TORSDOF 6
ENDMDL
MODEL 5
REMARK VINA RESULT: -7.195727498      1.577      5.159
REMARK  6 active torsions:
REMARK  status: ('A' for Active; 'I' for Inactive)
REMARK    1  A    between atoms: C2_2  and  C3_3 
REMARK    2  A    between atoms: C3_3  and  C5_5 
REMARK    3  A    between atoms: C3_3  and  N4_16 
REMARK    4  A    between atoms: C5_5  and  N1_6 
REMARK       I    between atoms: N4_16  and  C12_18 
REMARK    5  A    between atoms: C12_18  and  C13_20 
REMARK    6  A    between atoms: C16_23  and  N5_24 
ROOT
HETATM    1  C3  UNL     1      -4.571   2.516  14.706  1.00  0.00     0.061 C 
HETATM    2  C4  UNL     1      -5.799   3.174  15.379  1.00  0.00     0.044 C 
ENDROOT
BRANCH   1   3
HETATM    3  C2  UNL     1      -4.219   1.349  15.541  1.00  0.00     0.032 C 
HETATM    4  C1  UNL     1      -5.250   1.022  16.611  1.00  0.00     0.008 C 
ENDBRANCH   1   3
BRANCH   1   5
HETATM    5  C5  UNL     1      -5.059   2.218  13.311  1.00  0.00     0.096 C 
BRANCH   5   6
HETATM    6  N1  UNL     1      -4.225   1.492  12.443  1.00  0.00    -0.347 N 
HETATM    7  C6  UNL     1      -4.157   0.088  12.196  1.00  0.00     0.130 C 
HETATM    8  C7  UNL     1      -3.027  -0.174  11.203  1.00  0.00     0.034 C 
HETATM    9  C8  UNL     1      -2.174   1.067  11.330  1.00  0.00     0.076 C 
HETATM   10  C9  UNL     1      -1.581   1.534  10.028  1.00  0.00     0.154 C 
HETATM   11  C11 UNL     1      -3.229   2.103  11.590  1.00  0.00     0.103 C 
HETATM   12  N2  UNL     1      -1.675   2.989  10.278  1.00  0.00    -0.330 N 
HETATM   13  C10 UNL     1      -0.675   3.920   9.840  1.00  0.00     0.170 C 
HETATM   14  N3  UNL     1      -2.870   3.170  10.976  1.00  0.00    -0.291 N 
ATOM     15  H3  UNL     1      -3.394   4.045  10.994  1.00  0.00     0.188 HD
ENDBRANCH   5   6
ENDBRANCH   1   5
BRANCH   1  16
HETATM   16  N4  UNL     1      -3.531   3.492  14.716  1.00  0.00    -0.347 N 
HETATM   17  C12 UNL     1      -3.660   4.754  14.116  1.00  0.00     0.222 C 
HETATM   18  O1  UNL     1      -4.713   5.076  13.527  1.00  0.00    -0.273 OA
ATOM     19  H4  UNL     1      -2.652   3.262  15.181  1.00  0.00     0.163 HD
BRANCH  17  20
HETATM   20  C13 UNL     1      -2.552   5.761  14.152  1.00  0.00     0.078 C 
HETATM   21  C14 UNL     1      -3.031   7.048  14.769  1.00  0.00     0.016 C 
HETATM   22  C15 UNL     1      -1.869   7.991  14.924  1.00  0.00     0.033 C 
HETATM   23  C16 UNL     1      -1.084   8.159  13.660  1.00  0.00     0.183 C 
HETATM   24  C17 UNL     1      -0.725   6.861  12.991  1.00  0.00     0.033 C 
HETATM   25  C18 UNL     1      -2.010   6.069  12.779  1.00  0.00     0.016 C 
BRANCH  23  26
HETATM   26  N5  UNL     1       0.125   8.903  14.004  1.00  0.00    -0.075 N 
ATOM     27  H53 UNL     1      -0.019   9.575  14.758  1.00  0.00     0.274 HD
ATOM     28  H52 UNL     1       0.828   8.331  14.472  1.00  0.00     0.274 HD
ATOM     29  H51 UNL     1       0.467   9.332  13.144  1.00  0.00     0.274 HD
ENDBRANCH  23  26
ENDBRANCH  17  20
ENDBRANCH   1  16
TORSDOF 6
ENDMDL
