MODEL 1
REMARK VINA RESULT: -7.204276229      0.000      0.000
REMARK  6 active torsions:
REMARK  status: ('A' for Active; 'I' for Inactive)
REMARK    1  A    between atoms: N1_2  and  C3_4 
REMARK    2  A    between atoms: C3_4  and  C4_5 
REMARK    3  A    between atoms: C4_5  and  C5_6 
REMARK    4  A    between atoms: C5_6  and  N2_7 
REMARK    5  A    between atoms: N2_7  and  C6_9 
REMARK    6  A    between atoms: C7_12  and  N4_13 
ROOT
HETATM    1  C6  UNL     1      -4.858   6.094  12.256  1.00  0.00     0.680 A 
HETATM    2  N3  UNL     1      -5.614   6.071  13.332  1.00  0.00    -0.176 N 
ATOM      3  H3  UNL     1      -6.155   6.901  13.572  1.00  0.00     0.186 HD
HETATM    4  C7  UNL     1      -5.697   4.965  14.143  1.00  0.00     0.128 A 
HETATM    5  C8  UNL     1      -4.982   3.853  13.843  1.00  0.00     0.050 A 
HETATM    6  C9  UNL     1      -4.176   3.894  12.679  1.00  0.00     0.079 A 
HETATM    7  C10 UNL     1      -3.427   2.844  12.211  1.00  0.00     0.119 A 
HETATM    8  N5  UNL     1      -3.480   1.734  12.915  1.00  0.00    -0.357 N 
ATOM      9  H5  UNL     1      -2.945   0.920  12.611  1.00  0.00     0.166 HD
HETATM   10  C11 UNL     1      -4.243   1.656  14.048  1.00  0.00     0.086 A 
HETATM   11  S1  UNL     1      -4.444   0.322  15.093  1.00  0.00    -0.076 SA
HETATM   12  C12 UNL     1      -5.491   1.043  16.195  1.00  0.00    -0.008 A 
HETATM   13  C13 UNL     1      -5.690   2.336  15.754  1.00  0.00    -0.031 A 
HETATM   14  C14 UNL     1      -5.015   2.651  14.587  1.00  0.00     0.021 A 
HETATM   15  C15 UNL     1      -6.551   2.909  16.853  1.00  0.00     0.041 C 
HETATM   16  C16 UNL     1      -6.323   2.038  18.099  1.00  0.00     0.010 C 
HETATM   17  C17 UNL     1      -6.270   0.718  17.453  1.00  0.00     0.047 C 
HETATM   18  N6  UNL     1      -4.150   5.019  11.935  1.00  0.00    -0.190 N 
ATOM     19  H6  UNL     1      -3.567   5.044  11.098  1.00  0.00     0.184 HD
ENDROOT
BRANCH   1  20
HETATM   20  N2  UNL     1      -4.785   7.125  11.508  1.00  0.00    -0.226 N 
ATOM     21  H2  UNL     1      -3.884   7.466  11.172  1.00  0.00     0.177 HD
BRANCH  20  22
HETATM   22  C5  UNL     1      -6.028   7.802  11.144  1.00  0.00     0.143 C 
BRANCH  22  23
HETATM   23  C4  UNL     1      -6.604   7.050   9.996  1.00  0.00     0.064 C 
BRANCH  23  24
HETATM   24  C3  UNL     1      -7.798   7.694   9.389  1.00  0.00     0.058 C 
BRANCH  24  25
HETATM   25  N1  UNL     1      -7.643   8.236   8.129  1.00  0.00    -0.402 N 
HETATM   26  C1  UNL     1      -6.472   8.326   7.394  1.00  0.00     0.148 C 
HETATM   27  C2  UNL     1      -8.673   9.196   7.753  1.00  0.00     0.148 C 
ENDBRANCH  24  25
ENDBRANCH  23  24
ENDBRANCH  22  23
ENDBRANCH  20  22
ENDBRANCH   1  20
BRANCH   4  28
HETATM   28  N4  UNL     1      -6.513   5.026  15.093  1.00  0.00    -0.384 N 
ATOM     29  H42 UNL     1      -7.036   5.869  15.332  1.00  0.00     0.157 HD
ATOM     30  H41 UNL     1      -6.592   4.197  15.682  1.00  0.00     0.157 HD
ENDBRANCH   4  28
TORSDOF 6
ENDMDL
MODEL 2
REMARK VINA RESULT: -7.050411543      3.175      5.618
REMARK  6 active torsions:
REMARK  status: ('A' for Active; 'I' for Inactive)
REMARK    1  A    between atoms: N1_2  and  C3_4 
REMARK    2  A    between atoms: C3_4  and  C4_5 
REMARK    3  A    between atoms: C4_5  and  C5_6 
REMARK    4  A    between atoms: C5_6  and  N2_7 
REMARK    5  A    between atoms: N2_7  and  C6_9 
REMARK    6  A    between atoms: C7_12  and  N4_13 
ROOT
HETATM    1  C6  UNL     1      -2.907   2.025  11.312  1.00  0.00     0.680 A 
HETATM    2  N3  UNL     1      -3.243   1.164  12.246  1.00  0.00    -0.176 N 
ATOM      3  H3  UNL     1      -2.906   0.203  12.175  1.00  0.00     0.186 HD
HETATM    4  C7  UNL     1      -4.033   1.514  13.314  1.00  0.00     0.128 A 
HETATM    5  C8  UNL     1      -4.494   2.784  13.424  1.00  0.00     0.050 A 
HETATM    6  C9  UNL     1      -4.121   3.700  12.411  1.00  0.00     0.079 A 
HETATM    7  C10 UNL     1      -4.464   5.028  12.395  1.00  0.00     0.119 A 
HETATM    8  N5  UNL     1      -5.194   5.452  13.403  1.00  0.00    -0.357 N 
ATOM      9  H5  UNL     1      -5.476   6.431  13.444  1.00  0.00     0.166 HD
HETATM   10  C11 UNL     1      -5.580   4.596  14.399  1.00  0.00     0.086 A 
HETATM   11  S1  UNL     1      -6.520   4.943  15.781  1.00  0.00    -0.076 SA
HETATM   12  C12 UNL     1      -6.533   3.399  16.449  1.00  0.00    -0.008 A 
HETATM   13  C13 UNL     1      -5.803   2.598  15.593  1.00  0.00    -0.031 A 
HETATM   14  C14 UNL     1      -5.287   3.261  14.494  1.00  0.00     0.021 A 
HETATM   15  C15 UNL     1      -5.963   1.239  16.229  1.00  0.00     0.041 C 
HETATM   16  C16 UNL     1      -7.225   1.302  17.105  1.00  0.00     0.010 C 
HETATM   17  C17 UNL     1      -7.055   2.654  17.660  1.00  0.00     0.047 C 
HETATM   18  N6  UNL     1      -3.340   3.277  11.395  1.00  0.00    -0.190 N 
ATOM     19  H6  UNL     1      -3.075   3.940  10.667  1.00  0.00     0.184 HD
ENDROOT
BRANCH   1  20
HETATM   20  N2  UNL     1      -2.173   1.693  10.322  1.00  0.00    -0.226 N 
ATOM     21  H2  UNL     1      -2.555   1.158   9.542  1.00  0.00     0.177 HD
BRANCH  20  22
HETATM   22  C5  UNL     1      -0.770   2.102  10.337  1.00  0.00     0.143 C 
BRANCH  22  23
HETATM   23  C4  UNL     1      -0.579   3.019   9.181  1.00  0.00     0.064 C 
BRANCH  23  24
HETATM   24  C3  UNL     1       0.160   4.265   9.512  1.00  0.00     0.058 C 
BRANCH  24  25
HETATM   25  N1  UNL     1       1.477   4.126   9.900  1.00  0.00    -0.402 N 
HETATM   26  C1  UNL     1       2.032   4.473  11.121  1.00  0.00     0.148 C 
HETATM   27  C2  UNL     1       2.429   4.053   8.798  1.00  0.00     0.148 C 
ENDBRANCH  24  25
ENDBRANCH  23  24
ENDBRANCH  22  23
ENDBRANCH  20  22
ENDBRANCH   1  20
BRANCH   4  28
HETATM   28  N4  UNL     1      -4.218   0.633  14.187  1.00  0.00    -0.384 N 
ATOM     29  H42 UNL     1      -3.751   0.631  15.094  1.00  0.00     0.157 HD
ATOM     30  H41 UNL     1      -4.823  -0.147  13.927  1.00  0.00     0.157 HD
ENDBRANCH   4  28
TORSDOF 6
ENDMDL
MODEL 3
REMARK VINA RESULT: -7.038125872      2.254      3.668
REMARK  6 active torsions:
REMARK  status: ('A' for Active; 'I' for Inactive)
REMARK    1  A    between atoms: N1_2  and  C3_4 
REMARK    2  A    between atoms: C3_4  and  C4_5 
REMARK    3  A    between atoms: C4_5  and  C5_6 
REMARK    4  A    between atoms: C5_6  and  N2_7 
REMARK    5  A    between atoms: N2_7  and  C6_9 
REMARK    6  A    between atoms: C7_12  and  N4_13 
ROOT
HETATM    1  C6  UNL     1      -4.756   6.021  12.163  1.00  0.00     0.680 A 
HETATM    2  N3  UNL     1      -5.505   6.039  13.243  1.00  0.00    -0.176 N 
ATOM      3  H3  UNL     1      -6.018   6.890  13.474  1.00  0.00     0.186 HD
HETATM    4  C7  UNL     1      -5.620   4.948  14.072  1.00  0.00     0.128 A 
HETATM    5  C8  UNL     1      -4.943   3.810  13.785  1.00  0.00     0.050 A 
HETATM    6  C9  UNL     1      -4.143   3.806  12.616  1.00  0.00     0.079 A 
HETATM    7  C10 UNL     1      -3.432   2.726  12.161  1.00  0.00     0.119 A 
HETATM    8  N5  UNL     1      -3.516   1.629  12.881  1.00  0.00    -0.357 N 
ATOM      9  H5  UNL     1      -3.010   0.794  12.587  1.00  0.00     0.166 HD
HETATM   10  C11 UNL     1      -4.274   1.593  14.020  1.00  0.00     0.086 A 
HETATM   11  S1  UNL     1      -4.512   0.282  15.087  1.00  0.00    -0.076 SA
HETATM   12  C12 UNL     1      -5.528   1.054  16.183  1.00  0.00    -0.008 A 
HETATM   13  C13 UNL     1      -5.687   2.346  15.723  1.00  0.00    -0.031 A 
HETATM   14  C14 UNL     1      -5.010   2.621  14.548  1.00  0.00     0.021 A 
HETATM   15  C15 UNL     1      -6.523   2.963  16.819  1.00  0.00     0.041 C 
HETATM   16  C16 UNL     1      -6.315   2.105  18.076  1.00  0.00     0.010 C 
HETATM   17  C17 UNL     1      -6.309   0.774  17.450  1.00  0.00     0.047 C 
HETATM   18  N6  UNL     1      -4.086   4.919  11.855  1.00  0.00    -0.190 N 
ATOM     19  H6  UNL     1      -3.507   4.912  11.014  1.00  0.00     0.184 HD
ENDROOT
BRANCH   1  20
HETATM   20  N2  UNL     1      -4.654   7.037  11.398  1.00  0.00    -0.226 N 
ATOM     21  H2  UNL     1      -5.483   7.536  11.074  1.00  0.00     0.177 HD
BRANCH  20  22
HETATM   22  C5  UNL     1      -3.315   7.467  11.000  1.00  0.00     0.143 C 
BRANCH  22  23
HETATM   23  C4  UNL     1      -2.920   8.556  11.936  1.00  0.00     0.064 C 
BRANCH  23  24
HETATM   24  C3  UNL     1      -1.733   8.235  12.770  1.00  0.00     0.058 C 
BRANCH  24  25
HETATM   25  N1  UNL     1      -1.972   7.823  14.065  1.00  0.00    -0.402 N 
HETATM   26  C1  UNL     1      -1.887   8.588  15.218  1.00  0.00     0.148 C 
HETATM   27  C2  UNL     1      -1.841   6.387  14.277  1.00  0.00     0.148 C 
ENDBRANCH  24  25
ENDBRANCH  23  24
ENDBRANCH  22  23
ENDBRANCH  20  22
ENDBRANCH   1  20
BRANCH   4  28
HETATM   28  N4  UNL     1      -6.427   5.051  15.025  1.00  0.00    -0.384 N 
ATOM     29  H42 UNL     1      -6.149   5.296  15.976  1.00  0.00     0.157 HD
ATOM     30  H41 UNL     1      -7.399   4.808  14.829  1.00  0.00     0.157 HD
ENDBRANCH   4  28
TORSDOF 6
ENDMDL
MODEL 4
REMARK VINA RESULT: -6.919557943      1.135      1.444
REMARK  6 active torsions:
REMARK  status: ('A' for Active; 'I' for Inactive)
REMARK    1  A    between atoms: N1_2  and  C3_4 
REMARK    2  A    between atoms: C3_4  and  C4_5 
REMARK    3  A    between atoms: C4_5  and  C5_6 
REMARK    4  A    between atoms: C5_6  and  N2_7 
REMARK    5  A    between atoms: N2_7  and  C6_9 
REMARK    6  A    between atoms: C7_12  and  N4_13 
ROOT
HETATM    1  C6  UNL     1      -4.850   6.128  12.302  1.00  0.00     0.680 A 
HETATM    2  N3  UNL     1      -5.597   6.095  13.382  1.00  0.00    -0.176 N 
ATOM      3  H3  UNL     1      -6.132   6.926  13.637  1.00  0.00     0.186 HD
HETATM    4  C7  UNL     1      -5.681   4.980  14.181  1.00  0.00     0.128 A 
HETATM    5  C8  UNL     1      -4.974   3.868  13.862  1.00  0.00     0.050 A 
HETATM    6  C9  UNL     1      -4.176   3.918  12.693  1.00  0.00     0.079 A 
HETATM    7  C10 UNL     1      -3.438   2.870  12.207  1.00  0.00     0.119 A 
HETATM    8  N5  UNL     1      -3.491   1.752  12.898  1.00  0.00    -0.357 N 
ATOM      9  H5  UNL     1      -2.964   0.939  12.581  1.00  0.00     0.166 HD
HETATM   10  C11 UNL     1      -4.247   1.665  14.036  1.00  0.00     0.086 A 
HETATM   11  S1  UNL     1      -4.448   0.319  15.066  1.00  0.00    -0.076 SA
HETATM   12  C12 UNL     1      -5.483   1.033  16.184  1.00  0.00    -0.008 A 
HETATM   13  C13 UNL     1      -5.677   2.333  15.760  1.00  0.00    -0.031 A 
HETATM   14  C14 UNL     1      -5.009   2.657  14.593  1.00  0.00     0.021 A 
HETATM   15  C15 UNL     1      -6.527   2.897  16.873  1.00  0.00     0.041 C 
HETATM   16  C16 UNL     1      -6.295   2.010  18.106  1.00  0.00     0.010 C 
HETATM   17  C17 UNL     1      -6.254   0.697  17.444  1.00  0.00     0.047 C 
HETATM   18  N6  UNL     1      -4.150   5.052  11.963  1.00  0.00    -0.190 N 
ATOM     19  H6  UNL     1      -3.573   5.084  11.122  1.00  0.00     0.184 HD
ENDROOT
BRANCH   1  20
HETATM   20  N2  UNL     1      -4.775   7.167  11.565  1.00  0.00    -0.226 N 
ATOM     21  H2  UNL     1      -3.873   7.529  11.258  1.00  0.00     0.177 HD
BRANCH  20  22
HETATM   22  C5  UNL     1      -6.021   7.823  11.173  1.00  0.00     0.143 C 
BRANCH  22  23
HETATM   23  C4  UNL     1      -6.389   7.279   9.837  1.00  0.00     0.064 C 
BRANCH  23  24
HETATM   24  C3  UNL     1      -5.460   7.675   8.747  1.00  0.00     0.058 C 
BRANCH  24  25
HETATM   25  N1  UNL     1      -4.871   6.655   8.027  1.00  0.00    -0.402 N 
HETATM   26  C1  UNL     1      -3.707   5.972   8.340  1.00  0.00     0.148 C 
HETATM   27  C2  UNL     1      -5.236   6.621   6.616  1.00  0.00     0.148 C 
ENDBRANCH  24  25
ENDBRANCH  23  24
ENDBRANCH  22  23
ENDBRANCH  20  22
ENDBRANCH   1  20
BRANCH   4  28
HETATM   28  N4  UNL     1      -6.490   5.035  15.138  1.00  0.00    -0.384 N 
ATOM     29  H42 UNL     1      -6.300   5.532  16.008  1.00  0.00     0.157 HD
ATOM     30  H41 UNL     1      -7.349   4.492  15.041  1.00  0.00     0.157 HD
ENDBRANCH   4  28
TORSDOF 6
ENDMDL
MODEL 5
REMARK VINA RESULT: -6.912013908      1.499      1.826
REMARK  6 active torsions:
REMARK  status: ('A' for Active; 'I' for Inactive)
REMARK    1  A    between atoms: N1_2  and  C3_4 
REMARK    2  A    between atoms: C3_4  and  C4_5 
REMARK    3  A    between atoms: C4_5  and  C5_6 
REMARK    4  A    between atoms: C5_6  and  N2_7 
REMARK    5  A    between atoms: N2_7  and  C6_9 
REMARK    6  A    between atoms: C7_12  and  N4_13 
ROOT
HETATM    1  C6  UNL     1      -4.778   6.016  12.231  1.00  0.00     0.680 A 
HETATM    2  N3  UNL     1      -5.534   6.020  13.307  1.00  0.00    -0.176 N 
ATOM      3  H3  UNL     1      -6.060   6.863  13.537  1.00  0.00     0.186 HD
HETATM    4  C7  UNL     1      -5.638   4.925  14.131  1.00  0.00     0.128 A 
HETATM    5  C8  UNL     1      -4.944   3.797  13.845  1.00  0.00     0.050 A 
HETATM    6  C9  UNL     1      -4.136   3.808  12.682  1.00  0.00     0.079 A 
HETATM    7  C10 UNL     1      -3.408   2.739  12.227  1.00  0.00     0.119 A 
HETATM    8  N5  UNL     1      -3.481   1.638  12.943  1.00  0.00    -0.357 N 
ATOM      9  H5  UNL     1      -2.962   0.811  12.650  1.00  0.00     0.166 HD
HETATM   10  C11 UNL     1      -4.246   1.589  14.077  1.00  0.00     0.086 A 
HETATM   11  S1  UNL     1      -4.473   0.271  15.138  1.00  0.00    -0.076 SA
HETATM   12  C12 UNL     1      -5.507   1.025  16.230  1.00  0.00    -0.008 A 
HETATM   13  C13 UNL     1      -5.681   2.317  15.774  1.00  0.00    -0.031 A 
HETATM   14  C14 UNL     1      -5.000   2.605  14.604  1.00  0.00     0.021 A 
HETATM   15  C15 UNL     1      -6.532   2.919  16.865  1.00  0.00     0.041 C 
HETATM   16  C16 UNL     1      -6.321   2.058  18.121  1.00  0.00     0.010 C 
HETATM   17  C17 UNL     1      -6.293   0.730  17.491  1.00  0.00     0.047 C 
HETATM   18  N6  UNL     1      -4.090   4.924  11.924  1.00  0.00    -0.190 N 
ATOM     19  H6  UNL     1      -3.506   4.927  11.087  1.00  0.00     0.184 HD
ENDROOT
BRANCH   1  20
HETATM   20  N2  UNL     1      -4.684   7.036  11.471  1.00  0.00    -0.226 N 
ATOM     21  H2  UNL     1      -3.900   7.683  11.555  1.00  0.00     0.177 HD
BRANCH  20  22
HETATM   22  C5  UNL     1      -5.733   7.250  10.475  1.00  0.00     0.143 C 
BRANCH  22  23
HETATM   23  C4  UNL     1      -6.421   8.517  10.845  1.00  0.00     0.064 C 
BRANCH  23  24
HETATM   24  C3  UNL     1      -6.171   9.639   9.904  1.00  0.00     0.058 C 
BRANCH  24  25
HETATM   25  N1  UNL     1      -5.710  10.821  10.448  1.00  0.00    -0.402 N 
HETATM   26  C1  UNL     1      -6.366  12.042  10.476  1.00  0.00     0.148 C 
HETATM   27  C2  UNL     1      -4.261  10.905  10.575  1.00  0.00     0.148 C 
ENDBRANCH  24  25
ENDBRANCH  23  24
ENDBRANCH  22  23
ENDBRANCH  20  22
ENDBRANCH   1  20
BRANCH   4  28
HETATM   28  N4  UNL     1      -6.454   5.013  15.080  1.00  0.00    -0.384 N 
ATOM     29  H42 UNL     1      -7.190   4.329  15.255  1.00  0.00     0.157 HD
ATOM     30  H41 UNL     1      -6.398   5.856  15.652  1.00  0.00     0.157 HD
ENDBRANCH   4  28
TORSDOF 6
ENDMDL
