MODEL 1
REMARK VINA RESULT: -7.065846629      0.000      0.000
REMARK  8 active torsions:
REMARK  status: ('A' for Active; 'I' for Inactive)
REMARK    1  A    between atoms: C3_4  and  N1_5 
REMARK    2  A    between atoms: N1_5  and  C4_7 
REMARK    3  A    between atoms: C4_7  and  C5_8 
REMARK    4  A    between atoms: C5_8  and  O1_9 
REMARK    5  A    between atoms: C5_8  and  C6_11 
REMARK    6  A    between atoms: C10_17  and  C11_18 
REMARK    7  A    between atoms: C11_18  and  N3_19 
REMARK    8  A    between atoms: C15_23  and  O2_24 
ROOT
HETATM    1  C1  UNL     1      -3.315  -0.074  10.086  1.00  0.00     0.058 C 
HETATM    2  C2  UNL     1      -3.344   0.860  11.277  1.00  0.00     0.006 A 
HETATM    3  S1  UNL     1      -4.218   0.641  12.726  1.00  0.00    -0.057 SA
HETATM    4  C3  UNL     1      -3.702   2.128  13.544  1.00  0.00     0.145 A 
HETATM    5  N2  UNL     1      -2.903   2.654  12.638  1.00  0.00    -0.338 N 
ATOM      6  H2  UNL     1      -2.435   3.539  12.831  1.00  0.00     0.168 HD
HETATM    7  C10 UNL     1      -2.703   2.052  11.489  1.00  0.00     0.052 A 
ENDROOT
BRANCH   4   8
HETATM    8  N1  UNL     1      -4.188   2.434  14.640  1.00  0.00    -0.368 N 
ATOM      9  H1  UNL     1      -5.039   2.948  14.413  1.00  0.00     0.161 HD
BRANCH   8  10
HETATM   10  C4  UNL     1      -4.144   2.421  16.018  1.00  0.00     0.154 C 
BRANCH  10  11
HETATM   11  C5  UNL     1      -5.353   1.570  16.474  1.00  0.00     0.143 C 
BRANCH  11  12
HETATM   12  O1  UNL     1      -4.818   0.406  17.105  1.00  0.00    -0.393 OA
ATOM     13  H1  UNL     1      -5.376   0.222  17.852  1.00  0.00     0.210 HD
ENDBRANCH  11  12
BRANCH  11  14
HETATM   14  C6  UNL     1      -6.428   2.154  17.253  1.00  0.00    -0.024 C 
HETATM   15  C7  UNL     1      -6.971   3.473  16.717  1.00  0.00     0.017 C 
HETATM   16  C8  UNL     1      -6.313   2.203  18.735  1.00  0.00     0.017 C 
HETATM   17  C9  UNL     1      -7.673   1.185  17.044  1.00  0.00     0.017 C 
ENDBRANCH  11  14
ENDBRANCH  10  11
ENDBRANCH   8  10
ENDBRANCH   4   8
BRANCH   7  18
HETATM   18  C11 UNL     1      -2.071   2.744  10.314  1.00  0.00     0.330 C 
BRANCH  18  19
HETATM   19  N3  UNL     1      -0.812   3.379  10.509  1.00  0.00     0.096 N 
HETATM   20  C12 UNL     1      -1.160   4.856  10.536  1.00  0.00     0.273 C 
HETATM   21  C13 UNL     1      -0.116   5.613  11.278  1.00  0.00     0.033 C 
HETATM   22  C14 UNL     1       1.167   4.819  11.213  1.00  0.00     0.035 C 
HETATM   23  C15 UNL     1       1.328   4.205   9.834  1.00  0.00     0.146 C 
HETATM   24  C16 UNL     1       0.202   3.211   9.510  1.00  0.00     0.304 C 
BRANCH  23  25
HETATM   25  O2  UNL     1       2.580   3.653   9.757  1.00  0.00    -0.394 OA
ATOM     26  H2  UNL     1       3.182   4.327   9.461  1.00  0.00     0.210 HD
ENDBRANCH  23  25
ENDBRANCH  18  19
ENDBRANCH   7  18
TORSDOF 8
ENDMDL
MODEL 2
REMARK VINA RESULT: -6.918383345      1.436      1.901
REMARK  8 active torsions:
REMARK  status: ('A' for Active; 'I' for Inactive)
REMARK    1  A    between atoms: C3_4  and  N1_5 
REMARK    2  A    between atoms: N1_5  and  C4_7 
REMARK    3  A    between atoms: C4_7  and  C5_8 
REMARK    4  A    between atoms: C5_8  and  O1_9 
REMARK    5  A    between atoms: C5_8  and  C6_11 
REMARK    6  A    between atoms: C10_17  and  C11_18 
REMARK    7  A    between atoms: C11_18  and  N3_19 
REMARK    8  A    between atoms: C15_23  and  O2_24 
ROOT
HETATM    1  C1  UNL     1      -4.043   5.030  10.978  1.00  0.00     0.058 C 
HETATM    2  C2  UNL     1      -3.906   3.767  11.800  1.00  0.00     0.006 A 
HETATM    3  S1  UNL     1      -4.559   3.480  13.351  1.00  0.00    -0.057 SA
HETATM    4  C3  UNL     1      -3.957   1.825  13.562  1.00  0.00     0.145 A 
HETATM    5  N2  UNL     1      -3.316   1.639  12.425  1.00  0.00    -0.338 N 
ATOM      6  H2  UNL     1      -2.856   0.747  12.246  1.00  0.00     0.168 HD
HETATM    7  C10 UNL     1      -3.264   2.589  11.521  1.00  0.00     0.052 A 
ENDROOT
BRANCH   4   8
HETATM    8  N1  UNL     1      -4.129   1.234  14.635  1.00  0.00    -0.368 N 
ATOM      9  H1  UNL     1      -4.321   0.268  14.372  1.00  0.00     0.161 HD
BRANCH   8  10
HETATM   10  C4  UNL     1      -4.188   1.241  16.013  1.00  0.00     0.154 C 
BRANCH  10  11
HETATM   11  C5  UNL     1      -5.657   0.914  16.376  1.00  0.00     0.143 C 
BRANCH  11  12
HETATM   12  O1  UNL     1      -5.644  -0.358  17.024  1.00  0.00    -0.393 OA
ATOM     13  H1  UNL     1      -5.179  -0.952  16.447  1.00  0.00     0.210 HD
ENDBRANCH  11  12
BRANCH  11  14
HETATM   14  C6  UNL     1      -6.481   1.870  17.091  1.00  0.00    -0.024 C 
HETATM   15  C7  UNL     1      -6.692   3.200  16.380  1.00  0.00     0.017 C 
HETATM   16  C8  UNL     1      -6.253   2.088  18.545  1.00  0.00     0.017 C 
HETATM   17  C9  UNL     1      -7.950   1.257  17.069  1.00  0.00     0.017 C 
ENDBRANCH  11  14
ENDBRANCH  10  11
ENDBRANCH   8  10
ENDBRANCH   4   8
BRANCH   7  18
HETATM   18  C11 UNL     1      -2.301   2.554  10.368  1.00  0.00     0.330 C 
BRANCH  18  19
HETATM   19  N3  UNL     1      -1.204   3.460  10.385  1.00  0.00     0.096 N 
HETATM   20  C12 UNL     1      -0.627   3.346   8.985  1.00  0.00     0.273 C 
HETATM   21  C13 UNL     1       0.125   4.582   8.640  1.00  0.00     0.033 C 
HETATM   22  C14 UNL     1       0.572   5.229   9.929  1.00  0.00     0.035 C 
HETATM   23  C15 UNL     1       1.019   4.164  10.914  1.00  0.00     0.146 C 
HETATM   24  C16 UNL     1      -0.125   3.214  11.296  1.00  0.00     0.304 C 
BRANCH  23  25
HETATM   25  O2  UNL     1       1.587   4.793  11.992  1.00  0.00    -0.394 OA
ATOM     26  H2  UNL     1       1.587   4.185  12.723  1.00  0.00     0.210 HD
ENDBRANCH  23  25
ENDBRANCH  18  19
ENDBRANCH   7  18
TORSDOF 8
ENDMDL
MODEL 3
REMARK VINA RESULT: -6.913026654      2.013      2.557
REMARK  8 active torsions:
REMARK  status: ('A' for Active; 'I' for Inactive)
REMARK    1  A    between atoms: C3_4  and  N1_5 
REMARK    2  A    between atoms: N1_5  and  C4_7 
REMARK    3  A    between atoms: C4_7  and  C5_8 
REMARK    4  A    between atoms: C5_8  and  O1_9 
REMARK    5  A    between atoms: C5_8  and  C6_11 
REMARK    6  A    between atoms: C10_17  and  C11_18 
REMARK    7  A    between atoms: C11_18  and  N3_19 
REMARK    8  A    between atoms: C15_23  and  O2_24 
ROOT
HETATM    1  C1  UNL     1      -4.863   6.756  12.089  1.00  0.00     0.058 C 
HETATM    2  C2  UNL     1      -4.519   5.351  12.536  1.00  0.00     0.006 A 
HETATM    3  S1  UNL     1      -4.626   4.728  14.121  1.00  0.00    -0.057 SA
HETATM    4  C3  UNL     1      -4.068   3.081  13.769  1.00  0.00     0.145 A 
HETATM    5  N2  UNL     1      -3.857   3.155  12.470  1.00  0.00    -0.338 N 
ATOM      6  H2  UNL     1      -3.528   2.332  11.965  1.00  0.00     0.168 HD
HETATM    7  C10 UNL     1      -4.066   4.275  11.819  1.00  0.00     0.052 A 
ENDROOT
BRANCH   4   8
HETATM    8  N1  UNL     1      -3.897   2.273  14.690  1.00  0.00    -0.368 N 
ATOM      9  H1  UNL     1      -3.465   1.463  14.248  1.00  0.00     0.161 HD
BRANCH   8  10
HETATM   10  C4  UNL     1      -4.005   1.931  16.021  1.00  0.00     0.154 C 
BRANCH  10  11
HETATM   11  C5  UNL     1      -5.435   1.364  16.200  1.00  0.00     0.143 C 
BRANCH  11  12
HETATM   12  O1  UNL     1      -5.289  -0.020  16.516  1.00  0.00    -0.393 OA
ATOM     13  H1  UNL     1      -6.006  -0.473  16.088  1.00  0.00     0.210 HD
ENDBRANCH  11  12
BRANCH  11  14
HETATM   14  C6  UNL     1      -6.392   2.013  17.074  1.00  0.00    -0.024 C 
HETATM   15  C7  UNL     1      -6.861   3.388  16.612  1.00  0.00     0.017 C 
HETATM   16  C8  UNL     1      -6.161   2.010  18.543  1.00  0.00     0.017 C 
HETATM   17  C9  UNL     1      -7.728   1.158  16.942  1.00  0.00     0.017 C 
ENDBRANCH  11  14
ENDBRANCH  10  11
ENDBRANCH   8  10
ENDBRANCH   4   8
BRANCH   7  18
HETATM   18  C11 UNL     1      -3.549   4.508  10.427  1.00  0.00     0.330 C 
BRANCH  18  19
HETATM   19  N3  UNL     1      -2.277   3.970  10.086  1.00  0.00     0.096 N 
HETATM   20  C12 UNL     1      -1.310   4.783  10.928  1.00  0.00     0.273 C 
HETATM   21  C13 UNL     1      -0.052   4.019  11.142  1.00  0.00     0.033 C 
HETATM   22  C14 UNL     1       0.089   3.030  10.009  1.00  0.00     0.035 C 
HETATM   23  C15 UNL     1      -0.348   3.671   8.705  1.00  0.00     0.146 C 
HETATM   24  C16 UNL     1      -1.830   4.074   8.728  1.00  0.00     0.304 C 
BRANCH  23  25
HETATM   25  O2  UNL     1      -0.033   2.814   7.682  1.00  0.00    -0.394 OA
ATOM     26  H2  UNL     1      -0.609   3.004   6.950  1.00  0.00     0.210 HD
ENDBRANCH  23  25
ENDBRANCH  18  19
ENDBRANCH   7  18
TORSDOF 8
ENDMDL
MODEL 4
REMARK VINA RESULT: -6.850307514      1.613      2.009
REMARK  8 active torsions:
REMARK  status: ('A' for Active; 'I' for Inactive)
REMARK    1  A    between atoms: C3_4  and  N1_5 
REMARK    2  A    between atoms: N1_5  and  C4_7 
REMARK    3  A    between atoms: C4_7  and  C5_8 
REMARK    4  A    between atoms: C5_8  and  O1_9 
REMARK    5  A    between atoms: C5_8  and  C6_11 
REMARK    6  A    between atoms: C10_17  and  C11_18 
REMARK    7  A    between atoms: C11_18  and  N3_19 
REMARK    8  A    between atoms: C15_23  and  O2_24 
ROOT
HETATM    1  C1  UNL     1      -4.258   5.998  11.341  1.00  0.00     0.058 C 
HETATM    2  C2  UNL     1      -3.971   4.708  12.079  1.00  0.00     0.006 A 
HETATM    3  S1  UNL     1      -4.657   4.200  13.557  1.00  0.00    -0.057 SA
HETATM    4  C3  UNL     1      -3.814   2.646  13.691  1.00  0.00     0.145 A 
HETATM    5  N2  UNL     1      -3.088   2.652  12.590  1.00  0.00    -0.338 N 
ATOM      6  H2  UNL     1      -2.484   1.858  12.380  1.00  0.00     0.168 HD
HETATM    7  C10 UNL     1      -3.136   3.669  11.762  1.00  0.00     0.052 A 
ENDROOT
BRANCH   4   8
HETATM    8  N1  UNL     1      -3.951   1.950  14.705  1.00  0.00    -0.368 N 
ATOM      9  H1  UNL     1      -4.026   0.995  14.357  1.00  0.00     0.161 HD
BRANCH   8  10
HETATM   10  C4  UNL     1      -4.053   1.833  16.075  1.00  0.00     0.154 C 
BRANCH  10  11
HETATM   11  C5  UNL     1      -5.469   1.271  16.349  1.00  0.00     0.143 C 
BRANCH  11  12
HETATM   12  O1  UNL     1      -5.293  -0.052  16.854  1.00  0.00    -0.393 OA
ATOM     13  H1  UNL     1      -6.123  -0.499  16.741  1.00  0.00     0.210 HD
ENDBRANCH  11  12
BRANCH  11  14
HETATM   14  C6  UNL     1      -6.432   2.019  17.135  1.00  0.00    -0.024 C 
HETATM   15  C7  UNL     1      -6.845   3.361  16.543  1.00  0.00     0.017 C 
HETATM   16  C8  UNL     1      -6.242   2.136  18.605  1.00  0.00     0.017 C 
HETATM   17  C9  UNL     1      -7.789   1.193  17.035  1.00  0.00     0.017 C 
ENDBRANCH  11  14
ENDBRANCH  10  11
ENDBRANCH   8  10
ENDBRANCH   4   8
BRANCH   7  18
HETATM   18  C11 UNL     1      -2.115   3.876  10.678  1.00  0.00     0.330 C 
BRANCH  18  19
HETATM   19  N3  UNL     1      -0.871   4.468  11.034  1.00  0.00     0.096 N 
HETATM   20  C12 UNL     1      -0.766   5.662  10.103  1.00  0.00     0.273 C 
HETATM   21  C13 UNL     1       0.135   6.690  10.688  1.00  0.00     0.033 C 
HETATM   22  C14 UNL     1       1.078   5.992  11.640  1.00  0.00     0.035 C 
HETATM   23  C15 UNL     1       1.512   4.660  11.054  1.00  0.00     0.146 C 
HETATM   24  C16 UNL     1       0.328   3.702  10.859  1.00  0.00     0.304 C 
BRANCH  23  25
HETATM   25  O2  UNL     1       2.502   4.147  11.852  1.00  0.00    -0.394 OA
ATOM     26  H2  UNL     1       3.016   4.872  12.188  1.00  0.00     0.210 HD
ENDBRANCH  23  25
ENDBRANCH  18  19
ENDBRANCH   7  18
TORSDOF 8
ENDMDL
MODEL 5
REMARK VINA RESULT: -6.804608418      4.024      7.786
REMARK  8 active torsions:
REMARK  status: ('A' for Active; 'I' for Inactive)
REMARK    1  A    between atoms: C3_4  and  N1_5 
REMARK    2  A    between atoms: N1_5  and  C4_7 
REMARK    3  A    between atoms: C4_7  and  C5_8 
REMARK    4  A    between atoms: C5_8  and  O1_9 
REMARK    5  A    between atoms: C5_8  and  C6_11 
REMARK    6  A    between atoms: C10_17  and  C11_18 
REMARK    7  A    between atoms: C11_18  and  N3_19 
REMARK    8  A    between atoms: C15_23  and  O2_24 
ROOT
HETATM    1  C1  UNL     1      -4.157   0.646  12.711  1.00  0.00     0.058 C 
HETATM    2  C2  UNL     1      -4.280   2.138  12.481  1.00  0.00     0.006 A 
HETATM    3  S1  UNL     1      -4.289   2.942  10.976  1.00  0.00    -0.057 SA
HETATM    4  C3  UNL     1      -4.470   4.596  11.589  1.00  0.00     0.145 A 
HETATM    5  N2  UNL     1      -4.514   4.384  12.890  1.00  0.00    -0.338 N 
ATOM      6  H2  UNL     1      -4.625   5.172  13.526  1.00  0.00     0.168 HD
HETATM    7  C10 UNL     1      -4.416   3.167  13.374  1.00  0.00     0.052 A 
ENDROOT
BRANCH   4   8
HETATM    8  N1  UNL     1      -4.431   5.556  10.809  1.00  0.00    -0.368 N 
ATOM      9  H1  UNL     1      -4.762   5.181   9.920  1.00  0.00     0.161 HD
BRANCH   8  10
HETATM   10  C4  UNL     1      -4.160   6.883  10.551  1.00  0.00     0.154 C 
BRANCH  10  11
HETATM   11  C5  UNL     1      -5.354   7.405   9.716  1.00  0.00     0.143 C 
BRANCH  11  12
HETATM   12  O1  UNL     1      -5.895   6.278   9.027  1.00  0.00    -0.393 OA
ATOM     13  H1  UNL     1      -6.833   6.296   9.172  1.00  0.00     0.210 HD
ENDBRANCH  11  12
BRANCH  11  14
HETATM   14  C6  UNL     1      -6.396   8.210  10.323  1.00  0.00    -0.024 C 
HETATM   15  C7  UNL     1      -6.063   9.689  10.476  1.00  0.00     0.017 C 
HETATM   16  C8  UNL     1      -7.097   7.707  11.535  1.00  0.00     0.017 C 
HETATM   17  C9  UNL     1      -7.571   8.256   9.249  1.00  0.00     0.017 C 
ENDBRANCH  11  14
ENDBRANCH  10  11
ENDBRANCH   8  10
ENDBRANCH   4   8
BRANCH   7  18
HETATM   18  C11 UNL     1      -4.143   2.897  14.827  1.00  0.00     0.330 C 
BRANCH  18  19
HETATM   19  N3  UNL     1      -5.114   2.164  15.565  1.00  0.00     0.096 N 
HETATM   20  C12 UNL     1      -5.821   3.231  16.381  1.00  0.00     0.273 C 
HETATM   21  C13 UNL     1      -7.184   2.770  16.755  1.00  0.00     0.033 C 
HETATM   22  C14 UNL     1      -7.181   1.259  16.748  1.00  0.00     0.035 C 
HETATM   23  C15 UNL     1      -5.878   0.742  17.330  1.00  0.00     0.146 C 
HETATM   24  C16 UNL     1      -4.662   1.169  16.492  1.00  0.00     0.304 C 
BRANCH  23  25
HETATM   25  O2  UNL     1      -5.987  -0.617  17.477  1.00  0.00    -0.394 OA
ATOM     26  H2  UNL     1      -5.161  -0.944  17.815  1.00  0.00     0.210 HD
ENDBRANCH  23  25
ENDBRANCH  18  19
ENDBRANCH   7  18
TORSDOF 8
ENDMDL
