MODEL 1
REMARK VINA RESULT: -6.443158029      0.000      0.000
REMARK  8 active torsions:
REMARK  status: ('A' for Active; 'I' for Inactive)
REMARK    1  A    between atoms: C3_5  and  N2_6 
REMARK    2  A    between atoms: C6_13  and  C7_14 
REMARK    3  A    between atoms: C7_14  and  C8_15 
REMARK    4  A    between atoms: C8_15  and  C9_16 
REMARK    5  A    between atoms: C10_17  and  O1_18 
REMARK    6  A    between atoms: N4_20  and  C11_21 
REMARK    7  A    between atoms: C14_24  and  C15_25 
REMARK    8  A    between atoms: N5_28  and  O2_29 
ROOT
HETATM    1  C9  UNL     1      -0.825   2.597  10.482  1.00  0.00     0.093 A 
HETATM    2  C10 UNL     1      -0.219   3.519  11.285  1.00  0.00     0.170 A 
HETATM    3  N4  UNL     1       0.540   4.347  10.552  1.00  0.00    -0.309 N 
HETATM    4  C14 UNL     1       0.409   3.940   9.281  1.00  0.00     0.118 A 
HETATM    5  N5  UNL     1      -0.418   2.881   9.231  1.00  0.00    -0.212 N 
ENDROOT
BRANCH   1   6
HETATM    6  C8  UNL     1      -1.742   1.470  10.879  1.00  0.00     0.069 C 
BRANCH   6   7
HETATM    7  C7  UNL     1      -3.159   1.939  10.966  1.00  0.00     0.049 C 
BRANCH   7   8
HETATM    8  C6  UNL     1      -3.707   1.665  12.307  1.00  0.00    -0.012 A 
HETATM    9  C2  UNL     1      -4.009   0.374  12.663  1.00  0.00     0.031 A 
HETATM   10  C1  UNL     1      -3.863  -0.796  11.754  1.00  0.00     0.069 C 
HETATM   11  N1  UNL     1      -4.484   0.184  13.917  1.00  0.00    -0.196 N 
HETATM   12  C3  UNL     1      -4.662   1.183  14.786  1.00  0.00     0.676 A 
ATOM     13  H1  UNL     1      -4.716  -0.764  14.211  1.00  0.00     0.184 HD
HETATM   14  N3  UNL     1      -4.355   2.452  14.406  1.00  0.00    -0.196 N 
HETATM   15  C4  UNL     1      -3.881   2.729  13.188  1.00  0.00     0.031 A 
ATOM     16  H3  UNL     1      -4.490   3.214  15.069  1.00  0.00     0.184 HD
HETATM   17  C5  UNL     1      -3.536   4.096  12.728  1.00  0.00     0.069 C 
BRANCH  12  18
HETATM   18  N2  UNL     1      -5.119   0.940  15.969  1.00  0.00    -0.234 N 
ATOM     19  H22 UNL     1      -4.515   0.545  16.690  1.00  0.00     0.174 HD
ATOM     20  H21 UNL     1      -6.094   1.141  16.193  1.00  0.00     0.174 HD
ENDBRANCH  12  18
ENDBRANCH   7   8
ENDBRANCH   6   7
ENDBRANCH   1   6
BRANCH   2  21
HETATM   21  O1  UNL     1      -0.395   3.558  12.684  1.00  0.00    -0.344 OA
ATOM     22  H1  UNL     1      -0.468   2.777  13.220  1.00  0.00     0.219 HD
ENDBRANCH   2  21
BRANCH   5  23
HETATM   23  O2  UNL     1      -0.817   2.166   8.127  1.00  0.00    -0.281 OA
ATOM     24  H2  UNL     1      -1.593   2.379   7.622  1.00  0.00     0.245 HD
ENDBRANCH   5  23
BRANCH   3  25
HETATM   25  C11 UNL     1       1.312   5.433  11.057  1.00  0.00     0.085 C 
HETATM   26  C12 UNL     1       0.505   6.395  11.932  1.00  0.00     0.032 C 
HETATM   27  C13 UNL     1       2.581   4.991  11.754  1.00  0.00     0.032 C 
ENDBRANCH   3  25
BRANCH   4  28
HETATM   28  C15 UNL     1       1.042   4.489   8.054  1.00  0.00     0.048 C 
HETATM   29  C16 UNL     1       0.704   5.992   8.028  1.00  0.00     0.017 C 
HETATM   30  C17 UNL     1       2.555   4.434   8.097  1.00  0.00     0.017 C 
ENDBRANCH   4  28
TORSDOF 8
ENDMDL
MODEL 2
REMARK VINA RESULT: -6.356784183      0.711      2.606
REMARK  8 active torsions:
REMARK  status: ('A' for Active; 'I' for Inactive)
REMARK    1  A    between atoms: C3_5  and  N2_6 
REMARK    2  A    between atoms: C6_13  and  C7_14 
REMARK    3  A    between atoms: C7_14  and  C8_15 
REMARK    4  A    between atoms: C8_15  and  C9_16 
REMARK    5  A    between atoms: C10_17  and  O1_18 
REMARK    6  A    between atoms: N4_20  and  C11_21 
REMARK    7  A    between atoms: C14_24  and  C15_25 
REMARK    8  A    between atoms: N5_28  and  O2_29 
ROOT
HETATM    1  C9  UNL     1      -0.861   2.540  10.429  1.00  0.00     0.093 A 
HETATM    2  C10 UNL     1      -0.432   2.962   9.204  1.00  0.00     0.170 A 
HETATM    3  N4  UNL     1       0.343   4.049   9.332  1.00  0.00    -0.309 N 
HETATM    4  C14 UNL     1       0.399   4.310  10.646  1.00  0.00     0.118 A 
HETATM    5  N5  UNL     1      -0.327   3.399  11.317  1.00  0.00    -0.212 N 
ENDROOT
BRANCH   1   6
HETATM    6  C8  UNL     1      -1.763   1.378  10.755  1.00  0.00     0.069 C 
BRANCH   6   7
HETATM    7  C7  UNL     1      -3.193   1.809  10.802  1.00  0.00     0.049 C 
BRANCH   7   8
HETATM    8  C6  UNL     1      -3.736   1.634  12.162  1.00  0.00    -0.012 A 
HETATM    9  C2  UNL     1      -3.999   0.369  12.627  1.00  0.00     0.031 A 
HETATM   10  C1  UNL     1      -3.817  -0.870  11.821  1.00  0.00     0.069 C 
HETATM   11  N1  UNL     1      -4.470   0.273  13.894  1.00  0.00    -0.196 N 
HETATM   12  C3  UNL     1      -4.679   1.337  14.674  1.00  0.00     0.676 A 
ATOM     13  H1  UNL     1      -4.674  -0.653  14.268  1.00  0.00     0.184 HD
HETATM   14  N3  UNL     1      -4.410   2.578  14.187  1.00  0.00    -0.196 N 
HETATM   15  C4  UNL     1      -3.942   2.764  12.949  1.00  0.00     0.031 A 
ATOM     16  H3  UNL     1      -4.569   3.389  14.783  1.00  0.00     0.184 HD
HETATM   17  C5  UNL     1      -3.638   4.096  12.373  1.00  0.00     0.069 C 
BRANCH  12  18
HETATM   18  N2  UNL     1      -5.130   1.182  15.874  1.00  0.00    -0.234 N 
ATOM     19  H22 UNL     1      -4.495   1.169  16.672  1.00  0.00     0.174 HD
ATOM     20  H21 UNL     1      -6.132   1.071  16.034  1.00  0.00     0.174 HD
ENDBRANCH  12  18
ENDBRANCH   7   8
ENDBRANCH   6   7
ENDBRANCH   1   6
BRANCH   2  21
HETATM   21  O1  UNL     1      -0.780   2.315   8.000  1.00  0.00    -0.344 OA
ATOM     22  H1  UNL     1      -1.519   2.578   7.464  1.00  0.00     0.219 HD
ENDBRANCH   2  21
BRANCH   5  23
HETATM   23  O2  UNL     1      -0.530   3.306  12.673  1.00  0.00    -0.281 OA
ATOM     24  H2  UNL     1       0.142   3.026  13.283  1.00  0.00     0.245 HD
ENDBRANCH   5  23
BRANCH   3  25
HETATM   25  C11 UNL     1       0.969   4.754   8.263  1.00  0.00     0.085 C 
HETATM   26  C12 UNL     1       2.155   4.003   7.653  1.00  0.00     0.032 C 
HETATM   27  C13 UNL     1      -0.003   5.204   7.194  1.00  0.00     0.032 C 
ENDBRANCH   3  25
BRANCH   4  28
HETATM   28  C15 UNL     1       1.107   5.411  11.351  1.00  0.00     0.048 C 
HETATM   29  C16 UNL     1       2.581   4.975  11.463  1.00  0.00     0.017 C 
HETATM   30  C17 UNL     1       1.143   6.695  10.548  1.00  0.00     0.017 C 
ENDBRANCH   4  28
TORSDOF 8
ENDMDL
MODEL 3
REMARK VINA RESULT: -6.346894221      2.597      4.029
REMARK  8 active torsions:
REMARK  status: ('A' for Active; 'I' for Inactive)
REMARK    1  A    between atoms: C3_5  and  N2_6 
REMARK    2  A    between atoms: C6_13  and  C7_14 
REMARK    3  A    between atoms: C7_14  and  C8_15 
REMARK    4  A    between atoms: C8_15  and  C9_16 
REMARK    5  A    between atoms: C10_17  and  O1_18 
REMARK    6  A    between atoms: N4_20  and  C11_21 
REMARK    7  A    between atoms: C14_24  and  C15_25 
REMARK    8  A    between atoms: N5_28  and  O2_29 
ROOT
HETATM    1  C9  UNL     1      -2.176   5.265  14.132  1.00  0.00     0.093 A 
HETATM    2  C10 UNL     1      -2.195   6.626  14.231  1.00  0.00     0.170 A 
HETATM    3  N4  UNL     1      -1.266   7.164  13.426  1.00  0.00    -0.309 N 
HETATM    4  C14 UNL     1      -0.661   6.132  12.820  1.00  0.00     0.118 A 
HETATM    5  N5  UNL     1      -1.207   4.979  13.242  1.00  0.00    -0.212 N 
ENDROOT
BRANCH   1   6
HETATM    6  C8  UNL     1      -3.026   4.262  14.867  1.00  0.00     0.069 C 
BRANCH   6   7
HETATM    7  C7  UNL     1      -4.306   4.011  14.137  1.00  0.00     0.049 C 
BRANCH   7   8
HETATM    8  C6  UNL     1      -4.278   2.683  13.497  1.00  0.00    -0.012 A 
HETATM    9  C2  UNL     1      -4.373   1.556  14.274  1.00  0.00     0.031 A 
HETATM   10  C1  UNL     1      -4.457   1.574  15.761  1.00  0.00     0.069 C 
HETATM   11  N1  UNL     1      -4.368   0.367  13.625  1.00  0.00    -0.196 N 
HETATM   12  C3  UNL     1      -4.276   0.265  12.296  1.00  0.00     0.676 A 
ATOM     13  H1  UNL     1      -4.438  -0.489  14.175  1.00  0.00     0.184 HD
HETATM   14  N3  UNL     1      -4.183   1.399  11.551  1.00  0.00    -0.196 N 
HETATM   15  C4  UNL     1      -4.180   2.612  12.109  1.00  0.00     0.031 A 
ATOM     16  H3  UNL     1      -4.113   1.320  10.537  1.00  0.00     0.184 HD
HETATM   17  C5  UNL     1      -4.077   3.875  11.339  1.00  0.00     0.069 C 
BRANCH  12  18
HETATM   18  N2  UNL     1      -4.276  -0.897  11.733  1.00  0.00    -0.234 N 
ATOM     19  H22 UNL     1      -4.651  -1.021  10.793  1.00  0.00     0.174 HD
ATOM     20  H21 UNL     1      -3.899  -1.706  12.228  1.00  0.00     0.174 HD
ENDBRANCH  12  18
ENDBRANCH   7   8
ENDBRANCH   6   7
ENDBRANCH   1   6
BRANCH   2  21
HETATM   21  O1  UNL     1      -3.083   7.326  15.074  1.00  0.00    -0.344 OA
ATOM     22  H1  UNL     1      -3.666   8.009  14.762  1.00  0.00     0.219 HD
ENDBRANCH   2  21
BRANCH   5  23
HETATM   23  O2  UNL     1      -0.880   3.697  12.869  1.00  0.00    -0.281 OA
ATOM     24  H2  UNL     1      -0.931   3.386  11.973  1.00  0.00     0.245 HD
ENDBRANCH   5  23
BRANCH   3  25
HETATM   25  C11 UNL     1      -1.007   8.557  13.270  1.00  0.00     0.085 C 
HETATM   26  C12 UNL     1      -2.147   9.311  12.583  1.00  0.00     0.032 C 
HETATM   27  C13 UNL     1      -0.597   9.237  14.558  1.00  0.00     0.032 C 
ENDBRANCH   3  25
BRANCH   4  28
HETATM   28  C15 UNL     1       0.455   6.149  11.838  1.00  0.00     0.048 C 
HETATM   29  C16 UNL     1      -0.133   6.703  10.525  1.00  0.00     0.017 C 
HETATM   30  C17 UNL     1       1.553   7.123  12.211  1.00  0.00     0.017 C 
ENDBRANCH   4  28
TORSDOF 8
ENDMDL
MODEL 4
REMARK VINA RESULT: -6.331232002      0.145      1.742
REMARK  8 active torsions:
REMARK  status: ('A' for Active; 'I' for Inactive)
REMARK    1  A    between atoms: C3_5  and  N2_6 
REMARK    2  A    between atoms: C6_13  and  C7_14 
REMARK    3  A    between atoms: C7_14  and  C8_15 
REMARK    4  A    between atoms: C8_15  and  C9_16 
REMARK    5  A    between atoms: C10_17  and  O1_18 
REMARK    6  A    between atoms: N4_20  and  C11_21 
REMARK    7  A    between atoms: C14_24  and  C15_25 
REMARK    8  A    between atoms: N5_28  and  O2_29 
ROOT
HETATM    1  C9  UNL     1      -0.796   2.560  10.485  1.00  0.00     0.093 A 
HETATM    2  C10 UNL     1      -0.190   3.485  11.286  1.00  0.00     0.170 A 
HETATM    3  N4  UNL     1       0.559   4.318  10.550  1.00  0.00    -0.309 N 
HETATM    4  C14 UNL     1       0.422   3.913   9.279  1.00  0.00     0.118 A 
HETATM    5  N5  UNL     1      -0.399   2.849   9.232  1.00  0.00    -0.212 N 
ENDROOT
BRANCH   1   6
HETATM    6  C8  UNL     1      -1.705   1.428  10.886  1.00  0.00     0.069 C 
BRANCH   6   7
HETATM    7  C7  UNL     1      -3.132   1.870  10.907  1.00  0.00     0.049 C 
BRANCH   7   8
HETATM    8  C6  UNL     1      -3.691   1.727  12.264  1.00  0.00    -0.012 A 
HETATM    9  C2  UNL     1      -3.897   2.846  13.032  1.00  0.00     0.031 A 
HETATM   10  C1  UNL     1      -3.544   4.228  12.602  1.00  0.00     0.069 C 
HETATM   11  N1  UNL     1      -4.438   2.652  14.259  1.00  0.00    -0.196 N 
HETATM   12  C3  UNL     1      -4.764   1.443  14.726  1.00  0.00     0.676 A 
ATOM     13  H1  UNL     1      -4.603   3.464  14.852  1.00  0.00     0.184 HD
HETATM   14  N3  UNL     1      -4.549   0.352  13.944  1.00  0.00    -0.196 N 
HETATM   15  C4  UNL     1      -4.019   0.453  12.721  1.00  0.00     0.031 A 
ATOM     16  H3  UNL     1      -4.798  -0.570  14.300  1.00  0.00     0.184 HD
HETATM   17  C5  UNL     1      -3.763  -0.707  11.834  1.00  0.00     0.069 C 
BRANCH  12  18
HETATM   18  N2  UNL     1      -5.276   1.321  15.904  1.00  0.00    -0.234 N 
ATOM     19  H22 UNL     1      -4.732   0.925  16.671  1.00  0.00     0.174 HD
ATOM     20  H21 UNL     1      -6.237   1.619  16.079  1.00  0.00     0.174 HD
ENDBRANCH  12  18
ENDBRANCH   7   8
ENDBRANCH   6   7
ENDBRANCH   1   6
BRANCH   2  21
HETATM   21  O1  UNL     1      -0.358   3.520  12.686  1.00  0.00    -0.344 OA
ATOM     22  H1  UNL     1      -0.876   2.882  13.163  1.00  0.00     0.219 HD
ENDBRANCH   2  21
BRANCH   5  23
HETATM   23  O2  UNL     1      -0.801   2.135   8.129  1.00  0.00    -0.281 OA
ATOM     24  H2  UNL     1      -0.224   1.557   7.643  1.00  0.00     0.245 HD
ENDBRANCH   5  23
BRANCH   3  25
HETATM   25  C11 UNL     1       1.329   5.408  11.053  1.00  0.00     0.085 C 
HETATM   26  C12 UNL     1       0.511   6.389  11.896  1.00  0.00     0.032 C 
HETATM   27  C13 UNL     1       2.581   4.969  11.781  1.00  0.00     0.032 C 
ENDBRANCH   3  25
BRANCH   4  28
HETATM   28  C15 UNL     1       1.045   4.469   8.049  1.00  0.00     0.048 C 
HETATM   29  C16 UNL     1       0.634   5.953   7.989  1.00  0.00     0.017 C 
HETATM   30  C17 UNL     1       2.558   4.488   8.113  1.00  0.00     0.017 C 
ENDBRANCH   4  28
TORSDOF 8
ENDMDL
MODEL 5
REMARK VINA RESULT: -6.310900310      1.231      2.672
REMARK  8 active torsions:
REMARK  status: ('A' for Active; 'I' for Inactive)
REMARK    1  A    between atoms: C3_5  and  N2_6 
REMARK    2  A    between atoms: C6_13  and  C7_14 
REMARK    3  A    between atoms: C7_14  and  C8_15 
REMARK    4  A    between atoms: C8_15  and  C9_16 
REMARK    5  A    between atoms: C10_17  and  O1_18 
REMARK    6  A    between atoms: N4_20  and  C11_21 
REMARK    7  A    between atoms: C14_24  and  C15_25 
REMARK    8  A    between atoms: N5_28  and  O2_29 
ROOT
HETATM    1  C9  UNL     1      -1.443   3.359  10.478  1.00  0.00     0.093 A 
HETATM    2  C10 UNL     1      -1.396   4.282   9.473  1.00  0.00     0.170 A 
HETATM    3  N4  UNL     1      -0.478   5.221   9.747  1.00  0.00    -0.309 N 
HETATM    4  C14 UNL     1       0.054   4.884  10.931  1.00  0.00     0.118 A 
HETATM    5  N5  UNL     1      -0.525   3.756  11.379  1.00  0.00    -0.212 N 
ENDROOT
BRANCH   1   6
HETATM    6  C8  UNL     1      -2.336   2.152  10.598  1.00  0.00     0.069 C 
BRANCH   6   7
HETATM    7  C7  UNL     1      -3.698   2.541  11.077  1.00  0.00     0.049 C 
BRANCH   7   8
HETATM    8  C6  UNL     1      -3.956   1.963  12.408  1.00  0.00    -0.012 A 
HETATM    9  C2  UNL     1      -4.228   0.622  12.522  1.00  0.00     0.031 A 
HETATM   10  C1  UNL     1      -4.332  -0.308  11.364  1.00  0.00     0.069 C 
HETATM   11  N1  UNL     1      -4.430   0.146  13.774  1.00  0.00    -0.196 N 
HETATM   12  C3  UNL     1      -4.374   0.918  14.863  1.00  0.00     0.676 A 
ATOM     13  H1  UNL     1      -4.633  -0.846  13.891  1.00  0.00     0.184 HD
HETATM   14  N3  UNL     1      -4.102   2.243  14.721  1.00  0.00    -0.196 N 
HETATM   15  C4  UNL     1      -3.890   2.796  13.523  1.00  0.00     0.031 A 
ATOM     16  H3  UNL     1      -4.059   2.832  15.552  1.00  0.00     0.184 HD
HETATM   17  C5  UNL     1      -3.595   4.234  13.318  1.00  0.00     0.069 C 
BRANCH  12  18
HETATM   18  N2  UNL     1      -4.575   0.407  16.031  1.00  0.00    -0.234 N 
ATOM     19  H22 UNL     1      -4.210  -0.516  16.267  1.00  0.00     0.174 HD
ATOM     20  H21 UNL     1      -5.105   0.925  16.733  1.00  0.00     0.174 HD
ENDBRANCH  12  18
ENDBRANCH   7   8
ENDBRANCH   6   7
ENDBRANCH   1   6
BRANCH   2  21
HETATM   21  O1  UNL     1      -2.216   4.218   8.328  1.00  0.00    -0.344 OA
ATOM     22  H1  UNL     1      -2.536   3.401   7.963  1.00  0.00     0.219 HD
ENDBRANCH   2  21
BRANCH   5  23
HETATM   23  O2  UNL     1      -0.271   3.077  12.546  1.00  0.00    -0.281 OA
ATOM     24  H2  UNL     1       0.556   3.131  13.012  1.00  0.00     0.245 HD
ENDBRANCH   5  23
BRANCH   3  25
HETATM   25  C11 UNL     1      -0.156   6.335   8.918  1.00  0.00     0.085 C 
HETATM   26  C12 UNL     1       0.451   5.933   7.572  1.00  0.00     0.032 C 
HETATM   27  C13 UNL     1      -1.309   7.297   8.735  1.00  0.00     0.032 C 
ENDBRANCH   3  25
BRANCH   4  28
HETATM   28  C15 UNL     1       1.105   5.581  11.716  1.00  0.00     0.048 C 
HETATM   29  C16 UNL     1       2.400   5.485  10.887  1.00  0.00     0.017 C 
HETATM   30  C17 UNL     1       0.846   7.067  11.856  1.00  0.00     0.017 C 
ENDBRANCH   4  28
TORSDOF 8
ENDMDL
