MODEL 1
REMARK VINA RESULT: -9.034734813      0.000      0.000
REMARK  11 active torsions:
REMARK  status: ('A' for Active; 'I' for Inactive)
REMARK    1  A    between atoms: N3_4  and  C2_6 
REMARK    2  A    between atoms: C2_6  and  C3_7 
REMARK    3  A    between atoms: C3_7  and  C4_8 
REMARK    4  A    between atoms: C4_8  and  C5_9 
REMARK    5  A    between atoms: C5_9  and  N4_10 
REMARK    6  A    between atoms: C5_9  and  C6_14 
REMARK       I    between atoms: C6_14  and  N5_16 
REMARK    7  A    between atoms: N5_16  and  C7_18 
REMARK    8  A    between atoms: C7_18  and  C8_19 
REMARK    9  A    between atoms: C8_19  and  N6_20 
REMARK   10  A    between atoms: N8_27  and  C12_28 
REMARK   11  A    between atoms: C12_28  and  C13_29 
ROOT
HETATM    1  N6  UNL     1       4.359  -6.374   7.537  1.00  0.00    -0.333 N 
HETATM    2  C9  UNL     1       5.479  -6.470   6.814  1.00  0.00     0.184 A 
HETATM    3  N7  UNL     1       5.290  -5.930   5.596  1.00  0.00    -0.345 N 
ATOM      4  H7  UNL     1       5.989  -5.876   4.855  1.00  0.00     0.167 HD
HETATM    5  C10 UNL     1       3.997  -5.460   5.514  1.00  0.00     0.138 A 
HETATM    6  C11 UNL     1       3.211  -4.841   4.615  1.00  0.00     0.283 A 
HETATM    7  O2  UNL     1       3.600  -4.507   3.424  1.00  0.00    -0.265 OA
HETATM    8  N8  UNL     1       1.960  -4.559   4.974  1.00  0.00    -0.275 N 
HETATM    9  S1  UNL     1       1.859  -5.142   6.551  1.00  0.00     0.012 SA
HETATM   10  C17 UNL     1       3.445  -5.749   6.731  1.00  0.00     0.126 A 
ENDROOT
BRANCH   1  11
HETATM   11  C8  UNL     1       4.108  -6.812   8.869  1.00  0.00     0.150 C 
BRANCH  11  12
HETATM   12  C7  UNL     1       5.157  -6.319   9.836  1.00  0.00     0.143 C 
BRANCH  12  13
HETATM   13  N5  UNL     1       5.975  -7.442  10.236  1.00  0.00    -0.358 N 
HETATM   14  C6  UNL     1       7.358  -7.444   9.992  1.00  0.00     0.248 C 
HETATM   15  O1  UNL     1       7.889  -6.461   9.423  1.00  0.00    -0.271 OA
ATOM     16  H5  UNL     1       5.543  -8.241  10.700  1.00  0.00     0.162 HD
BRANCH  14  17
HETATM   17  C5  UNL     1       8.237  -8.579  10.387  1.00  0.00     0.274 C 
BRANCH  17  18
HETATM   18  C4  UNL     1       9.344  -8.162  11.281  1.00  0.00     0.044 C 
BRANCH  18  19
HETATM   19  C3  UNL     1      10.677  -8.760  11.075  1.00  0.00     0.022 C 
BRANCH  19  20
HETATM   20  C2  UNL     1      11.436  -8.322   9.865  1.00  0.00     0.122 C 
BRANCH  20  21
HETATM   21  N3  UNL     1      11.502  -9.421   8.879  1.00  0.00    -0.367 N 
HETATM   22  C1  UNL     1      10.880  -9.292   7.768  1.00  0.00     0.196 C 
HETATM   23  N1  UNL     1      10.931 -10.334   6.810  1.00  0.00    -0.067 NA
HETATM   24  N2  UNL     1      10.140  -8.121   7.478  1.00  0.00    -0.067 NA
ATOM     25  H3  UNL     1      12.033 -10.267   9.081  1.00  0.00     0.161 HD
ENDBRANCH  20  21
ENDBRANCH  19  20
ENDBRANCH  18  19
ENDBRANCH  17  18
BRANCH  17  26
HETATM   26  N4  UNL     1       7.440  -9.677  10.816  1.00  0.00    -0.067 N 
ATOM     27  H43 UNL     1       6.802  -9.948  10.067  1.00  0.00     0.275 HD
ATOM     28  H42 UNL     1       8.020 -10.514  10.881  1.00  0.00     0.275 HD
ATOM     29  H41 UNL     1       6.916  -9.559  11.683  1.00  0.00     0.275 HD
ENDBRANCH  17  26
ENDBRANCH  14  17
ENDBRANCH  12  13
ENDBRANCH  11  12
ENDBRANCH   1  11
BRANCH   8  30
HETATM   30  C12 UNL     1       0.922  -3.889   4.161  1.00  0.00     0.198 C 
BRANCH  30  31
HETATM   31  C13 UNL     1       1.221  -2.470   3.933  1.00  0.00     0.038 A 
HETATM   32  C14 UNL     1       1.403  -1.976   2.655  1.00  0.00     0.101 A 
HETATM   33  C15 UNL     1       1.683  -0.642   2.447  1.00  0.00     0.251 A 
HETATM   34  O3  UNL     1       1.844  -0.215   1.286  1.00  0.00    -0.268 OA
HETATM   35  N9  UNL     1       1.775   0.166   3.514  1.00  0.00    -0.275 N 
HETATM   36  C16 UNL     1       1.597  -0.311   4.770  1.00  0.00     0.327 A 
ATOM     37  H9  UNL     1       1.982   1.155   3.378  1.00  0.00     0.173 HD
HETATM   38  O4  UNL     1       1.698   0.508   5.716  1.00  0.00    -0.247 OA
HETATM   39  N10 UNL     1       1.321  -1.626   4.973  1.00  0.00    -0.310 N 
ATOM     40  H10 UNL     1       1.190  -1.975   5.923  1.00  0.00     0.170 HD
ENDBRANCH  30  31
ENDBRANCH   8  30
TORSDOF 11
ENDMDL
MODEL 2
REMARK VINA RESULT: -8.868253474      2.277      3.771
REMARK  11 active torsions:
REMARK  status: ('A' for Active; 'I' for Inactive)
REMARK    1  A    between atoms: N3_4  and  C2_6 
REMARK    2  A    between atoms: C2_6  and  C3_7 
REMARK    3  A    between atoms: C3_7  and  C4_8 
REMARK    4  A    between atoms: C4_8  and  C5_9 
REMARK    5  A    between atoms: C5_9  and  N4_10 
REMARK    6  A    between atoms: C5_9  and  C6_14 
REMARK       I    between atoms: C6_14  and  N5_16 
REMARK    7  A    between atoms: N5_16  and  C7_18 
REMARK    8  A    between atoms: C7_18  and  C8_19 
REMARK    9  A    between atoms: C8_19  and  N6_20 
REMARK   10  A    between atoms: N8_27  and  C12_28 
REMARK   11  A    between atoms: C12_28  and  C13_29 
ROOT
HETATM    1  N6  UNL     1       2.311  -4.418   5.000  1.00  0.00    -0.333 N 
HETATM    2  C9  UNL     1       2.510  -5.460   4.187  1.00  0.00     0.184 A 
HETATM    3  N7  UNL     1       2.366  -5.078   2.904  1.00  0.00    -0.345 N 
ATOM      4  H7  UNL     1       2.468  -5.685   2.089  1.00  0.00     0.167 HD
HETATM    5  C10 UNL     1       2.061  -3.735   2.871  1.00  0.00     0.138 A 
HETATM    6  C11 UNL     1       1.806  -2.788   1.951  1.00  0.00     0.283 A 
HETATM    7  O2  UNL     1       1.798  -3.006   0.673  1.00  0.00    -0.265 OA
HETATM    8  N8  UNL     1       1.545  -1.556   2.384  1.00  0.00    -0.275 N 
HETATM    9  S1  UNL     1       1.652  -1.694   4.060  1.00  0.00     0.012 SA
HETATM   10  C17 UNL     1       2.033  -3.353   4.184  1.00  0.00     0.126 A 
ENDROOT
BRANCH   1  11
HETATM   11  C8  UNL     1       2.360  -4.364   6.422  1.00  0.00     0.150 C 
BRANCH  11  12
HETATM   12  C7  UNL     1       2.491  -5.736   7.038  1.00  0.00     0.143 C 
BRANCH  12  13
HETATM   13  N5  UNL     1       3.711  -5.777   7.812  1.00  0.00    -0.358 N 
HETATM   14  C6  UNL     1       4.848  -6.441   7.325  1.00  0.00     0.248 C 
HETATM   15  O1  UNL     1       4.805  -7.004   6.205  1.00  0.00    -0.271 OA
ATOM     16  H5  UNL     1       3.746  -5.318   8.722  1.00  0.00     0.162 HD
BRANCH  14  17
HETATM   17  C5  UNL     1       6.124  -6.507   8.089  1.00  0.00     0.274 C 
BRANCH  17  18
HETATM   18  C4  UNL     1       5.974  -7.184   9.399  1.00  0.00     0.044 C 
BRANCH  18  19
HETATM   19  C3  UNL     1       7.123  -7.189  10.325  1.00  0.00     0.022 C 
BRANCH  19  20
HETATM   20  C2  UNL     1       7.831  -8.490  10.518  1.00  0.00     0.122 C 
BRANCH  20  21
HETATM   21  N3  UNL     1       9.294  -8.294  10.422  1.00  0.00    -0.367 N 
HETATM   22  C1  UNL     1       9.897  -8.657   9.353  1.00  0.00     0.196 C 
HETATM   23  N1  UNL     1      11.297  -8.477   9.242  1.00  0.00    -0.067 NA
HETATM   24  N2  UNL     1       9.186  -9.238   8.276  1.00  0.00    -0.067 NA
ATOM     25  H3  UNL     1       9.812  -7.876  11.194  1.00  0.00     0.161 HD
ENDBRANCH  20  21
ENDBRANCH  19  20
ENDBRANCH  18  19
ENDBRANCH  17  18
BRANCH  17  26
HETATM   26  N4  UNL     1       7.169  -6.968   7.240  1.00  0.00    -0.067 N 
ATOM     27  H43 UNL     1       8.070  -6.807   7.690  1.00  0.00     0.275 HD
ATOM     28  H42 UNL     1       7.155  -7.987   7.205  1.00  0.00     0.275 HD
ATOM     29  H41 UNL     1       7.192  -6.597   6.290  1.00  0.00     0.275 HD
ENDBRANCH  17  26
ENDBRANCH  14  17
ENDBRANCH  12  13
ENDBRANCH  11  12
ENDBRANCH   1  11
BRANCH   8  30
HETATM   30  C12 UNL     1       1.239  -0.363   1.566  1.00  0.00     0.198 C 
BRANCH  30  31
HETATM   31  C13 UNL     1       1.100   0.852   2.380  1.00  0.00     0.038 A 
HETATM   32  C14 UNL     1       2.210   1.549   2.815  1.00  0.00     0.101 A 
HETATM   33  C15 UNL     1       2.074   2.689   3.578  1.00  0.00     0.251 A 
HETATM   34  O3  UNL     1       3.089   3.305   3.962  1.00  0.00    -0.268 OA
HETATM   35  N9  UNL     1       0.837   3.106   3.889  1.00  0.00    -0.275 N 
HETATM   36  C16 UNL     1      -0.257   2.428   3.465  1.00  0.00     0.327 A 
ATOM     37  H9  UNL     1       0.719   3.947   4.453  1.00  0.00     0.173 HD
HETATM   38  O4  UNL     1      -1.380   2.883   3.796  1.00  0.00    -0.247 OA
HETATM   39  N10 UNL     1      -0.120   1.305   2.713  1.00  0.00    -0.310 N 
ATOM     40  H10 UNL     1      -0.950   0.801   2.400  1.00  0.00     0.170 HD
ENDBRANCH  30  31
ENDBRANCH   8  30
TORSDOF 11
ENDMDL
MODEL 3
REMARK VINA RESULT: -8.782294139      3.275      6.056
REMARK  11 active torsions:
REMARK  status: ('A' for Active; 'I' for Inactive)
REMARK    1  A    between atoms: N3_4  and  C2_6 
REMARK    2  A    between atoms: C2_6  and  C3_7 
REMARK    3  A    between atoms: C3_7  and  C4_8 
REMARK    4  A    between atoms: C4_8  and  C5_9 
REMARK    5  A    between atoms: C5_9  and  N4_10 
REMARK    6  A    between atoms: C5_9  and  C6_14 
REMARK       I    between atoms: C6_14  and  N5_16 
REMARK    7  A    between atoms: N5_16  and  C7_18 
REMARK    8  A    between atoms: C7_18  and  C8_19 
REMARK    9  A    between atoms: C8_19  and  N6_20 
REMARK   10  A    between atoms: N8_27  and  C12_28 
REMARK   11  A    between atoms: C12_28  and  C13_29 
ROOT
HETATM    1  N6  UNL     1       2.007  -2.368   3.921  1.00  0.00    -0.333 N 
HETATM    2  C9  UNL     1       1.871  -2.368   5.250  1.00  0.00     0.184 A 
HETATM    3  N7  UNL     1       1.638  -1.117   5.690  1.00  0.00    -0.345 N 
ATOM      4  H7  UNL     1       1.497  -0.847   6.664  1.00  0.00     0.167 HD
HETATM    5  C10 UNL     1       1.622  -0.261   4.611  1.00  0.00     0.138 A 
HETATM    6  C11 UNL     1       1.450   1.051   4.375  1.00  0.00     0.283 A 
HETATM    7  O2  UNL     1       1.223   1.928   5.302  1.00  0.00    -0.265 OA
HETATM    8  N8  UNL     1       1.518   1.470   3.112  1.00  0.00    -0.275 N 
HETATM    9  S1  UNL     1       1.818   0.058   2.243  1.00  0.00     0.012 SA
HETATM   10  C17 UNL     1       1.853  -1.064   3.528  1.00  0.00     0.126 A 
ENDROOT
BRANCH   1  11
HETATM   11  C8  UNL     1       2.262  -3.460   3.043  1.00  0.00     0.150 C 
BRANCH  11  12
HETATM   12  C7  UNL     1       2.106  -4.792   3.734  1.00  0.00     0.143 C 
BRANCH  12  13
HETATM   13  N5  UNL     1       3.312  -5.064   4.484  1.00  0.00    -0.358 N 
HETATM   14  C6  UNL     1       3.244  -5.577   5.789  1.00  0.00     0.248 C 
HETATM   15  O1  UNL     1       2.125  -5.805   6.309  1.00  0.00    -0.271 OA
ATOM     16  H5  UNL     1       4.221  -4.879   4.061  1.00  0.00     0.162 HD
BRANCH  14  17
HETATM   17  C5  UNL     1       4.460  -5.871   6.596  1.00  0.00     0.274 C 
BRANCH  17  18
HETATM   18  C4  UNL     1       4.170  -6.705   7.788  1.00  0.00     0.044 C 
BRANCH  18  19
HETATM   19  C3  UNL     1       4.686  -6.263   9.098  1.00  0.00     0.022 C 
BRANCH  19  20
HETATM   20  C2  UNL     1       5.786  -7.075   9.700  1.00  0.00     0.122 C 
BRANCH  20  21
HETATM   21  N3  UNL     1       7.004  -6.979   8.867  1.00  0.00    -0.367 N 
HETATM   22  C1  UNL     1       7.852  -7.937   8.900  1.00  0.00     0.196 C 
HETATM   23  N1  UNL     1       9.025  -7.863   8.109  1.00  0.00    -0.067 NA
HETATM   24  N2  UNL     1       7.637  -9.073   9.716  1.00  0.00    -0.067 NA
ATOM     25  H3  UNL     1       7.165  -6.163   8.278  1.00  0.00     0.161 HD
ENDBRANCH  20  21
ENDBRANCH  19  20
ENDBRANCH  18  19
ENDBRANCH  17  18
BRANCH  17  26
HETATM   26  N4  UNL     1       5.510  -6.310   5.741  1.00  0.00    -0.067 N 
ATOM     27  H43 UNL     1       6.200  -6.825   6.287  1.00  0.00     0.275 HD
ATOM     28  H42 UNL     1       5.164  -7.048   5.129  1.00  0.00     0.275 HD
ATOM     29  H41 UNL     1       5.980  -5.598   5.183  1.00  0.00     0.275 HD
ENDBRANCH  17  26
ENDBRANCH  14  17
ENDBRANCH  12  13
ENDBRANCH  11  12
ENDBRANCH   1  11
BRANCH   8  30
HETATM   30  C12 UNL     1       1.362   2.854   2.616  1.00  0.00     0.198 C 
BRANCH  30  31
HETATM   31  C13 UNL     1       2.492   3.714   2.994  1.00  0.00     0.038 A 
HETATM   32  C14 UNL     1       3.657   3.727   2.252  1.00  0.00     0.101 A 
HETATM   33  C15 UNL     1       4.714   4.536   2.611  1.00  0.00     0.251 A 
HETATM   34  O3  UNL     1       5.759   4.533   1.929  1.00  0.00    -0.268 OA
HETATM   35  N9  UNL     1       4.585   5.311   3.698  1.00  0.00    -0.275 N 
HETATM   36  C16 UNL     1       3.444   5.304   4.431  1.00  0.00     0.327 A 
ATOM     37  H9  UNL     1       5.357   5.915   3.979  1.00  0.00     0.173 HD
HETATM   38  O4  UNL     1       3.400   6.059   5.434  1.00  0.00    -0.247 OA
HETATM   39  N10 UNL     1       2.404   4.506   4.075  1.00  0.00    -0.310 N 
ATOM     40  H10 UNL     1       1.550   4.508   4.633  1.00  0.00     0.170 HD
ENDBRANCH  30  31
ENDBRANCH   8  30
TORSDOF 11
ENDMDL
MODEL 4
REMARK VINA RESULT: -8.713472075      2.243      3.630
REMARK  11 active torsions:
REMARK  status: ('A' for Active; 'I' for Inactive)
REMARK    1  A    between atoms: N3_4  and  C2_6 
REMARK    2  A    between atoms: C2_6  and  C3_7 
REMARK    3  A    between atoms: C3_7  and  C4_8 
REMARK    4  A    between atoms: C4_8  and  C5_9 
REMARK    5  A    between atoms: C5_9  and  N4_10 
REMARK    6  A    between atoms: C5_9  and  C6_14 
REMARK       I    between atoms: C6_14  and  N5_16 
REMARK    7  A    between atoms: N5_16  and  C7_18 
REMARK    8  A    between atoms: C7_18  and  C8_19 
REMARK    9  A    between atoms: C8_19  and  N6_20 
REMARK   10  A    between atoms: N8_27  and  C12_28 
REMARK   11  A    between atoms: C12_28  and  C13_29 
ROOT
HETATM    1  N6  UNL     1       2.321  -4.400   5.147  1.00  0.00    -0.333 N 
HETATM    2  C9  UNL     1       2.497  -5.468   4.364  1.00  0.00     0.184 A 
HETATM    3  N7  UNL     1       2.327  -5.126   3.073  1.00  0.00    -0.345 N 
ATOM      4  H7  UNL     1       2.407  -5.758   2.275  1.00  0.00     0.167 HD
HETATM    5  C10 UNL     1       2.027  -3.783   3.004  1.00  0.00     0.138 A 
HETATM    6  C11 UNL     1       1.757  -2.863   2.061  1.00  0.00     0.283 A 
HETATM    7  O2  UNL     1       1.720  -3.121   0.791  1.00  0.00    -0.265 OA
HETATM    8  N8  UNL     1       1.512  -1.616   2.461  1.00  0.00    -0.275 N 
HETATM    9  S1  UNL     1       1.655  -1.703   4.137  1.00  0.00     0.012 SA
HETATM   10  C17 UNL     1       2.030  -3.360   4.305  1.00  0.00     0.126 A 
ENDROOT
BRANCH   1  11
HETATM   11  C8  UNL     1       2.402  -4.302   6.566  1.00  0.00     0.150 C 
BRANCH  11  12
HETATM   12  C7  UNL     1       2.579  -5.652   7.219  1.00  0.00     0.143 C 
BRANCH  12  13
HETATM   13  N5  UNL     1       3.863  -5.676   7.882  1.00  0.00    -0.358 N 
HETATM   14  C6  UNL     1       4.937  -6.398   7.339  1.00  0.00     0.248 C 
HETATM   15  O1  UNL     1       4.781  -7.029   6.265  1.00  0.00    -0.271 OA
ATOM     16  H5  UNL     1       3.990  -5.162   8.754  1.00  0.00     0.162 HD
BRANCH  14  17
HETATM   17  C5  UNL     1       6.276  -6.450   7.988  1.00  0.00     0.274 C 
BRANCH  17  18
HETATM   18  C4  UNL     1       6.231  -7.038   9.349  1.00  0.00     0.044 C 
BRANCH  18  19
HETATM   19  C3  UNL     1       7.040  -8.242   9.621  1.00  0.00     0.022 C 
BRANCH  19  20
HETATM   20  C2  UNL     1       8.468  -8.025  10.005  1.00  0.00     0.122 C 
BRANCH  20  21
HETATM   21  N3  UNL     1       9.293  -9.170   9.565  1.00  0.00    -0.367 N 
HETATM   22  C1  UNL     1       9.965  -9.067   8.481  1.00  0.00     0.196 C 
HETATM   23  N1  UNL     1      10.762 -10.154   8.044  1.00  0.00    -0.067 NA
HETATM   24  N2  UNL     1       9.924  -7.883   7.707  1.00  0.00    -0.067 NA
ATOM     25  H3  UNL     1       9.327 -10.027  10.118  1.00  0.00     0.161 HD
ENDBRANCH  20  21
ENDBRANCH  19  20
ENDBRANCH  18  19
ENDBRANCH  17  18
BRANCH  17  26
HETATM   26  N4  UNL     1       7.229  -6.991   7.081  1.00  0.00    -0.067 N 
ATOM     27  H43 UNL     1       7.434  -6.307   6.354  1.00  0.00     0.275 HD
ATOM     28  H42 UNL     1       8.138  -7.056   7.540  1.00  0.00     0.275 HD
ATOM     29  H41 UNL     1       7.002  -7.888   6.651  1.00  0.00     0.275 HD
ENDBRANCH  17  26
ENDBRANCH  14  17
ENDBRANCH  12  13
ENDBRANCH  11  12
ENDBRANCH   1  11
BRANCH   8  30
HETATM   30  C12 UNL     1       1.194  -0.448   1.613  1.00  0.00     0.198 C 
BRANCH  30  31
HETATM   31  C13 UNL     1       1.085   0.794   2.390  1.00  0.00     0.038 A 
HETATM   32  C14 UNL     1      -0.148   1.308   2.743  1.00  0.00     0.101 A 
HETATM   33  C15 UNL     1      -0.244   2.473   3.473  1.00  0.00     0.251 A 
HETATM   34  O3  UNL     1      -1.366   2.923   3.781  1.00  0.00    -0.268 OA
HETATM   35  N9  UNL     1       0.888   3.097   3.833  1.00  0.00    -0.275 N 
HETATM   36  C16 UNL     1       2.101   2.598   3.492  1.00  0.00     0.327 A 
ATOM     37  H9  UNL     1       0.835   3.961   4.373  1.00  0.00     0.173 HD
HETATM   38  O4  UNL     1       3.113   3.239   3.867  1.00  0.00    -0.247 OA
HETATM   39  N10 UNL     1       2.193   1.449   2.772  1.00  0.00    -0.310 N 
ATOM     40  H10 UNL     1       3.111   1.083   2.519  1.00  0.00     0.170 HD
ENDBRANCH  30  31
ENDBRANCH   8  30
TORSDOF 11
ENDMDL
MODEL 5
REMARK VINA RESULT: -8.676438116      1.971      2.832
REMARK  11 active torsions:
REMARK  status: ('A' for Active; 'I' for Inactive)
REMARK    1  A    between atoms: N3_4  and  C2_6 
REMARK    2  A    between atoms: C2_6  and  C3_7 
REMARK    3  A    between atoms: C3_7  and  C4_8 
REMARK    4  A    between atoms: C4_8  and  C5_9 
REMARK    5  A    between atoms: C5_9  and  N4_10 
REMARK    6  A    between atoms: C5_9  and  C6_14 
REMARK       I    between atoms: C6_14  and  N5_16 
REMARK    7  A    between atoms: N5_16  and  C7_18 
REMARK    8  A    between atoms: C7_18  and  C8_19 
REMARK    9  A    between atoms: C8_19  and  N6_20 
REMARK   10  A    between atoms: N8_27  and  C12_28 
REMARK   11  A    between atoms: C12_28  and  C13_29 
ROOT
HETATM    1  N6  UNL     1       2.843  -5.812   5.747  1.00  0.00    -0.333 N 
HETATM    2  C9  UNL     1       1.688  -5.919   6.410  1.00  0.00     0.184 A 
HETATM    3  N7  UNL     1       0.757  -5.127   5.844  1.00  0.00    -0.345 N 
ATOM      4  H7  UNL     1      -0.208  -5.027   6.160  1.00  0.00     0.167 HD
HETATM    5  C10 UNL     1       1.322  -4.475   4.769  1.00  0.00     0.138 A 
HETATM    6  C11 UNL     1       0.951  -3.590   3.828  1.00  0.00     0.283 A 
HETATM    7  O2  UNL     1      -0.239  -3.084   3.739  1.00  0.00    -0.265 OA
HETATM    8  N8  UNL     1       1.866  -3.212   2.936  1.00  0.00    -0.275 N 
HETATM    9  S1  UNL     1       3.241  -4.075   3.389  1.00  0.00     0.012 SA
HETATM   10  C17 UNL     1       2.614  -4.920   4.734  1.00  0.00     0.126 A 
ENDROOT
BRANCH   1  11
HETATM   11  C8  UNL     1       4.086  -6.463   5.996  1.00  0.00     0.150 C 
BRANCH  11  12
HETATM   12  C7  UNL     1       4.607  -6.181   7.384  1.00  0.00     0.143 C 
BRANCH  12  13
HETATM   13  N5  UNL     1       5.972  -6.648   7.465  1.00  0.00    -0.358 N 
HETATM   14  C6  UNL     1       6.531  -7.019   8.699  1.00  0.00     0.248 C 
HETATM   15  O1  UNL     1       5.837  -6.948   9.741  1.00  0.00    -0.271 OA
ATOM     16  H5  UNL     1       6.536  -6.707   6.617  1.00  0.00     0.162 HD
BRANCH  14  17
HETATM   17  C5  UNL     1       7.933  -7.506   8.827  1.00  0.00     0.274 C 
BRANCH  17  18
HETATM   18  C4  UNL     1       8.043  -8.721   9.669  1.00  0.00     0.044 C 
BRANCH  18  19
HETATM   19  C3  UNL     1       8.890  -8.666  10.876  1.00  0.00     0.022 C 
BRANCH  19  20
HETATM   20  C2  UNL     1      10.366  -8.566  10.663  1.00  0.00     0.122 C 
BRANCH  20  21
HETATM   21  N3  UNL     1      10.898  -9.855  10.172  1.00  0.00    -0.367 N 
HETATM   22  C1  UNL     1      11.356  -9.920   8.979  1.00  0.00     0.196 C 
HETATM   23  N1  UNL     1      11.871 -11.147   8.492  1.00  0.00    -0.067 NA
HETATM   24  N2  UNL     1      11.358  -8.784   8.135  1.00  0.00    -0.067 NA
ATOM     25  H3  UNL     1      10.900 -10.677  10.775  1.00  0.00     0.161 HD
ENDBRANCH  20  21
ENDBRANCH  19  20
ENDBRANCH  18  19
ENDBRANCH  17  18
BRANCH  17  26
HETATM   26  N4  UNL     1       8.544  -7.552   7.543  1.00  0.00    -0.067 N 
ATOM     27  H43 UNL     1       9.067  -8.422   7.445  1.00  0.00     0.275 HD
ATOM     28  H42 UNL     1       7.828  -7.681   6.829  1.00  0.00     0.275 HD
ATOM     29  H41 UNL     1       9.142  -6.766   7.286  1.00  0.00     0.275 HD
ENDBRANCH  17  26
ENDBRANCH  14  17
ENDBRANCH  12  13
ENDBRANCH  11  12
ENDBRANCH   1  11
BRANCH   8  30
HETATM   30  C12 UNL     1       1.692  -2.258   1.820  1.00  0.00     0.198 C 
BRANCH  30  31
HETATM   31  C13 UNL     1       1.225  -0.942   2.278  1.00  0.00     0.038 A 
HETATM   32  C14 UNL     1       2.022  -0.139   3.071  1.00  0.00     0.101 A 
HETATM   33  C15 UNL     1       1.579   1.095   3.497  1.00  0.00     0.251 A 
HETATM   34  O3  UNL     1       2.314   1.805   4.213  1.00  0.00    -0.268 OA
HETATM   35  N9  UNL     1       0.356   1.498   3.123  1.00  0.00    -0.275 N 
HETATM   36  C16 UNL     1      -0.432   0.717   2.345  1.00  0.00     0.327 A 
ATOM     37  H9  UNL     1       0.013   2.408   3.431  1.00  0.00     0.173 HD
HETATM   38  O4  UNL     1      -1.563   1.166   2.037  1.00  0.00    -0.247 OA
HETATM   39  N10 UNL     1       0.007  -0.499   1.926  1.00  0.00    -0.310 N 
ATOM     40  H10 UNL     1      -0.594  -1.080   1.341  1.00  0.00     0.170 HD
ENDBRANCH  30  31
ENDBRANCH   8  30
TORSDOF 11
ENDMDL
