MODEL 1
REMARK VINA RESULT: -8.015256451      0.000      0.000
REMARK  14 active torsions:
REMARK  status: ('A' for Active; 'I' for Inactive)
REMARK    1  A    between atoms: C2_3  and  N2_4 
REMARK       I    between atoms: N2_4  and  C3_6 
REMARK    2  A    between atoms: C3_6  and  C4_8 
REMARK    3  A    between atoms: C4_8  and  N3_9 
REMARK    4  A    between atoms: C4_8  and  O2_13 
REMARK    5  A    between atoms: C4_8  and  C5_15 
REMARK    6  A    between atoms: C5_15  and  C6_16 
REMARK    7  A    between atoms: C6_16  and  C7_17 
REMARK    8  A    between atoms: C7_17  and  N4_18 
REMARK    9  A    between atoms: C7_17  and  C18_47 
REMARK       I    between atoms: N4_18  and  C8_20 
REMARK   10  A    between atoms: C8_20  and  C9_22 
REMARK   11  A    between atoms: C11_26  and  N6_27 
REMARK   12  A    between atoms: C14_30  and  N7_31 
REMARK   13  A    between atoms: C17_39  and  N9_40 
REMARK   14  A    between atoms: N9_40  and  N10_42 
ROOT
HETATM    1  N1  UNL     1       7.910  -8.267  10.462  1.00  0.00    -0.196 NA
HETATM    2  C1  UNL     1       6.980  -7.613  10.191  1.00  0.00     0.078 C 
HETATM    3  C2  UNL     1       5.821  -6.760   9.840  1.00  0.00     0.247 C 
ENDROOT
BRANCH   3   4
HETATM    4  N2  UNL     1       5.718  -6.826   8.368  1.00  0.00    -0.344 N 
HETATM    5  C3  UNL     1       4.654  -6.151   7.768  1.00  0.00     0.286 C 
HETATM    6  O1  UNL     1       3.822  -5.489   8.473  1.00  0.00    -0.268 OA
ATOM      7  H2  UNL     1       6.398  -7.346   7.812  1.00  0.00     0.163 HD
BRANCH   5   8
HETATM    8  C4  UNL     1       4.392  -6.164   6.309  1.00  0.00     0.322 C 
BRANCH   8   9
HETATM    9  N3  UNL     1       5.686  -6.495   5.672  1.00  0.00    -0.034 N 
ATOM     10  H33 UNL     1       6.216  -5.676   5.373  1.00  0.00     0.279 HD
ATOM     11  H32 UNL     1       6.382  -6.858   6.325  1.00  0.00     0.279 HD
ATOM     12  H31 UNL     1       5.464  -7.138   4.913  1.00  0.00     0.279 HD
ENDBRANCH   8   9
BRANCH   8  13
HETATM   13  O2  UNL     1       3.990  -4.925   5.894  1.00  0.00    -0.355 OA
ATOM     14  H2  UNL     1       4.031  -4.869   4.946  1.00  0.00     0.213 HD
ENDBRANCH   8  13
BRANCH   8  15
HETATM   15  C5  UNL     1       3.387  -7.231   5.989  1.00  0.00     0.049 C 
BRANCH  15  16
HETATM   16  C6  UNL     1       3.023  -7.579   4.627  1.00  0.00     0.008 C 
BRANCH  16  17
HETATM   17  C7  UNL     1       1.864  -7.220   3.897  1.00  0.00     0.197 C 
BRANCH  17  18
HETATM   18  N4  UNL     1       1.867  -5.693   3.782  1.00  0.00    -0.341 N 
HETATM   19  C8  UNL     1       0.917  -4.883   4.309  1.00  0.00     0.257 C 
HETATM   20  O3  UNL     1      -0.078  -5.255   5.004  1.00  0.00    -0.267 OA
ATOM     21  H4  UNL     1       2.637  -5.256   3.276  1.00  0.00     0.164 HD
BRANCH  19  22
HETATM   22  C9  UNL     1       0.990  -3.458   4.074  1.00  0.00     0.093 A 
HETATM   23  C10 UNL     1       0.333  -2.998   2.927  1.00  0.00     0.127 A 
HETATM   24  N5  UNL     1       0.315  -1.661   2.717  1.00  0.00    -0.200 N 
HETATM   25  C11 UNL     1       0.895  -0.790   3.549  1.00  0.00     0.685 A 
ATOM     26  H5  UNL     1      -0.160  -1.302   1.889  1.00  0.00     0.183 HD
HETATM   27  N8  UNL     1       1.532  -1.244   4.635  1.00  0.00    -0.174 N 
HETATM   28  C17 UNL     1       1.583  -2.588   4.910  1.00  0.00     0.153 A 
ATOM     29  H8  UNL     1       1.985  -0.584   5.265  1.00  0.00     0.186 HD
BRANCH  25  30
HETATM   30  N6  UNL     1       0.645   0.622   3.386  1.00  0.00    -0.197 N 
HETATM   31  C12 UNL     1      -0.123   1.275   2.444  1.00  0.00     0.084 C 
HETATM   32  C13 UNL     1       0.159   2.773   2.510  1.00  0.00     0.078 C 
HETATM   33  C14 UNL     1       1.616   3.063   2.758  1.00  0.00     0.189 C 
HETATM   34  C15 UNL     1       2.113   2.529   4.050  1.00  0.00     0.053 C 
HETATM   35  C16 UNL     1       1.328   1.365   4.474  1.00  0.00     0.148 C 
BRANCH  33  36
HETATM   36  N7  UNL     1       1.771   4.516   2.827  1.00  0.00    -0.075 N 
ATOM     37  H73 UNL     1       0.888   5.015   2.720  1.00  0.00     0.274 HD
ATOM     38  H72 UNL     1       1.999   4.847   3.765  1.00  0.00     0.274 HD
ATOM     39  H71 UNL     1       2.467   4.784   2.131  1.00  0.00     0.274 HD
ENDBRANCH  33  36
ENDBRANCH  25  30
BRANCH  28  40
HETATM   40  N9  UNL     1       2.240  -3.086   6.086  1.00  0.00    -0.270 N 
ATOM     41  H9  UNL     1       3.223  -2.882   6.264  1.00  0.00     0.190 HD
BRANCH  40  42
HETATM   42  N10 UNL     1       1.578  -3.770   6.881  1.00  0.00    -0.248 N 
HETATM   43  N11 UNL     1       1.295  -4.758   7.602  1.00  0.00    -0.331 N 
ATOM     44 2H11 UNL     1       2.114  -5.333   7.401  1.00  0.00     0.178 HD
ATOM     45 1H11 UNL     1       0.751  -5.321   8.256  1.00  0.00     0.178 HD
ATOM     46  H10 UNL     1       0.777  -3.161   7.052  1.00  0.00     0.207 HD
ENDBRANCH  40  42
ENDBRANCH  28  40
ENDBRANCH  19  22
ENDBRANCH  17  18
BRANCH  17  47
HETATM   47  C18 UNL     1       1.576  -7.567   2.503  1.00  0.00     0.257 C 
HETATM   48  N12 UNL     1       0.893  -8.753   2.137  1.00  0.00    -0.060 NA
HETATM   49  O4  UNL     1       1.946  -6.819   1.558  1.00  0.00    -0.274 OA
ENDBRANCH  17  47
ENDBRANCH  16  17
ENDBRANCH  15  16
ENDBRANCH   8  15
ENDBRANCH   5   8
ENDBRANCH   3   4
TORSDOF 14
ENDMDL
MODEL 2
REMARK VINA RESULT: -7.980275915      3.027      8.722
REMARK  14 active torsions:
REMARK  status: ('A' for Active; 'I' for Inactive)
REMARK    1  A    between atoms: C2_3  and  N2_4 
REMARK       I    between atoms: N2_4  and  C3_6 
REMARK    2  A    between atoms: C3_6  and  C4_8 
REMARK    3  A    between atoms: C4_8  and  N3_9 
REMARK    4  A    between atoms: C4_8  and  O2_13 
REMARK    5  A    between atoms: C4_8  and  C5_15 
REMARK    6  A    between atoms: C5_15  and  C6_16 
REMARK    7  A    between atoms: C6_16  and  C7_17 
REMARK    8  A    between atoms: C7_17  and  N4_18 
REMARK    9  A    between atoms: C7_17  and  C18_47 
REMARK       I    between atoms: N4_18  and  C8_20 
REMARK   10  A    between atoms: C8_20  and  C9_22 
REMARK   11  A    between atoms: C11_26  and  N6_27 
REMARK   12  A    between atoms: C14_30  and  N7_31 
REMARK   13  A    between atoms: C17_39  and  N9_40 
REMARK   14  A    between atoms: N9_40  and  N10_42 
ROOT
HETATM    1  N1  UNL     1       6.715   2.148   0.440  1.00  0.00    -0.196 NA
HETATM    2  C1  UNL     1       5.823   2.743   0.907  1.00  0.00     0.078 C 
HETATM    3  C2  UNL     1       4.678   3.495   1.469  1.00  0.00     0.247 C 
ENDROOT
BRANCH   3   4
HETATM    4  N2  UNL     1       3.699   2.467   1.878  1.00  0.00    -0.344 N 
HETATM    5  C3  UNL     1       3.009   2.677   3.072  1.00  0.00     0.286 C 
HETATM    6  O1  UNL     1       3.209   3.729   3.764  1.00  0.00    -0.268 OA
ATOM      7  H2  UNL     1       3.534   1.635   1.309  1.00  0.00     0.163 HD
BRANCH   5   8
HETATM    8  C4  UNL     1       2.032   1.715   3.635  1.00  0.00     0.322 C 
BRANCH   8   9
HETATM    9  N3  UNL     1       1.642   2.263   4.953  1.00  0.00    -0.034 N 
ATOM     10  H33 UNL     1       2.436   2.479   5.557  1.00  0.00     0.279 HD
ATOM     11  H32 UNL     1       1.263   3.209   4.906  1.00  0.00     0.279 HD
ATOM     12  H31 UNL     1       0.997   1.584   5.355  1.00  0.00     0.279 HD
ENDBRANCH   8   9
BRANCH   8  13
HETATM   13  O2  UNL     1       2.624   0.495   3.812  1.00  0.00    -0.355 OA
ATOM     14  H2  UNL     1       2.329  -0.111   3.142  1.00  0.00     0.213 HD
ENDBRANCH   8  13
BRANCH   8  15
HETATM   15  C5  UNL     1       0.826   1.643   2.745  1.00  0.00     0.049 C 
BRANCH  15  16
HETATM   16  C6  UNL     1       0.647   0.598   1.754  1.00  0.00     0.008 C 
BRANCH  16  17
HETATM   17  C7  UNL     1      -0.071  -0.619   1.864  1.00  0.00     0.197 C 
BRANCH  17  18
HETATM   18  N4  UNL     1       0.704  -1.504   2.843  1.00  0.00    -0.341 N 
HETATM   19  C8  UNL     1       1.603  -2.450   2.476  1.00  0.00     0.257 C 
HETATM   20  O3  UNL     1       1.967  -2.710   1.288  1.00  0.00    -0.267 OA
ATOM     21  H4  UNL     1       0.533  -1.373   3.840  1.00  0.00     0.164 HD
BRANCH  19  22
HETATM   22  C9  UNL     1       2.221  -3.274   3.491  1.00  0.00     0.093 A 
HETATM   23  C10 UNL     1       2.002  -2.873   4.814  1.00  0.00     0.127 A 
HETATM   24  N5  UNL     1       2.501  -3.664   5.792  1.00  0.00    -0.200 N 
HETATM   25  C11 UNL     1       3.182  -4.785   5.538  1.00  0.00     0.685 A 
ATOM     26  H5  UNL     1       2.350  -3.394   6.764  1.00  0.00     0.183 HD
HETATM   27  N8  UNL     1       3.398  -5.149   4.268  1.00  0.00    -0.174 N 
HETATM   28  C17 UNL     1       2.914  -4.395   3.229  1.00  0.00     0.153 A 
ATOM     29  H8  UNL     1       3.927  -5.998   4.071  1.00  0.00     0.186 HD
BRANCH  25  30
HETATM   30  N6  UNL     1       3.488  -5.691   6.619  1.00  0.00    -0.197 N 
HETATM   31  C12 UNL     1       2.813  -5.903   7.805  1.00  0.00     0.084 C 
HETATM   32  C13 UNL     1       3.680  -6.742   8.738  1.00  0.00     0.078 C 
HETATM   33  C14 UNL     1       5.135  -6.362   8.652  1.00  0.00     0.189 C 
HETATM   34  C15 UNL     1       5.722  -6.570   7.305  1.00  0.00     0.053 C 
HETATM   35  C16 UNL     1       4.691  -6.484   6.264  1.00  0.00     0.148 C 
BRANCH  33  36
HETATM   36  N7  UNL     1       5.874  -7.236   9.561  1.00  0.00    -0.075 N 
ATOM     37  H73 UNL     1       5.275  -7.690  10.251  1.00  0.00     0.274 HD
ATOM     38  H72 UNL     1       6.220  -8.082   9.107  1.00  0.00     0.274 HD
ATOM     39  H71 UNL     1       6.618  -6.682   9.985  1.00  0.00     0.274 HD
ENDBRANCH  33  36
ENDBRANCH  25  30
BRANCH  28  40
HETATM   40  N9  UNL     1       3.114  -4.790   1.862  1.00  0.00    -0.270 N 
ATOM     41  H9  UNL     1       3.769  -4.289   1.262  1.00  0.00     0.190 HD
BRANCH  40  42
HETATM   42  N10 UNL     1       2.469  -5.757   1.432  1.00  0.00    -0.248 N 
HETATM   43  N11 UNL     1       2.215  -6.961   1.182  1.00  0.00    -0.331 N 
ATOM     44 2H11 UNL     1       3.057  -7.380   1.579  1.00  0.00     0.178 HD
ATOM     45 1H11 UNL     1       1.684  -7.758   0.829  1.00  0.00     0.178 HD
ATOM     46  H10 UNL     1       1.644  -5.294   1.049  1.00  0.00     0.207 HD
ENDBRANCH  40  42
ENDBRANCH  28  40
ENDBRANCH  19  22
ENDBRANCH  17  18
BRANCH  17  47
HETATM   47  C18 UNL     1      -1.422  -0.782   2.408  1.00  0.00     0.257 C 
HETATM   48  N12 UNL     1      -2.439   0.188   2.229  1.00  0.00    -0.060 NA
HETATM   49  O4  UNL     1      -1.732  -1.801   3.082  1.00  0.00    -0.274 OA
ENDBRANCH  17  47
ENDBRANCH  16  17
ENDBRANCH  15  16
ENDBRANCH   8  15
ENDBRANCH   5   8
ENDBRANCH   3   4
TORSDOF 14
ENDMDL
MODEL 3
REMARK VINA RESULT: -7.899832563      2.919      8.923
REMARK  14 active torsions:
REMARK  status: ('A' for Active; 'I' for Inactive)
REMARK    1  A    between atoms: C2_3  and  N2_4 
REMARK       I    between atoms: N2_4  and  C3_6 
REMARK    2  A    between atoms: C3_6  and  C4_8 
REMARK    3  A    between atoms: C4_8  and  N3_9 
REMARK    4  A    between atoms: C4_8  and  O2_13 
REMARK    5  A    between atoms: C4_8  and  C5_15 
REMARK    6  A    between atoms: C5_15  and  C6_16 
REMARK    7  A    between atoms: C6_16  and  C7_17 
REMARK    8  A    between atoms: C7_17  and  N4_18 
REMARK    9  A    between atoms: C7_17  and  C18_47 
REMARK       I    between atoms: N4_18  and  C8_20 
REMARK   10  A    between atoms: C8_20  and  C9_22 
REMARK   11  A    between atoms: C11_26  and  N6_27 
REMARK   12  A    between atoms: C14_30  and  N7_31 
REMARK   13  A    between atoms: C17_39  and  N9_40 
REMARK   14  A    between atoms: N9_40  and  N10_42 
ROOT
HETATM    1  N1  UNL     1       4.969   6.325   5.279  1.00  0.00    -0.196 NA
HETATM    2  C1  UNL     1       4.201   5.968   4.472  1.00  0.00     0.078 C 
HETATM    3  C2  UNL     1       3.250   5.496   3.440  1.00  0.00     0.247 C 
ENDROOT
BRANCH   3   4
HETATM    4  N2  UNL     1       2.581   4.320   4.035  1.00  0.00    -0.344 N 
HETATM    5  C3  UNL     1       2.563   3.144   3.283  1.00  0.00     0.286 C 
HETATM    6  O1  UNL     1       3.122   3.094   2.139  1.00  0.00    -0.268 OA
ATOM      7  H2  UNL     1       2.150   4.366   4.959  1.00  0.00     0.163 HD
BRANCH   5   8
HETATM    8  C4  UNL     1       1.891   1.899   3.725  1.00  0.00     0.322 C 
BRANCH   8   9
HETATM    9  N3  UNL     1       1.619   2.080   5.168  1.00  0.00    -0.034 N 
ATOM     10  H33 UNL     1       2.001   1.335   5.752  1.00  0.00     0.279 HD
ATOM     11  H32 UNL     1       2.143   2.847   5.590  1.00  0.00     0.279 HD
ATOM     12  H31 UNL     1       0.608   2.183   5.248  1.00  0.00     0.279 HD
ENDBRANCH   8   9
BRANCH   8  13
HETATM   13  O2  UNL     1       2.727   0.830   3.555  1.00  0.00    -0.355 OA
ATOM     14  H2  UNL     1       2.987   0.482   4.400  1.00  0.00     0.213 HD
ENDBRANCH   8  13
BRANCH   8  15
HETATM   15  C5  UNL     1       0.596   1.737   2.985  1.00  0.00     0.049 C 
BRANCH  15  16
HETATM   16  C6  UNL     1       0.434   0.802   1.886  1.00  0.00     0.008 C 
BRANCH  16  17
HETATM   17  C7  UNL     1      -0.202  -0.463   1.882  1.00  0.00     0.197 C 
BRANCH  17  18
HETATM   18  N4  UNL     1       0.580  -1.356   2.849  1.00  0.00    -0.341 N 
HETATM   19  C8  UNL     1       1.491  -2.285   2.469  1.00  0.00     0.257 C 
HETATM   20  O3  UNL     1       1.863  -2.520   1.278  1.00  0.00    -0.267 OA
ATOM     21  H4  UNL     1       0.403  -1.245   3.847  1.00  0.00     0.164 HD
BRANCH  19  22
HETATM   22  C9  UNL     1       2.115  -3.119   3.472  1.00  0.00     0.093 A 
HETATM   23  C10 UNL     1       1.862  -2.761   4.801  1.00  0.00     0.127 A 
HETATM   24  N5  UNL     1       2.367  -3.565   5.766  1.00  0.00    -0.200 N 
HETATM   25  C11 UNL     1       3.084  -4.659   5.494  1.00  0.00     0.685 A 
ATOM     26  H5  UNL     1       2.192  -3.325   6.742  1.00  0.00     0.183 HD
HETATM   27  N8  UNL     1       3.331  -4.982   4.219  1.00  0.00    -0.174 N 
HETATM   28  C17 UNL     1       2.843  -4.213   3.192  1.00  0.00     0.153 A 
ATOM     29  H8  UNL     1       3.887  -5.809   4.008  1.00  0.00     0.186 HD
BRANCH  25  30
HETATM   30  N6  UNL     1       3.396  -5.586   6.555  1.00  0.00    -0.197 N 
HETATM   31  C12 UNL     1       2.716  -5.837   7.730  1.00  0.00     0.084 C 
HETATM   32  C13 UNL     1       3.591  -6.684   8.650  1.00  0.00     0.078 C 
HETATM   33  C14 UNL     1       5.040  -6.278   8.584  1.00  0.00     0.189 C 
HETATM   34  C15 UNL     1       5.639  -6.443   7.238  1.00  0.00     0.053 C 
HETATM   35  C16 UNL     1       4.615  -6.349   6.191  1.00  0.00     0.148 C 
BRANCH  33  36
HETATM   36  N7  UNL     1       5.787  -7.161   9.478  1.00  0.00    -0.075 N 
ATOM     37  H73 UNL     1       5.182  -7.740  10.062  1.00  0.00     0.274 HD
ATOM     38  H72 UNL     1       6.260  -7.919   8.984  1.00  0.00     0.274 HD
ATOM     39  H71 UNL     1       6.426  -6.581  10.021  1.00  0.00     0.274 HD
ENDBRANCH  33  36
ENDBRANCH  25  30
BRANCH  28  40
HETATM   40  N9  UNL     1       3.077  -4.564   1.819  1.00  0.00    -0.270 N 
ATOM     41  H9  UNL     1       3.642  -3.968   1.214  1.00  0.00     0.190 HD
BRANCH  40  42
HETATM   42  N10 UNL     1       2.575  -5.613   1.389  1.00  0.00    -0.248 N 
HETATM   43  N11 UNL     1       2.538  -6.732   0.820  1.00  0.00    -0.331 N 
ATOM     44 2H11 UNL     1       3.523  -6.805   0.564  1.00  0.00     0.178 HD
ATOM     45 1H11 UNL     1       2.125  -7.595   0.467  1.00  0.00     0.178 HD
ATOM     46  H10 UNL     1       1.600  -5.497   1.666  1.00  0.00     0.207 HD
ENDBRANCH  40  42
ENDBRANCH  28  40
ENDBRANCH  19  22
ENDBRANCH  17  18
BRANCH  17  47
HETATM   47  C18 UNL     1      -1.566  -0.750   2.336  1.00  0.00     0.257 C 
HETATM   48  N12 UNL     1      -2.659   0.107   2.059  1.00  0.00    -0.060 NA
HETATM   49  O4  UNL     1      -1.820  -1.780   3.017  1.00  0.00    -0.274 OA
ENDBRANCH  17  47
ENDBRANCH  16  17
ENDBRANCH  15  16
ENDBRANCH   8  15
ENDBRANCH   5   8
ENDBRANCH   3   4
TORSDOF 14
ENDMDL
MODEL 4
REMARK VINA RESULT: -7.440604472      3.006      8.766
REMARK  14 active torsions:
REMARK  status: ('A' for Active; 'I' for Inactive)
REMARK    1  A    between atoms: C2_3  and  N2_4 
REMARK       I    between atoms: N2_4  and  C3_6 
REMARK    2  A    between atoms: C3_6  and  C4_8 
REMARK    3  A    between atoms: C4_8  and  N3_9 
REMARK    4  A    between atoms: C4_8  and  O2_13 
REMARK    5  A    between atoms: C4_8  and  C5_15 
REMARK    6  A    between atoms: C5_15  and  C6_16 
REMARK    7  A    between atoms: C6_16  and  C7_17 
REMARK    8  A    between atoms: C7_17  and  N4_18 
REMARK    9  A    between atoms: C7_17  and  C18_47 
REMARK       I    between atoms: N4_18  and  C8_20 
REMARK   10  A    between atoms: C8_20  and  C9_22 
REMARK   11  A    between atoms: C11_26  and  N6_27 
REMARK   12  A    between atoms: C14_30  and  N7_31 
REMARK   13  A    between atoms: C17_39  and  N9_40 
REMARK   14  A    between atoms: N9_40  and  N10_42 
ROOT
HETATM    1  N1  UNL     1       3.979   1.111  -0.762  1.00  0.00    -0.196 NA
HETATM    2  C1  UNL     1       4.181   1.619   0.271  1.00  0.00     0.078 C 
HETATM    3  C2  UNL     1       4.441   2.290   1.565  1.00  0.00     0.247 C 
ENDROOT
BRANCH   3   4
HETATM    4  N2  UNL     1       3.153   2.903   1.953  1.00  0.00    -0.344 N 
HETATM    5  C3  UNL     1       2.399   2.246   2.926  1.00  0.00     0.286 C 
HETATM    6  O1  UNL     1       2.823   1.172   3.465  1.00  0.00    -0.268 OA
ATOM      7  H2  UNL     1       2.829   3.771   1.527  1.00  0.00     0.163 HD
BRANCH   5   8
HETATM    8  C4  UNL     1       1.068   2.712   3.384  1.00  0.00     0.322 C 
BRANCH   8   9
HETATM    9  N3  UNL     1       1.156   4.188   3.440  1.00  0.00    -0.034 N 
ATOM     10  H33 UNL     1       0.688   4.595   4.250  1.00  0.00     0.279 HD
ATOM     11  H32 UNL     1       2.092   4.533   3.654  1.00  0.00     0.279 HD
ATOM     12  H31 UNL     1       0.793   4.521   2.548  1.00  0.00     0.279 HD
ENDBRANCH   8   9
BRANCH   8  13
HETATM   13  O2  UNL     1       0.808   2.228   4.636  1.00  0.00    -0.355 OA
ATOM     14  H2  UNL     1       0.610   2.945   5.228  1.00  0.00     0.213 HD
ENDBRANCH   8  13
BRANCH   8  15
HETATM   15  C5  UNL     1       0.023   2.309   2.385  1.00  0.00     0.049 C 
BRANCH  15  16
HETATM   16  C6  UNL     1      -0.977   1.295   2.666  1.00  0.00     0.008 C 
BRANCH  16  17
HETATM   17  C7  UNL     1      -1.115   0.002   2.102  1.00  0.00     0.197 C 
BRANCH  17  18
HETATM   18  N4  UNL     1      -0.284  -0.950   2.966  1.00  0.00    -0.341 N 
HETATM   19  C8  UNL     1       0.926  -1.447   2.614  1.00  0.00     0.257 C 
HETATM   20  O3  UNL     1       1.566  -1.167   1.553  1.00  0.00    -0.267 OA
ATOM     21  H4  UNL     1      -0.667  -1.229   3.869  1.00  0.00     0.164 HD
BRANCH  19  22
HETATM   22  C9  UNL     1       1.585  -2.395   3.484  1.00  0.00     0.093 A 
HETATM   23  C10 UNL     1       1.652  -2.034   4.834  1.00  0.00     0.127 A 
HETATM   24  N5  UNL     1       2.193  -2.933   5.690  1.00  0.00    -0.200 N 
HETATM   25  C11 UNL     1       2.657  -4.121   5.293  1.00  0.00     0.685 A 
ATOM     26  H5  UNL     1       2.249  -2.693   6.679  1.00  0.00     0.183 HD
HETATM   27  N8  UNL     1       2.600  -4.448   3.996  1.00  0.00    -0.174 N 
HETATM   28  C17 UNL     1       2.058  -3.585   3.077  1.00  0.00     0.153 A 
ATOM     29  H8  UNL     1       2.963  -5.349   3.688  1.00  0.00     0.186 HD
BRANCH  25  30
HETATM   30  N6  UNL     1       3.010  -5.113   6.281  1.00  0.00    -0.197 N 
HETATM   31  C12 UNL     1       2.533  -5.281   7.565  1.00  0.00     0.084 C 
HETATM   32  C13 UNL     1       3.416  -6.280   8.306  1.00  0.00     0.078 C 
HETATM   33  C14 UNL     1       4.873  -6.109   7.963  1.00  0.00     0.189 C 
HETATM   34  C15 UNL     1       5.173  -6.334   6.528  1.00  0.00     0.053 C 
HETATM   35  C16 UNL     1       3.998  -6.052   5.695  1.00  0.00     0.148 C 
BRANCH  33  36
HETATM   36  N7  UNL     1       5.623  -7.123   8.704  1.00  0.00    -0.075 N 
ATOM     37  H73 UNL     1       5.652  -6.941   9.707  1.00  0.00     0.274 HD
ATOM     38  H72 UNL     1       5.142  -8.022   8.745  1.00  0.00     0.274 HD
ATOM     39  H71 UNL     1       6.550  -7.188   8.284  1.00  0.00     0.274 HD
ENDBRANCH  33  36
ENDBRANCH  25  30
BRANCH  28  40
HETATM   40  N9  UNL     1       1.966  -3.936   1.686  1.00  0.00    -0.270 N 
ATOM     41  H9  UNL     1       1.283  -3.487   1.076  1.00  0.00     0.190 HD
BRANCH  40  42
HETATM   42  N10 UNL     1       2.740  -4.800   1.248  1.00  0.00    -0.248 N 
HETATM   43  N11 UNL     1       3.152  -5.703   0.480  1.00  0.00    -0.331 N 
ATOM     44 2H11 UNL     1       2.362  -5.726  -0.165  1.00  0.00     0.178 HD
ATOM     45 1H11 UNL     1       3.789  -6.414   0.119  1.00  0.00     0.178 HD
ATOM     46  H10 UNL     1       3.507  -4.740   1.918  1.00  0.00     0.207 HD
ENDBRANCH  40  42
ENDBRANCH  28  40
ENDBRANCH  19  22
ENDBRANCH  17  18
BRANCH  17  47
HETATM   47  C18 UNL     1      -2.354  -0.775   2.009  1.00  0.00     0.257 C 
HETATM   48  N12 UNL     1      -3.576  -0.335   2.575  1.00  0.00    -0.060 NA
HETATM   49  O4  UNL     1      -2.377  -1.892   1.425  1.00  0.00    -0.274 OA
ENDBRANCH  17  47
ENDBRANCH  16  17
ENDBRANCH  15  16
ENDBRANCH   8  15
ENDBRANCH   5   8
ENDBRANCH   3   4
TORSDOF 14
ENDMDL
MODEL 5
REMARK VINA RESULT: -7.400634230      1.635      2.003
REMARK  14 active torsions:
REMARK  status: ('A' for Active; 'I' for Inactive)
REMARK    1  A    between atoms: C2_3  and  N2_4 
REMARK       I    between atoms: N2_4  and  C3_6 
REMARK    2  A    between atoms: C3_6  and  C4_8 
REMARK    3  A    between atoms: C4_8  and  N3_9 
REMARK    4  A    between atoms: C4_8  and  O2_13 
REMARK    5  A    between atoms: C4_8  and  C5_15 
REMARK    6  A    between atoms: C5_15  and  C6_16 
REMARK    7  A    between atoms: C6_16  and  C7_17 
REMARK    8  A    between atoms: C7_17  and  N4_18 
REMARK    9  A    between atoms: C7_17  and  C18_47 
REMARK       I    between atoms: N4_18  and  C8_20 
REMARK   10  A    between atoms: C8_20  and  C9_22 
REMARK   11  A    between atoms: C11_26  and  N6_27 
REMARK   12  A    between atoms: C14_30  and  N7_31 
REMARK   13  A    between atoms: C17_39  and  N9_40 
REMARK   14  A    between atoms: N9_40  and  N10_42 
ROOT
HETATM    1  N1  UNL     1       8.464  -8.967   9.054  1.00  0.00    -0.196 NA
HETATM    2  C1  UNL     1       7.725  -8.071   9.189  1.00  0.00     0.078 C 
HETATM    3  C2  UNL     1       6.811  -6.917   9.349  1.00  0.00     0.247 C 
ENDROOT
BRANCH   3   4
HETATM    4  N2  UNL     1       6.208  -6.708   8.016  1.00  0.00    -0.344 N 
HETATM    5  C3  UNL     1       4.923  -6.167   7.971  1.00  0.00     0.286 C 
HETATM    6  O1  UNL     1       4.311  -5.850   9.044  1.00  0.00    -0.268 OA
ATOM      7  H2  UNL     1       6.712  -6.950   7.162  1.00  0.00     0.163 HD
BRANCH   5   8
HETATM    8  C4  UNL     1       4.171  -5.943   6.713  1.00  0.00     0.322 C 
BRANCH   8   9
HETATM    9  N3  UNL     1       5.174  -6.016   5.628  1.00  0.00    -0.034 N 
ATOM     10  H33 UNL     1       6.125  -6.177   5.960  1.00  0.00     0.279 HD
ATOM     11  H32 UNL     1       5.099  -6.859   5.058  1.00  0.00     0.279 HD
ATOM     12  H31 UNL     1       5.068  -5.153   5.095  1.00  0.00     0.279 HD
ENDBRANCH   8   9
BRANCH   8  13
HETATM   13  O2  UNL     1       3.605  -4.698   6.721  1.00  0.00    -0.355 OA
ATOM     14  H2  UNL     1       3.140  -4.547   5.906  1.00  0.00     0.213 HD
ENDBRANCH   8  13
BRANCH   8  15
HETATM   15  C5  UNL     1       3.156  -7.033   6.534  1.00  0.00     0.049 C 
BRANCH  15  16
HETATM   16  C6  UNL     1       3.003  -7.763   5.288  1.00  0.00     0.008 C 
BRANCH  16  17
HETATM   17  C7  UNL     1       1.970  -7.669   4.324  1.00  0.00     0.197 C 
BRANCH  17  18
HETATM   18  N4  UNL     1       2.093  -6.287   3.676  1.00  0.00    -0.341 N 
HETATM   19  C8  UNL     1       1.352  -5.207   4.024  1.00  0.00     0.257 C 
HETATM   20  O3  UNL     1       0.491  -5.165   4.956  1.00  0.00    -0.267 OA
ATOM     21  H4  UNL     1       2.780  -6.171   2.930  1.00  0.00     0.164 HD
BRANCH  19  22
HETATM   22  C9  UNL     1       1.509  -3.972   3.290  1.00  0.00     0.093 A 
HETATM   23  C10 UNL     1       1.329  -4.062   1.905  1.00  0.00     0.127 A 
HETATM   24  N5  UNL     1       1.392  -2.911   1.196  1.00  0.00    -0.200 N 
HETATM   25  C11 UNL     1       1.619  -1.723   1.763  1.00  0.00     0.685 A 
ATOM     26  H5  UNL     1       1.260  -2.952   0.185  1.00  0.00     0.183 HD
HETATM   27  N8  UNL     1       1.804  -1.653   3.087  1.00  0.00    -0.174 N 
HETATM   28  C17 UNL     1       1.747  -2.781   3.866  1.00  0.00     0.153 A 
ATOM     29  H8  UNL     1       1.990  -0.749   3.522  1.00  0.00     0.186 HD
BRANCH  25  30
HETATM   30  N6  UNL     1       1.450  -0.519   0.985  1.00  0.00    -0.197 N 
HETATM   31  C12 UNL     1       2.297   0.052   0.056  1.00  0.00     0.084 C 
HETATM   32  C13 UNL     1       1.808   1.459  -0.276  1.00  0.00     0.078 C 
HETATM   33  C14 UNL     1       1.281   2.176   0.939  1.00  0.00     0.189 C 
HETATM   34  C15 UNL     1       0.110   1.508   1.558  1.00  0.00     0.053 C 
HETATM   35  C16 UNL     1       0.119   0.067   1.279  1.00  0.00     0.148 C 
BRANCH  33  36
HETATM   36  N7  UNL     1       0.820   3.495   0.507  1.00  0.00    -0.075 N 
ATOM     37  H73 UNL     1       1.104   3.722  -0.446  1.00  0.00     0.274 HD
ATOM     38  H72 UNL     1      -0.189   3.535   0.361  1.00  0.00     0.274 HD
ATOM     39  H71 UNL     1       1.149   4.175   1.193  1.00  0.00     0.274 HD
ENDBRANCH  33  36
ENDBRANCH  25  30
BRANCH  28  40
HETATM   40  N9  UNL     1       1.916  -2.715   5.291  1.00  0.00    -0.270 N 
ATOM     41  H9  UNL     1       2.235  -3.527   5.820  1.00  0.00     0.190 HD
BRANCH  40  42
HETATM   42  N10 UNL     1       1.664  -1.643   5.861  1.00  0.00    -0.248 N 
HETATM   43  N11 UNL     1       1.675  -0.402   6.051  1.00  0.00    -0.331 N 
ATOM     44 2H11 UNL     1       2.228  -0.128   5.239  1.00  0.00     0.178 HD
ATOM     45 1H11 UNL     1       1.468   0.480   6.520  1.00  0.00     0.178 HD
ATOM     46  H10 UNL     1       1.115  -1.964   6.659  1.00  0.00     0.207 HD
ENDBRANCH  40  42
ENDBRANCH  28  40
ENDBRANCH  19  22
ENDBRANCH  17  18
BRANCH  17  47
HETATM   47  C18 UNL     1       1.832  -8.490   3.118  1.00  0.00     0.257 C 
HETATM   48  N12 UNL     1       0.786  -8.302   2.182  1.00  0.00    -0.060 NA
HETATM   49  O4  UNL     1       2.643  -9.424   2.872  1.00  0.00    -0.274 OA
ENDBRANCH  17  47
ENDBRANCH  16  17
ENDBRANCH  15  16
ENDBRANCH   8  15
ENDBRANCH   5   8
ENDBRANCH   3   4
TORSDOF 14
ENDMDL
