MODEL 1
REMARK VINA RESULT: -9.055444171      0.000      0.000
REMARK  12 active torsions:
REMARK  status: ('A' for Active; 'I' for Inactive)
REMARK    1  A    between atoms: C2_8  and  S1_9 
REMARK    2  A    between atoms: S1_9  and  C3_10 
REMARK    3  A    between atoms: C3_10  and  C4_11 
REMARK    4  A    between atoms: C4_11  and  C5_12 
REMARK    5  A    between atoms: C5_12  and  C6_13 
REMARK    6  A    between atoms: C5_12  and  C9_24 
REMARK       I    between atoms: C6_13  and  N5_15 
REMARK    7  A    between atoms: N5_15  and  C7_17 
REMARK    8  A    between atoms: C7_17  and  N6_18 
REMARK    9  A    between atoms: C7_17  and  C8_22 
REMARK   10  A    between atoms: C9_24  and  C10_26 
REMARK   11  A    between atoms: C10_26  and  O4_27 
REMARK   12  A    between atoms: C10_26  and  C11_29 
ROOT
HETATM    1  C5  UNL     1       3.131  -6.317   5.528  1.00  0.00     0.151 C 
ENDROOT
BRANCH   1   2
HETATM    2  C4  UNL     1       3.377  -6.726   6.945  1.00  0.00     0.032 C 
BRANCH   2   3
HETATM    3  C3  UNL     1       4.071  -5.720   7.807  1.00  0.00     0.084 C 
BRANCH   3   4
HETATM    4  S1  UNL     1       4.998  -6.712   9.053  1.00  0.00    -0.091 SA
BRANCH   4   5
HETATM    5  C2  UNL     1       6.632  -7.080   8.437  1.00  0.00     0.175 A 
HETATM    6  N1  UNL     1       7.550  -7.740   9.152  1.00  0.00    -0.257 N 
HETATM    7  C1  UNL     1       7.438  -8.266  10.494  1.00  0.00     0.177 C 
HETATM    8  N2  UNL     1       8.639  -7.840   8.399  1.00  0.00    -0.003 NA
HETATM    9  N3  UNL     1       8.392  -7.253   7.242  1.00  0.00    -0.224 N 
HETATM   10  N4  UNL     1       7.172  -6.784   7.249  1.00  0.00    -0.266 N 
ATOM     11  H3  UNL     1       9.049  -7.177   6.465  1.00  0.00     0.205 HD
ATOM     12  H4  UNL     1       6.714  -6.284   6.487  1.00  0.00     0.190 HD
ENDBRANCH   4   5
ENDBRANCH   3   4
ENDBRANCH   2   3
ENDBRANCH   1   2
BRANCH   1  13
HETATM   13  C6  UNL     1       2.719  -7.501   4.744  1.00  0.00     0.231 C 
HETATM   14  O1  UNL     1       2.896  -8.640   5.199  1.00  0.00    -0.273 OA
HETATM   15  N5  UNL     1       2.111  -7.379   3.453  1.00  0.00    -0.327 N 
ATOM     16  H5  UNL     1       1.946  -6.459   3.043  1.00  0.00     0.164 HD
BRANCH  15  17
HETATM   17  C7  UNL     1       1.737  -8.580   2.741  1.00  0.00     0.346 C 
BRANCH  17  18
HETATM   18  N6  UNL     1       2.957  -9.205   2.224  1.00  0.00    -0.052 N 
ATOM     19  H63 UNL     1       3.024  -9.153   1.208  1.00  0.00     0.277 HD
ATOM     20  H62 UNL     1       3.796  -8.670   2.446  1.00  0.00     0.277 HD
ATOM     21  H61 UNL     1       2.998 -10.162   2.574  1.00  0.00     0.277 HD
ENDBRANCH  17  18
BRANCH  17  22
HETATM   22  C8  UNL     1       0.892  -8.263   1.555  1.00  0.00     0.285 C 
HETATM   23  O2  UNL     1       0.001  -9.005   1.159  1.00  0.00    -0.303 OA
ENDBRANCH  17  22
ENDBRANCH  15  17
ENDBRANCH   1  13
BRANCH   1  24
HETATM   24  C9  UNL     1       2.068  -5.289   5.499  1.00  0.00     0.169 C 
HETATM   25  O3  UNL     1       0.934  -5.610   5.836  1.00  0.00    -0.294 OA
BRANCH  24  26
HETATM   26  C10 UNL     1       2.316  -3.859   5.074  1.00  0.00     0.207 C 
BRANCH  26  27
HETATM   27  O4  UNL     1       3.621  -3.600   4.774  1.00  0.00    -0.387 OA
ATOM     28  H4  UNL     1       3.731  -2.935   4.104  1.00  0.00     0.210 HD
ENDBRANCH  26  27
BRANCH  26  29
HETATM   29  C11 UNL     1       1.327  -3.551   4.006  1.00  0.00     0.162 C 
HETATM   30  C12 UNL     1       1.756  -3.880   2.637  1.00  0.00     0.231 C 
HETATM   31  O5  UNL     1       2.590  -4.729   2.235  1.00  0.00    -0.273 OA
HETATM   32  N7  UNL     1       1.002  -2.999   1.775  1.00  0.00    -0.349 N 
HETATM   33  C13 UNL     1       0.299  -2.027   2.587  1.00  0.00     0.150 C 
ATOM     34  H7  UNL     1       0.970  -3.054   0.757  1.00  0.00     0.163 HD
HETATM   35  C14 UNL     1       0.279  -0.687   1.951  1.00  0.00     0.169 C 
HETATM   36  C16 UNL     1       1.103  -2.065   3.864  1.00  0.00     0.044 C 
HETATM   37  N8  UNL     1       0.314   0.389   2.936  1.00  0.00    -0.224 N 
HETATM   38  C15 UNL     1       1.057   0.261   4.135  1.00  0.00     0.671 C 
ATOM     39  H8  UNL     1      -0.206   1.248   2.759  1.00  0.00     0.177 HD
HETATM   40  N9  UNL     1       1.389   1.312   4.836  1.00  0.00    -0.235 N 
HETATM   41  N10 UNL     1       1.426  -1.046   4.542  1.00  0.00    -0.197 N 
ATOM     42  H92 UNL     1       1.124   2.253   4.543  1.00  0.00     0.174 HD
ATOM     43  H91 UNL     1       1.924   1.220   5.699  1.00  0.00     0.174 HD
ATOM     44  H10 UNL     1       1.964  -1.169   5.400  1.00  0.00     0.183 HD
ENDBRANCH  26  29
ENDBRANCH  24  26
ENDBRANCH   1  24
TORSDOF 12
ENDMDL
MODEL 2
REMARK VINA RESULT: -8.907946401      1.852      2.066
REMARK  12 active torsions:
REMARK  status: ('A' for Active; 'I' for Inactive)
REMARK    1  A    between atoms: C2_8  and  S1_9 
REMARK    2  A    between atoms: S1_9  and  C3_10 
REMARK    3  A    between atoms: C3_10  and  C4_11 
REMARK    4  A    between atoms: C4_11  and  C5_12 
REMARK    5  A    between atoms: C5_12  and  C6_13 
REMARK    6  A    between atoms: C5_12  and  C9_24 
REMARK       I    between atoms: C6_13  and  N5_15 
REMARK    7  A    between atoms: N5_15  and  C7_17 
REMARK    8  A    between atoms: C7_17  and  N6_18 
REMARK    9  A    between atoms: C7_17  and  C8_22 
REMARK   10  A    between atoms: C9_24  and  C10_26 
REMARK   11  A    between atoms: C10_26  and  O4_27 
REMARK   12  A    between atoms: C10_26  and  C11_29 
ROOT
HETATM    1  C5  UNL     1       3.154  -5.578   6.786  1.00  0.00     0.151 C 
ENDROOT
BRANCH   1   2
HETATM    2  C4  UNL     1       3.111  -6.001   8.220  1.00  0.00     0.032 C 
BRANCH   2   3
HETATM    3  C3  UNL     1       4.275  -5.585   9.061  1.00  0.00     0.084 C 
BRANCH   3   4
HETATM    4  S1  UNL     1       5.116  -7.158   9.528  1.00  0.00    -0.091 SA
BRANCH   4   5
HETATM    5  C2  UNL     1       6.678  -7.285   8.675  1.00  0.00     0.175 A 
HETATM    6  N1  UNL     1       7.713  -7.988   9.147  1.00  0.00    -0.257 N 
HETATM    7  C1  UNL     1       7.798  -8.751  10.371  1.00  0.00     0.177 C 
HETATM    8  N2  UNL     1       8.704  -7.870   8.270  1.00  0.00    -0.003 NA
HETATM    9  N3  UNL     1       8.282  -7.106   7.277  1.00  0.00    -0.224 N 
HETATM   10  N4  UNL     1       7.049  -6.742   7.509  1.00  0.00    -0.266 N 
ATOM     11  H3  UNL     1       8.832  -6.844   6.460  1.00  0.00     0.205 HD
ATOM     12  H4  UNL     1       6.473  -6.150   6.909  1.00  0.00     0.190 HD
ENDBRANCH   4   5
ENDBRANCH   3   4
ENDBRANCH   2   3
ENDBRANCH   1   2
BRANCH   1  13
HETATM   13  C6  UNL     1       3.422  -6.759   5.938  1.00  0.00     0.231 C 
HETATM   14  O1  UNL     1       4.589  -7.081   5.672  1.00  0.00    -0.273 OA
HETATM   15  N5  UNL     1       2.364  -7.560   5.401  1.00  0.00    -0.327 N 
ATOM     16  H5  UNL     1       1.389  -7.330   5.597  1.00  0.00     0.164 HD
BRANCH  15  17
HETATM   17  C7  UNL     1       2.699  -8.698   4.576  1.00  0.00     0.346 C 
BRANCH  17  18
HETATM   18  N6  UNL     1       2.682  -8.271   3.175  1.00  0.00    -0.052 N 
ATOM     19  H63 UNL     1       1.824  -8.540   2.693  1.00  0.00     0.277 HD
ATOM     20  H62 UNL     1       2.586  -7.261   3.074  1.00  0.00     0.277 HD
ATOM     21  H61 UNL     1       3.520  -8.633   2.721  1.00  0.00     0.277 HD
ENDBRANCH  17  18
BRANCH  17  22
HETATM   22  C8  UNL     1       1.675  -9.775   4.700  1.00  0.00     0.285 C 
HETATM   23  O2  UNL     1       1.961 -10.932   4.986  1.00  0.00    -0.303 OA
ENDBRANCH  17  22
ENDBRANCH  15  17
ENDBRANCH   1  13
BRANCH   1  24
HETATM   24  C9  UNL     1       1.855  -4.971   6.422  1.00  0.00     0.169 C 
HETATM   25  O3  UNL     1       0.828  -5.502   6.826  1.00  0.00    -0.294 OA
BRANCH  24  26
HETATM   26  C10 UNL     1       1.737  -3.724   5.575  1.00  0.00     0.207 C 
BRANCH  26  27
HETATM   27  O4  UNL     1       2.601  -2.733   5.943  1.00  0.00    -0.387 OA
ATOM     28  H4  UNL     1       3.142  -2.419   5.229  1.00  0.00     0.210 HD
ENDBRANCH  26  27
BRANCH  26  29
HETATM   29  C11 UNL     1       1.812  -4.160   4.155  1.00  0.00     0.162 C 
HETATM   30  C12 UNL     1       3.121  -3.973   3.507  1.00  0.00     0.231 C 
HETATM   31  O5  UNL     1       4.270  -3.913   4.011  1.00  0.00    -0.273 OA
HETATM   32  N7  UNL     1       2.839  -3.864   2.094  1.00  0.00    -0.349 N 
HETATM   33  C13 UNL     1       1.406  -3.774   1.901  1.00  0.00     0.150 C 
ATOM     34  H7  UNL     1       3.538  -3.852   1.351  1.00  0.00     0.163 HD
HETATM   35  C14 UNL     1       1.053  -2.833   0.810  1.00  0.00     0.169 C 
HETATM   36  C16 UNL     1       0.949  -3.304   3.261  1.00  0.00     0.044 C 
HETATM   37  N8  UNL     1      -0.210  -2.146   1.064  1.00  0.00    -0.224 N 
HETATM   38  C15 UNL     1      -0.591  -1.776   2.377  1.00  0.00     0.671 C 
ATOM     39  H8  UNL     1      -0.828  -1.929   0.283  1.00  0.00     0.177 HD
HETATM   40  N9  UNL     1      -1.509  -0.869   2.580  1.00  0.00    -0.235 N 
HETATM   41  N10 UNL     1       0.061  -2.424   3.457  1.00  0.00    -0.197 N 
ATOM     42  H92 UNL     1      -1.978  -0.403   1.803  1.00  0.00     0.174 HD
ATOM     43  H91 UNL     1      -1.784  -0.602   3.525  1.00  0.00     0.174 HD
ATOM     44  H10 UNL     1      -0.192  -2.176   4.413  1.00  0.00     0.183 HD
ENDBRANCH  26  29
ENDBRANCH  24  26
ENDBRANCH   1  24
TORSDOF 12
ENDMDL
MODEL 3
REMARK VINA RESULT: -8.582585884      2.629      7.821
REMARK  12 active torsions:
REMARK  status: ('A' for Active; 'I' for Inactive)
REMARK    1  A    between atoms: C2_8  and  S1_9 
REMARK    2  A    between atoms: S1_9  and  C3_10 
REMARK    3  A    between atoms: C3_10  and  C4_11 
REMARK    4  A    between atoms: C4_11  and  C5_12 
REMARK    5  A    between atoms: C5_12  and  C6_13 
REMARK    6  A    between atoms: C5_12  and  C9_24 
REMARK       I    between atoms: C6_13  and  N5_15 
REMARK    7  A    between atoms: N5_15  and  C7_17 
REMARK    8  A    between atoms: C7_17  and  N6_18 
REMARK    9  A    between atoms: C7_17  and  C8_22 
REMARK   10  A    between atoms: C9_24  and  C10_26 
REMARK   11  A    between atoms: C10_26  and  O4_27 
REMARK   12  A    between atoms: C10_26  and  C11_29 
ROOT
HETATM    1  C5  UNL     1       2.177  -6.515   3.993  1.00  0.00     0.151 C 
ENDROOT
BRANCH   1   2
HETATM    2  C4  UNL     1       1.081  -7.482   3.676  1.00  0.00     0.032 C 
BRANCH   2   3
HETATM    3  C3  UNL     1       1.055  -8.009   2.277  1.00  0.00     0.084 C 
BRANCH   3   4
HETATM    4  S1  UNL     1       1.952  -9.618   2.352  1.00  0.00    -0.091 SA
BRANCH   4   5
HETATM    5  C2  UNL     1       1.051 -10.764   3.381  1.00  0.00     0.175 A 
HETATM    6  N1  UNL     1       0.284 -11.741   2.886  1.00  0.00    -0.257 N 
HETATM    7  C1  UNL     1       0.026 -12.068   1.502  1.00  0.00     0.177 C 
HETATM    8  N2  UNL     1      -0.232 -12.399   3.918  1.00  0.00    -0.003 NA
HETATM    9  N3  UNL     1       0.212 -11.834   5.027  1.00  0.00    -0.224 N 
HETATM   10  N4  UNL     1       0.996 -10.835   4.717  1.00  0.00    -0.266 N 
ATOM     11  H3  UNL     1      -0.020 -12.130   5.975  1.00  0.00     0.205 HD
ATOM     12  H4  UNL     1       1.479 -10.221   5.373  1.00  0.00     0.190 HD
ENDBRANCH   4   5
ENDBRANCH   3   4
ENDBRANCH   2   3
ENDBRANCH   1   2
BRANCH   1  13
HETATM   13  C6  UNL     1       1.584  -5.227   4.413  1.00  0.00     0.231 C 
HETATM   14  O1  UNL     1       0.777  -5.192   5.354  1.00  0.00    -0.273 OA
HETATM   15  N5  UNL     1       1.912  -3.996   3.760  1.00  0.00    -0.327 N 
ATOM     16  H5  UNL     1       2.572  -3.981   2.983  1.00  0.00     0.164 HD
BRANCH  15  17
HETATM   17  C7  UNL     1       1.291  -2.775   4.222  1.00  0.00     0.346 C 
BRANCH  17  18
HETATM   18  N6  UNL     1      -0.115  -2.793   3.811  1.00  0.00    -0.052 N 
ATOM     19  H63 UNL     1      -0.232  -2.989   2.817  1.00  0.00     0.277 HD
ATOM     20  H62 UNL     1      -0.619  -3.602   4.171  1.00  0.00     0.277 HD
ATOM     21  H61 UNL     1      -0.541  -1.909   4.091  1.00  0.00     0.277 HD
ENDBRANCH  17  18
BRANCH  17  22
HETATM   22  C8  UNL     1       1.903  -1.580   3.574  1.00  0.00     0.285 C 
HETATM   23  O2  UNL     1       2.504  -0.719   4.205  1.00  0.00    -0.303 OA
ENDBRANCH  17  22
ENDBRANCH  15  17
ENDBRANCH   1  13
BRANCH   1  24
HETATM   24  C9  UNL     1       3.013  -7.071   5.078  1.00  0.00     0.169 C 
HETATM   25  O3  UNL     1       2.748  -8.187   5.508  1.00  0.00    -0.294 OA
BRANCH  24  26
HETATM   26  C10 UNL     1       4.183  -6.325   5.681  1.00  0.00     0.207 C 
BRANCH  26  27
HETATM   27  O4  UNL     1       4.165  -4.986   5.423  1.00  0.00    -0.387 OA
ATOM     28  H4  UNL     1       4.948  -4.534   5.715  1.00  0.00     0.210 HD
ENDBRANCH  26  27
BRANCH  26  29
HETATM   29  C11 UNL     1       4.246  -6.713   7.116  1.00  0.00     0.162 C 
HETATM   30  C12 UNL     1       3.779  -5.689   8.065  1.00  0.00     0.231 C 
HETATM   31  O5  UNL     1       2.969  -4.743   7.899  1.00  0.00    -0.273 OA
HETATM   32  N7  UNL     1       4.457  -5.979   9.308  1.00  0.00    -0.349 N 
HETATM   33  C13 UNL     1       5.456  -7.003   9.076  1.00  0.00     0.150 C 
ATOM     34  H7  UNL     1       4.263  -5.534  10.205  1.00  0.00     0.163 HD
HETATM   35  C14 UNL     1       6.690  -6.759   9.863  1.00  0.00     0.169 C 
HETATM   36  C16 UNL     1       5.669  -6.883   7.587  1.00  0.00     0.044 C 
HETATM   37  N8  UNL     1       7.887  -7.212   9.162  1.00  0.00    -0.224 N 
HETATM   38  C15 UNL     1       7.995  -7.107   7.755  1.00  0.00     0.671 C 
ATOM     39  H8  UNL     1       8.659  -7.612   9.696  1.00  0.00     0.177 HD
HETATM   40  N9  UNL     1       9.159  -7.165   7.164  1.00  0.00    -0.235 N 
HETATM   41  N10 UNL     1       6.797  -6.937   7.015  1.00  0.00    -0.197 N 
ATOM     42  H92 UNL     1      10.020  -7.287   7.695  1.00  0.00     0.174 HD
ATOM     43  H91 UNL     1       9.237  -7.089   6.149  1.00  0.00     0.174 HD
ATOM     44  H10 UNL     1       6.845  -6.856   5.999  1.00  0.00     0.183 HD
ENDBRANCH  26  29
ENDBRANCH  24  26
ENDBRANCH   1  24
TORSDOF 12
ENDMDL
MODEL 4
REMARK VINA RESULT: -8.567855626      1.208      1.247
REMARK  12 active torsions:
REMARK  status: ('A' for Active; 'I' for Inactive)
REMARK    1  A    between atoms: C2_8  and  S1_9 
REMARK    2  A    between atoms: S1_9  and  C3_10 
REMARK    3  A    between atoms: C3_10  and  C4_11 
REMARK    4  A    between atoms: C4_11  and  C5_12 
REMARK    5  A    between atoms: C5_12  and  C6_13 
REMARK    6  A    between atoms: C5_12  and  C9_24 
REMARK       I    between atoms: C6_13  and  N5_15 
REMARK    7  A    between atoms: N5_15  and  C7_17 
REMARK    8  A    between atoms: C7_17  and  N6_18 
REMARK    9  A    between atoms: C7_17  and  C8_22 
REMARK   10  A    between atoms: C9_24  and  C10_26 
REMARK   11  A    between atoms: C10_26  and  O4_27 
REMARK   12  A    between atoms: C10_26  and  C11_29 
ROOT
HETATM    1  C5  UNL     1       3.233  -5.445   6.419  1.00  0.00     0.151 C 
ENDROOT
BRANCH   1   2
HETATM    2  C4  UNL     1       2.917  -5.895   7.810  1.00  0.00     0.032 C 
BRANCH   2   3
HETATM    3  C3  UNL     1       3.862  -5.442   8.877  1.00  0.00     0.084 C 
BRANCH   3   4
HETATM    4  S1  UNL     1       4.712  -6.974   9.449  1.00  0.00    -0.091 SA
BRANCH   4   5
HETATM    5  C2  UNL     1       6.284  -7.137   8.620  1.00  0.00     0.175 A 
HETATM    6  N1  UNL     1       7.337  -7.755   9.168  1.00  0.00    -0.257 N 
HETATM    7  C1  UNL     1       7.436  -8.385  10.464  1.00  0.00     0.177 C 
HETATM    8  N2  UNL     1       8.330  -7.696   8.288  1.00  0.00    -0.003 NA
HETATM    9  N3  UNL     1       7.893  -7.052   7.220  1.00  0.00    -0.224 N 
HETATM   10  N4  UNL     1       6.647  -6.705   7.407  1.00  0.00    -0.266 N 
ATOM     11  H3  UNL     1       8.441  -6.858   6.382  1.00  0.00     0.205 HD
ATOM     12  H4  UNL     1       6.057  -6.198   6.746  1.00  0.00     0.190 HD
ENDBRANCH   4   5
ENDBRANCH   3   4
ENDBRANCH   2   3
ENDBRANCH   1   2
BRANCH   1  13
HETATM   13  C6  UNL     1       3.316  -6.625   5.533  1.00  0.00     0.231 C 
HETATM   14  O1  UNL     1       4.239  -7.441   5.669  1.00  0.00    -0.273 OA
HETATM   15  N5  UNL     1       2.351  -6.865   4.502  1.00  0.00    -0.327 N 
ATOM     16  H5  UNL     1       1.575  -6.220   4.358  1.00  0.00     0.164 HD
BRANCH  15  17
HETATM   17  C7  UNL     1       2.497  -8.038   3.670  1.00  0.00     0.346 C 
BRANCH  17  18
HETATM   18  N6  UNL     1       2.064  -7.694   2.314  1.00  0.00    -0.052 N 
ATOM     19  H63 UNL     1       1.652  -6.762   2.258  1.00  0.00     0.277 HD
ATOM     20  H62 UNL     1       2.846  -7.538   1.680  1.00  0.00     0.277 HD
ATOM     21  H61 UNL     1       1.432  -8.424   1.985  1.00  0.00     0.277 HD
ENDBRANCH  17  18
BRANCH  17  22
HETATM   22  C8  UNL     1       1.603  -9.140   4.130  1.00  0.00     0.285 C 
HETATM   23  O2  UNL     1       1.988 -10.043   4.863  1.00  0.00    -0.303 OA
ENDBRANCH  17  22
ENDBRANCH  15  17
ENDBRANCH   1  13
BRANCH   1  24
HETATM   24  C9  UNL     1       2.169  -4.530   5.954  1.00  0.00     0.169 C 
HETATM   25  O3  UNL     1       1.006  -4.791   6.240  1.00  0.00    -0.294 OA
BRANCH  24  26
HETATM   26  C10 UNL     1       2.450  -3.284   5.144  1.00  0.00     0.207 C 
BRANCH  26  27
HETATM   27  O4  UNL     1       3.654  -3.313   4.502  1.00  0.00    -0.387 OA
ATOM     28  H4  UNL     1       4.186  -4.066   4.730  1.00  0.00     0.210 HD
ENDBRANCH  26  27
BRANCH  26  29
HETATM   29  C11 UNL     1       1.258  -3.052   4.285  1.00  0.00     0.162 C 
HETATM   30  C12 UNL     1       1.348  -3.601   2.921  1.00  0.00     0.231 C 
HETATM   31  O5  UNL     1       2.031  -4.559   2.481  1.00  0.00    -0.273 OA
HETATM   32  N7  UNL     1       0.456  -2.794   2.122  1.00  0.00    -0.349 N 
HETATM   33  C13 UNL     1      -0.000  -1.667   2.910  1.00  0.00     0.150 C 
ATOM     34  H7  UNL     1       0.189  -2.987   1.157  1.00  0.00     0.163 HD
HETATM   35  C14 UNL     1      -0.108  -0.430   2.098  1.00  0.00     0.169 C 
HETATM   36  C16 UNL     1       1.071  -1.589   3.971  1.00  0.00     0.044 C 
HETATM   37  N8  UNL     1       0.198   0.766   2.874  1.00  0.00    -0.224 N 
HETATM   38  C15 UNL     1       1.189   0.750   3.885  1.00  0.00     0.671 C 
ATOM     39  H8  UNL     1      -0.311   1.629   2.686  1.00  0.00     0.177 HD
HETATM   40  N9  UNL     1       1.717   1.860   4.328  1.00  0.00    -0.235 N 
HETATM   41  N10 UNL     1       1.584  -0.513   4.397  1.00  0.00    -0.197 N 
ATOM     42  H92 UNL     1       1.433   2.768   3.960  1.00  0.00     0.174 HD
ATOM     43  H91 UNL     1       2.431   1.848   5.056  1.00  0.00     0.174 HD
ATOM     44  H10 UNL     1       2.298  -0.555   5.124  1.00  0.00     0.183 HD
ENDBRANCH  26  29
ENDBRANCH  24  26
ENDBRANCH   1  24
TORSDOF 12
ENDMDL
MODEL 5
REMARK VINA RESULT: -8.503598116      2.019      6.280
REMARK  12 active torsions:
REMARK  status: ('A' for Active; 'I' for Inactive)
REMARK    1  A    between atoms: C2_8  and  S1_9 
REMARK    2  A    between atoms: S1_9  and  C3_10 
REMARK    3  A    between atoms: C3_10  and  C4_11 
REMARK    4  A    between atoms: C4_11  and  C5_12 
REMARK    5  A    between atoms: C5_12  and  C6_13 
REMARK    6  A    between atoms: C5_12  and  C9_24 
REMARK       I    between atoms: C6_13  and  N5_15 
REMARK    7  A    between atoms: N5_15  and  C7_17 
REMARK    8  A    between atoms: C7_17  and  N6_18 
REMARK    9  A    between atoms: C7_17  and  C8_22 
REMARK   10  A    between atoms: C9_24  and  C10_26 
REMARK   11  A    between atoms: C10_26  and  O4_27 
REMARK   12  A    between atoms: C10_26  and  C11_29 
ROOT
HETATM    1  C5  UNL     1       2.769  -5.737   6.573  1.00  0.00     0.151 C 
ENDROOT
BRANCH   1   2
HETATM    2  C4  UNL     1       3.838  -5.703   7.618  1.00  0.00     0.032 C 
BRANCH   2   3
HETATM    3  C3  UNL     1       3.888  -6.877   8.543  1.00  0.00     0.084 C 
BRANCH   3   4
HETATM    4  S1  UNL     1       5.372  -6.593   9.599  1.00  0.00    -0.091 SA
BRANCH   4   5
HETATM    5  C2  UNL     1       6.841  -7.112   8.729  1.00  0.00     0.175 A 
HETATM    6  N1  UNL     1       7.688  -8.029   9.209  1.00  0.00    -0.257 N 
HETATM    7  C1  UNL     1       7.615  -8.757  10.455  1.00  0.00     0.177 C 
HETATM    8  N2  UNL     1       8.660  -8.174   8.315  1.00  0.00    -0.003 NA
HETATM    9  N3  UNL     1       8.412  -7.359   7.304  1.00  0.00    -0.224 N 
HETATM   10  N4  UNL     1       7.306  -6.705   7.541  1.00  0.00    -0.266 N 
ATOM     11  H3  UNL     1       8.991  -7.258   6.471  1.00  0.00     0.205 HD
ATOM     12  H4  UNL     1       6.874  -6.010   6.931  1.00  0.00     0.190 HD
ENDBRANCH   4   5
ENDBRANCH   3   4
ENDBRANCH   2   3
ENDBRANCH   1   2
BRANCH   1  13
HETATM   13  C6  UNL     1       2.862  -4.517   5.742  1.00  0.00     0.231 C 
HETATM   14  O1  UNL     1       3.807  -4.372   4.954  1.00  0.00    -0.273 OA
HETATM   15  N5  UNL     1       1.881  -3.476   5.815  1.00  0.00    -0.327 N 
ATOM     16  H5  UNL     1       1.086  -3.557   6.449  1.00  0.00     0.164 HD
BRANCH  15  17
HETATM   17  C7  UNL     1       2.037  -2.310   4.976  1.00  0.00     0.346 C 
BRANCH  17  18
HETATM   18  N6  UNL     1       1.667  -1.129   5.760  1.00  0.00    -0.052 N 
ATOM     19  H63 UNL     1       2.069  -0.269   5.387  1.00  0.00     0.277 HD
ATOM     20  H62 UNL     1       0.684  -0.880   5.655  1.00  0.00     0.277 HD
ATOM     21  H61 UNL     1       1.928  -1.296   6.732  1.00  0.00     0.277 HD
ENDBRANCH  17  18
BRANCH  17  22
HETATM   22  C8  UNL     1       1.104  -2.352   3.814  1.00  0.00     0.285 C 
HETATM   23  O2  UNL     1       1.153  -3.226   2.956  1.00  0.00    -0.303 OA
ENDBRANCH  17  22
ENDBRANCH  15  17
ENDBRANCH   1  13
BRANCH   1  24
HETATM   24  C9  UNL     1       2.950  -6.941   5.735  1.00  0.00     0.169 C 
HETATM   25  O3  UNL     1       4.090  -7.309   5.477  1.00  0.00    -0.294 OA
BRANCH  24  26
HETATM   26  C10 UNL     1       1.792  -7.742   5.183  1.00  0.00     0.207 C 
BRANCH  26  27
HETATM   27  O4  UNL     1       0.688  -6.987   4.914  1.00  0.00    -0.387 OA
ATOM     28  H4  UNL     1      -0.125  -7.477   4.956  1.00  0.00     0.210 HD
ENDBRANCH  26  27
BRANCH  26  29
HETATM   29  C11 UNL     1       2.327  -8.543   4.048  1.00  0.00     0.162 C 
HETATM   30  C12 UNL     1       1.929  -8.081   2.708  1.00  0.00     0.231 C 
HETATM   31  O5  UNL     1       1.587  -6.936   2.318  1.00  0.00    -0.273 OA
HETATM   32  N7  UNL     1       2.005  -9.247   1.860  1.00  0.00    -0.349 N 
HETATM   33  C13 UNL     1       2.233 -10.418   2.682  1.00  0.00     0.150 C 
ATOM     34  H7  UNL     1       1.914  -9.246   0.844  1.00  0.00     0.163 HD
HETATM   35  C14 UNL     1       1.485 -11.598   2.182  1.00  0.00     0.169 C 
HETATM   36  C16 UNL     1       1.751  -9.938   4.029  1.00  0.00     0.044 C 
HETATM   37  N8  UNL     1       1.057 -12.477   3.266  1.00  0.00    -0.224 N 
HETATM   38  C15 UNL     1       0.660 -11.952   4.520  1.00  0.00     0.671 C 
ATOM     39  H8  UNL     1       1.043 -13.485   3.118  1.00  0.00     0.177 HD
HETATM   40  N9  UNL     1      -0.050 -12.665   5.353  1.00  0.00    -0.235 N 
HETATM   41  N10 UNL     1       1.061 -10.629   4.835  1.00  0.00    -0.197 N 
ATOM     42  H92 UNL     1      -0.338 -13.617   5.127  1.00  0.00     0.174 HD
ATOM     43  H91 UNL     1      -0.336 -12.288   6.256  1.00  0.00     0.174 HD
ATOM     44  H10 UNL     1       0.788 -10.224   5.730  1.00  0.00     0.183 HD
ENDBRANCH  26  29
ENDBRANCH  24  26
ENDBRANCH   1  24
TORSDOF 12
ENDMDL
