MODEL 1
REMARK VINA RESULT: -8.789068076      0.000      0.000
REMARK  12 active torsions:
REMARK  status: ('A' for Active; 'I' for Inactive)
REMARK    1  A    between atoms: C2_2  and  C3_3 
REMARK    2  A    between atoms: C3_3  and  C5_5 
REMARK    3  A    between atoms: C5_5  and  N1_6 
REMARK    4  A    between atoms: C5_5  and  C6_10 
REMARK       I    between atoms: C6_10  and  N2_12 
REMARK    5  A    between atoms: N2_12  and  C7_14 
REMARK    6  A    between atoms: C7_14  and  C8_15 
REMARK    7  A    between atoms: C8_15  and  N3_16 
REMARK    8  A    between atoms: N3_16  and  C9_17 
REMARK    9  A    between atoms: C12_25  and  C13_26 
REMARK   10  A    between atoms: C13_26  and  N6_27 
REMARK   11  A    between atoms: C14_30  and  N8_31 
REMARK   12  A    between atoms: C15_36  and  C16_37 
ROOT
HETATM    1  C9  UNL     1       3.752  -6.071   7.009  1.00  0.00     0.272 A 
HETATM    2  N4  UNL     1       3.429  -7.315   6.524  1.00  0.00    -0.279 N 
ATOM      3  H4  UNL     1       3.547  -8.123   7.136  1.00  0.00     0.173 HD
HETATM    4  C10 UNL     1       2.968  -7.515   5.289  1.00  0.00     0.295 A 
HETATM    5  O2  UNL     1       2.676  -8.660   4.860  1.00  0.00    -0.264 OA
HETATM    6  C11 UNL     1       2.797  -6.450   4.439  1.00  0.00     0.202 A 
HETATM    7  N5  UNL     1       2.336  -6.668   3.207  1.00  0.00    -0.324 N 
ATOM      8  H5  UNL     1       2.116  -7.619   2.909  1.00  0.00     0.169 HD
HETATM    9  C12 UNL     1       2.159  -5.649   2.360  1.00  0.00     0.107 A 
HETATM   10  N10 UNL     1       2.463  -4.430   2.798  1.00  0.00    -0.295 N 
ATOM     11  H10 UNL     1       2.338  -3.635   2.171  1.00  0.00     0.172 HD
HETATM   12  C19 UNL     1       2.926  -4.213   4.033  1.00  0.00     0.348 A 
HETATM   13  O3  UNL     1       3.220  -3.056   4.466  1.00  0.00    -0.245 OA
HETATM   14  N11 UNL     1       3.108  -5.230   4.899  1.00  0.00    -0.179 N 
HETATM   15  N12 UNL     1       3.561  -5.045   6.118  1.00  0.00    -0.247 N 
ATOM     16  H12 UNL     1       3.783  -4.095   6.416  1.00  0.00     0.192 HD
ENDROOT
BRANCH   1  17
HETATM   17  N3  UNL     1       4.157  -5.910   8.118  1.00  0.00    -0.413 NA
BRANCH  17  18
HETATM   18  C8  UNL     1       4.705  -5.865   9.341  1.00  0.00     0.241 C 
BRANCH  18  19
HETATM   19  C7  UNL     1       5.446  -7.163   9.748  1.00  0.00     0.156 C 
BRANCH  19  20
HETATM   20  N2  UNL     1       6.798  -7.029   9.259  1.00  0.00    -0.357 N 
HETATM   21  C6  UNL     1       7.781  -8.018   9.183  1.00  0.00     0.248 C 
HETATM   22  O1  UNL     1       7.547  -9.169   9.592  1.00  0.00    -0.271 OA
ATOM     23  H2  UNL     1       7.067  -6.102   8.929  1.00  0.00     0.162 HD
BRANCH  21  24
HETATM   24  C5  UNL     1       9.113  -7.727   8.624  1.00  0.00     0.278 C 
BRANCH  24  25
HETATM   25  C3  UNL     1      10.089  -8.838   8.888  1.00  0.00     0.021 C 
HETATM   26  C4  UNL     1      10.557  -9.587   7.692  1.00  0.00     0.012 C 
BRANCH  25  27
HETATM   27  C2  UNL     1      11.232  -8.492   9.772  1.00  0.00     0.002 C 
HETATM   28  C1  UNL     1      10.792  -8.801  11.218  1.00  0.00     0.005 C 
ENDBRANCH  25  27
ENDBRANCH  24  25
BRANCH  24  29
HETATM   29  N1  UNL     1       9.014  -7.470   7.215  1.00  0.00    -0.066 N 
ATOM     30  H13 UNL     1       9.677  -8.030   6.679  1.00  0.00     0.275 HD
ATOM     31  H12 UNL     1       8.150  -7.841   6.821  1.00  0.00     0.275 HD
ATOM     32  H11 UNL     1       9.119  -6.473   7.026  1.00  0.00     0.275 HD
ENDBRANCH  24  29
ENDBRANCH  21  24
ENDBRANCH  19  20
ENDBRANCH  18  19
ENDBRANCH  17  18
ENDBRANCH   1  17
BRANCH   9  33
HETATM   33  C13 UNL     1       1.646  -5.942   0.973  1.00  0.00     0.227 C 
BRANCH  33  34
HETATM   34  N6  UNL     1       2.287  -7.137   0.434  1.00  0.00    -0.258 N 
HETATM   35  N7  UNL     1       3.514  -7.171  -0.062  1.00  0.00    -0.128 N 
HETATM   36  C14 UNL     1       3.778  -8.424  -0.448  1.00  0.00     0.692 A 
ATOM     37  H7  UNL     1       4.150  -6.377  -0.136  1.00  0.00     0.206 HD
HETATM   38  N9  UNL     1       2.694  -9.159  -0.182  1.00  0.00    -0.178 N 
HETATM   39  C15 UNL     1       1.746  -8.365   0.374  1.00  0.00     0.118 A 
ATOM     40  H9  UNL     1       2.596 -10.158  -0.368  1.00  0.00     0.185 HD
BRANCH  36  41
HETATM   41  N8  UNL     1       4.898  -8.824  -0.982  1.00  0.00    -0.233 N 
ATOM     42  H82 UNL     1       5.669  -8.245  -1.317  1.00  0.00     0.174 HD
ATOM     43  H81 UNL     1       5.159  -9.798  -1.141  1.00  0.00     0.174 HD
ENDBRANCH  36  41
BRANCH  39  44
HETATM   44  C16 UNL     1       0.366  -8.812   0.804  1.00  0.00     0.047 C 
HETATM   45  C17 UNL     1       0.398 -10.149   1.474  1.00  0.00     0.017 C 
HETATM   46  C18 UNL     1      -0.526  -8.841  -0.448  1.00  0.00     0.017 C 
ENDBRANCH  39  44
ENDBRANCH  33  34
ENDBRANCH   9  33
TORSDOF 12
ENDMDL
MODEL 2
REMARK VINA RESULT: -8.774338066      3.724      5.254
REMARK  12 active torsions:
REMARK  status: ('A' for Active; 'I' for Inactive)
REMARK    1  A    between atoms: C2_2  and  C3_3 
REMARK    2  A    between atoms: C3_3  and  C5_5 
REMARK    3  A    between atoms: C5_5  and  N1_6 
REMARK    4  A    between atoms: C5_5  and  C6_10 
REMARK       I    between atoms: C6_10  and  N2_12 
REMARK    5  A    between atoms: N2_12  and  C7_14 
REMARK    6  A    between atoms: C7_14  and  C8_15 
REMARK    7  A    between atoms: C8_15  and  N3_16 
REMARK    8  A    between atoms: N3_16  and  C9_17 
REMARK    9  A    between atoms: C12_25  and  C13_26 
REMARK   10  A    between atoms: C13_26  and  N6_27 
REMARK   11  A    between atoms: C14_30  and  N8_31 
REMARK   12  A    between atoms: C15_36  and  C16_37 
ROOT
HETATM    1  C9  UNL     1       4.027  -6.014   7.255  1.00  0.00     0.272 A 
HETATM    2  N4  UNL     1       2.725  -5.966   7.692  1.00  0.00    -0.279 N 
ATOM      3  H4  UNL     1       2.487  -6.434   8.567  1.00  0.00     0.173 HD
HETATM    4  C10 UNL     1       1.758  -5.336   7.023  1.00  0.00     0.295 A 
HETATM    5  O2  UNL     1       0.571  -5.301   7.437  1.00  0.00    -0.264 OA
HETATM    6  C11 UNL     1       2.044  -4.696   5.842  1.00  0.00     0.202 A 
HETATM    7  N5  UNL     1       1.065  -4.071   5.187  1.00  0.00    -0.324 N 
ATOM      8  H5  UNL     1       0.118  -4.076   5.567  1.00  0.00     0.169 HD
HETATM    9  C12 UNL     1       1.317  -3.440   4.036  1.00  0.00     0.107 A 
HETATM   10  N10 UNL     1       2.567  -3.467   3.584  1.00  0.00    -0.295 N 
ATOM     11  H10 UNL     1       2.786  -2.993   2.707  1.00  0.00     0.172 HD
HETATM   12  C19 UNL     1       3.548  -4.094   4.242  1.00  0.00     0.348 A 
HETATM   13  O3  UNL     1       4.747  -4.128   3.825  1.00  0.00    -0.245 OA
HETATM   14  N11 UNL     1       3.310  -4.734   5.404  1.00  0.00    -0.179 N 
HETATM   15  N12 UNL     1       4.255  -5.358   6.071  1.00  0.00    -0.247 N 
ATOM     16  H12 UNL     1       5.202  -5.356   5.691  1.00  0.00     0.192 HD
ENDROOT
BRANCH   1  17
HETATM   17  N3  UNL     1       4.880  -6.576   7.868  1.00  0.00    -0.413 NA
BRANCH  17  18
HETATM   18  C8  UNL     1       5.722  -7.319   8.601  1.00  0.00     0.241 C 
BRANCH  18  19
HETATM   19  C7  UNL     1       6.726  -6.491   9.441  1.00  0.00     0.156 C 
BRANCH  19  20
HETATM   20  N2  UNL     1       8.033  -6.757   8.891  1.00  0.00    -0.357 N 
HETATM   21  C6  UNL     1       8.713  -7.977   8.856  1.00  0.00     0.248 C 
HETATM   22  O1  UNL     1       8.207  -8.993   9.363  1.00  0.00    -0.271 OA
ATOM     23  H2  UNL     1       8.518  -5.961   8.478  1.00  0.00     0.162 HD
BRANCH  21  24
HETATM   24  C5  UNL     1      10.039  -8.092   8.224  1.00  0.00     0.278 C 
BRANCH  24  25
HETATM   25  C3  UNL     1      10.557  -9.502   8.254  1.00  0.00     0.021 C 
HETATM   26  C4  UNL     1      10.990 -10.061   6.946  1.00  0.00     0.012 C 
BRANCH  25  27
HETATM   27  C2  UNL     1      11.559  -9.796   9.310  1.00  0.00     0.002 C 
HETATM   28  C1  UNL     1      12.375  -8.506   9.528  1.00  0.00     0.005 C 
ENDBRANCH  25  27
ENDBRANCH  24  25
BRANCH  24  29
HETATM   29  N1  UNL     1       9.990  -7.603   6.875  1.00  0.00    -0.066 N 
ATOM     30  H13 UNL     1      10.790  -7.921   6.327  1.00  0.00     0.275 HD
ATOM     31  H12 UNL     1       9.249  -8.050   6.336  1.00  0.00     0.275 HD
ATOM     32  H11 UNL     1       9.905  -6.587   6.867  1.00  0.00     0.275 HD
ENDBRANCH  24  29
ENDBRANCH  21  24
ENDBRANCH  19  20
ENDBRANCH  18  19
ENDBRANCH  17  18
ENDBRANCH   1  17
BRANCH   9  33
HETATM   33  C13 UNL     1       0.178  -2.756   3.323  1.00  0.00     0.227 C 
BRANCH  33  34
HETATM   34  N6  UNL     1       0.311  -1.306   3.425  1.00  0.00    -0.258 N 
HETATM   35  N7  UNL     1       1.134  -0.685   4.255  1.00  0.00    -0.128 N 
HETATM   36  C14 UNL     1       1.005   0.633   4.070  1.00  0.00     0.692 A 
ATOM     37  H7  UNL     1       1.761  -1.136   4.922  1.00  0.00     0.206 HD
HETATM   38  N9  UNL     1       0.088   0.813   3.113  1.00  0.00    -0.178 N 
HETATM   39  C15 UNL     1      -0.358  -0.398   2.695  1.00  0.00     0.118 A 
ATOM     40  H9  UNL     1      -0.224   1.715   2.755  1.00  0.00     0.185 HD
BRANCH  36  41
HETATM   41  N8  UNL     1       1.666   1.550   4.719  1.00  0.00    -0.233 N 
ATOM     42  H82 UNL     1       2.570   1.954   4.476  1.00  0.00     0.174 HD
ATOM     43  H81 UNL     1       1.355   1.998   5.582  1.00  0.00     0.174 HD
ENDBRANCH  36  41
BRANCH  39  44
HETATM   44  C16 UNL     1      -1.412  -0.628   1.635  1.00  0.00     0.047 C 
HETATM   45  C17 UNL     1      -1.469   0.499   0.653  1.00  0.00     0.017 C 
HETATM   46  C18 UNL     1      -2.761  -0.808   2.350  1.00  0.00     0.017 C 
ENDBRANCH  39  44
ENDBRANCH  33  34
ENDBRANCH   9  33
TORSDOF 12
ENDMDL
MODEL 3
REMARK VINA RESULT: -8.701693202      3.844      5.337
REMARK  12 active torsions:
REMARK  status: ('A' for Active; 'I' for Inactive)
REMARK    1  A    between atoms: C2_2  and  C3_3 
REMARK    2  A    between atoms: C3_3  and  C5_5 
REMARK    3  A    between atoms: C5_5  and  N1_6 
REMARK    4  A    between atoms: C5_5  and  C6_10 
REMARK       I    between atoms: C6_10  and  N2_12 
REMARK    5  A    between atoms: N2_12  and  C7_14 
REMARK    6  A    between atoms: C7_14  and  C8_15 
REMARK    7  A    between atoms: C8_15  and  N3_16 
REMARK    8  A    between atoms: N3_16  and  C9_17 
REMARK    9  A    between atoms: C12_25  and  C13_26 
REMARK   10  A    between atoms: C13_26  and  N6_27 
REMARK   11  A    between atoms: C14_30  and  N8_31 
REMARK   12  A    between atoms: C15_36  and  C16_37 
ROOT
HETATM    1  C9  UNL     1       2.599  -4.673   6.212  1.00  0.00     0.272 A 
HETATM    2  N4  UNL     1       2.365  -5.554   5.184  1.00  0.00    -0.279 N 
ATOM      3  H4  UNL     1       2.505  -6.550   5.354  1.00  0.00     0.173 HD
HETATM    4  C10 UNL     1       1.962  -5.165   3.973  1.00  0.00     0.295 A 
HETATM    5  O2  UNL     1       1.752  -5.984   3.043  1.00  0.00    -0.264 OA
HETATM    6  C11 UNL     1       1.764  -3.832   3.710  1.00  0.00     0.202 A 
HETATM    7  N5  UNL     1       1.362  -3.461   2.494  1.00  0.00    -0.324 N 
ATOM      8  H5  UNL     1       1.208  -4.168   1.774  1.00  0.00     0.169 HD
HETATM    9  C12 UNL     1       1.161  -2.170   2.212  1.00  0.00     0.107 A 
HETATM   10  N10 UNL     1       1.379  -1.290   3.186  1.00  0.00    -0.295 N 
ATOM     11  H10 UNL     1       1.233  -0.298   2.996  1.00  0.00     0.172 HD
HETATM   12  C19 UNL     1       1.782  -1.663   4.404  1.00  0.00     0.348 A 
HETATM   13  O3  UNL     1       1.994  -0.836   5.344  1.00  0.00    -0.245 OA
HETATM   14  N11 UNL     1       1.988  -2.961   4.704  1.00  0.00    -0.179 N 
HETATM   15  N12 UNL     1       2.385  -3.355   5.893  1.00  0.00    -0.247 N 
ATOM     16  H12 UNL     1       2.541  -2.649   6.613  1.00  0.00     0.192 HD
ENDROOT
BRANCH   1  17
HETATM   17  N3  UNL     1       2.952  -5.038   7.289  1.00  0.00    -0.413 NA
BRANCH  17  18
HETATM   18  C8  UNL     1       3.461  -5.323   8.497  1.00  0.00     0.241 C 
BRANCH  18  19
HETATM   19  C7  UNL     1       3.896  -6.801   8.665  1.00  0.00     0.156 C 
BRANCH  19  20
HETATM   20  N2  UNL     1       5.328  -6.826   8.481  1.00  0.00    -0.357 N 
HETATM   21  C6  UNL     1       6.304  -7.179   9.415  1.00  0.00     0.248 C 
HETATM   22  O1  UNL     1       5.979  -7.496  10.573  1.00  0.00    -0.271 OA
ATOM     23  H2  UNL     1       5.667  -6.553   7.559  1.00  0.00     0.162 HD
BRANCH  21  24
HETATM   24  C5  UNL     1       7.733  -7.184   9.059  1.00  0.00     0.278 C 
BRANCH  24  25
HETATM   25  C3  UNL     1       8.451  -8.376   9.627  1.00  0.00     0.021 C 
HETATM   26  C4  UNL     1       9.481  -8.991   8.748  1.00  0.00     0.012 C 
BRANCH  25  27
HETATM   27  C2  UNL     1       8.967  -8.215  11.011  1.00  0.00     0.002 C 
HETATM   28  C1  UNL     1      10.319  -8.954  11.074  1.00  0.00     0.005 C 
ENDBRANCH  25  27
ENDBRANCH  24  25
BRANCH  24  29
HETATM   29  N1  UNL     1       7.889  -7.137   7.632  1.00  0.00    -0.066 N 
ATOM     30  H13 UNL     1       8.800  -7.490   7.338  1.00  0.00     0.275 HD
ATOM     31  H12 UNL     1       7.301  -7.824   7.163  1.00  0.00     0.275 HD
ATOM     32  H11 UNL     1       7.719  -6.192   7.286  1.00  0.00     0.275 HD
ENDBRANCH  24  29
ENDBRANCH  21  24
ENDBRANCH  19  20
ENDBRANCH  18  19
ENDBRANCH  17  18
ENDBRANCH   1  17
BRANCH   9  33
HETATM   33  C13 UNL     1       0.717  -1.794   0.821  1.00  0.00     0.227 C 
BRANCH  33  34
HETATM   34  N6  UNL     1      -0.094  -0.581   0.855  1.00  0.00    -0.258 N 
HETATM   35  N7  UNL     1       0.367   0.636   0.614  1.00  0.00    -0.128 N 
HETATM   36  C14 UNL     1      -0.649   1.500   0.718  1.00  0.00     0.692 A 
ATOM     37  H7  UNL     1       1.332   0.874   0.386  1.00  0.00     0.206 HD
HETATM   38  N9  UNL     1      -1.741   0.794   1.028  1.00  0.00    -0.178 N 
HETATM   39  C15 UNL     1      -1.410  -0.518   1.118  1.00  0.00     0.118 A 
ATOM     40  H9  UNL     1      -2.674   1.181   1.174  1.00  0.00     0.185 HD
BRANCH  36  41
HETATM   41  N8  UNL     1      -0.559   2.789   0.543  1.00  0.00    -0.233 N 
ATOM     42  H82 UNL     1      -0.141   3.474   1.173  1.00  0.00     0.174 HD
ATOM     43  H81 UNL     1      -0.904   3.297  -0.272  1.00  0.00     0.174 HD
ENDBRANCH  36  41
BRANCH  39  44
HETATM   44  C16 UNL     1      -2.359  -1.643   1.466  1.00  0.00     0.047 C 
HETATM   45  C17 UNL     1      -3.106  -2.133   0.266  1.00  0.00     0.017 C 
HETATM   46  C18 UNL     1      -3.324  -1.121   2.543  1.00  0.00     0.017 C 
ENDBRANCH  39  44
ENDBRANCH  33  34
ENDBRANCH   9  33
TORSDOF 12
ENDMDL
MODEL 4
REMARK VINA RESULT: -8.645919327      1.289      2.228
REMARK  12 active torsions:
REMARK  status: ('A' for Active; 'I' for Inactive)
REMARK    1  A    between atoms: C2_2  and  C3_3 
REMARK    2  A    between atoms: C3_3  and  C5_5 
REMARK    3  A    between atoms: C5_5  and  N1_6 
REMARK    4  A    between atoms: C5_5  and  C6_10 
REMARK       I    between atoms: C6_10  and  N2_12 
REMARK    5  A    between atoms: N2_12  and  C7_14 
REMARK    6  A    between atoms: C7_14  and  C8_15 
REMARK    7  A    between atoms: C8_15  and  N3_16 
REMARK    8  A    between atoms: N3_16  and  C9_17 
REMARK    9  A    between atoms: C12_25  and  C13_26 
REMARK   10  A    between atoms: C13_26  and  N6_27 
REMARK   11  A    between atoms: C14_30  and  N8_31 
REMARK   12  A    between atoms: C15_36  and  C16_37 
ROOT
HETATM    1  C9  UNL     1       3.766  -6.068   7.014  1.00  0.00     0.272 A 
HETATM    2  N4  UNL     1       3.460  -7.314   6.523  1.00  0.00    -0.279 N 
ATOM      3  H4  UNL     1       3.587  -8.123   7.132  1.00  0.00     0.173 HD
HETATM    4  C10 UNL     1       3.004  -7.514   5.285  1.00  0.00     0.295 A 
HETATM    5  O2  UNL     1       2.728  -8.662   4.851  1.00  0.00    -0.264 OA
HETATM    6  C11 UNL     1       2.821  -6.448   4.440  1.00  0.00     0.202 A 
HETATM    7  N5  UNL     1       2.366  -6.667   3.206  1.00  0.00    -0.324 N 
ATOM      8  H5  UNL     1       2.160  -7.619   2.904  1.00  0.00     0.169 HD
HETATM    9  C12 UNL     1       2.178  -5.646   2.363  1.00  0.00     0.107 A 
HETATM   10  N10 UNL     1       2.465  -4.426   2.807  1.00  0.00    -0.295 N 
ATOM     11  H10 UNL     1       2.332  -3.630   2.183  1.00  0.00     0.172 HD
HETATM   12  C19 UNL     1       2.922  -4.208   4.044  1.00  0.00     0.348 A 
HETATM   13  O3  UNL     1       3.200  -3.050   4.483  1.00  0.00    -0.245 OA
HETATM   14  N11 UNL     1       3.115  -5.227   4.905  1.00  0.00    -0.179 N 
HETATM   15  N12 UNL     1       3.564  -5.041   6.127  1.00  0.00    -0.247 N 
ATOM     16  H12 UNL     1       3.772  -4.089   6.429  1.00  0.00     0.192 HD
ENDROOT
BRANCH   1  17
HETATM   17  N3  UNL     1       4.166  -5.906   8.124  1.00  0.00    -0.413 NA
BRANCH  17  18
HETATM   18  C8  UNL     1       4.686  -5.875   9.360  1.00  0.00     0.241 C 
BRANCH  18  19
HETATM   19  C7  UNL     1       5.431  -7.172   9.765  1.00  0.00     0.156 C 
BRANCH  19  20
HETATM   20  N2  UNL     1       6.781  -7.035   9.273  1.00  0.00    -0.357 N 
HETATM   21  C6  UNL     1       7.769  -8.021   9.203  1.00  0.00     0.248 C 
HETATM   22  O1  UNL     1       7.539  -9.170   9.618  1.00  0.00    -0.271 OA
ATOM     23  H2  UNL     1       7.046  -6.110   8.938  1.00  0.00     0.162 HD
BRANCH  21  24
HETATM   24  C5  UNL     1       9.099  -7.728   8.641  1.00  0.00     0.278 C 
BRANCH  24  25
HETATM   25  C3  UNL     1      10.084  -8.826   8.924  1.00  0.00     0.021 C 
HETATM   26  C4  UNL     1      10.608  -9.548   7.734  1.00  0.00     0.012 C 
BRANCH  25  27
HETATM   27  C2  UNL     1      11.187  -8.476   9.855  1.00  0.00     0.002 C 
HETATM   28  C1  UNL     1      10.754  -8.941  11.260  1.00  0.00     0.005 C 
ENDBRANCH  25  27
ENDBRANCH  24  25
BRANCH  24  29
HETATM   29  N1  UNL     1       9.000  -7.493   7.228  1.00  0.00    -0.066 N 
ATOM     30  H13 UNL     1       9.918  -7.399   6.794  1.00  0.00     0.275 HD
ATOM     31  H12 UNL     1       8.678  -8.321   6.727  1.00  0.00     0.275 HD
ATOM     32  H11 UNL     1       8.408  -6.683   7.041  1.00  0.00     0.275 HD
ENDBRANCH  24  29
ENDBRANCH  21  24
ENDBRANCH  19  20
ENDBRANCH  18  19
ENDBRANCH  17  18
ENDBRANCH   1  17
BRANCH   9  33
HETATM   33  C13 UNL     1       1.672  -5.940   0.973  1.00  0.00     0.227 C 
BRANCH  33  34
HETATM   34  N6  UNL     1       2.772  -6.346   0.105  1.00  0.00    -0.258 N 
HETATM   35  N7  UNL     1       3.309  -7.556   0.090  1.00  0.00    -0.128 N 
HETATM   36  C14 UNL     1       4.278  -7.576  -0.831  1.00  0.00     0.692 A 
ATOM     37  H7  UNL     1       3.030  -8.340   0.680  1.00  0.00     0.206 HD
HETATM   38  N9  UNL     1       4.330  -6.359  -1.381  1.00  0.00    -0.178 N 
HETATM   39  C15 UNL     1       3.388  -5.572  -0.804  1.00  0.00     0.118 A 
ATOM     40  H9  UNL     1       4.974  -6.069  -2.118  1.00  0.00     0.185 HD
BRANCH  36  41
HETATM   41  N8  UNL     1       5.020  -8.610  -1.117  1.00  0.00    -0.233 N 
ATOM     42  H82 UNL     1       4.717  -9.506  -1.498  1.00  0.00     0.174 HD
ATOM     43  H81 UNL     1       6.032  -8.659  -0.993  1.00  0.00     0.174 HD
ENDBRANCH  36  41
BRANCH  39  44
HETATM   44  C16 UNL     1       3.134  -4.119  -1.135  1.00  0.00     0.047 C 
HETATM   45  C17 UNL     1       2.072  -3.962  -2.177  1.00  0.00     0.017 C 
HETATM   46  C18 UNL     1       4.464  -3.508  -1.605  1.00  0.00     0.017 C 
ENDBRANCH  39  44
ENDBRANCH  33  34
ENDBRANCH   9  33
TORSDOF 12
ENDMDL
MODEL 5
REMARK VINA RESULT: -8.488318459      3.917      5.558
REMARK  12 active torsions:
REMARK  status: ('A' for Active; 'I' for Inactive)
REMARK    1  A    between atoms: C2_2  and  C3_3 
REMARK    2  A    between atoms: C3_3  and  C5_5 
REMARK    3  A    between atoms: C5_5  and  N1_6 
REMARK    4  A    between atoms: C5_5  and  C6_10 
REMARK       I    between atoms: C6_10  and  N2_12 
REMARK    5  A    between atoms: N2_12  and  C7_14 
REMARK    6  A    between atoms: C7_14  and  C8_15 
REMARK    7  A    between atoms: C8_15  and  N3_16 
REMARK    8  A    between atoms: N3_16  and  C9_17 
REMARK    9  A    between atoms: C12_25  and  C13_26 
REMARK   10  A    between atoms: C13_26  and  N6_27 
REMARK   11  A    between atoms: C14_30  and  N8_31 
REMARK   12  A    between atoms: C15_36  and  C16_37 
ROOT
HETATM    1  C9  UNL     1       3.244  -4.798   4.562  1.00  0.00     0.272 A 
HETATM    2  N4  UNL     1       2.787  -5.252   3.348  1.00  0.00    -0.279 N 
ATOM      3  H4  UNL     1       3.065  -6.184   3.040  1.00  0.00     0.173 HD
HETATM    4  C10 UNL     1       1.996  -4.528   2.555  1.00  0.00     0.295 A 
HETATM    5  O2  UNL     1       1.586  -4.958   1.447  1.00  0.00    -0.264 OA
HETATM    6  C11 UNL     1       1.603  -3.270   2.940  1.00  0.00     0.202 A 
HETATM    7  N5  UNL     1       0.812  -2.560   2.134  1.00  0.00    -0.324 N 
ATOM      8  H5  UNL     1       0.510  -2.956   1.244  1.00  0.00     0.169 HD
HETATM    9  C12 UNL     1       0.414  -1.333   2.485  1.00  0.00     0.107 A 
HETATM   10  N10 UNL     1       0.839  -0.864   3.655  1.00  0.00    -0.295 N 
ATOM     11  H10 UNL     1       0.551   0.071   3.946  1.00  0.00     0.172 HD
HETATM   12  C19 UNL     1       1.632  -1.576   4.462  1.00  0.00     0.348 A 
HETATM   13  O3  UNL     1       2.046  -1.143   5.581  1.00  0.00    -0.245 OA
HETATM   14  N11 UNL     1       2.041  -2.815   4.122  1.00  0.00    -0.179 N 
HETATM   15  N12 UNL     1       2.821  -3.536   4.896  1.00  0.00    -0.247 N 
ATOM     16  H12 UNL     1       3.125  -3.140   5.785  1.00  0.00     0.192 HD
ENDROOT
BRANCH   1  17
HETATM   17  N3  UNL     1       3.946  -5.460   5.261  1.00  0.00    -0.413 NA
BRANCH  17  18
HETATM   18  C8  UNL     1       4.681  -6.337   5.962  1.00  0.00     0.241 C 
BRANCH  18  19
HETATM   19  C7  UNL     1       4.600  -6.144   7.497  1.00  0.00     0.156 C 
BRANCH  19  20
HETATM   20  N2  UNL     1       5.939  -6.333   8.001  1.00  0.00    -0.357 N 
HETATM   21  C6  UNL     1       6.322  -6.683   9.298  1.00  0.00     0.248 C 
HETATM   22  O1  UNL     1       5.465  -6.841  10.185  1.00  0.00    -0.271 OA
ATOM     23  H2  UNL     1       6.695  -6.195   7.331  1.00  0.00     0.162 HD
BRANCH  21  24
HETATM   24  C5  UNL     1       7.741  -6.870   9.649  1.00  0.00     0.278 C 
BRANCH  24  25
HETATM   25  C3  UNL     1       7.924  -7.914  10.714  1.00  0.00     0.021 C 
HETATM   26  C4  UNL     1       7.628  -9.313  10.307  1.00  0.00     0.012 C 
BRANCH  25  27
HETATM   27  C2  UNL     1       9.202  -7.845  11.468  1.00  0.00     0.002 C 
HETATM   28  C1  UNL     1       9.912  -9.200  11.275  1.00  0.00     0.005 C 
ENDBRANCH  25  27
ENDBRANCH  24  25
BRANCH  24  29
HETATM   29  N1  UNL     1       8.501  -7.207   8.478  1.00  0.00    -0.066 N 
ATOM     30  H13 UNL     1       9.458  -6.857   8.534  1.00  0.00     0.275 HD
ATOM     31  H12 UNL     1       8.706  -8.205   8.433  1.00  0.00     0.275 HD
ATOM     32  H11 UNL     1       8.026  -6.879   7.637  1.00  0.00     0.275 HD
ENDBRANCH  24  29
ENDBRANCH  21  24
ENDBRANCH  19  20
ENDBRANCH  18  19
ENDBRANCH  17  18
ENDBRANCH   1  17
BRANCH   9  33
HETATM   33  C13 UNL     1      -0.471  -0.562   1.539  1.00  0.00     0.227 C 
BRANCH  33  34
HETATM   34  N6  UNL     1      -1.852  -1.022   1.644  1.00  0.00    -0.258 N 
HETATM   35  N7  UNL     1      -2.644  -0.786   2.678  1.00  0.00    -0.128 N 
HETATM   36  C14 UNL     1      -3.836  -1.341   2.430  1.00  0.00     0.692 A 
ATOM     37  H7  UNL     1      -2.390  -0.269   3.519  1.00  0.00     0.206 HD
HETATM   38  N9  UNL     1      -3.763  -1.922   1.228  1.00  0.00    -0.178 N 
HETATM   39  C15 UNL     1      -2.520  -1.731   0.719  1.00  0.00     0.118 A 
ATOM     40  H9  UNL     1      -4.520  -2.428   0.768  1.00  0.00     0.185 HD
BRANCH  36  41
HETATM   41  N8  UNL     1      -4.862  -1.304   3.233  1.00  0.00    -0.233 N 
ATOM     42  H82 UNL     1      -5.135  -0.545   3.859  1.00  0.00     0.174 HD
ATOM     43  H81 UNL     1      -5.549  -2.051   3.345  1.00  0.00     0.174 HD
ENDBRANCH  36  41
BRANCH  39  44
HETATM   44  C16 UNL     1      -2.028  -2.247  -0.614  1.00  0.00     0.047 C 
HETATM   45  C17 UNL     1      -2.028  -1.177  -1.660  1.00  0.00     0.017 C 
HETATM   46  C18 UNL     1      -2.933  -3.420  -1.023  1.00  0.00     0.017 C 
ENDBRANCH  39  44
ENDBRANCH  33  34
ENDBRANCH   9  33
TORSDOF 12
ENDMDL
