MODEL 1
REMARK VINA RESULT: -8.195542848      0.000      0.000
REMARK  9 active torsions:
REMARK  status: ('A' for Active; 'I' for Inactive)
REMARK    1  A    between atoms: C2_2  and  C3_3 
REMARK    2  A    between atoms: C3_3  and  C4_4 
REMARK    3  A    between atoms: C4_4  and  N1_5 
REMARK    4  A    between atoms: C4_4  and  C13_20 
REMARK    5  A    between atoms: N1_5  and  C5_7 
REMARK    6  A    between atoms: C5_7  and  O1_8 
REMARK    7  A    between atoms: C5_7  and  C6_10 
REMARK       I    between atoms: N2_14  and  C10_15 
REMARK    8  A    between atoms: C10_15  and  O3_17 
REMARK       I    between atoms: C13_20  and  N3_22 
REMARK    9  A    between atoms: N3_22  and  C14_24 
ROOT
HETATM    1  N1  UNL     1       6.921  -7.040   8.912  1.00  0.00    -0.384 N 
ATOM      2  H1  UNL     1       6.784  -6.348   9.649  1.00  0.00     0.156 HD
ENDROOT
BRANCH   1   3
HETATM    3  C4  UNL     1       7.604  -8.215   9.233  1.00  0.00     0.174 C 
BRANCH   3   4
HETATM    4  C3  UNL     1       7.759  -8.467  10.723  1.00  0.00     0.060 C 
BRANCH   4   5
HETATM    5  C2  UNL     1       8.895  -7.655  11.274  1.00  0.00    -0.034 C 
HETATM    6  C1  UNL     1      10.002  -8.230  11.733  1.00  0.00     0.007 C 
ENDBRANCH   4   5
ENDBRANCH   3   4
BRANCH   3   7
HETATM    7  C13 UNL     1       8.924  -8.361   8.532  1.00  0.00     0.241 C 
HETATM    8  O4  UNL     1       9.411  -7.430   7.845  1.00  0.00    -0.271 OA
HETATM    9  N3  UNL     1       9.686  -9.561   8.614  1.00  0.00    -0.351 N 
ATOM     10  H3  UNL     1       9.308 -10.330   9.168  1.00  0.00     0.163 HD
BRANCH   9  11
HETATM   11  C14 UNL     1      10.945  -9.757   7.969  1.00  0.00     0.022 C 
HETATM   12  C15 UNL     1      11.959  -8.672   8.243  1.00  0.00     0.037 C 
HETATM   13  C16 UNL     1      10.724  -9.833   6.454  1.00  0.00     0.037 C 
HETATM   14  C17 UNL     1      11.605 -11.069   8.402  1.00  0.00     0.037 C 
ENDBRANCH   9  11
ENDBRANCH   3   7
ENDBRANCH   1   3
BRANCH   1  15
HETATM   15  C5  UNL     1       6.421  -6.759   7.659  1.00  0.00     0.219 C 
BRANCH  15  16
HETATM   16  O1  UNL     1       6.881  -5.695   6.943  1.00  0.00    -0.377 OA
ATOM     17  H1  UNL     1       7.625  -5.784   6.359  1.00  0.00     0.212 HD
ENDBRANCH  15  16
BRANCH  15  18
HETATM   18  C6  UNL     1       4.894  -6.547   7.780  1.00  0.00     0.052 C 
HETATM   19  C7  UNL     1       4.576  -5.936   9.101  1.00  0.00     0.012 C 
HETATM   20  C8  UNL     1       3.285  -5.208   9.116  1.00  0.00     0.020 C 
HETATM   21  C9  UNL     1       2.408  -5.412   7.908  1.00  0.00     0.128 C 
HETATM   22  N2  UNL     1       3.142  -5.390   6.676  1.00  0.00    -0.328 N 
HETATM   23  C10 UNL     1       2.455  -5.226   5.456  1.00  0.00     0.362 C 
HETATM   24  C12 UNL     1       4.574  -5.534   6.690  1.00  0.00     0.137 C 
HETATM   25  O2  UNL     1       1.190  -5.095   5.446  1.00  0.00    -0.238 OA
BRANCH  23  26
HETATM   26  O3  UNL     1       3.096  -5.196   4.222  1.00  0.00    -0.309 OA
HETATM   27  C11 UNL     1       3.235  -3.966   3.514  1.00  0.00     0.215 C 
ENDBRANCH  23  26
ENDBRANCH  15  18
ENDBRANCH   1  15
TORSDOF 9
ENDMDL
MODEL 2
REMARK VINA RESULT: -7.955954699      2.079      4.502
REMARK  9 active torsions:
REMARK  status: ('A' for Active; 'I' for Inactive)
REMARK    1  A    between atoms: C2_2  and  C3_3 
REMARK    2  A    between atoms: C3_3  and  C4_4 
REMARK    3  A    between atoms: C4_4  and  N1_5 
REMARK    4  A    between atoms: C4_4  and  C13_20 
REMARK    5  A    between atoms: N1_5  and  C5_7 
REMARK    6  A    between atoms: C5_7  and  O1_8 
REMARK    7  A    between atoms: C5_7  and  C6_10 
REMARK       I    between atoms: N2_14  and  C10_15 
REMARK    8  A    between atoms: C10_15  and  O3_17 
REMARK       I    between atoms: C13_20  and  N3_22 
REMARK    9  A    between atoms: N3_22  and  C14_24 
ROOT
HETATM    1  N1  UNL     1       9.629  -9.311   7.197  1.00  0.00    -0.384 N 
ATOM      2  H1  UNL     1       8.955 -10.076   7.175  1.00  0.00     0.156 HD
ENDROOT
BRANCH   1   3
HETATM    3  C4  UNL     1      10.989  -9.633   7.196  1.00  0.00     0.174 C 
BRANCH   3   4
HETATM    4  C3  UNL     1      11.336 -10.901   6.435  1.00  0.00     0.060 C 
BRANCH   4   5
HETATM    5  C2  UNL     1      10.646 -10.915   5.103  1.00  0.00    -0.034 C 
HETATM    6  C1  UNL     1      11.092 -11.659   4.096  1.00  0.00     0.007 C 
ENDBRANCH   4   5
ENDBRANCH   3   4
BRANCH   3   7
HETATM    7  C13 UNL     1      11.609  -9.651   8.563  1.00  0.00     0.241 C 
HETATM    8  O4  UNL     1      11.660 -10.700   9.250  1.00  0.00    -0.271 OA
HETATM    9  N3  UNL     1      12.169  -8.478   9.147  1.00  0.00    -0.351 N 
ATOM     10  H3  UNL     1      12.139  -7.614   8.605  1.00  0.00     0.163 HD
BRANCH   9  11
HETATM   11  C14 UNL     1      12.770  -8.435  10.441  1.00  0.00     0.022 C 
HETATM   12  C15 UNL     1      13.727  -9.570  10.720  1.00  0.00     0.037 C 
HETATM   13  C16 UNL     1      11.667  -8.467  11.505  1.00  0.00     0.037 C 
HETATM   14  C17 UNL     1      13.572  -7.147  10.651  1.00  0.00     0.037 C 
ENDBRANCH   9  11
ENDBRANCH   3   7
ENDBRANCH   1   3
BRANCH   1  15
HETATM   15  C5  UNL     1       9.145  -8.021   7.225  1.00  0.00     0.219 C 
BRANCH  15  16
HETATM   16  O1  UNL     1       9.966  -6.971   7.508  1.00  0.00    -0.377 OA
ATOM     17  H1  UNL     1       9.955  -6.559   8.364  1.00  0.00     0.212 HD
ENDBRANCH  15  16
BRANCH  15  18
HETATM   18  C6  UNL     1       8.007  -7.950   8.269  1.00  0.00     0.052 C 
HETATM   19  C7  UNL     1       8.588  -7.839   9.636  1.00  0.00     0.012 C 
HETATM   20  C8  UNL     1       7.660  -7.235  10.621  1.00  0.00     0.020 C 
HETATM   21  C9  UNL     1       6.236  -7.069  10.159  1.00  0.00     0.128 C 
HETATM   22  N2  UNL     1       6.140  -6.591   8.810  1.00  0.00    -0.328 N 
HETATM   23  C10 UNL     1       4.919  -6.065   8.341  1.00  0.00     0.362 C 
HETATM   24  C12 UNL     1       7.288  -6.649   7.943  1.00  0.00     0.137 C 
HETATM   25  O2  UNL     1       3.907  -6.012   9.109  1.00  0.00    -0.238 OA
BRANCH  23  26
HETATM   26  O3  UNL     1       4.747  -5.584   7.047  1.00  0.00    -0.309 OA
HETATM   27  C11 UNL     1       3.619  -5.989   6.273  1.00  0.00     0.215 C 
ENDBRANCH  23  26
ENDBRANCH  15  18
ENDBRANCH   1  15
TORSDOF 9
ENDMDL
MODEL 3
REMARK VINA RESULT: -7.560108675      3.477      7.990
REMARK  9 active torsions:
REMARK  status: ('A' for Active; 'I' for Inactive)
REMARK    1  A    between atoms: C2_2  and  C3_3 
REMARK    2  A    between atoms: C3_3  and  C4_4 
REMARK    3  A    between atoms: C4_4  and  N1_5 
REMARK    4  A    between atoms: C4_4  and  C13_20 
REMARK    5  A    between atoms: N1_5  and  C5_7 
REMARK    6  A    between atoms: C5_7  and  O1_8 
REMARK    7  A    between atoms: C5_7  and  C6_10 
REMARK       I    between atoms: N2_14  and  C10_15 
REMARK    8  A    between atoms: C10_15  and  O3_17 
REMARK       I    between atoms: C13_20  and  N3_22 
REMARK    9  A    between atoms: N3_22  and  C14_24 
ROOT
HETATM    1  N1  UNL     1       2.990  -6.246   4.466  1.00  0.00    -0.384 N 
ATOM      2  H1  UNL     1       3.820  -6.817   4.624  1.00  0.00     0.156 HD
ENDROOT
BRANCH   1   3
HETATM    3  C4  UNL     1       1.896  -6.839   3.832  1.00  0.00     0.174 C 
BRANCH   3   4
HETATM    4  C3  UNL     1       0.550  -6.250   4.216  1.00  0.00     0.060 C 
BRANCH   4   5
HETATM    5  C2  UNL     1      -0.055  -5.526   3.049  1.00  0.00    -0.034 C 
HETATM    6  C1  UNL     1      -0.262  -4.213   3.075  1.00  0.00     0.007 C 
ENDBRANCH   4   5
ENDBRANCH   3   4
BRANCH   3   7
HETATM    7  C13 UNL     1       1.868  -8.336   3.943  1.00  0.00     0.241 C 
HETATM    8  O4  UNL     1       2.676  -8.958   4.674  1.00  0.00    -0.271 OA
HETATM    9  N3  UNL     1       0.922  -9.122   3.224  1.00  0.00    -0.351 N 
ATOM     10  H3  UNL     1       0.255  -8.637   2.624  1.00  0.00     0.163 HD
BRANCH   9  11
HETATM   11  C14 UNL     1       0.849 -10.547   3.289  1.00  0.00     0.022 C 
HETATM   12  C15 UNL     1       2.157 -11.250   3.010  1.00  0.00     0.037 C 
HETATM   13  C16 UNL     1      -0.185 -11.040   2.270  1.00  0.00     0.037 C 
HETATM   14  C17 UNL     1       0.398 -11.029   4.671  1.00  0.00     0.037 C 
ENDBRANCH   9  11
ENDBRANCH   3   7
ENDBRANCH   1   3
BRANCH   1  15
HETATM   15  C5  UNL     1       3.015  -4.935   4.890  1.00  0.00     0.219 C 
BRANCH  15  16
HETATM   16  O1  UNL     1       3.887  -4.039   4.348  1.00  0.00    -0.377 OA
ATOM     17  H1  UNL     1       4.023  -3.187   4.745  1.00  0.00     0.212 HD
ENDBRANCH  15  16
BRANCH  15  18
HETATM   18  C6  UNL     1       3.298  -4.920   6.410  1.00  0.00     0.052 C 
HETATM   19  C7  UNL     1       2.042  -5.211   7.157  1.00  0.00     0.012 C 
HETATM   20  C8  UNL     1       2.278  -5.747   8.518  1.00  0.00     0.020 C 
HETATM   21  C9  UNL     1       3.700  -5.675   9.009  1.00  0.00     0.128 C 
HETATM   22  N2  UNL     1       4.656  -6.036   8.002  1.00  0.00    -0.328 N 
HETATM   23  C10 UNL     1       5.979  -6.348   8.376  1.00  0.00     0.362 C 
HETATM   24  C12 UNL     1       4.262  -6.079   6.619  1.00  0.00     0.137 C 
HETATM   25  O2  UNL     1       6.324  -6.312   9.599  1.00  0.00    -0.238 OA
BRANCH  23  26
HETATM   26  O3  UNL     1       6.963  -6.705   7.459  1.00  0.00    -0.309 OA
HETATM   27  C11 UNL     1       8.222  -7.198   7.912  1.00  0.00     0.215 C 
ENDBRANCH  23  26
ENDBRANCH  15  18
ENDBRANCH   1  15
TORSDOF 9
ENDMDL
MODEL 4
REMARK VINA RESULT: -7.484829275      2.835      8.368
REMARK  9 active torsions:
REMARK  status: ('A' for Active; 'I' for Inactive)
REMARK    1  A    between atoms: C2_2  and  C3_3 
REMARK    2  A    between atoms: C3_3  and  C4_4 
REMARK    3  A    between atoms: C4_4  and  N1_5 
REMARK    4  A    between atoms: C4_4  and  C13_20 
REMARK    5  A    between atoms: N1_5  and  C5_7 
REMARK    6  A    between atoms: C5_7  and  O1_8 
REMARK    7  A    between atoms: C5_7  and  C6_10 
REMARK       I    between atoms: N2_14  and  C10_15 
REMARK    8  A    between atoms: C10_15  and  O3_17 
REMARK       I    between atoms: C13_20  and  N3_22 
REMARK    9  A    between atoms: N3_22  and  C14_24 
ROOT
HETATM    1  N1  UNL     1       3.398  -6.640   4.926  1.00  0.00    -0.384 N 
ATOM      2  H1  UNL     1       4.300  -7.098   4.798  1.00  0.00     0.156 HD
ENDROOT
BRANCH   1   3
HETATM    3  C4  UNL     1       2.244  -7.365   4.618  1.00  0.00     0.174 C 
BRANCH   3   4
HETATM    4  C3  UNL     1       2.494  -8.653   3.854  1.00  0.00     0.060 C 
BRANCH   4   5
HETATM    5  C2  UNL     1       1.455  -9.678   4.205  1.00  0.00    -0.034 C 
HETATM    6  C1  UNL     1       1.776 -10.812   4.819  1.00  0.00     0.007 C 
ENDBRANCH   4   5
ENDBRANCH   3   4
BRANCH   3   7
HETATM    7  C13 UNL     1       1.177  -6.550   3.946  1.00  0.00     0.241 C 
HETATM    8  O4  UNL     1       0.072  -6.328   4.498  1.00  0.00    -0.271 OA
HETATM    9  N3  UNL     1       1.368  -5.990   2.650  1.00  0.00    -0.351 N 
ATOM     10  H3  UNL     1       2.260  -6.158   2.184  1.00  0.00     0.163 HD
BRANCH   9  11
HETATM   11  C14 UNL     1       0.391  -5.209   1.962  1.00  0.00     0.022 C 
HETATM   12  C15 UNL     1      -0.309  -4.187   2.826  1.00  0.00     0.037 C 
HETATM   13  C16 UNL     1      -0.671  -6.144   1.373  1.00  0.00     0.037 C 
HETATM   14  C17 UNL     1       1.008  -4.425   0.799  1.00  0.00     0.037 C 
ENDBRANCH   9  11
ENDBRANCH   3   7
ENDBRANCH   1   3
BRANCH   1  15
HETATM   15  C5  UNL     1       3.390  -5.344   5.392  1.00  0.00     0.219 C 
BRANCH  15  16
HETATM   16  O1  UNL     1       4.171  -4.387   4.816  1.00  0.00    -0.377 OA
ATOM     17  H1  UNL     1       4.751  -4.599   4.094  1.00  0.00     0.212 HD
ENDBRANCH  15  16
BRANCH  15  18
HETATM   18  C6  UNL     1       3.789  -5.359   6.885  1.00  0.00     0.052 C 
HETATM   19  C7  UNL     1       2.647  -5.855   7.704  1.00  0.00     0.012 C 
HETATM   20  C8  UNL     1       3.061  -6.416   9.012  1.00  0.00     0.020 C 
HETATM   21  C9  UNL     1       4.495  -6.171   9.401  1.00  0.00     0.128 C 
HETATM   22  N2  UNL     1       5.408  -6.349   8.309  1.00  0.00    -0.328 N 
HETATM   23  C10 UNL     1       6.786  -6.492   8.567  1.00  0.00     0.362 C 
HETATM   24  C12 UNL     1       4.913  -6.382   6.957  1.00  0.00     0.137 C 
HETATM   25  O2  UNL     1       7.220  -6.466   9.761  1.00  0.00    -0.238 OA
BRANCH  23  26
HETATM   26  O3  UNL     1       7.732  -6.667   7.562  1.00  0.00    -0.309 OA
HETATM   27  C11 UNL     1       8.949  -7.360   7.833  1.00  0.00     0.215 C 
ENDBRANCH  23  26
ENDBRANCH  15  18
ENDBRANCH   1  15
TORSDOF 9
ENDMDL
MODEL 5
REMARK VINA RESULT: -7.476687124      1.671      7.874
REMARK  9 active torsions:
REMARK  status: ('A' for Active; 'I' for Inactive)
REMARK    1  A    between atoms: C2_2  and  C3_3 
REMARK    2  A    between atoms: C3_3  and  C4_4 
REMARK    3  A    between atoms: C4_4  and  N1_5 
REMARK    4  A    between atoms: C4_4  and  C13_20 
REMARK    5  A    between atoms: N1_5  and  C5_7 
REMARK    6  A    between atoms: C5_7  and  O1_8 
REMARK    7  A    between atoms: C5_7  and  C6_10 
REMARK       I    between atoms: N2_14  and  C10_15 
REMARK    8  A    between atoms: C10_15  and  O3_17 
REMARK       I    between atoms: C13_20  and  N3_22 
REMARK    9  A    between atoms: N3_22  and  C14_24 
ROOT
HETATM    1  N1  UNL     1       6.216  -6.721   7.938  1.00  0.00    -0.384 N 
ATOM      2  H1  UNL     1       5.883  -7.681   8.026  1.00  0.00     0.156 HD
ENDROOT
BRANCH   1   3
HETATM    3  C4  UNL     1       5.264  -5.705   7.823  1.00  0.00     0.174 C 
BRANCH   3   4
HETATM    4  C3  UNL     1       4.299  -5.611   8.992  1.00  0.00     0.060 C 
BRANCH   4   5
HETATM    5  C2  UNL     1       3.568  -6.909   9.170  1.00  0.00    -0.034 C 
HETATM    6  C1  UNL     1       2.251  -6.995   9.008  1.00  0.00     0.007 C 
ENDBRANCH   4   5
ENDBRANCH   3   4
BRANCH   3   7
HETATM    7  C13 UNL     1       4.517  -5.716   6.521  1.00  0.00     0.241 C 
HETATM    8  O4  UNL     1       4.868  -6.452   5.567  1.00  0.00    -0.271 OA
HETATM    9  N3  UNL     1       3.374  -4.893   6.307  1.00  0.00    -0.351 N 
ATOM     10  H3  UNL     1       3.071  -4.288   7.070  1.00  0.00     0.163 HD
BRANCH   9  11
HETATM   11  C14 UNL     1       2.626  -4.861   5.091  1.00  0.00     0.022 C 
HETATM   12  C15 UNL     1       3.326  -4.162   3.949  1.00  0.00     0.037 C 
HETATM   13  C16 UNL     1       1.294  -4.146   5.344  1.00  0.00     0.037 C 
HETATM   14  C17 UNL     1       2.302  -6.270   4.587  1.00  0.00     0.037 C 
ENDBRANCH   9  11
ENDBRANCH   3   7
ENDBRANCH   1   3
BRANCH   1  15
HETATM   15  C5  UNL     1       7.576  -6.503   7.938  1.00  0.00     0.219 C 
BRANCH  15  16
HETATM   16  O1  UNL     1       8.378  -7.072   6.994  1.00  0.00    -0.377 OA
ATOM     17  H1  UNL     1       9.282  -7.289   7.187  1.00  0.00     0.212 HD
ENDBRANCH  15  16
BRANCH  15  18
HETATM   18  C6  UNL     1       8.144  -6.970   9.298  1.00  0.00     0.052 C 
HETATM   19  C7  UNL     1       7.134  -7.810  10.001  1.00  0.00     0.012 C 
HETATM   20  C8  UNL     1       7.728  -8.728  11.003  1.00  0.00     0.020 C 
HETATM   21  C9  UNL     1       9.180  -8.492  11.323  1.00  0.00     0.128 C 
HETATM   22  N2  UNL     1       9.970  -8.217  10.157  1.00  0.00    -0.328 N 
HETATM   23  C10 UNL     1      11.375  -8.309  10.228  1.00  0.00     0.362 C 
HETATM   24  C12 UNL     1       9.327  -7.851   8.922  1.00  0.00     0.137 C 
HETATM   25  O2  UNL     1      11.941  -8.635  11.319  1.00  0.00    -0.238 OA
BRANCH  23  26
HETATM   26  O3  UNL     1      12.208  -8.056   9.143  1.00  0.00    -0.309 OA
HETATM   27  C11 UNL     1      12.709  -9.135   8.355  1.00  0.00     0.215 C 
ENDBRANCH  23  26
ENDBRANCH  15  18
ENDBRANCH   1  15
TORSDOF 9
ENDMDL
