MODEL 1
REMARK VINA RESULT: -7.679773933      0.000      0.000
REMARK  9 active torsions:
REMARK  status: ('A' for Active; 'I' for Inactive)
REMARK    1  A    between atoms: C2_2  and  C3_3 
REMARK    2  A    between atoms: C3_3  and  C4_4 
REMARK    3  A    between atoms: C4_4  and  N1_5 
REMARK    4  A    between atoms: N1_5  and  C5_7 
REMARK    5  A    between atoms: C5_7  and  C6_8 
REMARK    6  A    between atoms: C6_8  and  N2_9 
REMARK    7  A    between atoms: N3_12  and  C9_13 
REMARK    8  A    between atoms: C9_13  and  C11_15 
REMARK    9  A    between atoms: C11_15  and  O1_16 
ROOT
HETATM    1  C5  UNL     1       8.157  -7.234   8.999  1.00  0.00     0.077 C 
HETATM    2  C14 UNL     1       8.463  -6.980  10.530  1.00  0.00     0.061 C 
HETATM    3  C15 UNL     1       7.405  -7.820  11.172  1.00  0.00     0.235 C 
HETATM    4  N4  UNL     1       7.519  -9.055  10.431  1.00  0.00    -0.073 N 
ATOM      5  H41 UNL     1       6.778  -9.727  10.625  1.00  0.00     0.277 HD
ATOM      6  H42 UNL     1       8.293  -9.649  10.729  1.00  0.00     0.277 HD
HETATM    7  C16 UNL     1       7.591  -8.649   9.075  1.00  0.00     0.264 C 
ENDROOT
BRANCH   1   8
HETATM    8  N1  UNL     1       9.371  -7.311   8.328  1.00  0.00    -0.407 N 
ATOM      9  H1  UNL     1       9.414  -7.014   7.353  1.00  0.00     0.154 HD
BRANCH   8  10
HETATM   10  C4  UNL     1      10.537  -7.782   8.943  1.00  0.00     0.152 C 
BRANCH  10  11
HETATM   11  C3  UNL     1      11.150  -8.901   8.086  1.00  0.00     0.076 A 
HETATM   12  C17 UNL     1      10.905 -10.252   8.645  1.00  0.00     0.042 A 
HETATM   13  C18 UNL     1      12.271 -10.826   8.913  1.00  0.00     0.029 A 
HETATM   14  C19 UNL     1      13.205  -9.745   8.499  1.00  0.00     0.169 A 
HETATM   15  O2  UNL     1      12.523  -8.659   8.047  1.00  0.00    -0.379 OA
BRANCH  11  16
HETATM   16  C2  UNL     1      10.629  -8.719   6.684  1.00  0.00     0.035 C 
HETATM   17  C1  UNL     1      10.520 -10.041   5.955  1.00  0.00     0.008 C 
ENDBRANCH  11  16
ENDBRANCH  10  11
ENDBRANCH   8  10
ENDBRANCH   1   8
BRANCH   1  18
HETATM   18  C6  UNL     1       7.120  -6.241   8.687  1.00  0.00     0.304 C 
BRANCH  18  19
HETATM   19  N2  UNL     1       5.890  -6.689   8.095  1.00  0.00     0.094 N 
HETATM   20  C7  UNL     1       4.767  -5.916   8.704  1.00  0.00     0.302 C 
HETATM   21  C8  UNL     1       3.504  -6.584   8.183  1.00  0.00     0.303 C 
HETATM   22  N3  UNL     1       3.372  -6.170   6.796  1.00  0.00     0.098 N 
HETATM   23  C12 UNL     1       4.552  -5.548   6.325  1.00  0.00     0.303 C 
HETATM   24  C13 UNL     1       5.831  -6.256   6.688  1.00  0.00     0.302 C 
BRANCH  22  25
HETATM   25  C9  UNL     1       2.181  -5.431   6.559  1.00  0.00     0.242 C 
HETATM   26  C10 UNL     1       1.443  -4.988   7.803  1.00  0.00     0.045 C 
BRANCH  25  27
HETATM   27  C11 UNL     1       2.462  -4.245   5.669  1.00  0.00     0.199 C 
BRANCH  27  28
HETATM   28  O1  UNL     1       1.599  -3.176   6.018  1.00  0.00    -0.399 OA
ATOM     29  H1  UNL     1       0.698  -3.479   6.011  1.00  0.00     0.209 HD
ENDBRANCH  27  28
ENDBRANCH  25  27
ENDBRANCH  22  25
ENDBRANCH  18  19
ENDBRANCH   1  18
TORSDOF 9
ENDMDL
MODEL 2
REMARK VINA RESULT: -7.537940017      2.877      8.887
REMARK  9 active torsions:
REMARK  status: ('A' for Active; 'I' for Inactive)
REMARK    1  A    between atoms: C2_2  and  C3_3 
REMARK    2  A    between atoms: C3_3  and  C4_4 
REMARK    3  A    between atoms: C4_4  and  N1_5 
REMARK    4  A    between atoms: N1_5  and  C5_7 
REMARK    5  A    between atoms: C5_7  and  C6_8 
REMARK    6  A    between atoms: C6_8  and  N2_9 
REMARK    7  A    between atoms: N3_12  and  C9_13 
REMARK    8  A    between atoms: C9_13  and  C11_15 
REMARK    9  A    between atoms: C11_15  and  O1_16 
ROOT
HETATM    1  C5  UNL     1       2.678  -5.404   5.382  1.00  0.00     0.077 C 
HETATM    2  C14 UNL     1       1.144  -5.769   5.497  1.00  0.00     0.061 C 
HETATM    3  C15 UNL     1       0.741  -4.925   6.665  1.00  0.00     0.235 C 
HETATM    4  N4  UNL     1       1.335  -3.652   6.327  1.00  0.00    -0.073 N 
ATOM      5  H41 UNL     1       1.292  -2.961   7.076  1.00  0.00     0.277 HD
ATOM      6  H42 UNL     1       0.803  -3.113   5.644  1.00  0.00     0.277 HD
HETATM    7  C16 UNL     1       2.650  -3.974   5.911  1.00  0.00     0.264 C 
ENDROOT
BRANCH   1   8
HETATM    8  N1  UNL     1       3.002  -5.339   4.033  1.00  0.00    -0.407 N 
ATOM      9  H1  UNL     1       3.184  -6.206   3.528  1.00  0.00     0.154 HD
BRANCH   8  10
HETATM   10  C4  UNL     1       3.088  -4.124   3.343  1.00  0.00     0.152 C 
BRANCH  10  11
HETATM   11  C3  UNL     1       2.102  -4.135   2.164  1.00  0.00     0.076 A 
HETATM   12  C17 UNL     1       1.657  -5.502   1.801  1.00  0.00     0.042 A 
HETATM   13  C18 UNL     1       2.096  -5.697   0.373  1.00  0.00     0.029 A 
HETATM   14  C19 UNL     1       2.781  -4.421   0.028  1.00  0.00     0.169 A 
HETATM   15  O2  UNL     1       2.774  -3.565   1.083  1.00  0.00    -0.379 OA
BRANCH  11  16
HETATM   16  C2  UNL     1       0.973  -3.204   2.525  1.00  0.00     0.035 C 
HETATM   17  C1  UNL     1      -0.335  -3.950   2.682  1.00  0.00     0.008 C 
ENDBRANCH  11  16
ENDBRANCH  10  11
ENDBRANCH   8  10
ENDBRANCH   1   8
BRANCH   1  18
HETATM   18  C6  UNL     1       3.322  -6.329   6.325  1.00  0.00     0.304 C 
BRANCH  18  19
HETATM   19  N2  UNL     1       4.327  -5.818   7.216  1.00  0.00     0.094 N 
HETATM   20  C7  UNL     1       4.418  -6.732   8.394  1.00  0.00     0.302 C 
HETATM   21  C8  UNL     1       5.342  -6.021   9.371  1.00  0.00     0.303 C 
HETATM   22  N3  UNL     1       6.685  -6.167   8.834  1.00  0.00     0.098 N 
HETATM   23  C12 UNL     1       6.664  -6.646   7.504  1.00  0.00     0.303 C 
HETATM   24  C13 UNL     1       5.658  -5.977   6.603  1.00  0.00     0.302 C 
BRANCH  22  25
HETATM   25  C9  UNL     1       7.545  -6.887   9.707  1.00  0.00     0.242 C 
HETATM   26  C10 UNL     1       6.843  -7.787  10.699  1.00  0.00     0.045 C 
BRANCH  25  27
HETATM   27  C11 UNL     1       8.563  -7.673   8.918  1.00  0.00     0.199 C 
BRANCH  27  28
HETATM   28  O1  UNL     1       8.395  -9.057   9.174  1.00  0.00    -0.399 OA
ATOM     29  H1  UNL     1       9.178  -9.526   8.912  1.00  0.00     0.209 HD
ENDBRANCH  27  28
ENDBRANCH  25  27
ENDBRANCH  22  25
ENDBRANCH  18  19
ENDBRANCH   1  18
TORSDOF 9
ENDMDL
MODEL 3
REMARK VINA RESULT: -7.469700243      2.838      9.067
REMARK  9 active torsions:
REMARK  status: ('A' for Active; 'I' for Inactive)
REMARK    1  A    between atoms: C2_2  and  C3_3 
REMARK    2  A    between atoms: C3_3  and  C4_4 
REMARK    3  A    between atoms: C4_4  and  N1_5 
REMARK    4  A    between atoms: N1_5  and  C5_7 
REMARK    5  A    between atoms: C5_7  and  C6_8 
REMARK    6  A    between atoms: C6_8  and  N2_9 
REMARK    7  A    between atoms: N3_12  and  C9_13 
REMARK    8  A    between atoms: C9_13  and  C11_15 
REMARK    9  A    between atoms: C11_15  and  O1_16 
ROOT
HETATM    1  C5  UNL     1       2.574  -5.401   5.197  1.00  0.00     0.077 C 
HETATM    2  C14 UNL     1       1.056  -5.750   5.473  1.00  0.00     0.061 C 
HETATM    3  C15 UNL     1       0.790  -4.912   6.683  1.00  0.00     0.235 C 
HETATM    4  N4  UNL     1       1.358  -3.642   6.292  1.00  0.00    -0.073 N 
ATOM      5  H41 UNL     1       1.403  -2.957   7.046  1.00  0.00     0.277 HD
ATOM      6  H42 UNL     1       0.762  -3.092   5.673  1.00  0.00     0.277 HD
HETATM    7  C16 UNL     1       2.618  -3.974   5.736  1.00  0.00     0.264 C 
ENDROOT
BRANCH   1   8
HETATM    8  N1  UNL     1       2.753  -5.328   3.822  1.00  0.00    -0.407 N 
ATOM      9  H1  UNL     1       2.713  -6.188   3.274  1.00  0.00     0.154 HD
BRANCH   8  10
HETATM   10  C4  UNL     1       2.987  -4.116   3.162  1.00  0.00     0.152 C 
BRANCH  10  11
HETATM   11  C3  UNL     1       1.855  -3.856   2.154  1.00  0.00     0.076 A 
HETATM   12  C17 UNL     1       0.894  -2.829   2.622  1.00  0.00     0.042 A 
HETATM   13  C18 UNL     1      -0.436  -3.530   2.693  1.00  0.00     0.029 A 
HETATM   14  C19 UNL     1      -0.132  -4.925   2.273  1.00  0.00     0.169 A 
HETATM   15  O2  UNL     1       1.189  -5.070   1.989  1.00  0.00    -0.379 OA
BRANCH  11  16
HETATM   16  C2  UNL     1       2.506  -3.525   0.836  1.00  0.00     0.035 C 
HETATM   17  C1  UNL     1       2.780  -4.772   0.022  1.00  0.00     0.008 C 
ENDBRANCH  11  16
ENDBRANCH  10  11
ENDBRANCH   8  10
ENDBRANCH   1   8
BRANCH   1  18
HETATM   18  C6  UNL     1       3.304  -6.339   6.060  1.00  0.00     0.304 C 
BRANCH  18  19
HETATM   19  N2  UNL     1       4.238  -5.814   7.017  1.00  0.00     0.094 N 
HETATM   20  C7  UNL     1       4.291  -6.746   8.183  1.00  0.00     0.302 C 
HETATM   21  C8  UNL     1       5.133  -6.025   9.224  1.00  0.00     0.303 C 
HETATM   22  N3  UNL     1       6.509  -6.118   8.764  1.00  0.00     0.098 N 
HETATM   23  C12 UNL     1       6.581  -6.572   7.427  1.00  0.00     0.303 C 
HETATM   24  C13 UNL     1       5.607  -5.919   6.481  1.00  0.00     0.302 C 
BRANCH  22  25
HETATM   25  C9  UNL     1       7.339  -6.827   9.674  1.00  0.00     0.242 C 
HETATM   26  C10 UNL     1       6.606  -7.716  10.653  1.00  0.00     0.045 C 
BRANCH  25  27
HETATM   27  C11 UNL     1       8.384  -7.621   8.928  1.00  0.00     0.199 C 
BRANCH  27  28
HETATM   28  O1  UNL     1       8.257  -8.995   9.255  1.00  0.00    -0.399 OA
ATOM     29  H1  UNL     1       8.993  -9.263   9.791  1.00  0.00     0.209 HD
ENDBRANCH  27  28
ENDBRANCH  25  27
ENDBRANCH  22  25
ENDBRANCH  18  19
ENDBRANCH   1  18
TORSDOF 9
ENDMDL
MODEL 4
REMARK VINA RESULT: -7.354834235      2.840      9.075
REMARK  9 active torsions:
REMARK  status: ('A' for Active; 'I' for Inactive)
REMARK    1  A    between atoms: C2_2  and  C3_3 
REMARK    2  A    between atoms: C3_3  and  C4_4 
REMARK    3  A    between atoms: C4_4  and  N1_5 
REMARK    4  A    between atoms: N1_5  and  C5_7 
REMARK    5  A    between atoms: C5_7  and  C6_8 
REMARK    6  A    between atoms: C6_8  and  N2_9 
REMARK    7  A    between atoms: N3_12  and  C9_13 
REMARK    8  A    between atoms: C9_13  and  C11_15 
REMARK    9  A    between atoms: C11_15  and  O1_16 
ROOT
HETATM    1  C5  UNL     1       2.554  -5.599   5.293  1.00  0.00     0.077 C 
HETATM    2  C14 UNL     1       1.016  -5.687   5.653  1.00  0.00     0.061 C 
HETATM    3  C15 UNL     1       0.912  -4.627   6.704  1.00  0.00     0.235 C 
HETATM    4  N4  UNL     1       1.625  -3.532   6.090  1.00  0.00    -0.073 N 
ATOM      5  H41 UNL     1       1.791  -2.741   6.713  1.00  0.00     0.277 HD
ATOM      6  H42 UNL     1       1.082  -3.018   5.397  1.00  0.00     0.277 HD
HETATM    7  C16 UNL     1       2.807  -4.121   5.577  1.00  0.00     0.264 C 
ENDROOT
BRANCH   1   8
HETATM    8  N1  UNL     1       2.684  -5.784   3.923  1.00  0.00    -0.407 N 
ATOM      9  H1  UNL     1       3.579  -5.576   3.481  1.00  0.00     0.154 HD
BRANCH   8  10
HETATM   10  C4  UNL     1       1.628  -6.247   3.128  1.00  0.00     0.152 C 
BRANCH  10  11
HETATM   11  C3  UNL     1       1.272  -5.180   2.080  1.00  0.00     0.076 A 
HETATM   12  C17 UNL     1       2.382  -4.232   1.827  1.00  0.00     0.042 A 
HETATM   13  C18 UNL     1       1.841  -2.876   2.196  1.00  0.00     0.029 A 
HETATM   14  C19 UNL     1       0.452  -3.154   2.655  1.00  0.00     0.169 A 
HETATM   15  O2  UNL     1       0.175  -4.483   2.586  1.00  0.00    -0.379 OA
BRANCH  11  16
HETATM   16  C2  UNL     1       0.803  -5.911   0.848  1.00  0.00     0.035 C 
HETATM   17  C1  UNL     1      -0.461  -6.701   1.117  1.00  0.00     0.008 C 
ENDBRANCH  11  16
ENDBRANCH  10  11
ENDBRANCH   8  10
ENDBRANCH   1   8
BRANCH   1  18
HETATM   18  C6  UNL     1       3.190  -6.469   6.292  1.00  0.00     0.304 C 
BRANCH  18  19
HETATM   19  N2  UNL     1       4.173  -5.905   7.174  1.00  0.00     0.094 N 
HETATM   20  C7  UNL     1       4.339  -6.821   8.341  1.00  0.00     0.302 C 
HETATM   21  C8  UNL     1       5.231  -6.063   9.312  1.00  0.00     0.303 C 
HETATM   22  N3  UNL     1       6.572  -6.120   8.755  1.00  0.00     0.098 N 
HETATM   23  C12 UNL     1       6.561  -6.587   7.420  1.00  0.00     0.303 C 
HETATM   24  C13 UNL     1       5.502  -5.975   6.541  1.00  0.00     0.302 C 
BRANCH  22  25
HETATM   25  C9  UNL     1       7.488  -6.792   9.608  1.00  0.00     0.242 C 
HETATM   26  C10 UNL     1       6.854  -7.676  10.660  1.00  0.00     0.045 C 
BRANCH  25  27
HETATM   27  C11 UNL     1       8.486  -7.582   8.797  1.00  0.00     0.199 C 
BRANCH  27  28
HETATM   28  O1  UNL     1       8.413  -8.951   9.156  1.00  0.00    -0.399 OA
ATOM     29  H1  UNL     1       9.289  -9.289   9.298  1.00  0.00     0.209 HD
ENDBRANCH  27  28
ENDBRANCH  25  27
ENDBRANCH  22  25
ENDBRANCH  18  19
ENDBRANCH   1  18
TORSDOF 9
ENDMDL
MODEL 5
REMARK VINA RESULT: -7.273137305      2.574      9.033
REMARK  9 active torsions:
REMARK  status: ('A' for Active; 'I' for Inactive)
REMARK    1  A    between atoms: C2_2  and  C3_3 
REMARK    2  A    between atoms: C3_3  and  C4_4 
REMARK    3  A    between atoms: C4_4  and  N1_5 
REMARK    4  A    between atoms: N1_5  and  C5_7 
REMARK    5  A    between atoms: C5_7  and  C6_8 
REMARK    6  A    between atoms: C6_8  and  N2_9 
REMARK    7  A    between atoms: N3_12  and  C9_13 
REMARK    8  A    between atoms: C9_13  and  C11_15 
REMARK    9  A    between atoms: C11_15  and  O1_16 
ROOT
HETATM    1  C5  UNL     1       2.441  -5.522   5.745  1.00  0.00     0.077 C 
HETATM    2  C14 UNL     1       2.753  -6.332   4.423  1.00  0.00     0.061 C 
HETATM    3  C15 UNL     1       1.595  -7.280   4.393  1.00  0.00     0.235 C 
HETATM    4  N4  UNL     1       0.485  -6.395   4.659  1.00  0.00    -0.073 N 
ATOM      5  H41 UNL     1      -0.401  -6.875   4.820  1.00  0.00     0.277 HD
ATOM      6  H42 UNL     1       0.177  -5.858   3.848  1.00  0.00     0.277 HD
HETATM    7  C16 UNL     1       0.917  -5.599   5.748  1.00  0.00     0.264 C 
ENDROOT
BRANCH   1   8
HETATM    8  N1  UNL     1       2.787  -4.195   5.525  1.00  0.00    -0.407 N 
ATOM      9  H1  UNL     1       3.761  -3.966   5.330  1.00  0.00     0.154 HD
BRANCH   8  10
HETATM   10  C4  UNL     1       1.843  -3.161   5.563  1.00  0.00     0.152 C 
BRANCH  10  11
HETATM   11  C3  UNL     1       1.725  -2.527   4.167  1.00  0.00     0.076 A 
HETATM   12  C17 UNL     1       0.593  -3.074   3.382  1.00  0.00     0.042 A 
HETATM   13  C18 UNL     1       1.217  -3.684   2.155  1.00  0.00     0.029 A 
HETATM   14  C19 UNL     1       2.676  -3.453   2.339  1.00  0.00     0.169 A 
HETATM   15  O2  UNL     1       2.921  -2.803   3.507  1.00  0.00    -0.379 OA
BRANCH  11  16
HETATM   16  C2  UNL     1       1.662  -1.034   4.366  1.00  0.00     0.035 C 
HETATM   17  C1  UNL     1       0.489  -0.423   3.629  1.00  0.00     0.008 C 
ENDBRANCH  11  16
ENDBRANCH  10  11
ENDBRANCH   8  10
ENDBRANCH   1   8
BRANCH   1  18
HETATM   18  C6  UNL     1       3.037  -6.349   6.803  1.00  0.00     0.304 C 
BRANCH  18  19
HETATM   19  N2  UNL     1       4.151  -5.826   7.545  1.00  0.00     0.094 N 
HETATM   20  C7  UNL     1       4.407  -6.728   8.707  1.00  0.00     0.302 C 
HETATM   21  C8  UNL     1       5.451  -6.004   9.543  1.00  0.00     0.303 C 
HETATM   22  N3  UNL     1       6.709  -6.148   8.829  1.00  0.00     0.098 N 
HETATM   23  C12 UNL     1       6.510  -6.639   7.518  1.00  0.00     0.303 C 
HETATM   24  C13 UNL     1       5.387  -5.984   6.758  1.00  0.00     0.302 C 
BRANCH  22  25
HETATM   25  C9  UNL     1       7.684  -6.856   9.583  1.00  0.00     0.242 C 
HETATM   26  C10 UNL     1       7.133  -7.712  10.702  1.00  0.00     0.045 C 
BRANCH  25  27
HETATM   27  C11 UNL     1       8.557  -7.686   8.673  1.00  0.00     0.199 C 
BRANCH  27  28
HETATM   28  O1  UNL     1       8.456  -9.052   9.037  1.00  0.00    -0.399 OA
ATOM     29  H1  UNL     1       8.289  -9.121   9.969  1.00  0.00     0.209 HD
ENDBRANCH  27  28
ENDBRANCH  25  27
ENDBRANCH  22  25
ENDBRANCH  18  19
ENDBRANCH   1  18
TORSDOF 9
ENDMDL
