MODEL 1
REMARK VINA RESULT: -7.308270436      0.000      0.000
REMARK  7 active torsions:
REMARK  status: ('A' for Active; 'I' for Inactive)
REMARK    1  A    between atoms: C2_2  and  N1_3 
REMARK       I    between atoms: N1_3  and  C3_5 
REMARK       I    between atoms: C3_5  and  N2_7 
REMARK    2  A    between atoms: N2_7  and  C4_9 
REMARK    3  A    between atoms: C4_9  and  C5_10 
REMARK    4  A    between atoms: C5_10  and  C6_11 
REMARK    5  A    between atoms: C6_11  and  N3_12 
REMARK    6  A    between atoms: C9_15  and  C10_16 
REMARK    7  A    between atoms: C10_16  and  O2_17 
ROOT
HETATM    1  C5  UNL     1       2.373  -5.004   5.522  1.00  0.00     0.192 C 
HETATM    2  C14 UNL     1       0.839  -4.842   5.678  1.00  0.00     0.213 C 
HETATM    3  O3  UNL     1       0.572  -4.667   4.289  1.00  0.00    -0.352 OA
HETATM    4  C15 UNL     1       1.247  -5.697   3.665  1.00  0.00     0.220 C 
HETATM    5  C16 UNL     1       1.733  -5.419   2.284  1.00  0.00     0.078 C 
HETATM    6  C17 UNL     1       0.219  -6.830   3.519  1.00  0.00     0.078 C 
HETATM    7  N4  UNL     1       2.335  -6.111   4.584  1.00  0.00    -0.029 N 
ATOM      8  H41 UNL     1       2.218  -7.032   5.007  1.00  0.00     0.281 HD
ATOM      9  H42 UNL     1       3.224  -6.327   4.133  1.00  0.00     0.281 HD
ENDROOT
BRANCH   1  10
HETATM   10  C4  UNL     1       2.818  -3.715   4.897  1.00  0.00     0.167 C 
BRANCH  10  11
HETATM   11  N2  UNL     1       1.991  -2.628   5.356  1.00  0.00    -0.341 N 
HETATM   12  C3  UNL     1       1.764  -1.478   4.506  1.00  0.00     0.316 C 
HETATM   13  N1  UNL     1       0.962  -0.412   4.944  1.00  0.00    -0.344 N 
HETATM   14  O1  UNL     1       2.300  -1.452   3.368  1.00  0.00    -0.247 OA
ATOM     15  H1  UNL     1       0.541  -0.459   5.872  1.00  0.00     0.164 HD
ATOM     16  H2  UNL     1       1.564  -2.668   6.281  1.00  0.00     0.164 HD
BRANCH  13  17
HETATM   17  C2  UNL     1       0.716   0.749   4.121  1.00  0.00     0.120 C 
HETATM   18  C1  UNL     1       1.351   1.996   4.665  1.00  0.00     0.026 C 
ENDBRANCH  13  17
ENDBRANCH  10  11
ENDBRANCH   1  10
BRANCH   1  19
HETATM   19  C6  UNL     1       3.068  -5.190   6.785  1.00  0.00     0.315 C 
BRANCH  19  20
HETATM   20  N3  UNL     1       3.898  -6.328   7.018  1.00  0.00     0.091 N 
HETATM   21  C7  UNL     1       3.635  -6.656   8.449  1.00  0.00     0.273 C 
HETATM   22  C8  UNL     1       4.563  -5.908   9.377  1.00  0.00     0.037 C 
HETATM   23  C9  UNL     1       5.854  -6.736   9.357  1.00  0.00     0.013 C 
HETATM   24  C12 UNL     1       6.097  -7.019   7.904  1.00  0.00     0.037 C 
HETATM   25  C13 UNL     1       5.326  -6.037   6.999  1.00  0.00     0.273 C 
BRANCH  23  26
HETATM   26  C10 UNL     1       6.980  -6.113  10.094  1.00  0.00     0.171 C 
BRANCH  26  27
HETATM   27  O2  UNL     1       8.159  -6.837   9.923  1.00  0.00    -0.396 OA
HETATM   28  C11 UNL     1       8.305  -7.870  10.819  1.00  0.00     0.201 C 
ENDBRANCH  26  27
ENDBRANCH  23  26
ENDBRANCH  19  20
ENDBRANCH   1  19
TORSDOF 7
ENDMDL
MODEL 2
REMARK VINA RESULT: -7.240941425      1.617      2.265
REMARK  7 active torsions:
REMARK  status: ('A' for Active; 'I' for Inactive)
REMARK    1  A    between atoms: C2_2  and  N1_3 
REMARK       I    between atoms: N1_3  and  C3_5 
REMARK       I    between atoms: C3_5  and  N2_7 
REMARK    2  A    between atoms: N2_7  and  C4_9 
REMARK    3  A    between atoms: C4_9  and  C5_10 
REMARK    4  A    between atoms: C5_10  and  C6_11 
REMARK    5  A    between atoms: C6_11  and  N3_12 
REMARK    6  A    between atoms: C9_15  and  C10_16 
REMARK    7  A    between atoms: C10_16  and  O2_17 
ROOT
HETATM    1  C5  UNL     1       2.051  -6.503   3.649  1.00  0.00     0.192 C 
HETATM    2  C14 UNL     1       0.508  -6.539   3.802  1.00  0.00     0.213 C 
HETATM    3  O3  UNL     1       0.222  -6.290   2.428  1.00  0.00    -0.352 OA
HETATM    4  C15 UNL     1       1.017  -7.181   1.734  1.00  0.00     0.220 C 
HETATM    5  C16 UNL     1       1.467  -6.741   0.383  1.00  0.00     0.078 C 
HETATM    6  C17 UNL     1       0.133  -8.414   1.492  1.00  0.00     0.078 C 
HETATM    7  N4  UNL     1       2.147  -7.531   2.629  1.00  0.00    -0.029 N 
ATOM      8  H41 UNL     1       2.140  -8.490   2.980  1.00  0.00     0.281 HD
ATOM      9  H42 UNL     1       3.055  -7.603   2.172  1.00  0.00     0.281 HD
ENDROOT
BRANCH   1  10
HETATM   10  C4  UNL     1       2.338  -5.126   3.129  1.00  0.00     0.167 C 
BRANCH  10  11
HETATM   11  N2  UNL     1       1.434  -4.172   3.721  1.00  0.00    -0.341 N 
HETATM   12  C3  UNL     1       1.923  -2.880   4.155  1.00  0.00     0.316 C 
HETATM   13  N1  UNL     1       1.052  -1.945   4.736  1.00  0.00    -0.344 N 
HETATM   14  O1  UNL     1       3.143  -2.612   4.003  1.00  0.00    -0.247 OA
ATOM     15  H1  UNL     1       0.068  -2.188   4.849  1.00  0.00     0.164 HD
ATOM     16  H2  UNL     1       0.449  -4.407   3.835  1.00  0.00     0.164 HD
BRANCH  13  17
HETATM   17  C2  UNL     1       1.507  -0.647   5.180  1.00  0.00     0.120 C 
HETATM   18  C1  UNL     1       1.235   0.440   4.181  1.00  0.00     0.026 C 
ENDBRANCH  13  17
ENDBRANCH  10  11
ENDBRANCH   1  10
BRANCH   1  19
HETATM   19  C6  UNL     1       2.762  -6.701   4.901  1.00  0.00     0.315 C 
BRANCH  19  20
HETATM   20  N3  UNL     1       2.892  -5.648   5.858  1.00  0.00     0.091 N 
HETATM   21  C7  UNL     1       4.368  -5.514   6.020  1.00  0.00     0.273 C 
HETATM   22  C8  UNL     1       4.902  -6.429   7.095  1.00  0.00     0.037 C 
HETATM   23  C9  UNL     1       4.624  -5.672   8.400  1.00  0.00     0.013 C 
HETATM   24  C12 UNL     1       3.207  -5.198   8.264  1.00  0.00     0.037 C 
HETATM   25  C13 UNL     1       2.440  -6.003   7.197  1.00  0.00     0.273 C 
BRANCH  23  26
HETATM   26  C10 UNL     1       4.935  -6.446   9.625  1.00  0.00     0.171 C 
BRANCH  26  27
HETATM   27  O2  UNL     1       6.278  -6.320   9.976  1.00  0.00    -0.396 OA
HETATM   28  C11 UNL     1       6.867  -7.509  10.338  1.00  0.00     0.201 C 
ENDBRANCH  26  27
ENDBRANCH  23  26
ENDBRANCH  19  20
ENDBRANCH   1  19
TORSDOF 7
ENDMDL
MODEL 3
REMARK VINA RESULT: -7.164069089      1.927      4.755
REMARK  7 active torsions:
REMARK  status: ('A' for Active; 'I' for Inactive)
REMARK    1  A    between atoms: C2_2  and  N1_3 
REMARK       I    between atoms: N1_3  and  C3_5 
REMARK       I    between atoms: C3_5  and  N2_7 
REMARK    2  A    between atoms: N2_7  and  C4_9 
REMARK    3  A    between atoms: C4_9  and  C5_10 
REMARK    4  A    between atoms: C5_10  and  C6_11 
REMARK    5  A    between atoms: C6_11  and  N3_12 
REMARK    6  A    between atoms: C9_15  and  C10_16 
REMARK    7  A    between atoms: C10_16  and  O2_17 
ROOT
HETATM    1  C5  UNL     1       2.201  -4.357   5.384  1.00  0.00     0.192 C 
HETATM    2  C14 UNL     1       3.162  -3.955   4.235  1.00  0.00     0.213 C 
HETATM    3  O3  UNL     1       2.140  -3.712   3.272  1.00  0.00    -0.352 OA
HETATM    4  C15 UNL     1       1.226  -2.906   3.921  1.00  0.00     0.220 C 
HETATM    5  C16 UNL     1      -0.192  -3.043   3.484  1.00  0.00     0.078 C 
HETATM    6  C17 UNL     1       1.629  -1.465   3.568  1.00  0.00     0.078 C 
HETATM    7  N4  UNL     1       1.404  -3.144   5.374  1.00  0.00    -0.029 N 
ATOM      8  H41 UNL     1       1.801  -2.362   5.896  1.00  0.00     0.281 HD
ATOM      9  H42 UNL     1       0.540  -3.190   5.914  1.00  0.00     0.281 HD
ENDROOT
BRANCH   1  10
HETATM   10  C4  UNL     1       1.467  -5.551   4.849  1.00  0.00     0.167 C 
BRANCH  10  11
HETATM   11  N2  UNL     1       2.331  -6.324   3.992  1.00  0.00    -0.341 N 
HETATM   12  C3  UNL     1       2.043  -7.720   3.739  1.00  0.00     0.316 C 
HETATM   13  N1  UNL     1       2.880  -8.483   2.908  1.00  0.00    -0.344 N 
HETATM   14  O1  UNL     1       1.031  -8.237   4.277  1.00  0.00    -0.247 OA
ATOM     15  H1  UNL     1       3.695  -8.038   2.485  1.00  0.00     0.164 HD
ATOM     16  H2  UNL     1       3.146  -5.886   3.563  1.00  0.00     0.164 HD
BRANCH  13  17
HETATM   17  C2  UNL     1       2.622  -9.878   2.634  1.00  0.00     0.120 C 
HETATM   18  C1  UNL     1       3.158 -10.321   1.304  1.00  0.00     0.026 C 
ENDBRANCH  13  17
ENDBRANCH  10  11
ENDBRANCH   1  10
BRANCH   1  19
HETATM   19  C6  UNL     1       2.886  -4.727   6.611  1.00  0.00     0.315 C 
BRANCH  19  20
HETATM   20  N3  UNL     1       3.685  -5.908   6.691  1.00  0.00     0.091 N 
HETATM   21  C7  UNL     1       3.364  -6.446   8.045  1.00  0.00     0.273 C 
HETATM   22  C8  UNL     1       4.273  -5.874   9.107  1.00  0.00     0.037 C 
HETATM   23  C9  UNL     1       5.547  -6.720   9.000  1.00  0.00     0.013 C 
HETATM   24  C12 UNL     1       5.836  -6.782   7.530  1.00  0.00     0.037 C 
HETATM   25  C13 UNL     1       5.118  -5.653   6.764  1.00  0.00     0.273 C 
BRANCH  23  26
HETATM   26  C10 UNL     1       6.659  -6.247   9.861  1.00  0.00     0.171 C 
BRANCH  26  27
HETATM   27  O2  UNL     1       7.778  -7.067   9.738  1.00  0.00    -0.396 OA
HETATM   28  C11 UNL     1       7.690  -8.233  10.464  1.00  0.00     0.201 C 
ENDBRANCH  26  27
ENDBRANCH  23  26
ENDBRANCH  19  20
ENDBRANCH   1  19
TORSDOF 7
ENDMDL
MODEL 4
REMARK VINA RESULT: -7.000705220      1.682      2.427
REMARK  7 active torsions:
REMARK  status: ('A' for Active; 'I' for Inactive)
REMARK    1  A    between atoms: C2_2  and  N1_3 
REMARK       I    between atoms: N1_3  and  C3_5 
REMARK       I    between atoms: C3_5  and  N2_7 
REMARK    2  A    between atoms: N2_7  and  C4_9 
REMARK    3  A    between atoms: C4_9  and  C5_10 
REMARK    4  A    between atoms: C5_10  and  C6_11 
REMARK    5  A    between atoms: C6_11  and  N3_12 
REMARK    6  A    between atoms: C9_15  and  C10_16 
REMARK    7  A    between atoms: C10_16  and  O2_17 
ROOT
HETATM    1  C5  UNL     1       1.858  -3.780   3.779  1.00  0.00     0.192 C 
HETATM    2  C14 UNL     1       1.186  -5.020   3.133  1.00  0.00     0.213 C 
HETATM    3  O3  UNL     1       0.793  -4.360   1.932  1.00  0.00    -0.352 OA
HETATM    4  C15 UNL     1       1.929  -3.702   1.503  1.00  0.00     0.220 C 
HETATM    5  C16 UNL     1       1.704  -2.442   0.738  1.00  0.00     0.078 C 
HETATM    6  C17 UNL     1       2.611  -4.665   0.518  1.00  0.00     0.078 C 
HETATM    7  N4  UNL     1       2.784  -3.503   2.697  1.00  0.00    -0.029 N 
ATOM      8  H41 UNL     1       3.643  -4.054   2.712  1.00  0.00     0.281 HD
ATOM      9  H42 UNL     1       3.252  -2.598   2.749  1.00  0.00     0.281 HD
ENDROOT
BRANCH   1  10
HETATM   10  C4  UNL     1       0.751  -2.773   3.883  1.00  0.00     0.167 C 
BRANCH  10  11
HETATM   11  N2  UNL     1       1.213  -1.593   4.570  1.00  0.00    -0.341 N 
HETATM   12  C3  UNL     1       0.847  -0.279   4.086  1.00  0.00     0.316 C 
HETATM   13  N1  UNL     1       1.295   0.876   4.746  1.00  0.00    -0.344 N 
HETATM   14  O1  UNL     1       0.121  -0.192   3.062  1.00  0.00    -0.247 OA
ATOM     15  H1  UNL     1       1.884   0.776   5.573  1.00  0.00     0.164 HD
ATOM     16  H2  UNL     1       1.800  -1.685   5.400  1.00  0.00     0.164 HD
BRANCH  13  17
HETATM   17  C2  UNL     1       0.949   2.202   4.289  1.00  0.00     0.120 C 
HETATM   18  C1  UNL     1       2.150   3.041   3.964  1.00  0.00     0.026 C 
ENDBRANCH  13  17
ENDBRANCH  10  11
ENDBRANCH   1  10
BRANCH   1  19
HETATM   19  C6  UNL     1       2.396  -4.037   5.104  1.00  0.00     0.315 C 
BRANCH  19  20
HETATM   20  N3  UNL     1       2.851  -5.337   5.484  1.00  0.00     0.091 N 
HETATM   21  C7  UNL     1       2.045  -5.639   6.702  1.00  0.00     0.273 C 
HETATM   22  C8  UNL     1       2.716  -5.140   7.959  1.00  0.00     0.037 C 
HETATM   23  C9  UNL     1       3.743  -6.231   8.289  1.00  0.00     0.013 C 
HETATM   24  C12 UNL     1       4.418  -6.519   6.981  1.00  0.00     0.037 C 
HETATM   25  C13 UNL     1       4.223  -5.367   5.976  1.00  0.00     0.273 C 
BRANCH  23  26
HETATM   26  C10 UNL     1       4.639  -5.892   9.421  1.00  0.00     0.171 C 
BRANCH  26  27
HETATM   27  O2  UNL     1       5.948  -6.298   9.170  1.00  0.00    -0.396 OA
HETATM   28  C11 UNL     1       6.462  -7.130  10.138  1.00  0.00     0.201 C 
ENDBRANCH  26  27
ENDBRANCH  23  26
ENDBRANCH  19  20
ENDBRANCH   1  19
TORSDOF 7
ENDMDL
MODEL 5
REMARK VINA RESULT: -6.966663249      1.691      2.338
REMARK  7 active torsions:
REMARK  status: ('A' for Active; 'I' for Inactive)
REMARK    1  A    between atoms: C2_2  and  N1_3 
REMARK       I    between atoms: N1_3  and  C3_5 
REMARK       I    between atoms: C3_5  and  N2_7 
REMARK    2  A    between atoms: N2_7  and  C4_9 
REMARK    3  A    between atoms: C4_9  and  C5_10 
REMARK    4  A    between atoms: C5_10  and  C6_11 
REMARK    5  A    between atoms: C6_11  and  N3_12 
REMARK    6  A    between atoms: C9_15  and  C10_16 
REMARK    7  A    between atoms: C10_16  and  O2_17 
ROOT
HETATM    1  C5  UNL     1       1.470  -3.963   3.502  1.00  0.00     0.192 C 
HETATM    2  C14 UNL     1      -0.064  -4.014   3.730  1.00  0.00     0.213 C 
HETATM    3  O3  UNL     1      -0.417  -3.840   2.360  1.00  0.00    -0.352 OA
HETATM    4  C15 UNL     1       0.359  -4.753   1.675  1.00  0.00     0.220 C 
HETATM    5  C16 UNL     1       0.738  -4.375   0.283  1.00  0.00     0.078 C 
HETATM    6  C17 UNL     1      -0.514  -6.010   1.537  1.00  0.00     0.078 C 
HETATM    7  N4  UNL     1       1.535  -5.040   2.532  1.00  0.00    -0.029 N 
ATOM      8  H41 UNL     1       1.562  -5.980   2.929  1.00  0.00     0.281 HD
ATOM      9  H42 UNL     1       2.422  -5.122   2.035  1.00  0.00     0.281 HD
ENDROOT
BRANCH   1  10
HETATM   10  C4  UNL     1       1.708  -2.610   2.900  1.00  0.00     0.167 C 
BRANCH  10  11
HETATM   11  N2  UNL     1       1.684  -1.598   3.926  1.00  0.00    -0.341 N 
HETATM   12  C3  UNL     1       1.322  -0.236   3.595  1.00  0.00     0.316 C 
HETATM   13  N1  UNL     1       1.298   0.758   4.586  1.00  0.00    -0.344 N 
HETATM   14  O1  UNL     1       1.030   0.040   2.403  1.00  0.00    -0.247 OA
ATOM     15  H1  UNL     1       1.541   0.507   5.545  1.00  0.00     0.164 HD
ATOM     16  H2  UNL     1       1.922  -1.842   4.888  1.00  0.00     0.164 HD
BRANCH  13  17
HETATM   17  C2  UNL     1       0.942   2.127   4.290  1.00  0.00     0.120 C 
HETATM   18  C1  UNL     1       2.131   2.985   3.973  1.00  0.00     0.026 C 
ENDBRANCH  13  17
ENDBRANCH  10  11
ENDBRANCH   1  10
BRANCH   1  19
HETATM   19  C6  UNL     1       2.242  -4.086   4.727  1.00  0.00     0.315 C 
BRANCH  19  20
HETATM   20  N3  UNL     1       2.793  -5.338   5.137  1.00  0.00     0.091 N 
HETATM   21  C7  UNL     1       1.925  -5.734   6.284  1.00  0.00     0.273 C 
HETATM   22  C8  UNL     1       2.439  -5.186   7.594  1.00  0.00     0.037 C 
HETATM   23  C9  UNL     1       3.541  -6.172   8.002  1.00  0.00     0.013 C 
HETATM   24  C12 UNL     1       4.345  -6.376   6.752  1.00  0.00     0.037 C 
HETATM   25  C13 UNL     1       4.116  -5.237   5.739  1.00  0.00     0.273 C 
BRANCH  23  26
HETATM   26  C10 UNL     1       4.304  -5.760   9.205  1.00  0.00     0.171 C 
BRANCH  26  27
HETATM   27  O2  UNL     1       4.983  -6.839   9.767  1.00  0.00    -0.396 OA
HETATM   28  C11 UNL     1       6.343  -6.648   9.855  1.00  0.00     0.201 C 
ENDBRANCH  26  27
ENDBRANCH  23  26
ENDBRANCH  19  20
ENDBRANCH   1  19
TORSDOF 7
ENDMDL
