MODEL 1
REMARK VINA RESULT: -7.336503804      0.000      0.000
REMARK  8 active torsions:
REMARK  status: ('A' for Active; 'I' for Inactive)
REMARK    1  A    between atoms: C2_2  and  C3_3 
REMARK    2  A    between atoms: C3_3  and  C4_4 
REMARK    3  A    between atoms: C4_4  and  N1_5 
REMARK    4  A    between atoms: N1_5  and  C5_7 
REMARK    5  A    between atoms: C6_10  and  S1_11 
REMARK    6  A    between atoms: C8_15  and  N4_16 
REMARK    7  A    between atoms: N4_16  and  C9_18 
REMARK    8  A    between atoms: C13_25  and  C14_26 
ROOT
HETATM    1  C5  UNL     1       2.133  -5.180   6.573  1.00  0.00     0.694 A 
HETATM    2  N2  UNL     1       1.989  -5.954   5.489  1.00  0.00    -0.169 N 
ATOM      3  H2  UNL     1       2.091  -6.965   5.569  1.00  0.00     0.186 HD
HETATM    4  C6  UNL     1       1.706  -5.392   4.274  1.00  0.00     0.174 A 
HETATM    5  N3  UNL     1       1.565  -4.063   4.134  1.00  0.00    -0.169 N 
ATOM      6  H3  UNL     1       1.355  -3.656   3.222  1.00  0.00     0.186 HD
HETATM    7  C8  UNL     1       1.708  -3.278   5.216  1.00  0.00     0.695 A 
HETATM    8  N6  UNL     1       1.985  -3.833   6.402  1.00  0.00    -0.022 N 
ATOM      9  H6  UNL     1       2.089  -3.224   7.214  1.00  0.00     0.203 HD
ENDROOT
BRANCH   7  10
HETATM   10  N4  UNL     1       1.581  -1.991   5.129  1.00  0.00    -0.220 N 
ATOM     11  H4  UNL     1       1.673  -1.428   5.975  1.00  0.00     0.178 HD
BRANCH  10  12
HETATM   12  C9  UNL     1       1.312  -1.323   3.869  1.00  0.00     0.114 C 
HETATM   13  C10 UNL     1       1.913   0.086   3.966  1.00  0.00     0.128 C 
HETATM   14  C11 UNL     1       0.876   1.153   3.928  1.00  0.00     0.219 C 
HETATM   15  O1  UNL     1       0.895   2.131   4.737  1.00  0.00    -0.274 OA
HETATM   16  N5  UNL     1      -0.141   1.025   2.936  1.00  0.00    -0.356 N 
HETATM   17  C12 UNL     1      -0.218  -0.277   2.393  1.00  0.00     0.095 A 
ATOM     18  H5  UNL     1      -0.748   1.793   2.648  1.00  0.00     0.162 HD
HETATM   19  C13 UNL     1      -1.040  -1.395   2.645  1.00  0.00     0.016 A 
HETATM   20  C16 UNL     1      -0.130  -1.155   3.699  1.00  0.00     0.038 A 
BRANCH  19  21
HETATM   21  C14 UNL     1      -0.855  -2.642   1.791  1.00  0.00     0.002 C 
HETATM   22  C15 UNL     1      -1.219  -2.370   0.347  1.00  0.00     0.005 C 
ENDBRANCH  19  21
ENDBRANCH  10  12
ENDBRANCH   7  10
BRANCH   4  23
HETATM   23  S1  UNL     1       1.528  -6.500   2.866  1.00  0.00    -0.097 SA
HETATM   24  C7  UNL     1      -0.137  -6.300   2.182  1.00  0.00     0.099 C 
ENDBRANCH   4  23
BRANCH   1  25
HETATM   25  N1  UNL     1       2.398  -5.669   7.727  1.00  0.00    -0.225 N 
ATOM     26  H1  UNL     1       1.749  -6.335   8.146  1.00  0.00     0.177 HD
BRANCH  25  27
HETATM   27  C4  UNL     1       3.584  -5.302   8.447  1.00  0.00     0.142 C 
BRANCH  27  28
HETATM   28  C3  UNL     1       4.610  -6.446   8.465  1.00  0.00     0.046 C 
BRANCH  28  29
HETATM   29  C2  UNL     1       5.301  -6.459   9.775  1.00  0.00    -0.035 C 
HETATM   30  C1  UNL     1       6.442  -7.107   9.897  1.00  0.00     0.007 C 
ENDBRANCH  28  29
ENDBRANCH  27  28
ENDBRANCH  25  27
ENDBRANCH   1  25
TORSDOF 8
ENDMDL
MODEL 2
REMARK VINA RESULT: -7.230492288      1.489      1.723
REMARK  8 active torsions:
REMARK  status: ('A' for Active; 'I' for Inactive)
REMARK    1  A    between atoms: C2_2  and  C3_3 
REMARK    2  A    between atoms: C3_3  and  C4_4 
REMARK    3  A    between atoms: C4_4  and  N1_5 
REMARK    4  A    between atoms: N1_5  and  C5_7 
REMARK    5  A    between atoms: C6_10  and  S1_11 
REMARK    6  A    between atoms: C8_15  and  N4_16 
REMARK    7  A    between atoms: N4_16  and  C9_18 
REMARK    8  A    between atoms: C13_25  and  C14_26 
ROOT
HETATM    1  C5  UNL     1       1.447  -5.220   6.419  1.00  0.00     0.694 A 
HETATM    2  N2  UNL     1       1.827  -6.304   5.729  1.00  0.00    -0.169 N 
ATOM      3  H2  UNL     1       2.428  -7.001   6.168  1.00  0.00     0.186 HD
HETATM    4  C6  UNL     1       1.412  -6.479   4.437  1.00  0.00     0.174 A 
HETATM    5  N3  UNL     1       0.620  -5.579   3.829  1.00  0.00    -0.169 N 
ATOM      6  H3  UNL     1       0.318  -5.720   2.865  1.00  0.00     0.186 HD
HETATM    7  C8  UNL     1       0.234  -4.489   4.514  1.00  0.00     0.695 A 
HETATM    8  N6  UNL     1       0.643  -4.323   5.778  1.00  0.00    -0.022 N 
ATOM      9  H6  UNL     1       0.340  -3.490   6.284  1.00  0.00     0.203 HD
ENDROOT
BRANCH   7  10
HETATM   10  N4  UNL     1      -0.530  -3.594   3.969  1.00  0.00    -0.220 N 
ATOM     11  H4  UNL     1      -1.535  -3.635   4.138  1.00  0.00     0.178 HD
BRANCH  10  12
HETATM   12  C9  UNL     1      -0.004  -2.537   3.126  1.00  0.00     0.114 C 
HETATM   13  C10 UNL     1       1.377  -2.160   3.678  1.00  0.00     0.128 C 
HETATM   14  C11 UNL     1       1.420  -0.772   4.214  1.00  0.00     0.219 C 
HETATM   15  O1  UNL     1       1.963  -0.504   5.329  1.00  0.00    -0.274 OA
HETATM   16  N5  UNL     1       0.822   0.244   3.410  1.00  0.00    -0.356 N 
HETATM   17  C12 UNL     1      -0.039  -0.275   2.418  1.00  0.00     0.095 A 
ATOM     18  H5  UNL     1       0.999   1.240   3.538  1.00  0.00     0.162 HD
HETATM   19  C13 UNL     1      -1.435  -0.450   2.329  1.00  0.00     0.016 A 
HETATM   20  C16 UNL     1      -0.844  -1.346   3.247  1.00  0.00     0.038 A 
BRANCH  19  21
HETATM   21  C14 UNL     1      -2.018  -1.008   1.037  1.00  0.00     0.002 C 
HETATM   22  C15 UNL     1      -3.164  -0.151   0.544  1.00  0.00     0.005 C 
ENDBRANCH  19  21
ENDBRANCH  10  12
ENDBRANCH   7  10
BRANCH   4  23
HETATM   23  S1  UNL     1       1.967  -7.961   3.579  1.00  0.00    -0.097 SA
HETATM   24  C7  UNL     1       1.571  -7.788   1.819  1.00  0.00     0.099 C 
ENDBRANCH   4  23
BRANCH   1  25
HETATM   25  N1  UNL     1       1.815  -5.022   7.631  1.00  0.00    -0.225 N 
ATOM     26  H1  UNL     1       1.105  -4.856   8.345  1.00  0.00     0.177 HD
BRANCH  25  27
HETATM   27  C4  UNL     1       3.199  -5.028   8.009  1.00  0.00     0.142 C 
BRANCH  27  28
HETATM   28  C3  UNL     1       3.565  -6.299   8.792  1.00  0.00     0.046 C 
BRANCH  28  29
HETATM   29  C2  UNL     1       5.036  -6.472   8.778  1.00  0.00    -0.035 C 
HETATM   30  C1  UNL     1       5.670  -6.706   9.908  1.00  0.00     0.007 C 
ENDBRANCH  28  29
ENDBRANCH  27  28
ENDBRANCH  25  27
ENDBRANCH   1  25
TORSDOF 8
ENDMDL
MODEL 3
REMARK VINA RESULT: -7.164450666      0.899      1.014
REMARK  8 active torsions:
REMARK  status: ('A' for Active; 'I' for Inactive)
REMARK    1  A    between atoms: C2_2  and  C3_3 
REMARK    2  A    between atoms: C3_3  and  C4_4 
REMARK    3  A    between atoms: C4_4  and  N1_5 
REMARK    4  A    between atoms: N1_5  and  C5_7 
REMARK    5  A    between atoms: C6_10  and  S1_11 
REMARK    6  A    between atoms: C8_15  and  N4_16 
REMARK    7  A    between atoms: N4_16  and  C9_18 
REMARK    8  A    between atoms: C13_25  and  C14_26 
ROOT
HETATM    1  C5  UNL     1       2.779  -5.022   6.761  1.00  0.00     0.694 A 
HETATM    2  N2  UNL     1       2.572  -5.959   5.828  1.00  0.00    -0.169 N 
ATOM      3  H2  UNL     1       2.879  -6.918   5.993  1.00  0.00     0.186 HD
HETATM    4  C6  UNL     1       1.952  -5.636   4.652  1.00  0.00     0.174 A 
HETATM    5  N3  UNL     1       1.537  -4.382   4.402  1.00  0.00    -0.169 N 
ATOM      6  H3  UNL     1       1.077  -4.153   3.521  1.00  0.00     0.186 HD
HETATM    7  C8  UNL     1       1.740  -3.435   5.334  1.00  0.00     0.695 A 
HETATM    8  N6  UNL     1       2.347  -3.757   6.483  1.00  0.00    -0.022 N 
ATOM      9  H6  UNL     1       2.493  -3.027   7.180  1.00  0.00     0.203 HD
ENDROOT
BRANCH   7  10
HETATM   10  N4  UNL     1       1.356  -2.212   5.137  1.00  0.00    -0.220 N 
ATOM     11  H4  UNL     1       1.140  -1.628   5.945  1.00  0.00     0.178 HD
BRANCH  10  12
HETATM   12  C9  UNL     1       1.223  -1.646   3.808  1.00  0.00     0.114 C 
HETATM   13  C10 UNL     1       1.814  -0.231   3.856  1.00  0.00     0.128 C 
HETATM   14  C11 UNL     1       0.790   0.825   3.626  1.00  0.00     0.219 C 
HETATM   15  O1  UNL     1       0.726   1.862   4.353  1.00  0.00    -0.274 OA
HETATM   16  N5  UNL     1      -0.117   0.613   2.545  1.00  0.00    -0.356 N 
HETATM   17  C12 UNL     1      -0.140  -0.728   2.101  1.00  0.00     0.095 A 
ATOM     18  H5  UNL     1      -0.688   1.352   2.136  1.00  0.00     0.162 HD
HETATM   19  C13 UNL     1      -0.987  -1.827   2.352  1.00  0.00     0.016 A 
HETATM   20  C16 UNL     1      -0.192  -1.500   3.474  1.00  0.00     0.038 A 
BRANCH  19  21
HETATM   21  C14 UNL     1      -0.716  -3.137   1.622  1.00  0.00     0.002 C 
HETATM   22  C15 UNL     1      -1.018  -3.008   0.145  1.00  0.00     0.005 C 
ENDBRANCH  19  21
ENDBRANCH  10  12
ENDBRANCH   7  10
BRANCH   4  23
HETATM   23  S1  UNL     1       1.713  -6.953   3.447  1.00  0.00    -0.097 SA
HETATM   24  C7  UNL     1       2.050  -8.539   4.255  1.00  0.00     0.099 C 
ENDBRANCH   4  23
BRANCH   1  25
HETATM   25  N1  UNL     1       3.355  -5.287   7.875  1.00  0.00    -0.225 N 
ATOM     26  H1  UNL     1       2.934  -4.958   8.744  1.00  0.00     0.177 HD
BRANCH  25  27
HETATM   27  C4  UNL     1       4.580  -6.034   7.931  1.00  0.00     0.142 C 
BRANCH  27  28
HETATM   28  C3  UNL     1       4.957  -6.393   9.376  1.00  0.00     0.046 C 
BRANCH  28  29
HETATM   29  C2  UNL     1       6.399  -6.726   9.434  1.00  0.00    -0.035 C 
HETATM   30  C1  UNL     1       6.855  -7.451  10.436  1.00  0.00     0.007 C 
ENDBRANCH  28  29
ENDBRANCH  27  28
ENDBRANCH  25  27
ENDBRANCH   1  25
TORSDOF 8
ENDMDL
MODEL 4
REMARK VINA RESULT: -7.039645945      1.760      2.409
REMARK  8 active torsions:
REMARK  status: ('A' for Active; 'I' for Inactive)
REMARK    1  A    between atoms: C2_2  and  C3_3 
REMARK    2  A    between atoms: C3_3  and  C4_4 
REMARK    3  A    between atoms: C4_4  and  N1_5 
REMARK    4  A    between atoms: N1_5  and  C5_7 
REMARK    5  A    between atoms: C6_10  and  S1_11 
REMARK    6  A    between atoms: C8_15  and  N4_16 
REMARK    7  A    between atoms: N4_16  and  C9_18 
REMARK    8  A    between atoms: C13_25  and  C14_26 
ROOT
HETATM    1  C5  UNL     1       2.027  -3.410   5.422  1.00  0.00     0.694 A 
HETATM    2  N2  UNL     1       2.197  -4.020   4.242  1.00  0.00    -0.169 N 
ATOM      3  H2  UNL     1       2.447  -5.008   4.211  1.00  0.00     0.186 HD
HETATM    4  C6  UNL     1       2.037  -3.320   3.077  1.00  0.00     0.174 A 
HETATM    5  N3  UNL     1       1.709  -2.017   3.082  1.00  0.00    -0.169 N 
ATOM      6  H3  UNL     1       1.594  -1.507   2.207  1.00  0.00     0.186 HD
HETATM    7  C8  UNL     1       1.536  -1.398   4.263  1.00  0.00     0.695 A 
HETATM    8  N6  UNL     1       1.693  -2.087   5.400  1.00  0.00    -0.022 N 
ATOM      9  H6  UNL     1       1.558  -1.602   6.287  1.00  0.00     0.203 HD
ENDROOT
BRANCH   7  10
HETATM   10  N4  UNL     1       1.219  -0.142   4.317  1.00  0.00    -0.220 N 
ATOM     11  H4  UNL     1       1.003   0.273   5.224  1.00  0.00     0.178 HD
BRANCH  10  12
HETATM   12  C9  UNL     1       1.160   0.694   3.133  1.00  0.00     0.114 C 
HETATM   13  C10 UNL     1       2.423   1.566   3.130  1.00  0.00     0.128 C 
HETATM   14  C11 UNL     1       2.118   3.014   3.290  1.00  0.00     0.219 C 
HETATM   15  O1  UNL     1       2.774   3.750   4.090  1.00  0.00    -0.274 OA
HETATM   16  N5  UNL     1       1.053   3.537   2.498  1.00  0.00    -0.356 N 
HETATM   17  C12 UNL     1       0.216   2.529   1.969  1.00  0.00     0.095 A 
ATOM     18  H5  UNL     1       0.910   4.533   2.332  1.00  0.00     0.162 HD
HETATM   19  C13 UNL     1      -1.025   1.983   2.357  1.00  0.00     0.016 A 
HETATM   20  C16 UNL     1       0.020   1.605   3.229  1.00  0.00     0.038 A 
BRANCH  19  21
HETATM   21  C14 UNL     1      -1.660   0.918   1.473  1.00  0.00     0.002 C 
HETATM   22  C15 UNL     1      -2.419  -0.095   2.302  1.00  0.00     0.005 C 
ENDBRANCH  19  21
ENDBRANCH  10  12
ENDBRANCH   7  10
BRANCH   4  23
HETATM   23  S1  UNL     1       2.285  -4.211   1.531  1.00  0.00    -0.097 SA
HETATM   24  C7  UNL     1       1.589  -5.875   1.708  1.00  0.00     0.099 C 
ENDBRANCH   4  23
BRANCH   1  25
HETATM   25  N1  UNL     1       2.167  -4.032   6.535  1.00  0.00    -0.225 N 
ATOM     26  H1  UNL     1       1.559  -3.792   7.318  1.00  0.00     0.177 HD
BRANCH  25  27
HETATM   27  C4  UNL     1       3.157  -5.057   6.706  1.00  0.00     0.142 C 
BRANCH  27  28
HETATM   28  C3  UNL     1       3.309  -5.455   8.182  1.00  0.00     0.046 C 
BRANCH  28  29
HETATM   29  C2  UNL     1       4.526  -6.284   8.339  1.00  0.00    -0.035 C 
HETATM   30  C1  UNL     1       5.016  -6.490   9.545  1.00  0.00     0.007 C 
ENDBRANCH  28  29
ENDBRANCH  27  28
ENDBRANCH  25  27
ENDBRANCH   1  25
TORSDOF 8
ENDMDL
MODEL 5
REMARK VINA RESULT: -6.998937621      2.303      7.263
REMARK  8 active torsions:
REMARK  status: ('A' for Active; 'I' for Inactive)
REMARK    1  A    between atoms: C2_2  and  C3_3 
REMARK    2  A    between atoms: C3_3  and  C4_4 
REMARK    3  A    between atoms: C4_4  and  N1_5 
REMARK    4  A    between atoms: N1_5  and  C5_7 
REMARK    5  A    between atoms: C6_10  and  S1_11 
REMARK    6  A    between atoms: C8_15  and  N4_16 
REMARK    7  A    between atoms: N4_16  and  C9_18 
REMARK    8  A    between atoms: C13_25  and  C14_26 
ROOT
HETATM    1  C5  UNL     1       1.816  -2.595   4.175  1.00  0.00     0.694 A 
HETATM    2  N2  UNL     1       1.440  -2.934   2.935  1.00  0.00    -0.169 N 
ATOM      3  H2  UNL     1       0.761  -2.360   2.434  1.00  0.00     0.186 HD
HETATM    4  C6  UNL     1       1.962  -4.049   2.337  1.00  0.00     0.174 A 
HETATM    5  N3  UNL     1       2.857  -4.827   2.969  1.00  0.00    -0.169 N 
ATOM      6  H3  UNL     1       3.238  -5.656   2.513  1.00  0.00     0.186 HD
HETATM    7  C8  UNL     1       3.241  -4.493   4.214  1.00  0.00     0.695 A 
HETATM    8  N6  UNL     1       2.727  -3.402   4.794  1.00  0.00    -0.022 N 
ATOM      9  H6  UNL     1       3.029  -3.162   5.738  1.00  0.00     0.203 HD
ENDROOT
BRANCH   7  10
HETATM   10  N4  UNL     1       4.102  -5.214   4.862  1.00  0.00    -0.220 N 
ATOM     11  H4  UNL     1       5.079  -5.196   4.568  1.00  0.00     0.178 HD
BRANCH  10  12
HETATM   12  C9  UNL     1       3.725  -6.043   5.991  1.00  0.00     0.114 C 
HETATM   13  C10 UNL     1       2.191  -6.077   6.037  1.00  0.00     0.128 C 
HETATM   14  C11 UNL     1       1.641  -5.423   7.255  1.00  0.00     0.219 C 
HETATM   15  O1  UNL     1       0.665  -4.614   7.195  1.00  0.00    -0.274 OA
HETATM   16  N5  UNL     1       2.264  -5.750   8.496  1.00  0.00    -0.356 N 
HETATM   17  C12 UNL     1       3.534  -6.349   8.333  1.00  0.00     0.095 A 
ATOM     18  H5  UNL     1       1.838  -5.571   9.405  1.00  0.00     0.162 HD
HETATM   19  C13 UNL     1       4.857  -5.866   8.383  1.00  0.00     0.016 A 
HETATM   20  C16 UNL     1       4.169  -5.416   7.234  1.00  0.00     0.038 A 
BRANCH  19  21
HETATM   21  C14 UNL     1       6.001  -6.857   8.208  1.00  0.00     0.002 C 
HETATM   22  C15 UNL     1       6.588  -7.251   9.546  1.00  0.00     0.005 C 
ENDBRANCH  19  21
ENDBRANCH  10  12
ENDBRANCH   7  10
BRANCH   4  23
HETATM   23  S1  UNL     1       1.404  -4.438   0.670  1.00  0.00    -0.097 SA
HETATM   24  C7  UNL     1      -0.255  -5.158   0.771  1.00  0.00     0.099 C 
ENDBRANCH   4  23
BRANCH   1  25
HETATM   25  N1  UNL     1       1.350  -1.558   4.767  1.00  0.00    -0.225 N 
ATOM     26  H1  UNL     1       1.445  -1.479   5.780  1.00  0.00     0.177 HD
BRANCH  25  27
HETATM   27  C4  UNL     1       0.698  -0.505   4.041  1.00  0.00     0.142 C 
BRANCH  27  28
HETATM   28  C3  UNL     1       1.683   0.608   3.654  1.00  0.00     0.046 C 
BRANCH  28  29
HETATM   29  C2  UNL     1       1.334   1.844   4.392  1.00  0.00    -0.035 C 
HETATM   30  C1  UNL     1       1.931   2.975   4.076  1.00  0.00     0.007 C 
ENDBRANCH  28  29
ENDBRANCH  27  28
ENDBRANCH  25  27
ENDBRANCH   1  25
TORSDOF 8
ENDMDL
