MODEL 1
REMARK VINA RESULT: -5.841553198      0.000      0.000
REMARK  4 active torsions:
REMARK  status: ('A' for Active; 'I' for Inactive)
REMARK    1  A    between atoms: N1_1  and  N2_4 
REMARK    2  A    between atoms: N6_10  and  N7_12 
REMARK    3  A    between atoms: C2_14  and  C3_15 
REMARK    4  A    between atoms: N8_20  and  O1_21 
ROOT
HETATM    1  N2  UNL     1     -39.704 -29.497  -4.971  1.00  0.00    -0.011 N 
HETATM    2  N3  UNL     1     -40.796 -28.872  -4.354  1.00  0.00     0.030 NA
HETATM    3  N4  UNL     1     -40.420 -28.908  -3.001  1.00  0.00     0.008 NA
HETATM    4  N5  UNL     1     -39.051 -28.619  -2.975  1.00  0.00    -0.114 N 
ATOM      5  H5  UNL     1     -38.521 -28.177  -2.223  1.00  0.00     0.203 HD
HETATM    6  C1  UNL     1     -38.558 -29.082  -4.240  1.00  0.00     0.743 C 
HETATM    7  N6  UNL     1     -37.319 -29.099  -4.598  1.00  0.00    -0.129 N 
ATOM      8  H6  UNL     1     -36.601 -28.764  -3.955  1.00  0.00     0.205 HD
ENDROOT
BRANCH   7   9
HETATM    9  N7  UNL     1     -36.956 -29.571  -5.850  1.00  0.00    -0.295 N 
HETATM   10  C2  UNL     1     -36.094 -30.515  -5.956  1.00  0.00     0.139 C 
ATOM     11  H7  UNL     1     -37.375 -29.167  -6.688  1.00  0.00     0.186 HD
BRANCH  10  12
HETATM   12  C3  UNL     1     -35.711 -31.013  -7.281  1.00  0.00     0.078 A 
HETATM   13  C4  UNL     1     -34.484 -30.730  -7.835  1.00  0.00     0.033 A 
HETATM   14  C5  UNL     1     -34.127 -31.208  -9.095  1.00  0.00     0.004 A 
HETATM   15  C6  UNL     1     -35.024 -31.982  -9.807  1.00  0.00     0.020 A 
HETATM   16  C7  UNL     1     -36.245 -32.244  -9.221  1.00  0.00     0.123 A 
HETATM   17  N8  UNL     1     -36.564 -31.767  -7.993  1.00  0.00    -0.235 N 
BRANCH  17  18
HETATM   18  O1  UNL     1     -37.796 -32.040  -7.416  1.00  0.00    -0.283 OA
ATOM     19  H1  UNL     1     -38.019 -31.558  -6.629  1.00  0.00     0.245 HD
ENDBRANCH  17  18
ENDBRANCH  10  12
ENDBRANCH   7   9
BRANCH   1  20
HETATM   20  N1  UNL     1     -39.671 -30.352  -6.065  1.00  0.00    -0.311 N 
ATOM     21  H12 UNL     1     -38.873 -30.454  -6.694  1.00  0.00     0.179 HD
ATOM     22  H11 UNL     1     -40.384 -30.991  -6.419  1.00  0.00     0.179 HD
ENDBRANCH   1  20
TORSDOF 4
ENDMDL
MODEL 2
REMARK VINA RESULT: -5.504599554      1.425      2.213
REMARK  4 active torsions:
REMARK  status: ('A' for Active; 'I' for Inactive)
REMARK    1  A    between atoms: N1_1  and  N2_4 
REMARK    2  A    between atoms: N6_10  and  N7_12 
REMARK    3  A    between atoms: C2_14  and  C3_15 
REMARK    4  A    between atoms: N8_20  and  O1_21 
ROOT
HETATM    1  N2  UNL     1     -39.459 -28.758  -4.431  1.00  0.00    -0.011 N 
HETATM    2  N3  UNL     1     -40.042 -28.486  -3.186  1.00  0.00     0.030 NA
HETATM    3  N4  UNL     1     -41.403 -28.710  -3.452  1.00  0.00     0.008 NA
HETATM    4  N5  UNL     1     -41.453 -29.846  -4.270  1.00  0.00    -0.114 N 
ATOM      5  H5  UNL     1     -42.207 -30.528  -4.344  1.00  0.00     0.203 HD
HETATM    6  C1  UNL     1     -40.207 -29.836  -4.980  1.00  0.00     0.743 C 
HETATM    7  N6  UNL     1     -39.875 -30.657  -5.918  1.00  0.00    -0.129 N 
ATOM      8  H6  UNL     1     -40.527 -31.388  -6.206  1.00  0.00     0.205 HD
ENDROOT
BRANCH   7   9
HETATM    9  N7  UNL     1     -38.639 -30.553  -6.538  1.00  0.00    -0.295 N 
HETATM   10  C2  UNL     1     -37.960 -31.611  -6.797  1.00  0.00     0.139 C 
ATOM     11  H7  UNL     1     -38.269 -29.636  -6.788  1.00  0.00     0.186 HD
BRANCH  10  12
HETATM   12  C3  UNL     1     -36.653 -31.500  -7.452  1.00  0.00     0.078 A 
HETATM   13  C4  UNL     1     -36.370 -32.163  -8.624  1.00  0.00     0.033 A 
HETATM   14  C5  UNL     1     -35.125 -32.051  -9.241  1.00  0.00     0.004 A 
HETATM   15  C6  UNL     1     -34.150 -31.259  -8.665  1.00  0.00     0.020 A 
HETATM   16  C7  UNL     1     -34.469 -30.609  -7.490  1.00  0.00     0.123 A 
HETATM   17  N8  UNL     1     -35.689 -30.736  -6.913  1.00  0.00    -0.235 N 
BRANCH  17  18
HETATM   18  O1  UNL     1     -35.995 -30.076  -5.732  1.00  0.00    -0.283 OA
ATOM     19  H1  UNL     1     -35.266 -29.820  -5.180  1.00  0.00     0.245 HD
ENDBRANCH  17  18
ENDBRANCH  10  12
ENDBRANCH   7   9
BRANCH   1  20
HETATM   20  N1  UNL     1     -38.381 -28.149  -5.062  1.00  0.00    -0.311 N 
ATOM     21  H12 UNL     1     -37.822 -27.400  -4.653  1.00  0.00     0.179 HD
ATOM     22  H11 UNL     1     -37.979 -28.324  -5.983  1.00  0.00     0.179 HD
ENDBRANCH   1  20
TORSDOF 4
ENDMDL
MODEL 3
REMARK VINA RESULT: -5.391594666      3.128      4.760
REMARK  4 active torsions:
REMARK  status: ('A' for Active; 'I' for Inactive)
REMARK    1  A    between atoms: N1_1  and  N2_4 
REMARK    2  A    between atoms: N6_10  and  N7_12 
REMARK    3  A    between atoms: C2_14  and  C3_15 
REMARK    4  A    between atoms: N8_20  and  O1_21 
ROOT
HETATM    1  N2  UNL     1     -43.247 -29.738  -3.447  1.00  0.00    -0.011 N 
HETATM    2  N3  UNL     1     -44.428 -29.860  -2.704  1.00  0.00     0.030 NA
HETATM    3  N4  UNL     1     -45.392 -29.992  -3.717  1.00  0.00     0.008 NA
HETATM    4  N5  UNL     1     -44.819 -30.822  -4.687  1.00  0.00    -0.114 N 
ATOM      5  H5  UNL     1     -45.298 -31.449  -5.334  1.00  0.00     0.203 HD
HETATM    6  C1  UNL     1     -43.407 -30.596  -4.570  1.00  0.00     0.743 C 
HETATM    7  N6  UNL     1     -42.504 -31.091  -5.347  1.00  0.00    -0.129 N 
ATOM      8  H6  UNL     1     -42.778 -31.698  -6.120  1.00  0.00     0.205 HD
ENDROOT
BRANCH   7   9
HETATM    9  N7  UNL     1     -41.164 -30.803  -5.138  1.00  0.00    -0.295 N 
HETATM   10  C2  UNL     1     -40.451 -30.336  -6.098  1.00  0.00     0.139 C 
ATOM     11  H7  UNL     1     -40.745 -30.962  -4.222  1.00  0.00     0.186 HD
BRANCH  10  12
HETATM   12  C3  UNL     1     -39.034 -30.033  -5.876  1.00  0.00     0.078 A 
HETATM   13  C4  UNL     1     -38.035 -30.878  -6.304  1.00  0.00     0.033 A 
HETATM   14  C5  UNL     1     -36.690 -30.581  -6.090  1.00  0.00     0.004 A 
HETATM   15  C6  UNL     1     -36.348 -29.415  -5.433  1.00  0.00     0.020 A 
HETATM   16  C7  UNL     1     -37.375 -28.592  -5.018  1.00  0.00     0.123 A 
HETATM   17  N8  UNL     1     -38.674 -28.906  -5.241  1.00  0.00    -0.235 N 
BRANCH  17  18
HETATM   18  O1  UNL     1     -39.696 -28.068  -4.818  1.00  0.00    -0.283 OA
ATOM     19  H1  UNL     1     -39.446 -27.305  -4.310  1.00  0.00     0.245 HD
ENDBRANCH  17  18
ENDBRANCH  10  12
ENDBRANCH   7   9
BRANCH   1  20
HETATM   20  N1  UNL     1     -42.118 -28.966  -3.204  1.00  0.00    -0.311 N 
ATOM     21  H12 UNL     1     -41.229 -29.073  -3.694  1.00  0.00     0.179 HD
ATOM     22  H11 UNL     1     -41.977 -28.205  -2.539  1.00  0.00     0.179 HD
ENDBRANCH   1  20
TORSDOF 4
ENDMDL
MODEL 4
REMARK VINA RESULT: -5.362758860      1.651      1.969
REMARK  4 active torsions:
REMARK  status: ('A' for Active; 'I' for Inactive)
REMARK    1  A    between atoms: N1_1  and  N2_4 
REMARK    2  A    between atoms: N6_10  and  N7_12 
REMARK    3  A    between atoms: C2_14  and  C3_15 
REMARK    4  A    between atoms: N8_20  and  O1_21 
ROOT
HETATM    1  N2  UNL     1     -39.217 -29.665  -5.482  1.00  0.00    -0.011 N 
HETATM    2  N3  UNL     1     -40.120 -28.702  -5.012  1.00  0.00     0.030 NA
HETATM    3  N4  UNL     1     -39.687 -28.526  -3.687  1.00  0.00     0.008 NA
HETATM    4  N5  UNL     1     -38.288 -28.539  -3.734  1.00  0.00    -0.114 N 
ATOM      5  H5  UNL     1     -37.638 -28.070  -3.103  1.00  0.00     0.203 HD
HETATM    6  C1  UNL     1     -37.971 -29.358  -4.868  1.00  0.00     0.743 C 
HETATM    7  N6  UNL     1     -36.784 -29.717  -5.222  1.00  0.00    -0.129 N 
ATOM      8  H6  UNL     1     -35.978 -29.413  -4.674  1.00  0.00     0.205 HD
ENDROOT
BRANCH   7   9
HETATM    9  N7  UNL     1     -36.595 -30.513  -6.341  1.00  0.00    -0.295 N 
HETATM   10  C2  UNL     1     -35.447 -30.556  -6.912  1.00  0.00     0.139 C 
ATOM     11  H7  UNL     1     -37.369 -31.066  -6.710  1.00  0.00     0.186 HD
BRANCH  10  12
HETATM   12  C3  UNL     1     -35.249 -31.399  -8.096  1.00  0.00     0.078 A 
HETATM   13  C4  UNL     1     -36.280 -32.119  -8.654  1.00  0.00     0.033 A 
HETATM   14  C5  UNL     1     -36.083 -32.918  -9.780  1.00  0.00     0.004 A 
HETATM   15  C6  UNL     1     -34.827 -32.990 -10.351  1.00  0.00     0.020 A 
HETATM   16  C7  UNL     1     -33.817 -32.254  -9.764  1.00  0.00     0.123 A 
HETATM   17  N8  UNL     1     -34.038 -31.486  -8.670  1.00  0.00    -0.235 N 
BRANCH  17  18
HETATM   18  O1  UNL     1     -33.013 -30.751  -8.091  1.00  0.00    -0.283 OA
ATOM     19  H1  UNL     1     -32.591 -30.097  -8.636  1.00  0.00     0.245 HD
ENDBRANCH  17  18
ENDBRANCH  10  12
ENDBRANCH   7   9
BRANCH   1  20
HETATM   20  N1  UNL     1     -39.420 -30.722  -6.359  1.00  0.00    -0.311 N 
ATOM     21  H12 UNL     1     -38.798 -31.526  -6.449  1.00  0.00     0.179 HD
ATOM     22  H11 UNL     1     -40.174 -30.881  -7.028  1.00  0.00     0.179 HD
ENDBRANCH   1  20
TORSDOF 4
ENDMDL
MODEL 5
REMARK VINA RESULT: -5.290595696      3.742      5.355
REMARK  4 active torsions:
REMARK  status: ('A' for Active; 'I' for Inactive)
REMARK    1  A    between atoms: N1_1  and  N2_4 
REMARK    2  A    between atoms: N6_10  and  N7_12 
REMARK    3  A    between atoms: C2_14  and  C3_15 
REMARK    4  A    between atoms: N8_20  and  O1_21 
ROOT
HETATM    1  N2  UNL     1     -43.741 -29.700  -7.424  1.00  0.00    -0.011 N 
HETATM    2  N3  UNL     1     -44.952 -29.030  -7.642  1.00  0.00     0.030 NA
HETATM    3  N4  UNL     1     -45.887 -29.976  -7.191  1.00  0.00     0.008 NA
HETATM    4  N5  UNL     1     -45.336 -30.539  -6.034  1.00  0.00    -0.114 N 
ATOM      5  H5  UNL     1     -45.832 -30.936  -5.235  1.00  0.00     0.203 HD
HETATM    6  C1  UNL     1     -43.918 -30.435  -6.220  1.00  0.00     0.743 C 
HETATM    7  N6  UNL     1     -43.022 -30.924  -5.431  1.00  0.00    -0.129 N 
ATOM      8  H6  UNL     1     -43.308 -31.434  -4.594  1.00  0.00     0.205 HD
ENDROOT
BRANCH   7   9
HETATM    9  N7  UNL     1     -41.674 -30.762  -5.712  1.00  0.00    -0.295 N 
HETATM   10  C2  UNL     1     -40.931 -30.081  -4.918  1.00  0.00     0.139 C 
ATOM     11  H7  UNL     1     -41.273 -31.185  -6.549  1.00  0.00     0.186 HD
BRANCH  10  12
HETATM   12  C3  UNL     1     -39.505 -29.910  -5.217  1.00  0.00     0.078 A 
HETATM   13  C4  UNL     1     -38.758 -30.916  -5.785  1.00  0.00     0.033 A 
HETATM   14  C5  UNL     1     -37.403 -30.745  -6.067  1.00  0.00     0.004 A 
HETATM   15  C6  UNL     1     -36.794 -29.541  -5.769  1.00  0.00     0.020 A 
HETATM   16  C7  UNL     1     -37.574 -28.556  -5.198  1.00  0.00     0.123 A 
HETATM   17  N8  UNL     1     -38.889 -28.750  -4.937  1.00  0.00    -0.235 N 
BRANCH  17  18
HETATM   18  O1  UNL     1     -39.662 -27.749  -4.364  1.00  0.00    -0.283 OA
ATOM     19  H1  UNL     1     -39.647 -27.683  -3.417  1.00  0.00     0.245 HD
ENDBRANCH  17  18
ENDBRANCH  10  12
ENDBRANCH   7   9
BRANCH   1  20
HETATM   20  N1  UNL     1     -42.573 -29.695  -8.177  1.00  0.00    -0.311 N 
ATOM     21  H12 UNL     1     -42.339 -28.989  -8.875  1.00  0.00     0.179 HD
ATOM     22  H11 UNL     1     -41.790 -30.350  -8.174  1.00  0.00     0.179 HD
ENDBRANCH   1  20
TORSDOF 4
ENDMDL
