MODEL 1
REMARK VINA RESULT: -6.705362646      0.000      0.000
REMARK  6 active torsions:
REMARK  status: ('A' for Active; 'I' for Inactive)
REMARK    1  A    between atoms: C2_2  and  C4_4 
REMARK    2  A    between atoms: C4_4  and  N1_5 
REMARK    3  A    between atoms: C4_4  and  C14_23 
REMARK       I    between atoms: N1_5  and  C5_7 
REMARK    4  A    between atoms: C5_7  and  C6_9 
REMARK       I    between atoms: N2_15  and  C10_16 
REMARK    5  A    between atoms: C10_16  and  C11_18 
REMARK    6  A    between atoms: C12_19  and  C13_20 
REMARK       I    between atoms: C14_23  and  N3_25 
ROOT
HETATM    1  N1  UNL     1      12.786  -4.439  22.665  1.00  0.00    -0.346 N 
ATOM      2  H1  UNL     1      13.781  -4.605  22.518  1.00  0.00     0.163 HD
HETATM    3  C5  UNL     1      11.856  -5.406  22.209  1.00  0.00     0.241 C 
HETATM    4  O1  UNL     1      10.648  -5.223  22.373  1.00  0.00    -0.271 OA
ENDROOT
BRANCH   3   5
HETATM    5  C6  UNL     1      12.388  -6.611  21.548  1.00  0.00     0.185 C 
HETATM    6  C7  UNL     1      13.236  -6.022  20.389  1.00  0.00     0.115 C 
HETATM    7  C8  UNL     1      14.284  -7.044  20.158  1.00  0.00     0.261 C 
HETATM    8  F1  UNL     1      15.569  -6.480  20.241  1.00  0.00    -0.204 F 
HETATM    9  F2  UNL     1      14.148  -7.610  18.899  1.00  0.00    -0.204 F 
HETATM   10  C9  UNL     1      14.164  -8.073  21.242  1.00  0.00     0.206 C 
HETATM   11  N2  UNL     1      13.312  -7.414  22.244  1.00  0.00    -0.329 N 
HETATM   12  C10 UNL     1      13.472  -7.697  23.663  1.00  0.00     0.244 C 
HETATM   13  O2  UNL     1      12.684  -7.222  24.523  1.00  0.00    -0.268 OA
BRANCH  12  14
HETATM   14  C11 UNL     1      14.538  -8.535  24.150  1.00  0.00     0.081 C 
HETATM   15  C12 UNL     1      14.581  -8.909  25.414  1.00  0.00     0.090 C 
BRANCH  15  16
HETATM   16  C13 UNL     1      15.667  -9.757  25.899  1.00  0.00     0.198 C 
HETATM   17  O3  UNL     1      15.823 -10.942  25.487  1.00  0.00    -0.645 OA
HETATM   18  O4  UNL     1      16.568  -9.259  26.847  1.00  0.00    -0.645 OA
ENDBRANCH  15  16
ENDBRANCH  12  14
ENDBRANCH   3   5
BRANCH   1  19
HETATM   19  C4  UNL     1      12.365  -3.211  23.338  1.00  0.00     0.180 C 
BRANCH  19  20
HETATM   20  C2  UNL     1      13.185  -3.022  24.596  1.00  0.00     0.009 C 
HETATM   21  C1  UNL     1      13.221  -1.604  25.061  1.00  0.00     0.012 C 
HETATM   22  C3  UNL     1      12.614  -3.867  25.698  1.00  0.00     0.012 C 
ENDBRANCH  19  20
BRANCH  19  23
HETATM   23  C14 UNL     1      12.586  -2.130  22.345  1.00  0.00     0.243 C 
HETATM   24  O5  UNL     1      13.663  -2.109  21.646  1.00  0.00    -0.271 OA
HETATM   25  N3  UNL     1      11.655  -1.092  22.112  1.00  0.00    -0.345 N 
HETATM   26  C15 UNL     1      10.352  -0.623  22.524  1.00  0.00     0.164 C 
HETATM   27  C17 UNL     1      11.696   0.082  21.225  1.00  0.00     0.164 C 
HETATM   28  C16 UNL     1      10.195   0.029  21.164  1.00  0.00     0.206 C 
HETATM   29  F3  UNL     1       9.666  -0.774  20.194  1.00  0.00    -0.246 F 
ENDBRANCH  19  23
ENDBRANCH   1  19
TORSDOF 6
ENDMDL
MODEL 2
REMARK VINA RESULT: -6.575711214      1.190      1.358
REMARK  6 active torsions:
REMARK  status: ('A' for Active; 'I' for Inactive)
REMARK    1  A    between atoms: C2_2  and  C4_4 
REMARK    2  A    between atoms: C4_4  and  N1_5 
REMARK    3  A    between atoms: C4_4  and  C14_23 
REMARK       I    between atoms: N1_5  and  C5_7 
REMARK    4  A    between atoms: C5_7  and  C6_9 
REMARK       I    between atoms: N2_15  and  C10_16 
REMARK    5  A    between atoms: C10_16  and  C11_18 
REMARK    6  A    between atoms: C12_19  and  C13_20 
REMARK       I    between atoms: C14_23  and  N3_25 
ROOT
HETATM    1  N1  UNL     1      12.369  -3.303  22.522  1.00  0.00    -0.346 N 
ATOM      2  H1  UNL     1      13.259  -3.581  22.107  1.00  0.00     0.163 HD
HETATM    3  C5  UNL     1      11.286  -4.215  22.496  1.00  0.00     0.241 C 
HETATM    4  O1  UNL     1      10.201  -3.896  22.989  1.00  0.00    -0.271 OA
ENDROOT
BRANCH   3   5
HETATM    5  C6  UNL     1      11.510  -5.529  21.868  1.00  0.00     0.185 C 
HETATM    6  C7  UNL     1      12.305  -5.168  20.585  1.00  0.00     0.115 C 
HETATM    7  C8  UNL     1      13.117  -6.377  20.315  1.00  0.00     0.261 C 
HETATM    8  F1  UNL     1      14.483  -6.058  20.217  1.00  0.00    -0.204 F 
HETATM    9  F2  UNL     1      12.731  -6.970  19.122  1.00  0.00    -0.204 F 
HETATM   10  C9  UNL     1      12.946  -7.309  21.476  1.00  0.00     0.206 C 
HETATM   11  N2  UNL     1      12.352  -6.454  22.515  1.00  0.00    -0.329 N 
HETATM   12  C10 UNL     1      12.628  -6.690  23.925  1.00  0.00     0.244 C 
HETATM   13  O2  UNL     1      12.047  -6.034  24.830  1.00  0.00    -0.268 OA
BRANCH  12  14
HETATM   14  C11 UNL     1      13.578  -7.686  24.352  1.00  0.00     0.081 C 
HETATM   15  C12 UNL     1      13.429  -8.315  25.502  1.00  0.00     0.090 C 
BRANCH  15  16
HETATM   16  C13 UNL     1      14.398  -9.321  25.927  1.00  0.00     0.198 C 
HETATM   17  O3  UNL     1      14.117 -10.191  26.800  1.00  0.00    -0.645 OA
HETATM   18  O4  UNL     1      15.678  -9.337  25.362  1.00  0.00    -0.645 OA
ENDBRANCH  15  16
ENDBRANCH  12  14
ENDBRANCH   3   5
BRANCH   1  19
HETATM   19  C4  UNL     1      12.256  -1.976  23.124  1.00  0.00     0.180 C 
BRANCH  19  20
HETATM   20  C2  UNL     1      13.391  -1.770  24.104  1.00  0.00     0.009 C 
HETATM   21  C1  UNL     1      13.036  -0.848  25.224  1.00  0.00     0.012 C 
HETATM   22  C3  UNL     1      13.794  -3.093  24.690  1.00  0.00     0.012 C 
ENDBRANCH  19  20
BRANCH  19  23
HETATM   23  C14 UNL     1      12.307  -1.027  21.984  1.00  0.00     0.243 C 
HETATM   24  O5  UNL     1      13.402  -0.862  21.332  1.00  0.00    -0.271 OA
HETATM   25  N3  UNL     1      11.192  -0.272  21.555  1.00  0.00    -0.345 N 
HETATM   26  C15 UNL     1       9.791  -0.057  21.837  1.00  0.00     0.164 C 
HETATM   27  C17 UNL     1      11.040   0.741  20.497  1.00  0.00     0.164 C 
HETATM   28  C16 UNL     1       9.596   0.340  20.387  1.00  0.00     0.206 C 
HETATM   29  F3  UNL     1       9.327  -0.693  19.535  1.00  0.00    -0.246 F 
ENDBRANCH  19  23
ENDBRANCH   1  19
TORSDOF 6
ENDMDL
MODEL 3
REMARK VINA RESULT: -6.481549753      2.854      4.487
REMARK  6 active torsions:
REMARK  status: ('A' for Active; 'I' for Inactive)
REMARK    1  A    between atoms: C2_2  and  C4_4 
REMARK    2  A    between atoms: C4_4  and  N1_5 
REMARK    3  A    between atoms: C4_4  and  C14_23 
REMARK       I    between atoms: N1_5  and  C5_7 
REMARK    4  A    between atoms: C5_7  and  C6_9 
REMARK       I    between atoms: N2_15  and  C10_16 
REMARK    5  A    between atoms: C10_16  and  C11_18 
REMARK    6  A    between atoms: C12_19  and  C13_20 
REMARK       I    between atoms: C14_23  and  N3_25 
ROOT
HETATM    1  N1  UNL     1      13.400  -5.070  23.238  1.00  0.00    -0.346 N 
ATOM      2  H1  UNL     1      14.385  -4.990  22.987  1.00  0.00     0.163 HD
HETATM    3  C5  UNL     1      12.786  -6.346  23.205  1.00  0.00     0.241 C 
HETATM    4  O1  UNL     1      11.595  -6.463  23.501  1.00  0.00    -0.271 OA
ENDROOT
BRANCH   3   5
HETATM    5  C6  UNL     1      13.617  -7.497  22.810  1.00  0.00     0.185 C 
HETATM    6  C7  UNL     1      12.918  -8.687  23.520  1.00  0.00     0.115 C 
HETATM    7  C8  UNL     1      13.231  -9.852  22.659  1.00  0.00     0.261 C 
HETATM    8  F1  UNL     1      12.058 -10.516  22.260  1.00  0.00    -0.204 F 
HETATM    9  F2  UNL     1      14.026 -10.763  23.338  1.00  0.00    -0.204 F 
HETATM   10  C9  UNL     1      13.909  -9.337  21.426  1.00  0.00     0.206 C 
HETATM   11  N2  UNL     1      13.626  -7.893  21.459  1.00  0.00    -0.329 N 
HETATM   12  C10 UNL     1      13.477  -7.133  20.227  1.00  0.00     0.244 C 
HETATM   13  O2  UNL     1      13.339  -5.882  20.236  1.00  0.00    -0.268 OA
BRANCH  12  14
HETATM   14  C11 UNL     1      13.482  -7.777  18.937  1.00  0.00     0.081 C 
HETATM   15  C12 UNL     1      12.418  -7.742  18.159  1.00  0.00     0.090 C 
BRANCH  15  16
HETATM   16  C13 UNL     1      12.431  -8.399  16.855  1.00  0.00     0.198 C 
HETATM   17  O3  UNL     1      11.449  -8.330  16.063  1.00  0.00    -0.645 OA
HETATM   18  O4  UNL     1      13.556  -9.131  16.457  1.00  0.00    -0.645 OA
ENDBRANCH  15  16
ENDBRANCH  12  14
ENDBRANCH   3   5
BRANCH   1  19
HETATM   19  C4  UNL     1      12.668  -3.863  23.620  1.00  0.00     0.180 C 
BRANCH  19  20
HETATM   20  C2  UNL     1      13.118  -3.418  24.996  1.00  0.00     0.009 C 
HETATM   21  C1  UNL     1      14.036  -2.242  24.958  1.00  0.00     0.012 C 
HETATM   22  C3  UNL     1      11.918  -3.056  25.823  1.00  0.00     0.012 C 
ENDBRANCH  19  20
BRANCH  19  23
HETATM   23  C14 UNL     1      12.986  -2.867  22.567  1.00  0.00     0.243 C 
HETATM   24  O5  UNL     1      13.967  -3.071  21.763  1.00  0.00    -0.271 OA
HETATM   25  N3  UNL     1      12.252  -1.673  22.385  1.00  0.00    -0.345 N 
HETATM   26  C15 UNL     1      11.114  -0.950  22.906  1.00  0.00     0.164 C 
HETATM   27  C17 UNL     1      12.423  -0.547  21.451  1.00  0.00     0.164 C 
HETATM   28  C16 UNL     1      10.942  -0.309  21.543  1.00  0.00     0.206 C 
HETATM   29  F3  UNL     1      10.169  -1.013  20.665  1.00  0.00    -0.246 F 
ENDBRANCH  19  23
ENDBRANCH   1  19
TORSDOF 6
ENDMDL
MODEL 4
REMARK VINA RESULT: -6.410829940      3.305      7.902
REMARK  6 active torsions:
REMARK  status: ('A' for Active; 'I' for Inactive)
REMARK    1  A    between atoms: C2_2  and  C4_4 
REMARK    2  A    between atoms: C4_4  and  N1_5 
REMARK    3  A    between atoms: C4_4  and  C14_23 
REMARK       I    between atoms: N1_5  and  C5_7 
REMARK    4  A    between atoms: C5_7  and  C6_9 
REMARK       I    between atoms: N2_15  and  C10_16 
REMARK    5  A    between atoms: C10_16  and  C11_18 
REMARK    6  A    between atoms: C12_19  and  C13_20 
REMARK       I    between atoms: C14_23  and  N3_25 
ROOT
HETATM    1  N1  UNL     1      13.054  -5.437  21.793  1.00  0.00    -0.346 N 
ATOM      2  H1  UNL     1      12.319  -5.948  22.282  1.00  0.00     0.163 HD
HETATM    3  C5  UNL     1      13.471  -4.183  22.301  1.00  0.00     0.241 C 
HETATM    4  O1  UNL     1      14.354  -3.547  21.722  1.00  0.00    -0.271 OA
ENDROOT
BRANCH   3   5
HETATM    5  C6  UNL     1      12.816  -3.685  23.524  1.00  0.00     0.185 C 
HETATM    6  C7  UNL     1      13.920  -2.811  24.176  1.00  0.00     0.115 C 
HETATM    7  C8  UNL     1      13.164  -1.795  24.945  1.00  0.00     0.261 C 
HETATM    8  F1  UNL     1      13.550  -0.493  24.580  1.00  0.00    -0.204 F 
HETATM    9  F2  UNL     1      13.391  -1.941  26.306  1.00  0.00    -0.204 F 
HETATM   10  C9  UNL     1      11.713  -1.954  24.607  1.00  0.00     0.206 C 
HETATM   11  N2  UNL     1      11.735  -2.792  23.397  1.00  0.00    -0.329 N 
HETATM   12  C10 UNL     1      10.711  -2.650  22.372  1.00  0.00     0.244 C 
HETATM   13  O2  UNL     1      10.656  -3.428  21.383  1.00  0.00    -0.268 OA
BRANCH  12  14
HETATM   14  C11 UNL     1       9.712  -1.614  22.441  1.00  0.00     0.081 C 
HETATM   15  C12 UNL     1       9.567  -0.746  21.458  1.00  0.00     0.090 C 
BRANCH  15  16
HETATM   16  C13 UNL     1       8.553   0.301  21.538  1.00  0.00     0.198 C 
HETATM   17  O3  UNL     1       8.001   0.775  20.505  1.00  0.00    -0.645 OA
HETATM   18  O4  UNL     1       8.171   0.805  22.786  1.00  0.00    -0.645 OA
ENDBRANCH  15  16
ENDBRANCH  12  14
ENDBRANCH   3   5
BRANCH   1  19
HETATM   19  C4  UNL     1      13.641  -6.024  20.590  1.00  0.00     0.180 C 
BRANCH  19  20
HETATM   20  C2  UNL     1      14.763  -6.962  20.985  1.00  0.00     0.009 C 
HETATM   21  C1  UNL     1      16.106  -6.313  20.947  1.00  0.00     0.012 C 
HETATM   22  C3  UNL     1      14.523  -7.472  22.376  1.00  0.00     0.012 C 
ENDBRANCH  19  20
BRANCH  19  23
HETATM   23  C14 UNL     1      12.522  -6.726  19.915  1.00  0.00     0.243 C 
HETATM   24  O5  UNL     1      11.307  -6.396  20.170  1.00  0.00    -0.271 OA
HETATM   25  N3  UNL     1      12.714  -7.766  18.976  1.00  0.00    -0.345 N 
HETATM   26  C15 UNL     1      13.755  -8.507  18.301  1.00  0.00     0.164 C 
HETATM   27  C17 UNL     1      11.761  -8.612  18.238  1.00  0.00     0.164 C 
HETATM   28  C16 UNL     1      12.793  -8.746  17.154  1.00  0.00     0.206 C 
HETATM   29  F3  UNL     1      12.780  -7.774  16.196  1.00  0.00    -0.246 F 
ENDBRANCH  19  23
ENDBRANCH   1  19
TORSDOF 6
ENDMDL
MODEL 5
REMARK VINA RESULT: -6.333116688      4.054      5.500
REMARK  6 active torsions:
REMARK  status: ('A' for Active; 'I' for Inactive)
REMARK    1  A    between atoms: C2_2  and  C4_4 
REMARK    2  A    between atoms: C4_4  and  N1_5 
REMARK    3  A    between atoms: C4_4  and  C14_23 
REMARK       I    between atoms: N1_5  and  C5_7 
REMARK    4  A    between atoms: C5_7  and  C6_9 
REMARK       I    between atoms: N2_15  and  C10_16 
REMARK    5  A    between atoms: C10_16  and  C11_18 
REMARK    6  A    between atoms: C12_19  and  C13_20 
REMARK       I    between atoms: C14_23  and  N3_25 
ROOT
HETATM    1  N1  UNL     1      12.717  -7.544  20.285  1.00  0.00    -0.346 N 
ATOM      2  H1  UNL     1      13.102  -7.110  19.446  1.00  0.00     0.163 HD
HETATM    3  C5  UNL     1      12.122  -8.825  20.182  1.00  0.00     0.241 C 
HETATM    4  O1  UNL     1      11.647  -9.365  21.184  1.00  0.00    -0.271 OA
ENDROOT
BRANCH   3   5
HETATM    5  C6  UNL     1      12.098  -9.466  18.856  1.00  0.00     0.185 C 
HETATM    6  C7  UNL     1      11.694  -8.299  17.916  1.00  0.00     0.115 C 
HETATM    7  C8  UNL     1      12.306  -8.659  16.615  1.00  0.00     0.261 C 
HETATM    8  F1  UNL     1      13.127  -7.622  16.138  1.00  0.00    -0.204 F 
HETATM    9  F2  UNL     1      11.327  -8.899  15.662  1.00  0.00    -0.204 F 
HETATM   10  C9  UNL     1      13.170  -9.863  16.836  1.00  0.00     0.206 C 
HETATM   11  N2  UNL     1      13.310  -9.918  18.300  1.00  0.00    -0.329 N 
HETATM   12  C10 UNL     1      14.522 -10.438  18.915  1.00  0.00     0.244 C 
HETATM   13  O2  UNL     1      14.617 -10.589  20.162  1.00  0.00    -0.268 OA
BRANCH  12  14
HETATM   14  C11 UNL     1      15.671 -10.807  18.127  1.00  0.00     0.081 C 
HETATM   15  C12 UNL     1      16.463 -11.792  18.503  1.00  0.00     0.090 C 
BRANCH  15  16
HETATM   16  C13 UNL     1      17.626 -12.157  17.699  1.00  0.00     0.198 C 
HETATM   17  O3  UNL     1      18.443 -13.045  18.073  1.00  0.00    -0.645 OA
HETATM   18  O4  UNL     1      17.856 -11.514  16.477  1.00  0.00    -0.645 OA
ENDBRANCH  15  16
ENDBRANCH  12  14
ENDBRANCH   3   5
BRANCH   1  19
HETATM   19  C4  UNL     1      12.798  -6.822  21.554  1.00  0.00     0.180 C 
BRANCH  19  20
HETATM   20  C2  UNL     1      14.231  -6.824  22.042  1.00  0.00     0.009 C 
HETATM   21  C1  UNL     1      14.600  -8.078  22.763  1.00  0.00     0.012 C 
HETATM   22  C3  UNL     1      15.159  -6.660  20.873  1.00  0.00     0.012 C 
ENDBRANCH  19  20
BRANCH  19  23
HETATM   23  C14 UNL     1      12.298  -5.457  21.257  1.00  0.00     0.243 C 
HETATM   24  O5  UNL     1      11.687  -5.222  20.151  1.00  0.00    -0.271 OA
HETATM   25  N3  UNL     1      12.454  -4.366  22.141  1.00  0.00    -0.345 N 
HETATM   26  C15 UNL     1      12.981  -4.028  23.444  1.00  0.00     0.164 C 
HETATM   27  C17 UNL     1      12.083  -2.946  22.025  1.00  0.00     0.164 C 
HETATM   28  C16 UNL     1      11.969  -2.902  23.522  1.00  0.00     0.206 C 
HETATM   29  F3  UNL     1      10.753  -3.251  24.038  1.00  0.00    -0.246 F 
ENDBRANCH  19  23
ENDBRANCH   1  19
TORSDOF 6
ENDMDL
