MODEL 1
REMARK VINA RESULT: -5.184783506      0.000      0.000
REMARK  9 active torsions:
REMARK  status: ('A' for Active; 'I' for Inactive)
REMARK    1  A    between atoms: C2_2  and  N1_3 
REMARK    2  A    between atoms: C2_2  and  C3_7 
REMARK    3  A    between atoms: C2_2  and  C4_9 
REMARK    4  A    between atoms: C4_9  and  C5_10 
REMARK    5  A    between atoms: C4_9  and  C11_23 
REMARK    6  A    between atoms: C5_10  and  O2_11 
REMARK    7  A    between atoms: C5_10  and  N2_13 
REMARK    8  A    between atoms: C7_15  and  N3_16 
REMARK       I    between atoms: N3_16  and  C8_18 
REMARK    9  A    between atoms: C8_18  and  C9_20 
ROOT
HETATM    1  C4  UNL     1      12.832  -7.838  19.043  1.00  0.00     0.110 C 
ENDROOT
BRANCH   1   2
HETATM    2  C2  UNL     1      13.576  -7.254  20.180  1.00  0.00     0.183 C 
HETATM    3  C1  UNL     1      13.132  -5.888  20.636  1.00  0.00     0.054 C 
BRANCH   2   4
HETATM    4  N1  UNL     1      14.980  -7.126  19.841  1.00  0.00    -0.064 N 
ATOM      5  H13 UNL     1      15.357  -6.194  20.017  1.00  0.00     0.275 HD
ATOM      6  H12 UNL     1      15.599  -7.632  20.475  1.00  0.00     0.275 HD
ATOM      7  H11 UNL     1      15.063  -7.422  18.869  1.00  0.00     0.275 HD
ENDBRANCH   2   4
BRANCH   2   8
HETATM    8  C3  UNL     1      13.533  -8.138  21.394  1.00  0.00     0.270 C 
HETATM    9  O1  UNL     1      14.552  -8.548  21.905  1.00  0.00    -0.304 OA
ENDBRANCH   2   8
ENDBRANCH   1   2
BRANCH   1  10
HETATM   10  C5  UNL     1      13.577  -8.517  17.997  1.00  0.00     0.121 C 
BRANCH  10  11
HETATM   11  O2  UNL     1      13.694  -7.811  16.904  1.00  0.00    -0.349 OA
ATOM     12  H2  UNL     1      14.138  -8.273  16.203  1.00  0.00     0.219 HD
ENDBRANCH  10  11
BRANCH  10  13
HETATM   13  N2  UNL     1      14.186  -9.757  17.931  1.00  0.00    -0.361 N 
HETATM   14  C6  UNL     1      14.731 -10.641  18.992  1.00  0.00     0.151 C 
HETATM   15  C7  UNL     1      15.475 -11.447  17.983  1.00  0.00     0.120 C 
HETATM   16  C10 UNL     1      14.584 -10.738  16.963  1.00  0.00     0.151 C 
BRANCH  15  17
HETATM   17  N3  UNL     1      16.860 -11.126  17.800  1.00  0.00    -0.353 N 
HETATM   18  C8  UNL     1      17.882 -12.096  17.970  1.00  0.00     0.228 C 
HETATM   19  O3  UNL     1      17.548 -13.265  18.291  1.00  0.00    -0.273 OA
ATOM     20  H3  UNL     1      17.118 -10.174  17.540  1.00  0.00     0.163 HD
BRANCH  18  21
HETATM   21  C9  UNL     1      19.311 -11.776  17.783  1.00  0.00     0.187 C 
HETATM   22 BR1  UNL     1      20.332 -12.420  19.294  1.00  0.00    -0.087 Br
ENDBRANCH  18  21
ENDBRANCH  15  17
ENDBRANCH  10  13
ENDBRANCH   1  10
BRANCH   1  23
HETATM   23  C11 UNL     1      11.675  -8.738  19.424  1.00  0.00     0.042 A 
HETATM   24  C12 UNL     1      10.427  -8.197  19.941  1.00  0.00     0.051 A 
HETATM   25  C13 UNL     1      10.449  -8.835  18.558  1.00  0.00     0.118 A 
HETATM   26 CL1  UNL     1       9.607 -10.394  18.408  1.00  0.00    -0.101 Cl
HETATM   27 CL2  UNL     1      10.325  -7.812  17.121  1.00  0.00    -0.101 Cl
ENDBRANCH   1  23
TORSDOF 9
ENDMDL
MODEL 2
REMARK VINA RESULT: -5.135427462      2.307      3.451
REMARK  9 active torsions:
REMARK  status: ('A' for Active; 'I' for Inactive)
REMARK    1  A    between atoms: C2_2  and  N1_3 
REMARK    2  A    between atoms: C2_2  and  C3_7 
REMARK    3  A    between atoms: C2_2  and  C4_9 
REMARK    4  A    between atoms: C4_9  and  C5_10 
REMARK    5  A    between atoms: C4_9  and  C11_23 
REMARK    6  A    between atoms: C5_10  and  O2_11 
REMARK    7  A    between atoms: C5_10  and  N2_13 
REMARK    8  A    between atoms: C7_15  and  N3_16 
REMARK       I    between atoms: N3_16  and  C8_18 
REMARK    9  A    between atoms: C8_18  and  C9_20 
ROOT
HETATM    1  C4  UNL     1      12.024  -8.632  18.022  1.00  0.00     0.110 C 
ENDROOT
BRANCH   1   2
HETATM    2  C2  UNL     1      10.827  -8.728  17.159  1.00  0.00     0.183 C 
HETATM    3  C1  UNL     1      10.838  -9.824  16.124  1.00  0.00     0.054 C 
BRANCH   2   4
HETATM    4  N1  UNL     1      10.639  -7.491  16.429  1.00  0.00    -0.064 N 
ATOM      5  H13 UNL     1      11.511  -6.999  16.231  1.00  0.00     0.275 HD
ATOM      6  H12 UNL     1      10.352  -7.629  15.460  1.00  0.00     0.275 HD
ATOM      7  H11 UNL     1       9.976  -6.940  16.975  1.00  0.00     0.275 HD
ENDBRANCH   2   4
BRANCH   2   8
HETATM    8  C3  UNL     1       9.570  -8.919  17.960  1.00  0.00     0.270 C 
HETATM    9  O1  UNL     1       8.518  -9.182  17.419  1.00  0.00    -0.304 OA
ENDBRANCH   2   8
ENDBRANCH   1   2
BRANCH   1  10
HETATM   10  C5  UNL     1      13.321  -8.953  17.452  1.00  0.00     0.121 C 
BRANCH  10  11
HETATM   11  O2  UNL     1      13.892  -7.938  16.860  1.00  0.00    -0.349 OA
ATOM     12  H2  UNL     1      13.594  -7.805  15.968  1.00  0.00     0.219 HD
ENDBRANCH  10  11
BRANCH  10  13
HETATM   13  N2  UNL     1      14.068 -10.117  17.413  1.00  0.00    -0.361 N 
HETATM   14  C6  UNL     1      14.550 -11.011  18.495  1.00  0.00     0.151 C 
HETATM   15  C7  UNL     1      15.518 -11.664  17.569  1.00  0.00     0.120 C 
HETATM   16  C10 UNL     1      14.710 -10.982  16.465  1.00  0.00     0.151 C 
BRANCH  15  17
HETATM   17  N3  UNL     1      16.870 -11.191  17.614  1.00  0.00    -0.353 N 
HETATM   18  C8  UNL     1      17.956 -12.053  17.918  1.00  0.00     0.228 C 
HETATM   19  O3  UNL     1      17.709 -13.263  18.153  1.00  0.00    -0.273 OA
ATOM     20  H3  UNL     1      17.057 -10.206  17.423  1.00  0.00     0.163 HD
BRANCH  18  21
HETATM   21  C9  UNL     1      19.352 -11.575  17.966  1.00  0.00     0.187 C 
HETATM   22 BR1  UNL     1      20.293 -12.441  19.418  1.00  0.00    -0.087 Br
ENDBRANCH  18  21
ENDBRANCH  15  17
ENDBRANCH  10  13
ENDBRANCH   1  10
BRANCH   1  23
HETATM   23  C11 UNL     1      12.176  -7.326  18.772  1.00  0.00     0.042 A 
HETATM   24  C12 UNL     1      11.311  -6.984  19.890  1.00  0.00     0.051 A 
HETATM   25  C13 UNL     1      12.781  -7.286  20.148  1.00  0.00     0.118 A 
HETATM   26 CL1  UNL     1      13.788  -5.898  20.619  1.00  0.00    -0.101 Cl
HETATM   27 CL2  UNL     1      13.238  -8.803  20.934  1.00  0.00    -0.101 Cl
ENDBRANCH   1  23
TORSDOF 9
ENDMDL
MODEL 3
REMARK VINA RESULT: -5.058475023      2.400      3.392
REMARK  9 active torsions:
REMARK  status: ('A' for Active; 'I' for Inactive)
REMARK    1  A    between atoms: C2_2  and  N1_3 
REMARK    2  A    between atoms: C2_2  and  C3_7 
REMARK    3  A    between atoms: C2_2  and  C4_9 
REMARK    4  A    between atoms: C4_9  and  C5_10 
REMARK    5  A    between atoms: C4_9  and  C11_23 
REMARK    6  A    between atoms: C5_10  and  O2_11 
REMARK    7  A    between atoms: C5_10  and  N2_13 
REMARK    8  A    between atoms: C7_15  and  N3_16 
REMARK       I    between atoms: N3_16  and  C8_18 
REMARK    9  A    between atoms: C8_18  and  C9_20 
ROOT
HETATM    1  C4  UNL     1      12.829  -8.760  18.737  1.00  0.00     0.110 C 
ENDROOT
BRANCH   1   2
HETATM    2  C2  UNL     1      11.380  -8.729  18.440  1.00  0.00     0.183 C 
HETATM    3  C1  UNL     1      10.454  -8.821  19.626  1.00  0.00     0.054 C 
BRANCH   2   4
HETATM    4  N1  UNL     1      11.027  -9.833  17.570  1.00  0.00    -0.064 N 
ATOM      5  H13 UNL     1      11.653 -10.634  17.655  1.00  0.00     0.275 HD
ATOM      6  H12 UNL     1      10.172 -10.314  17.849  1.00  0.00     0.275 HD
ATOM      7  H11 UNL     1      10.986  -9.447  16.626  1.00  0.00     0.275 HD
ENDBRANCH   2   4
BRANCH   2   8
HETATM    8  C3  UNL     1      10.986  -7.485  17.694  1.00  0.00     0.270 C 
HETATM    9  O1  UNL     1      10.894  -7.485  16.486  1.00  0.00    -0.304 OA
ENDBRANCH   2   8
ENDBRANCH   1   2
BRANCH   1  10
HETATM   10  C5  UNL     1      13.730  -9.331  17.750  1.00  0.00     0.121 C 
BRANCH  10  11
HETATM   11  O2  UNL     1      13.801  -8.632  16.649  1.00  0.00    -0.349 OA
ATOM     12  H2  UNL     1      14.515  -8.896  16.081  1.00  0.00     0.219 HD
ENDBRANCH  10  11
BRANCH  10  13
HETATM   13  N2  UNL     1      14.524 -10.463  17.748  1.00  0.00    -0.361 N 
HETATM   14  C6  UNL     1      15.119 -11.249  18.858  1.00  0.00     0.151 C 
HETATM   15  C7  UNL     1      16.050 -11.934  17.918  1.00  0.00     0.120 C 
HETATM   16  C10 UNL     1      15.139 -11.375  16.826  1.00  0.00     0.151 C 
BRANCH  15  17
HETATM   17  N3  UNL     1      17.379 -11.405  17.831  1.00  0.00    -0.353 N 
HETATM   18  C8  UNL     1      18.525 -12.223  18.009  1.00  0.00     0.228 C 
HETATM   19  O3  UNL     1      18.353 -13.445  18.251  1.00  0.00    -0.273 OA
ATOM     20  H3  UNL     1      17.505 -10.412  17.635  1.00  0.00     0.163 HD
BRANCH  18  21
HETATM   21  C9  UNL     1      19.898 -11.688  17.921  1.00  0.00     0.187 C 
HETATM   22 BR1  UNL     1      20.964 -12.366  19.386  1.00  0.00    -0.087 Br
ENDBRANCH  18  21
ENDBRANCH  15  17
ENDBRANCH  10  13
ENDBRANCH   1  10
BRANCH   1  23
HETATM   23  C11 UNL     1      13.425  -7.440  19.177  1.00  0.00     0.042 A 
HETATM   24  C12 UNL     1      12.826  -6.651  20.242  1.00  0.00     0.051 A 
HETATM   25  C13 UNL     1      14.174  -7.322  20.476  1.00  0.00     0.118 A 
HETATM   26 CL1  UNL     1      15.576  -6.233  20.580  1.00  0.00    -0.101 Cl
HETATM   27 CL2  UNL     1      14.277  -8.727  21.544  1.00  0.00    -0.101 Cl
ENDBRANCH   1  23
TORSDOF 9
ENDMDL
MODEL 4
REMARK VINA RESULT: -5.024047836      1.770      1.924
REMARK  9 active torsions:
REMARK  status: ('A' for Active; 'I' for Inactive)
REMARK    1  A    between atoms: C2_2  and  N1_3 
REMARK    2  A    between atoms: C2_2  and  C3_7 
REMARK    3  A    between atoms: C2_2  and  C4_9 
REMARK    4  A    between atoms: C4_9  and  C5_10 
REMARK    5  A    between atoms: C4_9  and  C11_23 
REMARK    6  A    between atoms: C5_10  and  O2_11 
REMARK    7  A    between atoms: C5_10  and  N2_13 
REMARK    8  A    between atoms: C7_15  and  N3_16 
REMARK       I    between atoms: N3_16  and  C8_18 
REMARK    9  A    between atoms: C8_18  and  C9_20 
ROOT
HETATM    1  C4  UNL     1      13.488  -8.215  20.063  1.00  0.00     0.110 C 
ENDROOT
BRANCH   1   2
HETATM    2  C2  UNL     1      13.914  -7.468  21.267  1.00  0.00     0.183 C 
HETATM    3  C1  UNL     1      14.571  -6.133  21.026  1.00  0.00     0.054 C 
BRANCH   2   4
HETATM    4  N1  UNL     1      14.867  -8.252  22.027  1.00  0.00    -0.064 N 
ATOM      5  H13 UNL     1      15.744  -8.418  21.531  1.00  0.00     0.275 HD
ATOM      6  H12 UNL     1      15.266  -7.750  22.820  1.00  0.00     0.275 HD
ATOM      7  H11 UNL     1      14.380  -9.108  22.291  1.00  0.00     0.275 HD
ENDBRANCH   2   4
BRANCH   2   8
HETATM    8  C3  UNL     1      12.767  -7.209  22.203  1.00  0.00     0.270 C 
HETATM    9  O1  UNL     1      12.462  -8.015  23.055  1.00  0.00    -0.304 OA
ENDBRANCH   2   8
ENDBRANCH   1   2
BRANCH   1  10
HETATM   10  C5  UNL     1      13.715  -9.649  20.016  1.00  0.00     0.121 C 
BRANCH  10  11
HETATM   11  O2  UNL     1      13.200 -10.288  21.033  1.00  0.00    -0.349 OA
ATOM     12  H2  UNL     1      13.633 -11.113  21.217  1.00  0.00     0.219 HD
ENDBRANCH  10  11
BRANCH  10  13
HETATM   13  N2  UNL     1      14.367 -10.467  19.111  1.00  0.00    -0.361 N 
HETATM   14  C6  UNL     1      14.571 -11.937  19.086  1.00  0.00     0.151 C 
HETATM   15  C7  UNL     1      15.641 -11.803  18.058  1.00  0.00     0.120 C 
HETATM   16  C10 UNL     1      15.105 -10.383  17.884  1.00  0.00     0.151 C 
BRANCH  15  17
HETATM   17  N3  UNL     1      16.994 -11.812  18.533  1.00  0.00    -0.353 N 
HETATM   18  C8  UNL     1      18.099 -11.706  17.650  1.00  0.00     0.228 C 
HETATM   19  O3  UNL     1      17.870 -11.603  16.418  1.00  0.00    -0.273 OA
ATOM     20  H3  UNL     1      17.166 -11.897  19.535  1.00  0.00     0.163 HD
BRANCH  18  21
HETATM   21  C9  UNL     1      19.495 -11.713  18.130  1.00  0.00     0.187 C 
HETATM   22 BR1  UNL     1      19.604 -12.641  19.823  1.00  0.00    -0.087 Br
ENDBRANCH  18  21
ENDBRANCH  15  17
ENDBRANCH  10  13
ENDBRANCH   1  10
BRANCH   1  23
HETATM   23  C11 UNL     1      12.058  -7.974  19.628  1.00  0.00     0.042 A 
HETATM   24  C12 UNL     1      11.619  -6.678  19.135  1.00  0.00     0.051 A 
HETATM   25  C13 UNL     1      11.699  -7.854  18.172  1.00  0.00     0.118 A 
HETATM   26 CL1  UNL     1      10.143  -8.498  17.600  1.00  0.00    -0.101 Cl
HETATM   27 CL2  UNL     1      12.986  -7.906  16.960  1.00  0.00    -0.101 Cl
ENDBRANCH   1  23
TORSDOF 9
ENDMDL
MODEL 5
REMARK VINA RESULT: -4.995811107      2.592      3.769
REMARK  9 active torsions:
REMARK  status: ('A' for Active; 'I' for Inactive)
REMARK    1  A    between atoms: C2_2  and  N1_3 
REMARK    2  A    between atoms: C2_2  and  C3_7 
REMARK    3  A    between atoms: C2_2  and  C4_9 
REMARK    4  A    between atoms: C4_9  and  C5_10 
REMARK    5  A    between atoms: C4_9  and  C11_23 
REMARK    6  A    between atoms: C5_10  and  O2_11 
REMARK    7  A    between atoms: C5_10  and  N2_13 
REMARK    8  A    between atoms: C7_15  and  N3_16 
REMARK       I    between atoms: N3_16  and  C8_18 
REMARK    9  A    between atoms: C8_18  and  C9_20 
ROOT
HETATM    1  C4  UNL     1      13.339  -9.282  19.977  1.00  0.00     0.110 C 
ENDROOT
BRANCH   1   2
HETATM    2  C2  UNL     1      12.145  -9.495  19.130  1.00  0.00     0.183 C 
HETATM    3  C1  UNL     1      10.891  -8.771  19.550  1.00  0.00     0.054 C 
BRANCH   2   4
HETATM    4  N1  UNL     1      11.803 -10.903  19.099  1.00  0.00    -0.064 N 
ATOM      5  H13 UNL     1      11.723 -11.323  20.025  1.00  0.00     0.275 HD
ATOM      6  H12 UNL     1      10.845 -11.082  18.798  1.00  0.00     0.275 HD
ATOM      7  H11 UNL     1      12.504 -11.350  18.508  1.00  0.00     0.275 HD
ENDBRANCH   2   4
BRANCH   2   8
HETATM    8  C3  UNL     1      12.394  -9.108  17.699  1.00  0.00     0.270 C 
HETATM    9  O1  UNL     1      12.479  -9.949  16.831  1.00  0.00    -0.304 OA
ENDBRANCH   2   8
ENDBRANCH   1   2
BRANCH   1  10
HETATM   10  C5  UNL     1      14.325 -10.344  20.070  1.00  0.00     0.121 C 
BRANCH  10  11
HETATM   11  O2  UNL     1      14.544 -10.741  21.295  1.00  0.00    -0.349 OA
ATOM     12  H2  UNL     1      14.071 -11.532  21.524  1.00  0.00     0.219 HD
ENDBRANCH  10  11
BRANCH  10  13
HETATM   13  N2  UNL     1      15.075 -11.015  19.120  1.00  0.00    -0.361 N 
HETATM   14  C6  UNL     1      15.485 -12.438  19.019  1.00  0.00     0.151 C 
HETATM   15  C7  UNL     1      16.514 -12.102  17.994  1.00  0.00     0.120 C 
HETATM   16  C10 UNL     1      15.780 -10.765  17.896  1.00  0.00     0.151 C 
BRANCH  15  17
HETATM   17  N3  UNL     1      17.859 -11.943  18.463  1.00  0.00    -0.353 N 
HETATM   18  C8  UNL     1      18.961 -11.880  17.570  1.00  0.00     0.228 C 
HETATM   19  O3  UNL     1      18.734 -11.968  16.336  1.00  0.00    -0.273 OA
ATOM     20  H3  UNL     1      18.029 -11.874  19.466  1.00  0.00     0.163 HD
BRANCH  18  21
HETATM   21  C9  UNL     1      20.350 -11.715  18.042  1.00  0.00     0.187 C 
HETATM   22 BR1  UNL     1      20.568 -12.583  19.758  1.00  0.00    -0.087 Br
ENDBRANCH  18  21
ENDBRANCH  15  17
ENDBRANCH  10  13
ENDBRANCH   1  10
BRANCH   1  23
HETATM   23  C11 UNL     1      14.091  -7.994  19.718  1.00  0.00     0.042 A 
HETATM   24  C12 UNL     1      13.490  -6.695  19.980  1.00  0.00     0.051 A 
HETATM   25  C13 UNL     1      14.641  -7.175  20.854  1.00  0.00     0.118 A 
HETATM   26 CL1  UNL     1      16.185  -6.318  20.644  1.00  0.00    -0.101 Cl
HETATM   27 CL2  UNL     1      14.323  -7.683  22.517  1.00  0.00    -0.101 Cl
ENDBRANCH   1  23
TORSDOF 9
ENDMDL
