MODEL 1
REMARK VINA RESULT: -7.757603404      0.000      0.000
REMARK  9 active torsions:
REMARK  status: ('A' for Active; 'I' for Inactive)
REMARK    1  A    between atoms: C2_2  and  C4_4 
REMARK    2  A    between atoms: C5_5  and  C6_6 
REMARK    3  A    between atoms: C6_6  and  O1_8 
REMARK    4  A    between atoms: C6_6  and  C8_10 
REMARK    5  A    between atoms: C8_10  and  C9_11 
REMARK    6  A    between atoms: C9_11  and  C10_12 
REMARK    7  A    between atoms: C10_12  and  O2_13 
REMARK    8  A    between atoms: C10_12  and  C11_15 
REMARK    9  A    between atoms: C17_21  and  O3_22 
ROOT
HETATM    1  C10 UNL     1      -2.542   3.878  13.748  1.00  0.00     0.127 C 
ENDROOT
BRANCH   1   2
HETATM    2  C9  UNL     1      -2.571   4.558  12.422  1.00  0.00     0.036 C 
BRANCH   2   3
HETATM    3  C8  UNL     1      -1.392   4.529  11.549  1.00  0.00     0.053 C 
BRANCH   3   4
HETATM    4  C6  UNL     1      -0.787   3.292  11.042  1.00  0.00     0.117 C 
HETATM    5  C7  UNL     1       0.092   3.336   9.858  1.00  0.00     0.060 C 
BRANCH   4   6
HETATM    6  C5  UNL     1      -1.793   2.203  11.007  1.00  0.00    -0.064 C 
HETATM    7  C4  UNL     1      -2.597   1.305  10.989  1.00  0.00    -0.069 C 
BRANCH   7   8
HETATM    8  C2  UNL     1      -3.570   0.246  10.965  1.00  0.00    -0.018 C 
HETATM    9  C1  UNL     1      -4.839   0.471  10.707  1.00  0.00     0.028 C 
HETATM   10  C3  UNL     1      -3.119  -1.138  11.243  1.00  0.00     0.057 C 
ENDBRANCH   7   8
ENDBRANCH   4   6
BRANCH   4  11
HETATM   11  O1  UNL     1       0.130   2.911  12.131  1.00  0.00    -0.378 OA
ATOM     12  H1  UNL     1       0.227   3.702  12.648  1.00  0.00     0.211 HD
ENDBRANCH   4  11
ENDBRANCH   3   4
ENDBRANCH   2   3
ENDBRANCH   1   2
BRANCH   1  13
HETATM   13  O2  UNL     1      -1.418   4.210  14.483  1.00  0.00    -0.395 OA
ATOM     14  H2  UNL     1      -1.515   3.998  15.404  1.00  0.00     0.210 HD
ENDBRANCH   1  13
BRANCH   1  15
HETATM   15  C11 UNL     1      -3.738   4.170  14.549  1.00  0.00     0.051 C 
HETATM   16  C12 UNL     1      -4.797   5.016  13.949  1.00  0.00    -0.082 C 
HETATM   17  C13 UNL     1      -5.021   5.563  12.789  1.00  0.00     0.015 C 
HETATM   18  C14 UNL     1      -5.776   5.114  15.111  1.00  0.00     0.039 C 
HETATM   19  C15 UNL     1      -5.606   3.821  15.823  1.00  0.00     0.001 C 
HETATM   20  C16 UNL     1      -6.783   2.963  16.004  1.00  0.00     0.037 C 
HETATM   21  C20 UNL     1      -4.597   3.022  14.972  1.00  0.00    -0.030 C 
HETATM   22  C17 UNL     1      -6.396   1.722  16.747  1.00  0.00     0.118 C 
HETATM   23  C18 UNL     1      -4.953   1.439  16.886  1.00  0.00     0.032 C 
HETATM   24  C19 UNL     1      -4.013   2.037  15.905  1.00  0.00     0.013 C 
HETATM   25  C21 UNL     1      -5.276   2.394  13.785  1.00  0.00     0.016 C 
BRANCH  22  26
HETATM   26  O3  UNL     1      -7.125   0.599  16.279  1.00  0.00    -0.396 OA
ATOM     27  H3  UNL     1      -7.083  -0.117  16.900  1.00  0.00     0.210 HD
ENDBRANCH  22  26
ENDBRANCH   1  15
TORSDOF 9
ENDMDL
MODEL 2
REMARK VINA RESULT: -7.697455705      1.808      4.497
REMARK  9 active torsions:
REMARK  status: ('A' for Active; 'I' for Inactive)
REMARK    1  A    between atoms: C2_2  and  C4_4 
REMARK    2  A    between atoms: C5_5  and  C6_6 
REMARK    3  A    between atoms: C6_6  and  O1_8 
REMARK    4  A    between atoms: C6_6  and  C8_10 
REMARK    5  A    between atoms: C8_10  and  C9_11 
REMARK    6  A    between atoms: C9_11  and  C10_12 
REMARK    7  A    between atoms: C10_12  and  O2_13 
REMARK    8  A    between atoms: C10_12  and  C11_15 
REMARK    9  A    between atoms: C17_21  and  O3_22 
ROOT
HETATM    1  C10 UNL     1      -4.816   1.749  13.325  1.00  0.00     0.127 C 
ENDROOT
BRANCH   1   2
HETATM    2  C9  UNL     1      -4.858   1.555  11.848  1.00  0.00     0.036 C 
BRANCH   2   3
HETATM    3  C8  UNL     1      -4.659   0.221  11.270  1.00  0.00     0.053 C 
BRANCH   3   4
HETATM    4  C6  UNL     1      -3.389  -0.232  10.694  1.00  0.00     0.117 C 
HETATM    5  C7  UNL     1      -2.787  -1.500  11.148  1.00  0.00     0.060 C 
BRANCH   4   6
HETATM    6  C5  UNL     1      -2.429   0.894  10.609  1.00  0.00    -0.064 C 
HETATM    7  C4  UNL     1      -1.638   1.801  10.524  1.00  0.00    -0.069 C 
BRANCH   7   8
HETATM    8  C2  UNL     1      -0.707   2.893  10.429  1.00  0.00    -0.018 C 
HETATM    9  C1  UNL     1       0.006   3.291  11.459  1.00  0.00     0.028 C 
HETATM   10  C3  UNL     1      -0.554   3.585   9.128  1.00  0.00     0.057 C 
ENDBRANCH   7   8
ENDBRANCH   4   6
BRANCH   4  11
HETATM   11  O1  UNL     1      -3.752  -0.514   9.293  1.00  0.00    -0.378 OA
ATOM     12  H1  UNL     1      -4.425  -1.181   9.352  1.00  0.00     0.211 HD
ENDBRANCH   4  11
ENDBRANCH   3   4
ENDBRANCH   2   3
ENDBRANCH   1   2
BRANCH   1  13
HETATM   13  O2  UNL     1      -3.584   1.419  13.862  1.00  0.00    -0.395 OA
ATOM     14  H2  UNL     1      -3.650   1.136  14.766  1.00  0.00     0.210 HD
ENDBRANCH   1  13
BRANCH   1  15
HETATM   15  C11 UNL     1      -5.153   3.124  13.716  1.00  0.00     0.051 C 
HETATM   16  C12 UNL     1      -5.788   3.344  15.036  1.00  0.00    -0.082 C 
HETATM   17  C13 UNL     1      -6.094   2.611  16.068  1.00  0.00     0.015 C 
HETATM   18  C14 UNL     1      -6.019   4.849  14.995  1.00  0.00     0.039 C 
HETATM   19  C15 UNL     1      -4.897   5.353  14.163  1.00  0.00     0.001 C 
HETATM   20  C16 UNL     1      -3.995   6.357  14.741  1.00  0.00     0.037 C 
HETATM   21  C20 UNL     1      -4.037   4.110  13.849  1.00  0.00    -0.030 C 
HETATM   22  C17 UNL     1      -2.946   6.731  13.740  1.00  0.00     0.118 C 
HETATM   23  C18 UNL     1      -2.809   5.869  12.549  1.00  0.00     0.032 C 
HETATM   24  C19 UNL     1      -3.290   4.467  12.627  1.00  0.00     0.013 C 
HETATM   25  C21 UNL     1      -3.151   3.762  15.014  1.00  0.00     0.016 C 
BRANCH  22  26
HETATM   26  O3  UNL     1      -1.702   6.980  14.375  1.00  0.00    -0.396 OA
ATOM     27  H3  UNL     1      -1.223   7.667  13.928  1.00  0.00     0.210 HD
ENDBRANCH  22  26
ENDBRANCH   1  15
TORSDOF 9
ENDMDL
MODEL 3
REMARK VINA RESULT: -7.543837094      1.560      2.167
REMARK  9 active torsions:
REMARK  status: ('A' for Active; 'I' for Inactive)
REMARK    1  A    between atoms: C2_2  and  C4_4 
REMARK    2  A    between atoms: C5_5  and  C6_6 
REMARK    3  A    between atoms: C6_6  and  O1_8 
REMARK    4  A    between atoms: C6_6  and  C8_10 
REMARK    5  A    between atoms: C8_10  and  C9_11 
REMARK    6  A    between atoms: C9_11  and  C10_12 
REMARK    7  A    between atoms: C10_12  and  O2_13 
REMARK    8  A    between atoms: C10_12  and  C11_15 
REMARK    9  A    between atoms: C17_21  and  O3_22 
ROOT
HETATM    1  C10 UNL     1      -4.297   4.051  11.648  1.00  0.00     0.127 C 
ENDROOT
BRANCH   1   2
HETATM    2  C9  UNL     1      -3.261   4.339  10.617  1.00  0.00     0.036 C 
BRANCH   2   3
HETATM    3  C8  UNL     1      -1.838   4.335  10.975  1.00  0.00     0.053 C 
BRANCH   3   4
HETATM    4  C6  UNL     1      -0.953   3.184  10.772  1.00  0.00     0.117 C 
HETATM    5  C7  UNL     1       0.132   3.258   9.774  1.00  0.00     0.060 C 
BRANCH   4   6
HETATM    6  C5  UNL     1      -1.741   1.930  10.711  1.00  0.00    -0.064 C 
HETATM    7  C4  UNL     1      -2.387   0.912  10.683  1.00  0.00    -0.069 C 
BRANCH   7   8
HETATM    8  C2  UNL     1      -3.160  -0.299  10.632  1.00  0.00    -0.018 C 
HETATM    9  C1  UNL     1      -2.709  -1.434  11.117  1.00  0.00     0.028 C 
HETATM   10  C3  UNL     1      -4.505  -0.258  10.011  1.00  0.00     0.057 C 
ENDBRANCH   7   8
ENDBRANCH   4   6
BRANCH   4  11
HETATM   11  O1  UNL     1      -0.228   3.103  12.052  1.00  0.00    -0.378 OA
ATOM     12  H1  UNL     1       0.025   3.999  12.239  1.00  0.00     0.211 HD
ENDBRANCH   4  11
ENDBRANCH   3   4
ENDBRANCH   2   3
ENDBRANCH   1   2
BRANCH   1  13
HETATM   13  O2  UNL     1      -5.171   3.056  11.248  1.00  0.00    -0.395 OA
ATOM     14  H2  UNL     1      -4.846   2.572  10.498  1.00  0.00     0.210 HD
ENDBRANCH   1  13
BRANCH   1  15
HETATM   15  C11 UNL     1      -3.707   3.676  12.940  1.00  0.00     0.051 C 
HETATM   16  C12 UNL     1      -3.564   4.723  13.978  1.00  0.00    -0.082 C 
HETATM   17  C13 UNL     1      -3.907   5.973  14.109  1.00  0.00     0.015 C 
HETATM   18  C14 UNL     1      -2.868   3.938  15.082  1.00  0.00     0.039 C 
HETATM   19  C15 UNL     1      -3.386   2.557  14.909  1.00  0.00     0.001 C 
HETATM   20  C16 UNL     1      -4.066   1.919  16.043  1.00  0.00     0.037 C 
HETATM   21  C20 UNL     1      -4.418   2.653  13.766  1.00  0.00    -0.030 C 
HETATM   22  C17 UNL     1      -4.500   0.538  15.661  1.00  0.00     0.118 C 
HETATM   23  C18 UNL     1      -4.459   0.187  14.228  1.00  0.00     0.032 C 
HETATM   24  C19 UNL     1      -4.513   1.282  13.226  1.00  0.00     0.013 C 
HETATM   25  C21 UNL     1      -5.730   3.190  14.272  1.00  0.00     0.016 C 
BRANCH  22  26
HETATM   26  O3  UNL     1      -5.740   0.208  16.265  1.00  0.00    -0.396 OA
ATOM     27  H3  UNL     1      -6.459   0.648  15.828  1.00  0.00     0.210 HD
ENDBRANCH  22  26
ENDBRANCH   1  15
TORSDOF 9
ENDMDL
MODEL 4
REMARK VINA RESULT: -7.484140464      2.395      5.264
REMARK  9 active torsions:
REMARK  status: ('A' for Active; 'I' for Inactive)
REMARK    1  A    between atoms: C2_2  and  C4_4 
REMARK    2  A    between atoms: C5_5  and  C6_6 
REMARK    3  A    between atoms: C6_6  and  O1_8 
REMARK    4  A    between atoms: C6_6  and  C8_10 
REMARK    5  A    between atoms: C8_10  and  C9_11 
REMARK    6  A    between atoms: C9_11  and  C10_12 
REMARK    7  A    between atoms: C10_12  and  O2_13 
REMARK    8  A    between atoms: C10_12  and  C11_15 
REMARK    9  A    between atoms: C17_21  and  O3_22 
ROOT
HETATM    1  C10 UNL     1      -5.434   4.784  14.177  1.00  0.00     0.127 C 
ENDROOT
BRANCH   1   2
HETATM    2  C9  UNL     1      -5.866   3.358  14.154  1.00  0.00     0.036 C 
BRANCH   2   3
HETATM    3  C8  UNL     1      -5.597   2.484  15.302  1.00  0.00     0.053 C 
BRANCH   3   4
HETATM    4  C6  UNL     1      -4.545   1.463  15.316  1.00  0.00     0.117 C 
HETATM    5  C7  UNL     1      -3.255   1.744  15.974  1.00  0.00     0.060 C 
BRANCH   4   6
HETATM    6  C5  UNL     1      -4.414   0.838  13.978  1.00  0.00    -0.064 C 
HETATM    7  C4  UNL     1      -4.311   0.311  12.898  1.00  0.00    -0.069 C 
BRANCH   7   8
HETATM    8  C2  UNL     1      -4.192  -0.302  11.602  1.00  0.00    -0.018 C 
HETATM    9  C1  UNL     1      -4.815   0.173  10.547  1.00  0.00     0.028 C 
HETATM   10  C3  UNL     1      -3.341  -1.507  11.462  1.00  0.00     0.057 C 
ENDBRANCH   7   8
ENDBRANCH   4   6
BRANCH   4  11
HETATM   11  O1  UNL     1      -5.132   0.406  16.160  1.00  0.00    -0.378 OA
ATOM     12  H1  UNL     1      -4.982  -0.396  15.673  1.00  0.00     0.211 HD
ENDBRANCH   4  11
ENDBRANCH   3   4
ENDBRANCH   2   3
ENDBRANCH   1   2
BRANCH   1  13
HETATM   13  O2  UNL     1      -5.872   5.446  15.311  1.00  0.00    -0.395 OA
ATOM     14  H2  UNL     1      -5.585   5.019  16.109  1.00  0.00     0.210 HD
ENDBRANCH   1  13
BRANCH   1  15
HETATM   15  C11 UNL     1      -3.976   4.926  14.075  1.00  0.00     0.051 C 
HETATM   16  C12 UNL     1      -3.286   4.289  12.929  1.00  0.00    -0.082 C 
HETATM   17  C13 UNL     1      -3.642   3.644  11.855  1.00  0.00     0.015 C 
HETATM   18  C14 UNL     1      -1.834   4.617  13.252  1.00  0.00     0.039 C 
HETATM   19  C15 UNL     1      -1.919   5.919  13.961  1.00  0.00     0.001 C 
HETATM   20  C16 UNL     1      -1.174   7.061  13.415  1.00  0.00     0.037 C 
HETATM   21  C20 UNL     1      -3.413   6.303  13.924  1.00  0.00    -0.030 C 
HETATM   22  C17 UNL     1      -1.389   8.265  14.279  1.00  0.00     0.118 C 
HETATM   23  C18 UNL     1      -2.476   8.197  15.276  1.00  0.00     0.032 C 
HETATM   24  C19 UNL     1      -3.589   7.242  15.050  1.00  0.00     0.013 C 
HETATM   25  C21 UNL     1      -3.784   6.890  12.590  1.00  0.00     0.016 C 
BRANCH  22  26
HETATM   26  O3  UNL     1      -1.441   9.449  13.499  1.00  0.00    -0.396 OA
ATOM     27  H3  UNL     1      -2.332   9.645  13.237  1.00  0.00     0.210 HD
ENDBRANCH  22  26
ENDBRANCH   1  15
TORSDOF 9
ENDMDL
MODEL 5
REMARK VINA RESULT: -7.254608021      3.254      4.805
REMARK  9 active torsions:
REMARK  status: ('A' for Active; 'I' for Inactive)
REMARK    1  A    between atoms: C2_2  and  C4_4 
REMARK    2  A    between atoms: C5_5  and  C6_6 
REMARK    3  A    between atoms: C6_6  and  O1_8 
REMARK    4  A    between atoms: C6_6  and  C8_10 
REMARK    5  A    between atoms: C8_10  and  C9_11 
REMARK    6  A    between atoms: C9_11  and  C10_12 
REMARK    7  A    between atoms: C10_12  and  O2_13 
REMARK    8  A    between atoms: C10_12  and  C11_15 
REMARK    9  A    between atoms: C17_21  and  O3_22 
ROOT
HETATM    1  C10 UNL     1      -4.404   4.375  11.717  1.00  0.00     0.127 C 
ENDROOT
BRANCH   1   2
HETATM    2  C9  UNL     1      -3.508   5.206  10.864  1.00  0.00     0.036 C 
BRANCH   2   3
HETATM    3  C8  UNL     1      -3.421   4.959   9.420  1.00  0.00     0.053 C 
BRANCH   3   4
HETATM    4  C6  UNL     1      -3.926   5.890   8.406  1.00  0.00     0.117 C 
HETATM    5  C7  UNL     1      -2.991   6.784   7.698  1.00  0.00     0.060 C 
BRANCH   4   6
HETATM    6  C5  UNL     1      -5.154   6.565   8.890  1.00  0.00    -0.064 C 
HETATM    7  C4  UNL     1      -6.164   7.096   9.281  1.00  0.00    -0.069 C 
BRANCH   7   8
HETATM    8  C2  UNL     1      -7.358   7.740   9.756  1.00  0.00    -0.018 C 
HETATM    9  C1  UNL     1      -7.514   8.076  11.017  1.00  0.00     0.028 C 
HETATM   10  C3  UNL     1      -8.442   8.031   8.788  1.00  0.00     0.057 C 
ENDBRANCH   7   8
ENDBRANCH   4   6
BRANCH   4  11
HETATM   11  O1  UNL     1      -4.398   4.985   7.343  1.00  0.00    -0.378 OA
ATOM     12  H1  UNL     1      -4.856   4.293   7.806  1.00  0.00     0.211 HD
ENDBRANCH   4  11
ENDBRANCH   3   4
ENDBRANCH   2   3
ENDBRANCH   1   2
BRANCH   1  13
HETATM   13  O2  UNL     1      -4.943   3.306  11.024  1.00  0.00    -0.395 OA
ATOM     14  H2  UNL     1      -5.585   2.831  11.538  1.00  0.00     0.210 HD
ENDBRANCH   1  13
BRANCH   1  15
HETATM   15  C11 UNL     1      -3.722   3.871  12.915  1.00  0.00     0.051 C 
HETATM   16  C12 UNL     1      -3.514   4.800  14.051  1.00  0.00    -0.082 C 
HETATM   17  C13 UNL     1      -3.857   6.023  14.342  1.00  0.00     0.015 C 
HETATM   18  C14 UNL     1      -2.736   3.910  15.010  1.00  0.00     0.039 C 
HETATM   19  C15 UNL     1      -3.253   2.548  14.722  1.00  0.00     0.001 C 
HETATM   20  C16 UNL     1      -3.846   1.779  15.823  1.00  0.00     0.037 C 
HETATM   21  C20 UNL     1      -4.364   2.752  13.671  1.00  0.00    -0.030 C 
HETATM   22  C17 UNL     1      -4.294   0.441  15.323  1.00  0.00     0.118 C 
HETATM   23  C18 UNL     1      -4.351   0.250  13.860  1.00  0.00     0.032 C 
HETATM   24  C19 UNL     1      -4.485   1.447  12.991  1.00  0.00     0.013 C 
HETATM   25  C21 UNL     1      -5.642   3.209  14.322  1.00  0.00     0.016 C 
BRANCH  22  26
HETATM   26  O3  UNL     1      -5.486   0.028  15.970  1.00  0.00    -0.396 OA
ATOM     27  H3  UNL     1      -6.241   0.485  15.619  1.00  0.00     0.210 HD
ENDBRANCH  22  26
ENDBRANCH   1  15
TORSDOF 9
ENDMDL
