MODEL 1
REMARK VINA RESULT: -7.656545834      0.000      0.000
REMARK  7 active torsions:
REMARK  status: ('A' for Active; 'I' for Inactive)
REMARK    1  A    between atoms: C2_2  and  C3_3 
REMARK    2  A    between atoms: C2_2  and  C16_18 
REMARK    3  A    between atoms: C3_3  and  C4_4 
REMARK    4  A    between atoms: C4_4  and  C5_5 
REMARK    5  A    between atoms: C13_13  and  O1_14 
REMARK    6  A    between atoms: C18_20  and  O2_21 
REMARK    7  A    between atoms: C21_25  and  O3_26 
ROOT
HETATM    1  C4  UNL     1      -3.461   5.221  14.050  1.00  0.00     0.013 C 
ENDROOT
BRANCH   1   2
HETATM    2  C3  UNL     1      -2.955   4.005  14.748  1.00  0.00     0.034 C 
BRANCH   2   3
HETATM    3  C2  UNL     1      -3.936   2.899  14.583  1.00  0.00    -0.083 C 
HETATM    4  C1  UNL     1      -3.979   2.227  13.445  1.00  0.00     0.015 C 
BRANCH   3   5
HETATM    5  C16 UNL     1      -4.885   2.532  15.670  1.00  0.00     0.045 C 
HETATM    6  C17 UNL     1      -4.943   1.033  15.847  1.00  0.00     0.043 C 
HETATM    7  C18 UNL     1      -5.478   0.776  17.260  1.00  0.00     0.119 C 
HETATM    8  C19 UNL     1      -6.409   1.873  17.669  1.00  0.00     0.034 C 
HETATM    9  C20 UNL     1      -7.209   2.366  16.477  1.00  0.00     0.035 C 
HETATM   10  C21 UNL     1      -6.291   3.001  15.421  1.00  0.00     0.126 C 
BRANCH   7  11
HETATM   11  O2  UNL     1      -6.017  -0.490  17.382  1.00  0.00    -0.396 OA
ATOM     12  H2  UNL     1      -6.859  -0.559  16.949  1.00  0.00     0.210 HD
ENDBRANCH   7  11
BRANCH  10  13
HETATM   13  O3  UNL     1      -6.429   4.391  15.626  1.00  0.00    -0.395 OA
ATOM     14  H3  UNL     1      -7.000   4.791  14.981  1.00  0.00     0.210 HD
ENDBRANCH  10  13
ENDBRANCH   3   5
ENDBRANCH   2   3
ENDBRANCH   1   2
BRANCH   1  15
HETATM   15  C5  UNL     1      -2.480   5.769  13.037  1.00  0.00     0.015 C 
HETATM   16  C6  UNL     1      -1.167   4.994  13.068  1.00  0.00     0.017 C 
HETATM   17  C7  UNL     1      -0.621   5.228  11.662  1.00  0.00     0.024 C 
HETATM   18  C8  UNL     1      -1.745   5.661  10.797  1.00  0.00     0.020 C 
HETATM   19  C13 UNL     1       0.161   4.047  11.270  1.00  0.00     0.126 C 
HETATM   20  C9  UNL     1      -1.830   5.042   9.457  1.00  0.00     0.010 C 
HETATM   21  C14 UNL     1      -2.930   5.485  11.660  1.00  0.00    -0.081 C 
HETATM   22  C10 UNL     1      -1.446   3.603   9.393  1.00  0.00     0.007 C 
HETATM   23  C11 UNL     1      -0.026   3.506   9.899  1.00  0.00     0.011 C 
HETATM   24  C12 UNL     1       0.917   4.179   8.900  1.00  0.00     0.012 C 
HETATM   25  C15 UNL     1      -4.136   5.148  11.293  1.00  0.00     0.015 C 
BRANCH  19  26
HETATM   26  O1  UNL     1      -0.048   2.966  12.161  1.00  0.00    -0.395 OA
ATOM     27  H1  UNL     1       0.394   2.179  11.865  1.00  0.00     0.210 HD
ENDBRANCH  19  26
ENDBRANCH   1  15
TORSDOF 7
ENDMDL
MODEL 2
REMARK VINA RESULT: -7.486049472      2.488      6.302
REMARK  7 active torsions:
REMARK  status: ('A' for Active; 'I' for Inactive)
REMARK    1  A    between atoms: C2_2  and  C3_3 
REMARK    2  A    between atoms: C2_2  and  C16_18 
REMARK    3  A    between atoms: C3_3  and  C4_4 
REMARK    4  A    between atoms: C4_4  and  C5_5 
REMARK    5  A    between atoms: C13_13  and  O1_14 
REMARK    6  A    between atoms: C18_20  and  O2_21 
REMARK    7  A    between atoms: C21_25  and  O3_26 
ROOT
HETATM    1  C4  UNL     1      -2.545   4.081  13.538  1.00  0.00     0.013 C 
ENDROOT
BRANCH   1   2
HETATM    2  C3  UNL     1      -1.717   3.673  12.369  1.00  0.00     0.034 C 
BRANCH   2   3
HETATM    3  C2  UNL     1      -2.607   3.177  11.285  1.00  0.00    -0.083 C 
HETATM    4  C1  UNL     1      -2.799   3.916  10.206  1.00  0.00     0.015 C 
BRANCH   3   5
HETATM    5  C16 UNL     1      -3.302   1.864  11.387  1.00  0.00     0.045 C 
HETATM    6  C17 UNL     1      -2.363   0.732  11.045  1.00  0.00     0.043 C 
HETATM    7  C18 UNL     1      -2.952  -0.535  11.673  1.00  0.00     0.119 C 
HETATM    8  C19 UNL     1      -4.444  -0.447  11.718  1.00  0.00     0.034 C 
HETATM    9  C20 UNL     1      -4.972   0.283  10.497  1.00  0.00     0.035 C 
HETATM   10  C21 UNL     1      -4.491   1.743  10.476  1.00  0.00     0.126 C 
BRANCH   7  11
HETATM   11  O2  UNL     1      -2.478  -1.680  11.062  1.00  0.00    -0.396 OA
ATOM     12  H2  UNL     1      -3.174  -2.302  10.888  1.00  0.00     0.210 HD
ENDBRANCH   7  11
BRANCH  10  13
HETATM   13  O3  UNL     1      -5.596   2.484  10.945  1.00  0.00    -0.395 OA
ATOM     14  H3  UNL     1      -6.419   2.151  10.607  1.00  0.00     0.210 HD
ENDBRANCH  10  13
ENDBRANCH   3   5
ENDBRANCH   2   3
ENDBRANCH   1   2
BRANCH   1  15
HETATM   15  C5  UNL     1      -3.885   3.381  13.584  1.00  0.00     0.015 C 
HETATM   16  C6  UNL     1      -3.791   2.060  14.339  1.00  0.00     0.017 C 
HETATM   17  C7  UNL     1      -5.226   1.857  14.816  1.00  0.00     0.024 C 
HETATM   18  C8  UNL     1      -5.920   3.165  14.759  1.00  0.00     0.020 C 
HETATM   19  C13 UNL     1      -5.188   1.129  16.092  1.00  0.00     0.126 C 
HETATM   20  C9  UNL     1      -6.764   3.521  15.920  1.00  0.00     0.010 C 
HETATM   21  C14 UNL     1      -4.836   4.116  14.441  1.00  0.00    -0.081 C 
HETATM   22  C10 UNL     1      -6.238   3.094  17.248  1.00  0.00     0.007 C 
HETATM   23  C11 UNL     1      -6.072   1.593  17.191  1.00  0.00     0.011 C 
HETATM   24  C12 UNL     1      -7.450   0.933  17.116  1.00  0.00     0.012 C 
HETATM   25  C15 UNL     1      -4.728   5.356  14.831  1.00  0.00     0.015 C 
BRANCH  19  26
HETATM   26  O1  UNL     1      -3.876   1.080  16.623  1.00  0.00    -0.395 OA
ATOM     27  H1  UNL     1      -3.736   1.761  17.271  1.00  0.00     0.210 HD
ENDBRANCH  19  26
ENDBRANCH   1  15
TORSDOF 7
ENDMDL
MODEL 3
REMARK VINA RESULT: -7.446851328      1.719      7.136
REMARK  7 active torsions:
REMARK  status: ('A' for Active; 'I' for Inactive)
REMARK    1  A    between atoms: C2_2  and  C3_3 
REMARK    2  A    between atoms: C2_2  and  C16_18 
REMARK    3  A    between atoms: C3_3  and  C4_4 
REMARK    4  A    between atoms: C4_4  and  C5_5 
REMARK    5  A    between atoms: C13_13  and  O1_14 
REMARK    6  A    between atoms: C18_20  and  O2_21 
REMARK    7  A    between atoms: C21_25  and  O3_26 
ROOT
HETATM    1  C4  UNL     1      -3.870   5.546  13.782  1.00  0.00     0.013 C 
ENDROOT
BRANCH   1   2
HETATM    2  C3  UNL     1      -2.426   5.204  13.914  1.00  0.00     0.034 C 
BRANCH   2   3
HETATM    3  C2  UNL     1      -1.683   5.748  12.746  1.00  0.00    -0.083 C 
HETATM    4  C1  UNL     1      -1.101   6.932  12.833  1.00  0.00     0.015 C 
BRANCH   3   5
HETATM    5  C16 UNL     1      -1.584   4.993  11.466  1.00  0.00     0.045 C 
HETATM    6  C17 UNL     1      -2.823   5.197  10.626  1.00  0.00     0.043 C 
HETATM    7  C18 UNL     1      -2.436   4.865   9.181  1.00  0.00     0.119 C 
HETATM    8  C19 UNL     1      -1.367   3.820   9.157  1.00  0.00     0.034 C 
HETATM    9  C20 UNL     1      -1.567   2.827  10.288  1.00  0.00     0.035 C 
HETATM   10  C21 UNL     1      -1.418   3.511  11.655  1.00  0.00     0.126 C 
BRANCH   7  11
HETATM   11  O2  UNL     1      -3.541   4.554   8.413  1.00  0.00    -0.396 OA
ATOM     12  H2  UNL     1      -3.325   4.499   7.489  1.00  0.00     0.210 HD
ENDBRANCH   7  11
BRANCH  10  13
HETATM   13  O3  UNL     1      -0.114   3.174  12.078  1.00  0.00    -0.395 OA
ATOM     14  H3  UNL     1       0.197   2.374  11.670  1.00  0.00     0.210 HD
ENDBRANCH  10  13
ENDBRANCH   3   5
ENDBRANCH   2   3
ENDBRANCH   1   2
BRANCH   1  15
HETATM   15  C5  UNL     1      -4.769   4.330  13.826  1.00  0.00     0.015 C 
HETATM   16  C6  UNL     1      -4.003   3.096  14.288  1.00  0.00     0.017 C 
HETATM   17  C7  UNL     1      -5.114   2.221  14.862  1.00  0.00     0.024 C 
HETATM   18  C8  UNL     1      -6.285   3.087  15.139  1.00  0.00     0.020 C 
HETATM   19  C13 UNL     1      -4.550   1.418  15.955  1.00  0.00     0.126 C 
HETATM   20  C9  UNL     1      -6.977   2.875  16.430  1.00  0.00     0.010 C 
HETATM   21  C14 UNL     1      -5.767   4.450  14.907  1.00  0.00    -0.081 C 
HETATM   22  C10 UNL     1      -6.091   2.547  17.583  1.00  0.00     0.007 C 
HETATM   23  C11 UNL     1      -5.333   1.295  17.211  1.00  0.00     0.011 C 
HETATM   24  C12 UNL     1      -6.304   0.113  17.150  1.00  0.00     0.012 C 
HETATM   25  C15 UNL     1      -6.113   5.546  15.523  1.00  0.00     0.015 C 
BRANCH  19  26
HETATM   26  O1  UNL     1      -3.263   1.878  16.328  1.00  0.00    -0.395 OA
ATOM     27  H1  UNL     1      -2.875   1.326  16.997  1.00  0.00     0.210 HD
ENDBRANCH  19  26
ENDBRANCH   1  15
TORSDOF 7
ENDMDL
MODEL 4
REMARK VINA RESULT: -7.444947683      2.227      3.752
REMARK  7 active torsions:
REMARK  status: ('A' for Active; 'I' for Inactive)
REMARK    1  A    between atoms: C2_2  and  C3_3 
REMARK    2  A    between atoms: C2_2  and  C16_18 
REMARK    3  A    between atoms: C3_3  and  C4_4 
REMARK    4  A    between atoms: C4_4  and  C5_5 
REMARK    5  A    between atoms: C13_13  and  O1_14 
REMARK    6  A    between atoms: C18_20  and  O2_21 
REMARK    7  A    between atoms: C21_25  and  O3_26 
ROOT
HETATM    1  C4  UNL     1      -1.823   2.186  11.452  1.00  0.00     0.013 C 
ENDROOT
BRANCH   1   2
HETATM    2  C3  UNL     1      -2.976   1.482  10.825  1.00  0.00     0.034 C 
BRANCH   2   3
HETATM    3  C2  UNL     1      -3.836   0.900  11.890  1.00  0.00    -0.083 C 
HETATM    4  C1  UNL     1      -4.474  -0.237  11.669  1.00  0.00     0.015 C 
BRANCH   3   5
HETATM    5  C16 UNL     1      -4.008   1.574  13.207  1.00  0.00     0.045 C 
HETATM    6  C17 UNL     1      -4.153   0.558  14.315  1.00  0.00     0.043 C 
HETATM    7  C18 UNL     1      -3.788   1.273  15.620  1.00  0.00     0.119 C 
HETATM    8  C19 UNL     1      -4.144   2.723  15.534  1.00  0.00     0.034 C 
HETATM    9  C20 UNL     1      -5.415   2.913  14.726  1.00  0.00     0.035 C 
HETATM   10  C21 UNL     1      -5.213   2.469  13.269  1.00  0.00     0.126 C 
BRANCH   7  11
HETATM   11  O2  UNL     1      -4.318   0.631  16.722  1.00  0.00    -0.396 OA
ATOM     12  H2  UNL     1      -4.209   1.142  17.516  1.00  0.00     0.210 HD
ENDBRANCH   7  11
BRANCH  10  13
HETATM   13  O3  UNL     1      -5.016   3.673  12.559  1.00  0.00    -0.395 OA
ATOM     14  H3  UNL     1      -5.684   3.811  11.897  1.00  0.00     0.210 HD
ENDBRANCH  10  13
ENDBRANCH   3   5
ENDBRANCH   2   3
ENDBRANCH   1   2
BRANCH   1  15
HETATM   15  C5  UNL     1      -1.622   3.584  10.910  1.00  0.00     0.015 C 
HETATM   16  C6  UNL     1      -2.802   4.014  10.045  1.00  0.00     0.017 C 
HETATM   17  C7  UNL     1      -2.737   5.536  10.143  1.00  0.00     0.024 C 
HETATM   18  C8  UNL     1      -1.921   5.887  11.330  1.00  0.00     0.020 C 
HETATM   19  C13 UNL     1      -4.105   6.062  10.040  1.00  0.00     0.126 C 
HETATM   20  C9  UNL     1      -2.441   6.967  12.197  1.00  0.00     0.010 C 
HETATM   21  C14 UNL     1      -1.700   4.586  11.992  1.00  0.00    -0.081 C 
HETATM   22  C10 UNL     1      -3.922   6.996  12.363  1.00  0.00     0.007 C 
HETATM   23  C11 UNL     1      -4.515   7.136  10.981  1.00  0.00     0.011 C 
HETATM   24  C12 UNL     1      -4.183   8.522  10.424  1.00  0.00     0.012 C 
HETATM   25  C15 UNL     1      -1.591   4.354  13.271  1.00  0.00     0.015 C 
BRANCH  19  26
HETATM   26  O1  UNL     1      -5.069   5.031  10.161  1.00  0.00    -0.395 OA
ATOM     27  H1  UNL     1      -5.922   5.314   9.851  1.00  0.00     0.210 HD
ENDBRANCH  19  26
ENDBRANCH   1  15
TORSDOF 7
ENDMDL
MODEL 5
REMARK VINA RESULT: -7.303767895      1.328      2.275
REMARK  7 active torsions:
REMARK  status: ('A' for Active; 'I' for Inactive)
REMARK    1  A    between atoms: C2_2  and  C3_3 
REMARK    2  A    between atoms: C2_2  and  C16_18 
REMARK    3  A    between atoms: C3_3  and  C4_4 
REMARK    4  A    between atoms: C4_4  and  C5_5 
REMARK    5  A    between atoms: C13_13  and  O1_14 
REMARK    6  A    between atoms: C18_20  and  O2_21 
REMARK    7  A    between atoms: C21_25  and  O3_26 
ROOT
HETATM    1  C4  UNL     1      -4.200   2.295  12.229  1.00  0.00     0.013 C 
ENDROOT
BRANCH   1   2
HETATM    2  C3  UNL     1      -4.779   3.315  13.147  1.00  0.00     0.034 C 
BRANCH   2   3
HETATM    3  C2  UNL     1      -4.204   3.136  14.507  1.00  0.00    -0.083 C 
HETATM    4  C1  UNL     1      -2.925   3.397  14.717  1.00  0.00     0.015 C 
BRANCH   3   5
HETATM    5  C16 UNL     1      -5.035   2.658  15.648  1.00  0.00     0.045 C 
HETATM    6  C17 UNL     1      -5.043   1.149  15.709  1.00  0.00     0.043 C 
HETATM    7  C18 UNL     1      -5.432   0.768  17.141  1.00  0.00     0.119 C 
HETATM    8  C19 UNL     1      -6.341   1.802  17.724  1.00  0.00     0.034 C 
HETATM    9  C20 UNL     1      -7.264   2.363  16.658  1.00  0.00     0.035 C 
HETATM   10  C21 UNL     1      -6.468   3.105  15.574  1.00  0.00     0.126 C 
BRANCH   7  11
HETATM   11  O2  UNL     1      -5.929  -0.519  17.213  1.00  0.00    -0.396 OA
ATOM     12  H2  UNL     1      -5.255  -1.146  17.447  1.00  0.00     0.210 HD
ENDBRANCH   7  11
BRANCH  10  13
HETATM   13  O3  UNL     1      -6.614   4.470  15.901  1.00  0.00    -0.395 OA
ATOM     14  H3  UNL     1      -7.526   4.736  15.923  1.00  0.00     0.210 HD
ENDBRANCH  10  13
ENDBRANCH   3   5
ENDBRANCH   2   3
ENDBRANCH   1   2
BRANCH   1  15
HETATM   15  C5  UNL     1      -3.536   2.906  11.015  1.00  0.00     0.015 C 
HETATM   16  C6  UNL     1      -3.190   4.371  11.256  1.00  0.00     0.017 C 
HETATM   17  C7  UNL     1      -2.039   4.596  10.279  1.00  0.00     0.024 C 
HETATM   18  C8  UNL     1      -1.485   3.272   9.906  1.00  0.00     0.020 C 
HETATM   19  C13 UNL     1      -1.138   5.605  10.853  1.00  0.00     0.126 C 
HETATM   20  C9  UNL     1      -0.011   3.151   9.880  1.00  0.00     0.010 C 
HETATM   21  C14 UNL     1      -2.189   2.339  10.808  1.00  0.00    -0.081 C 
HETATM   22  C10 UNL     1       0.710   3.909  10.942  1.00  0.00     0.007 C 
HETATM   23  C11 UNL     1       0.325   5.361  10.782  1.00  0.00     0.011 C 
HETATM   24  C12 UNL     1       0.918   5.903   9.479  1.00  0.00     0.012 C 
HETATM   25  C15 UNL     1      -1.726   1.234  11.325  1.00  0.00     0.015 C 
BRANCH  19  26
HETATM   26  O1  UNL     1      -1.439   5.855  12.215  1.00  0.00    -0.395 OA
ATOM     27  H1  UNL     1      -0.703   6.250  12.667  1.00  0.00     0.210 HD
ENDBRANCH  19  26
ENDBRANCH   1  15
TORSDOF 7
ENDMDL
