MODEL 1
REMARK VINA RESULT: -6.814477744      0.000      0.000
REMARK  5 active torsions:
REMARK  status: ('A' for Active; 'I' for Inactive)
REMARK    1  A    between atoms: N1_2  and  C2_4 
REMARK    2  A    between atoms: C3_7  and  N3_8 
REMARK    3  A    between atoms: N3_8  and  C4_10 
REMARK    4  A    between atoms: C6_12  and  C7_13 
REMARK    5  A    between atoms: C11_21  and  N6_22 
ROOT
HETATM    1  C2  UNL     1      -1.124   2.947  11.439  1.00  0.00     0.126 A 
HETATM    2  N2  UNL     1      -1.949   3.230  12.481  1.00  0.00    -0.327 N 
ATOM      3  H2  UNL     1      -2.652   2.535  12.731  1.00  0.00     0.169 HD
HETATM    4  C3  UNL     1      -1.905   4.351  13.199  1.00  0.00     0.110 A 
HETATM    5  C10 UNL     1      -0.965   5.294  12.874  1.00  0.00     0.079 A 
HETATM    6  C11 UNL     1      -0.085   5.084  11.826  1.00  0.00     0.059 A 
HETATM    7  C14 UNL     1      -0.177   3.887  11.107  1.00  0.00     0.104 A 
HETATM    8 CL1  UNL     1       0.947   3.657   9.793  1.00  0.00    -0.078 Cl
ENDROOT
BRANCH   4   9
HETATM    9  N3  UNL     1      -2.808   4.534  14.252  1.00  0.00    -0.327 N 
ATOM     10  H3  UNL     1      -3.046   5.495  14.497  1.00  0.00     0.169 HD
BRANCH   9  11
HETATM   11  C4  UNL     1      -3.363   3.604  14.935  1.00  0.00     0.123 A 
HETATM   12  C5  UNL     1      -4.719   3.538  15.160  1.00  0.00     0.076 A 
HETATM   13  C6  UNL     1      -4.949   2.415  15.926  1.00  0.00     0.033 A 
HETATM   14  N4  UNL     1      -3.766   1.821  16.158  1.00  0.00    -0.303 N 
HETATM   15  N5  UNL     1      -2.840   2.550  15.557  1.00  0.00    -0.285 N 
ATOM     16  H4  UNL     1      -3.611   0.968  16.695  1.00  0.00     0.186 HD
ATOM     17  H5  UNL     1      -1.844   2.329  15.569  1.00  0.00     0.188 HD
BRANCH  13  18
HETATM   18  C7  UNL     1      -6.275   1.956  16.403  1.00  0.00     0.037 A 
HETATM   19  C8  UNL     1      -6.473   2.031  17.927  1.00  0.00     0.011 A 
HETATM   20  C9  UNL     1      -6.436   0.723  17.191  1.00  0.00     0.011 A 
ENDBRANCH  13  18
ENDBRANCH   9  11
ENDBRANCH   4   9
BRANCH   1  21
HETATM   21  N1  UNL     1      -1.273   1.839  10.838  1.00  0.00    -0.379 N 
HETATM   22  C1  UNL     1      -2.079   0.713  11.112  1.00  0.00     0.147 C 
ATOM     23  H1  UNL     1      -0.704   1.744   9.997  1.00  0.00     0.160 HD
ENDBRANCH   1  21
BRANCH   6  24
HETATM   24  N6  UNL     1       0.893   6.052  11.479  1.00  0.00    -0.388 N 
HETATM   25  C12 UNL     1       2.212   6.002  12.067  1.00  0.00     0.149 C 
HETATM   26  C13 UNL     1       0.566   7.086  10.537  1.00  0.00     0.149 C 
ENDBRANCH   6  24
TORSDOF 5
ENDMDL
MODEL 2
REMARK VINA RESULT: -6.738778632      1.061      1.373
REMARK  5 active torsions:
REMARK  status: ('A' for Active; 'I' for Inactive)
REMARK    1  A    between atoms: N1_2  and  C2_4 
REMARK    2  A    between atoms: C3_7  and  N3_8 
REMARK    3  A    between atoms: N3_8  and  C4_10 
REMARK    4  A    between atoms: C6_12  and  C7_13 
REMARK    5  A    between atoms: C11_21  and  N6_22 
ROOT
HETATM    1  C2  UNL     1      -1.893   2.596  11.119  1.00  0.00     0.126 A 
HETATM    2  N2  UNL     1      -2.221   2.807  12.422  1.00  0.00    -0.327 N 
ATOM      3  H2  UNL     1      -2.600   2.020  12.948  1.00  0.00     0.169 HD
HETATM    4  C3  UNL     1      -2.082   3.968  13.059  1.00  0.00     0.110 A 
HETATM    5  C10 UNL     1      -1.574   5.034  12.364  1.00  0.00     0.079 A 
HETATM    6  C11 UNL     1      -1.214   4.904  11.033  1.00  0.00     0.059 A 
HETATM    7  C14 UNL     1      -1.382   3.660  10.415  1.00  0.00     0.104 A 
HETATM    8 CL1  UNL     1      -0.919   3.533   8.737  1.00  0.00    -0.078 Cl
ENDROOT
BRANCH   4   9
HETATM    9  N3  UNL     1      -2.455   4.067  14.404  1.00  0.00    -0.327 N 
ATOM     10  H3  UNL     1      -2.076   4.852  14.933  1.00  0.00     0.169 HD
BRANCH   9  11
HETATM   11  C4  UNL     1      -3.229   3.262  15.030  1.00  0.00     0.123 A 
HETATM   12  C5  UNL     1      -4.575   3.489  15.204  1.00  0.00     0.076 A 
HETATM   13  C6  UNL     1      -5.077   2.421  15.917  1.00  0.00     0.033 A 
HETATM   14  N4  UNL     1      -4.064   1.574  16.166  1.00  0.00    -0.303 N 
HETATM   15  N5  UNL     1      -2.976   2.099  15.627  1.00  0.00    -0.285 N 
ATOM     16  H4  UNL     1      -4.123   0.692  16.675  1.00  0.00     0.186 HD
ATOM     17  H5  UNL     1      -2.054   1.665  15.665  1.00  0.00     0.188 HD
BRANCH  13  18
HETATM   18  C7  UNL     1      -6.491   2.251  16.329  1.00  0.00     0.037 A 
HETATM   19  C8  UNL     1      -6.731   2.305  17.848  1.00  0.00     0.011 A 
HETATM   20  C9  UNL     1      -6.954   1.053  17.049  1.00  0.00     0.011 A 
ENDBRANCH  13  18
ENDBRANCH   9  11
ENDBRANCH   4   9
BRANCH   1  21
HETATM   21  N1  UNL     1      -2.077   1.437  10.633  1.00  0.00    -0.379 N 
HETATM   22  C1  UNL     1      -2.740   0.296  11.130  1.00  0.00     0.147 C 
ATOM     23  H1  UNL     1      -1.666   1.307   9.708  1.00  0.00     0.160 HD
ENDBRANCH   1  21
BRANCH   6  24
HETATM   24  N6  UNL     1      -0.686   6.000  10.302  1.00  0.00    -0.388 N 
HETATM   25  C12 UNL     1      -1.564   6.878   9.563  1.00  0.00     0.149 C 
HETATM   26  C13 UNL     1       0.731   6.235  10.300  1.00  0.00     0.149 C 
ENDBRANCH   6  24
TORSDOF 5
ENDMDL
MODEL 3
REMARK VINA RESULT: -6.627727918      1.429      1.753
REMARK  5 active torsions:
REMARK  status: ('A' for Active; 'I' for Inactive)
REMARK    1  A    between atoms: N1_2  and  C2_4 
REMARK    2  A    between atoms: C3_7  and  N3_8 
REMARK    3  A    between atoms: N3_8  and  C4_10 
REMARK    4  A    between atoms: C6_12  and  C7_13 
REMARK    5  A    between atoms: C11_21  and  N6_22 
ROOT
HETATM    1  C2  UNL     1      -1.968   2.305  11.128  1.00  0.00     0.126 A 
HETATM    2  N2  UNL     1      -2.363   2.482  12.417  1.00  0.00    -0.327 N 
ATOM      3  H2  UNL     1      -2.753   1.678  12.908  1.00  0.00     0.169 HD
HETATM    4  C3  UNL     1      -2.275   3.632  13.085  1.00  0.00     0.110 A 
HETATM    5  C10 UNL     1      -1.752   4.721  12.438  1.00  0.00     0.079 A 
HETATM    6  C11 UNL     1      -1.326   4.626  11.124  1.00  0.00     0.059 A 
HETATM    7  C14 UNL     1      -1.441   3.393  10.472  1.00  0.00     0.104 A 
HETATM    8 CL1  UNL     1      -0.895   3.310   8.817  1.00  0.00    -0.078 Cl
ENDROOT
BRANCH   4   9
HETATM    9  N3  UNL     1      -2.715   3.695  14.411  1.00  0.00    -0.327 N 
ATOM     10  H3  UNL     1      -2.004   3.838  15.129  1.00  0.00     0.169 HD
BRANCH   9  11
HETATM   11  C4  UNL     1      -3.928   3.590  14.807  1.00  0.00     0.123 A 
HETATM   12  C5  UNL     1      -4.377   2.560  15.601  1.00  0.00     0.076 A 
HETATM   13  C6  UNL     1      -5.721   2.775  15.822  1.00  0.00     0.033 A 
HETATM   14  N4  UNL     1      -6.072   3.902  15.180  1.00  0.00    -0.303 N 
HETATM   15  N5  UNL     1      -4.987   4.366  14.584  1.00  0.00    -0.285 N 
ATOM     16  H4  UNL     1      -7.002   4.321  15.157  1.00  0.00     0.186 HD
ATOM     17  H5  UNL     1      -4.963   5.216  14.022  1.00  0.00     0.188 HD
BRANCH  13  18
HETATM   18  C7  UNL     1      -6.609   1.906  16.630  1.00  0.00     0.037 A 
HETATM   19  C8  UNL     1      -6.311   1.906  18.140  1.00  0.00     0.011 A 
HETATM   20  C9  UNL     1      -6.116   0.685  17.288  1.00  0.00     0.011 A 
ENDBRANCH  13  18
ENDBRANCH   9  11
ENDBRANCH   4   9
BRANCH   1  21
HETATM   21  N1  UNL     1      -2.107   1.155  10.610  1.00  0.00    -0.379 N 
HETATM   22  C1  UNL     1      -3.167   0.224  10.640  1.00  0.00     0.147 C 
ATOM     23  H1  UNL     1      -1.300   0.844  10.069  1.00  0.00     0.160 HD
ENDBRANCH   1  21
BRANCH   6  24
HETATM   24  N6  UNL     1      -0.782   5.745  10.442  1.00  0.00    -0.388 N 
HETATM   25  C12 UNL     1      -1.641   6.639   9.701  1.00  0.00     0.149 C 
HETATM   26  C13 UNL     1       0.633   5.989  10.494  1.00  0.00     0.149 C 
ENDBRANCH   6  24
TORSDOF 5
ENDMDL
MODEL 4
REMARK VINA RESULT: -6.617164011      2.079      2.693
REMARK  5 active torsions:
REMARK  status: ('A' for Active; 'I' for Inactive)
REMARK    1  A    between atoms: N1_2  and  C2_4 
REMARK    2  A    between atoms: C3_7  and  N3_8 
REMARK    3  A    between atoms: N3_8  and  C4_10 
REMARK    4  A    between atoms: C6_12  and  C7_13 
REMARK    5  A    between atoms: C11_21  and  N6_22 
ROOT
HETATM    1  C2  UNL     1      -0.829   4.127  12.211  1.00  0.00     0.126 A 
HETATM    2  N2  UNL     1      -1.894   3.299  12.377  1.00  0.00    -0.327 N 
ATOM      3  H2  UNL     1      -1.772   2.315  12.138  1.00  0.00     0.169 HD
HETATM    4  C3  UNL     1      -3.087   3.682  12.831  1.00  0.00     0.110 A 
HETATM    5  C10 UNL     1      -3.266   5.001  13.157  1.00  0.00     0.079 A 
HETATM    6  C11 UNL     1      -2.231   5.911  13.016  1.00  0.00     0.059 A 
HETATM    7  C14 UNL     1      -1.000   5.452  12.536  1.00  0.00     0.104 A 
HETATM    8 CL1  UNL     1       0.281   6.626  12.372  1.00  0.00    -0.078 Cl
ENDROOT
BRANCH   4   9
HETATM    9  N3  UNL     1      -4.112   2.739  12.961  1.00  0.00    -0.327 N 
ATOM     10  H3  UNL     1      -4.770   2.660  12.186  1.00  0.00     0.169 HD
BRANCH   9  11
HETATM   11  C4  UNL     1      -4.299   1.965  13.964  1.00  0.00     0.123 A 
HETATM   12  C5  UNL     1      -5.063   2.314  15.054  1.00  0.00     0.076 A 
HETATM   13  C6  UNL     1      -5.038   1.245  15.925  1.00  0.00     0.033 A 
HETATM   14  N4  UNL     1      -4.281   0.280  15.376  1.00  0.00    -0.303 N 
HETATM   15  N5  UNL     1      -3.854   0.735  14.210  1.00  0.00    -0.285 N 
ATOM     16  H4  UNL     1      -4.075  -0.633  15.782  1.00  0.00     0.186 HD
ATOM     17  H5  UNL     1      -3.255   0.207  13.576  1.00  0.00     0.188 HD
BRANCH  13  18
HETATM   18  C7  UNL     1      -5.732   1.185  17.234  1.00  0.00     0.037 A 
HETATM   19  C8  UNL     1      -7.265   1.086  17.147  1.00  0.00     0.011 A 
HETATM   20  C9  UNL     1      -6.575   2.290  17.719  1.00  0.00     0.011 A 
ENDBRANCH  13  18
ENDBRANCH   9  11
ENDBRANCH   4   9
BRANCH   1  21
HETATM   21  N1  UNL     1       0.254   3.632  11.769  1.00  0.00    -0.379 N 
HETATM   22  C1  UNL     1       0.847   3.642  10.489  1.00  0.00     0.147 C 
ATOM     23  H1  UNL     1       0.797   3.133  12.473  1.00  0.00     0.160 HD
ENDBRANCH   1  21
BRANCH   6  24
HETATM   24  N6  UNL     1      -2.403   7.279  13.350  1.00  0.00    -0.388 N 
HETATM   25  C12 UNL     1      -2.244   7.725  14.715  1.00  0.00     0.149 C 
HETATM   26  C13 UNL     1      -2.735   8.225  12.320  1.00  0.00     0.149 C 
ENDBRANCH   6  24
TORSDOF 5
ENDMDL
MODEL 5
REMARK VINA RESULT: -6.602383944      2.540      3.370
REMARK  5 active torsions:
REMARK  status: ('A' for Active; 'I' for Inactive)
REMARK    1  A    between atoms: N1_2  and  C2_4 
REMARK    2  A    between atoms: C3_7  and  N3_8 
REMARK    3  A    between atoms: N3_8  and  C4_10 
REMARK    4  A    between atoms: C6_12  and  C7_13 
REMARK    5  A    between atoms: C11_21  and  N6_22 
ROOT
HETATM    1  C2  UNL     1      -1.472   3.975  12.064  1.00  0.00     0.126 A 
HETATM    2  N2  UNL     1      -2.165   2.853  12.393  1.00  0.00    -0.327 N 
ATOM      3  H2  UNL     1      -1.643   2.074  12.794  1.00  0.00     0.169 HD
HETATM    4  C3  UNL     1      -3.478   2.698  12.230  1.00  0.00     0.110 A 
HETATM    5  C10 UNL     1      -4.192   3.737  11.692  1.00  0.00     0.079 A 
HETATM    6  C11 UNL     1      -3.563   4.916  11.329  1.00  0.00     0.059 A 
HETATM    7  C14 UNL     1      -2.182   5.022  11.525  1.00  0.00     0.104 A 
HETATM    8 CL1  UNL     1      -1.422   6.522  11.056  1.00  0.00    -0.078 Cl
ENDROOT
BRANCH   4   9
HETATM    9  N3  UNL     1      -4.084   1.495  12.605  1.00  0.00    -0.327 N 
ATOM     10  H3  UNL     1      -4.359   0.861  11.856  1.00  0.00     0.169 HD
BRANCH   9  11
HETATM   11  C4  UNL     1      -4.325   1.118  13.805  1.00  0.00     0.123 A 
HETATM   12  C5  UNL     1      -4.992   1.897  14.723  1.00  0.00     0.076 A 
HETATM   13  C6  UNL     1      -5.066   1.172  15.893  1.00  0.00     0.033 A 
HETATM   14  N4  UNL     1      -4.462  -0.011  15.688  1.00  0.00    -0.303 N 
HETATM   15  N5  UNL     1      -4.030  -0.016  14.437  1.00  0.00    -0.285 N 
ATOM     16  H4  UNL     1      -4.356  -0.763  16.368  1.00  0.00     0.186 HD
ATOM     17  H5  UNL     1      -3.531  -0.795  14.009  1.00  0.00     0.188 HD
BRANCH  13  18
HETATM   18  C7  UNL     1      -5.705   1.629  17.149  1.00  0.00     0.037 A 
HETATM   19  C8  UNL     1      -7.189   1.246  17.295  1.00  0.00     0.011 A 
HETATM   20  C9  UNL     1      -6.744   2.673  17.160  1.00  0.00     0.011 A 
ENDBRANCH  13  18
ENDBRANCH   9  11
ENDBRANCH   4   9
BRANCH   1  21
HETATM   21  N1  UNL     1      -0.220   3.991  12.273  1.00  0.00    -0.379 N 
HETATM   22  C1  UNL     1       0.887   3.921  11.401  1.00  0.00     0.147 C 
ATOM     23  H1  UNL     1       0.034   4.070  13.258  1.00  0.00     0.160 HD
ENDBRANCH   1  21
BRANCH   6  24
HETATM   24  N6  UNL     1      -4.291   5.999  10.772  1.00  0.00    -0.388 N 
HETATM   25  C12 UNL     1      -4.377   6.163   9.339  1.00  0.00     0.149 C 
HETATM   26  C13 UNL     1      -4.946   6.936  11.642  1.00  0.00     0.149 C 
ENDBRANCH   6  24
TORSDOF 5
ENDMDL
