MODEL 1
REMARK VINA RESULT: -7.370354462      0.000      0.000
REMARK  5 active torsions:
REMARK  status: ('A' for Active; 'I' for Inactive)
REMARK    1  A    between atoms: C5_5  and  O1_6 
REMARK    2  A    between atoms: C6_8  and  N1_9 
REMARK       I    between atoms: N1_9  and  C7_11 
REMARK    3  A    between atoms: C7_11  and  C8_13 
REMARK    4  A    between atoms: C11_16  and  C12_17 
REMARK    5  A    between atoms: C12_17  and  N3_21 
ROOT
HETATM    1  N1  UNL     1      -3.431   2.893  14.684  1.00  0.00    -0.354 N 
ATOM      2  H1  UNL     1      -3.039   2.082  14.205  1.00  0.00     0.163 HD
HETATM    3  C7  UNL     1      -2.977   4.186  14.303  1.00  0.00     0.223 C 
HETATM    4  O2  UNL     1      -3.496   5.159  14.928  1.00  0.00    -0.273 OA
ENDROOT
BRANCH   3   5
HETATM    5  C8  UNL     1      -1.977   4.310  13.254  1.00  0.00     0.089 C 
HETATM    6  C9  UNL     1      -2.110   5.493  12.322  1.00  0.00     0.015 C 
HETATM    7  C10 UNL     1      -1.437   4.621  11.282  1.00  0.00     0.014 C 
HETATM    8  C11 UNL     1      -2.040   3.434  12.053  1.00  0.00     0.066 C 
BRANCH   8   9
HETATM    9  C12 UNL     1      -3.353   3.126  11.469  1.00  0.00     0.077 C 
HETATM   10  N2  UNL     1      -4.133   4.050  11.078  1.00  0.00    -0.389 N 
ATOM     11  H22 UNL     1      -3.848   5.025  11.166  1.00  0.00     0.157 HD
ATOM     12  H21 UNL     1      -5.044   3.836  10.673  1.00  0.00     0.157 HD
BRANCH   9  13
HETATM   13  N3  UNL     1      -3.748   1.776  11.348  1.00  0.00    -0.379 N 
HETATM   14  C13 UNL     1      -5.123   1.354  11.185  1.00  0.00     0.150 C 
HETATM   15  C14 UNL     1      -2.684   0.772  11.392  1.00  0.00     0.150 C 
ENDBRANCH   9  13
ENDBRANCH   8   9
ENDBRANCH   3   5
BRANCH   1  16
HETATM   16  C6  UNL     1      -4.423   2.668  15.718  1.00  0.00     0.113 C 
HETATM   17  C5  UNL     1      -4.422   1.214  16.059  1.00  0.00     0.140 C 
HETATM   18  C4  UNL     1      -5.136   0.854  17.317  1.00  0.00     0.034 C 
HETATM   19  C3  UNL     1      -5.840   1.996  17.987  1.00  0.00     0.007 C 
HETATM   20  C2  UNL     1      -7.038   2.496  17.230  1.00  0.00    -0.019 C 
HETATM   21  C1  UNL     1      -7.857   1.381  16.638  1.00  0.00     0.010 C 
HETATM   22  C16 UNL     1      -6.685   3.541  16.201  1.00  0.00     0.006 C 
HETATM   23  C15 UNL     1      -5.787   3.014  15.121  1.00  0.00     0.028 C 
BRANCH  17  24
HETATM   24  O1  UNL     1      -3.146   0.660  16.075  1.00  0.00    -0.394 OA
ATOM     25  H1  UNL     1      -2.759   0.734  15.211  1.00  0.00     0.210 HD
ENDBRANCH  17  24
ENDBRANCH   1  16
TORSDOF 5
ENDMDL
MODEL 2
REMARK VINA RESULT: -7.193774654      1.758      2.533
REMARK  5 active torsions:
REMARK  status: ('A' for Active; 'I' for Inactive)
REMARK    1  A    between atoms: C5_5  and  O1_6 
REMARK    2  A    between atoms: C6_8  and  N1_9 
REMARK       I    between atoms: N1_9  and  C7_11 
REMARK    3  A    between atoms: C7_11  and  C8_13 
REMARK    4  A    between atoms: C11_16  and  C12_17 
REMARK    5  A    between atoms: C12_17  and  N3_21 
ROOT
HETATM    1  N1  UNL     1      -4.521   3.846  13.834  1.00  0.00    -0.354 N 
ATOM      2  H1  UNL     1      -4.673   3.363  12.948  1.00  0.00     0.163 HD
HETATM    3  C7  UNL     1      -3.904   5.127  13.806  1.00  0.00     0.223 C 
HETATM    4  O2  UNL     1      -3.738   5.684  14.933  1.00  0.00    -0.273 OA
ENDROOT
BRANCH   3   5
HETATM    5  C8  UNL     1      -3.511   5.703  12.529  1.00  0.00     0.089 C 
HETATM    6  C9  UNL     1      -3.656   4.820  11.310  1.00  0.00     0.015 C 
HETATM    7  C10 UNL     1      -2.505   5.611  10.725  1.00  0.00     0.014 C 
HETATM    8  C11 UNL     1      -2.071   5.840  12.183  1.00  0.00     0.066 C 
BRANCH   8   9
HETATM    9  C12 UNL     1      -1.145   4.763  12.561  1.00  0.00     0.077 C 
HETATM   10  N2  UNL     1      -1.135   4.285  13.738  1.00  0.00    -0.389 N 
ATOM     11  H22 UNL     1      -1.782   4.649  14.438  1.00  0.00     0.157 HD
ATOM     12  H21 UNL     1      -0.493   3.538  14.001  1.00  0.00     0.157 HD
BRANCH   9  13
HETATM   13  N3  UNL     1      -0.249   4.259  11.592  1.00  0.00    -0.379 N 
HETATM   14  C13 UNL     1       0.852   5.022  11.044  1.00  0.00     0.150 C 
HETATM   15  C14 UNL     1      -0.473   2.886  11.139  1.00  0.00     0.150 C 
ENDBRANCH   9  13
ENDBRANCH   8   9
ENDBRANCH   3   5
BRANCH   1  16
HETATM   16  C6  UNL     1      -4.945   3.190  15.056  1.00  0.00     0.113 C 
HETATM   17  C5  UNL     1      -4.771   1.718  14.882  1.00  0.00     0.140 C 
HETATM   18  C4  UNL     1      -4.844   0.915  16.136  1.00  0.00     0.034 C 
HETATM   19  C3  UNL     1      -5.194   1.701  17.365  1.00  0.00     0.007 C 
HETATM   20  C2  UNL     1      -6.611   2.200  17.380  1.00  0.00    -0.019 C 
HETATM   21  C1  UNL     1      -7.591   1.182  16.863  1.00  0.00     0.010 C 
HETATM   22  C16 UNL     1      -6.769   3.533  16.690  1.00  0.00     0.006 C 
HETATM   23  C15 UNL     1      -6.438   3.474  15.228  1.00  0.00     0.028 C 
BRANCH  17  24
HETATM   24  O1  UNL     1      -3.613   1.385  14.186  1.00  0.00    -0.394 OA
ATOM     25  H1  UNL     1      -3.843   1.085  13.315  1.00  0.00     0.210 HD
ENDBRANCH  17  24
ENDBRANCH   1  16
TORSDOF 5
ENDMDL
MODEL 3
REMARK VINA RESULT: -7.135882213      1.731      3.299
REMARK  5 active torsions:
REMARK  status: ('A' for Active; 'I' for Inactive)
REMARK    1  A    between atoms: C5_5  and  O1_6 
REMARK    2  A    between atoms: C6_8  and  N1_9 
REMARK       I    between atoms: N1_9  and  C7_11 
REMARK    3  A    between atoms: C7_11  and  C8_13 
REMARK    4  A    between atoms: C11_16  and  C12_17 
REMARK    5  A    between atoms: C12_17  and  N3_21 
ROOT
HETATM    1  N1  UNL     1      -4.152   2.012  13.745  1.00  0.00    -0.354 N 
ATOM      2  H1  UNL     1      -3.163   1.956  13.989  1.00  0.00     0.163 HD
HETATM    3  C7  UNL     1      -4.501   2.164  12.374  1.00  0.00     0.223 C 
HETATM    4  O2  UNL     1      -5.741   2.228  12.125  1.00  0.00    -0.273 OA
ENDROOT
BRANCH   3   5
HETATM    5  C8  UNL     1      -3.447   2.238  11.374  1.00  0.00     0.089 C 
HETATM    6  C9  UNL     1      -2.156   1.516  11.689  1.00  0.00     0.015 C 
HETATM    7  C10 UNL     1      -1.480   2.558  10.824  1.00  0.00     0.014 C 
HETATM    8  C11 UNL     1      -2.644   3.481  11.225  1.00  0.00     0.066 C 
BRANCH   8   9
HETATM    9  C12 UNL     1      -2.249   4.220  12.432  1.00  0.00     0.077 C 
HETATM   10  N2  UNL     1      -1.339   3.783  13.204  1.00  0.00    -0.389 N 
ATOM     11  H22 UNL     1      -0.867   2.906  12.985  1.00  0.00     0.157 HD
ATOM     12  H21 UNL     1      -1.065   4.296  14.042  1.00  0.00     0.157 HD
BRANCH   9  13
HETATM   13  N3  UNL     1      -2.903   5.434  12.736  1.00  0.00    -0.379 N 
HETATM   14  C13 UNL     1      -3.827   6.094  11.838  1.00  0.00     0.150 C 
HETATM   15  C14 UNL     1      -2.610   6.032  14.040  1.00  0.00     0.150 C 
ENDBRANCH   9  13
ENDBRANCH   8   9
ENDBRANCH   3   5
BRANCH   1  16
HETATM   16  C6  UNL     1      -5.130   1.931  14.813  1.00  0.00     0.113 C 
HETATM   17  C5  UNL     1      -5.465   3.320  15.246  1.00  0.00     0.140 C 
HETATM   18  C4  UNL     1      -6.682   3.445  16.099  1.00  0.00     0.034 C 
HETATM   19  C3  UNL     1      -7.316   2.140  16.482  1.00  0.00     0.007 C 
HETATM   20  C2  UNL     1      -6.496   1.329  17.445  1.00  0.00    -0.019 C 
HETATM   21  C1  UNL     1      -5.857   2.171  18.516  1.00  0.00     0.010 C 
HETATM   22  C16 UNL     1      -5.491   0.441  16.753  1.00  0.00     0.006 C 
HETATM   23  C15 UNL     1      -4.460   1.217  15.988  1.00  0.00     0.028 C 
BRANCH  17  24
HETATM   24  O1  UNL     1      -5.550   4.215  14.185  1.00  0.00    -0.394 OA
ATOM     25  H1  UNL     1      -4.720   4.666  14.086  1.00  0.00     0.210 HD
ENDBRANCH  17  24
ENDBRANCH   1  16
TORSDOF 5
ENDMDL
MODEL 4
REMARK VINA RESULT: -6.956122905      1.981      2.927
REMARK  5 active torsions:
REMARK  status: ('A' for Active; 'I' for Inactive)
REMARK    1  A    between atoms: C5_5  and  O1_6 
REMARK    2  A    between atoms: C6_8  and  N1_9 
REMARK       I    between atoms: N1_9  and  C7_11 
REMARK    3  A    between atoms: C7_11  and  C8_13 
REMARK    4  A    between atoms: C11_16  and  C12_17 
REMARK    5  A    between atoms: C12_17  and  N3_21 
ROOT
HETATM    1  N1  UNL     1      -3.721   2.184  14.220  1.00  0.00    -0.354 N 
ATOM      2  H1  UNL     1      -2.791   2.088  14.627  1.00  0.00     0.163 HD
HETATM    3  C7  UNL     1      -3.828   2.369  12.814  1.00  0.00     0.223 C 
HETATM    4  O2  UNL     1      -5.006   2.482  12.360  1.00  0.00    -0.273 OA
ENDROOT
BRANCH   3   5
HETATM    5  C8  UNL     1      -2.618   2.416  12.007  1.00  0.00     0.089 C 
HETATM    6  C9  UNL     1      -2.761   2.939  10.596  1.00  0.00     0.015 C 
HETATM    7  C10 UNL     1      -1.585   2.048  10.254  1.00  0.00     0.014 C 
HETATM    8  C11 UNL     1      -2.060   1.167  11.423  1.00  0.00     0.066 C 
BRANCH   8   9
HETATM    9  C12 UNL     1      -2.986   0.158  10.890  1.00  0.00     0.077 C 
HETATM   10  N2  UNL     1      -3.550   0.311   9.762  1.00  0.00    -0.389 N 
ATOM     11  H22 UNL     1      -3.359   1.146   9.209  1.00  0.00     0.157 HD
ATOM     12  H21 UNL     1      -4.193  -0.389   9.392  1.00  0.00     0.157 HD
BRANCH   9  13
HETATM   13  N3  UNL     1      -3.252  -0.998  11.655  1.00  0.00    -0.379 N 
HETATM   14  C13 UNL     1      -2.579  -2.264  11.458  1.00  0.00     0.150 C 
HETATM   15  C14 UNL     1      -4.271  -0.877  12.700  1.00  0.00     0.150 C 
ENDBRANCH   9  13
ENDBRANCH   8   9
ENDBRANCH   3   5
BRANCH   1  16
HETATM   16  C6  UNL     1      -4.868   2.124  15.106  1.00  0.00     0.113 C 
HETATM   17  C5  UNL     1      -5.169   3.509  15.576  1.00  0.00     0.140 C 
HETATM   18  C4  UNL     1      -6.499   3.688  16.226  1.00  0.00     0.034 C 
HETATM   19  C3  UNL     1      -7.282   2.422  16.408  1.00  0.00     0.007 C 
HETATM   20  C2  UNL     1      -6.697   1.490  17.432  1.00  0.00    -0.019 C 
HETATM   21  C1  UNL     1      -6.187   2.213  18.649  1.00  0.00     0.010 C 
HETATM   22  C16 UNL     1      -5.659   0.562  16.852  1.00  0.00     0.006 C 
HETATM   23  C15 UNL     1      -4.459   1.290  16.322  1.00  0.00     0.028 C 
BRANCH  17  24
HETATM   24  O1  UNL     1      -5.008   4.468  14.581  1.00  0.00    -0.394 OA
ATOM     25  H1  UNL     1      -4.966   4.040  13.734  1.00  0.00     0.210 HD
ENDBRANCH  17  24
ENDBRANCH   1  16
TORSDOF 5
ENDMDL
MODEL 5
REMARK VINA RESULT: -6.792583996      1.995      3.289
REMARK  5 active torsions:
REMARK  status: ('A' for Active; 'I' for Inactive)
REMARK    1  A    between atoms: C5_5  and  O1_6 
REMARK    2  A    between atoms: C6_8  and  N1_9 
REMARK       I    between atoms: N1_9  and  C7_11 
REMARK    3  A    between atoms: C7_11  and  C8_13 
REMARK    4  A    between atoms: C11_16  and  C12_17 
REMARK    5  A    between atoms: C12_17  and  N3_21 
ROOT
HETATM    1  N1  UNL     1      -4.196   2.345  13.745  1.00  0.00    -0.354 N 
ATOM      2  H1  UNL     1      -3.218   2.489  13.995  1.00  0.00     0.163 HD
HETATM    3  C7  UNL     1      -4.554   2.385  12.369  1.00  0.00     0.223 C 
HETATM    4  O2  UNL     1      -5.781   2.200  12.112  1.00  0.00    -0.273 OA
ENDROOT
BRANCH   3   5
HETATM    5  C8  UNL     1      -3.524   2.630  11.371  1.00  0.00     0.089 C 
HETATM    6  C9  UNL     1      -2.138   2.948  11.885  1.00  0.00     0.015 C 
HETATM    7  C10 UNL     1      -1.956   3.743  10.609  1.00  0.00     0.014 C 
HETATM    8  C11 UNL     1      -3.484   3.925  10.641  1.00  0.00     0.066 C 
BRANCH   8   9
HETATM    9  C12 UNL     1      -3.784   5.163  11.375  1.00  0.00     0.077 C 
HETATM   10  N2  UNL     1      -3.319   5.367  12.539  1.00  0.00    -0.389 N 
ATOM     11  H22 UNL     1      -2.722   4.665  12.978  1.00  0.00     0.157 HD
ATOM     12  H21 UNL     1      -3.526   6.225  13.049  1.00  0.00     0.157 HD
BRANCH   9  13
HETATM   13  N3  UNL     1      -4.609   6.135  10.769  1.00  0.00    -0.379 N 
HETATM   14  C13 UNL     1      -5.549   6.958  11.500  1.00  0.00     0.150 C 
HETATM   15  C14 UNL     1      -4.482   6.295   9.319  1.00  0.00     0.150 C 
ENDBRANCH   9  13
ENDBRANCH   8   9
ENDBRANCH   3   5
BRANCH   1  16
HETATM   16  C6  UNL     1      -5.151   2.110  14.811  1.00  0.00     0.113 C 
HETATM   17  C5  UNL     1      -5.615   3.433  15.324  1.00  0.00     0.140 C 
HETATM   18  C4  UNL     1      -6.830   3.391  16.187  1.00  0.00     0.034 C 
HETATM   19  C3  UNL     1      -7.331   2.012  16.499  1.00  0.00     0.007 C 
HETATM   20  C2  UNL     1      -6.426   1.232  17.411  1.00  0.00    -0.019 C 
HETATM   21  C1  UNL     1      -5.862   2.071  18.524  1.00  0.00     0.010 C 
HETATM   22  C16 UNL     1      -5.346   0.486  16.666  1.00  0.00     0.006 C 
HETATM   23  C15 UNL     1      -4.403   1.400  15.941  1.00  0.00     0.028 C 
BRANCH  17  24
HETATM   24  O1  UNL     1      -5.797   4.374  14.315  1.00  0.00    -0.394 OA
ATOM     25  H1  UNL     1      -4.958   4.754  14.083  1.00  0.00     0.210 HD
ENDBRANCH  17  24
ENDBRANCH   1  16
TORSDOF 5
ENDMDL
