MODEL 1
REMARK VINA RESULT: -7.169177828      0.000      0.000
REMARK  3 active torsions:
REMARK  status: ('A' for Active; 'I' for Inactive)
REMARK    1  A    between atoms: N1_2  and  C3_4 
REMARK    2  A    between atoms: C3_4  and  C4_5 
REMARK    3  A    between atoms: C7_8  and  C8_9 
ROOT
HETATM    1  C8  UNL     1      -3.730   2.371  12.447  1.00  0.00     0.086 A 
HETATM    2  N2  UNL     1      -3.422   1.607  13.521  1.00  0.00    -0.339 N 
ATOM      3  H2  UNL     1      -2.680   0.908  13.545  1.00  0.00     0.167 HD
HETATM    4  C9  UNL     1      -4.233   1.901  14.553  1.00  0.00     0.129 A 
HETATM    5  C10 UNL     1      -4.309   1.404  15.830  1.00  0.00     0.275 A 
HETATM    6  O1  UNL     1      -3.495   0.495  16.174  1.00  0.00    -0.266 OA
HETATM    7  N3  UNL     1      -5.240   1.899  16.656  1.00  0.00    -0.312 N 
ATOM      8  H3  UNL     1      -5.298   1.531  17.606  1.00  0.00     0.170 HD
HETATM    9  C11 UNL     1      -6.108   2.871  16.281  1.00  0.00     0.108 A 
HETATM   10 CL1  UNL     1      -7.281   3.456  17.412  1.00  0.00    -0.064 Cl
HETATM   11  C12 UNL     1      -6.038   3.376  14.999  1.00  0.00     0.074 A 
HETATM   12  C13 UNL     1      -5.088   2.891  14.108  1.00  0.00     0.069 A 
HETATM   13  N4  UNL     1      -4.756   3.147  12.842  1.00  0.00    -0.344 N 
ATOM     14  H4  UNL     1      -5.219   3.839  12.252  1.00  0.00     0.167 HD
ENDROOT
BRANCH   1  15
HETATM   15  C7  UNL     1      -3.072   2.354  11.116  1.00  0.00     0.053 C 
HETATM   16  C6  UNL     1      -3.370   3.681  10.455  1.00  0.00     0.013 C 
HETATM   17  C5  UNL     1      -2.091   4.512  10.530  1.00  0.00     0.007 C 
HETATM   18  C4  UNL     1      -1.057   3.863   9.632  1.00  0.00     0.014 C 
HETATM   19  C15 UNL     1      -0.755   2.477  10.158  1.00  0.00     0.007 C 
HETATM   20  C14 UNL     1      -1.599   2.137  11.347  1.00  0.00     0.013 C 
BRANCH  18  21
HETATM   21  C3  UNL     1       0.199   4.687   9.676  1.00  0.00     0.275 C 
BRANCH  21  22
HETATM   22  N1  UNL     1       1.333   4.013  10.225  1.00  0.00     0.080 N 
HETATM   23  C1  UNL     1       2.383   4.003   9.233  1.00  0.00     0.309 C 
HETATM   24  C2  UNL     1       1.829   4.557  11.448  1.00  0.00     0.309 C 
ENDBRANCH  21  22
ENDBRANCH  18  21
ENDBRANCH   1  15
TORSDOF 3
ENDMDL
MODEL 2
REMARK VINA RESULT: -7.142347218      0.733      1.081
REMARK  3 active torsions:
REMARK  status: ('A' for Active; 'I' for Inactive)
REMARK    1  A    between atoms: N1_2  and  C3_4 
REMARK    2  A    between atoms: C3_4  and  C4_5 
REMARK    3  A    between atoms: C7_8  and  C8_9 
ROOT
HETATM    1  C8  UNL     1      -3.884   2.316  12.503  1.00  0.00     0.086 A 
HETATM    2  N2  UNL     1      -3.548   1.584  13.590  1.00  0.00    -0.339 N 
ATOM      3  H2  UNL     1      -2.804   0.886  13.614  1.00  0.00     0.167 HD
HETATM    4  C9  UNL     1      -4.333   1.906  14.633  1.00  0.00     0.129 A 
HETATM    5  C10 UNL     1      -4.376   1.446  15.925  1.00  0.00     0.275 A 
HETATM    6  O1  UNL     1      -3.552   0.547  16.274  1.00  0.00    -0.266 OA
HETATM    7  N3  UNL     1      -5.285   1.964  16.761  1.00  0.00    -0.312 N 
ATOM      8  H3  UNL     1      -5.319   1.622  17.721  1.00  0.00     0.170 HD
HETATM    9  C11 UNL     1      -6.164   2.924  16.380  1.00  0.00     0.108 A 
HETATM   10 CL1  UNL     1      -7.309   3.541  17.524  1.00  0.00    -0.064 Cl
HETATM   11  C12 UNL     1      -6.127   3.392  15.083  1.00  0.00     0.074 A 
HETATM   12  C13 UNL     1      -5.200   2.883  14.182  1.00  0.00     0.069 A 
HETATM   13  N4  UNL     1      -4.901   3.103  12.902  1.00  0.00    -0.344 N 
ATOM     14  H4  UNL     1      -5.379   3.778  12.304  1.00  0.00     0.167 HD
ENDROOT
BRANCH   1  15
HETATM   15  C7  UNL     1      -3.260   2.262  11.156  1.00  0.00     0.053 C 
HETATM   16  C6  UNL     1      -3.247   3.674  10.614  1.00  0.00     0.013 C 
HETATM   17  C5  UNL     1      -1.810   4.178  10.720  1.00  0.00     0.007 C 
HETATM   18  C4  UNL     1      -0.963   3.387   9.742  1.00  0.00     0.014 C 
HETATM   19  C15 UNL     1      -0.987   1.928  10.145  1.00  0.00     0.007 C 
HETATM   20  C14 UNL     1      -1.876   1.692  11.327  1.00  0.00     0.013 C 
BRANCH  18  21
HETATM   21  C3  UNL     1       0.450   3.892   9.817  1.00  0.00     0.275 C 
BRANCH  21  22
HETATM   22  N1  UNL     1       0.942   4.463   8.603  1.00  0.00     0.080 N 
HETATM   23  C1  UNL     1       2.367   4.235   8.535  1.00  0.00     0.309 C 
HETATM   24  C2  UNL     1       0.319   3.985   7.410  1.00  0.00     0.309 C 
ENDBRANCH  21  22
ENDBRANCH  18  21
ENDBRANCH   1  15
TORSDOF 3
ENDMDL
MODEL 3
REMARK VINA RESULT: -6.980444784      1.091      1.273
REMARK  3 active torsions:
REMARK  status: ('A' for Active; 'I' for Inactive)
REMARK    1  A    between atoms: N1_2  and  C3_4 
REMARK    2  A    between atoms: C3_4  and  C4_5 
REMARK    3  A    between atoms: C7_8  and  C8_9 
ROOT
HETATM    1  C8  UNL     1      -3.704   2.574  12.860  1.00  0.00     0.086 A 
HETATM    2  N2  UNL     1      -3.709   1.335  13.404  1.00  0.00    -0.339 N 
ATOM      3  H2  UNL     1      -3.304   0.506  12.968  1.00  0.00     0.167 HD
HETATM    4  C9  UNL     1      -4.323   1.351  14.600  1.00  0.00     0.129 A 
HETATM    5  C10 UNL     1      -4.572   0.360  15.516  1.00  0.00     0.275 A 
HETATM    6  O1  UNL     1      -4.179  -0.818  15.255  1.00  0.00    -0.266 OA
HETATM    7  N3  UNL     1      -5.219   0.678  16.645  1.00  0.00    -0.312 N 
ATOM      8  H3  UNL     1      -5.405  -0.058  17.327  1.00  0.00     0.170 HD
HETATM    9  C11 UNL     1      -5.636   1.939  16.918  1.00  0.00     0.108 A 
HETATM   10 CL1  UNL     1      -6.466   2.265  18.402  1.00  0.00    -0.064 Cl
HETATM   11  C12 UNL     1      -5.389   2.940  16.002  1.00  0.00     0.074 A 
HETATM   12  C13 UNL     1      -4.721   2.655  14.817  1.00  0.00     0.069 A 
HETATM   13  N4  UNL     1      -4.333   3.360  13.754  1.00  0.00    -0.344 N 
ATOM     14  H4  UNL     1      -4.492   4.360  13.633  1.00  0.00     0.167 HD
ENDROOT
BRANCH   1  15
HETATM   15  C7  UNL     1      -3.125   2.978  11.553  1.00  0.00     0.053 C 
HETATM   16  C6  UNL     1      -2.622   4.396  11.709  1.00  0.00     0.013 C 
HETATM   17  C5  UNL     1      -1.100   4.320  11.803  1.00  0.00     0.007 C 
HETATM   18  C4  UNL     1      -0.569   3.873  10.456  1.00  0.00     0.014 C 
HETATM   19  C15 UNL     1      -1.097   2.486  10.159  1.00  0.00     0.007 C 
HETATM   20  C14 UNL     1      -2.023   2.003  11.231  1.00  0.00     0.013 C 
BRANCH  18  21
HETATM   21  C3  UNL     1       0.931   3.821  10.527  1.00  0.00     0.275 C 
BRANCH  21  22
HETATM   22  N1  UNL     1       1.593   3.999   9.273  1.00  0.00     0.080 N 
HETATM   23  C1  UNL     1       1.062   5.184   8.642  1.00  0.00     0.309 C 
HETATM   24  C2  UNL     1       3.016   4.084   9.344  1.00  0.00     0.309 C 
ENDBRANCH  21  22
ENDBRANCH  18  21
ENDBRANCH   1  15
TORSDOF 3
ENDMDL
MODEL 4
REMARK VINA RESULT: -6.949084999      3.798      4.264
REMARK  3 active torsions:
REMARK  status: ('A' for Active; 'I' for Inactive)
REMARK    1  A    between atoms: N1_2  and  C3_4 
REMARK    2  A    between atoms: C3_4  and  C4_5 
REMARK    3  A    between atoms: C7_8  and  C8_9 
ROOT
HETATM    1  C8  UNL     1      -3.509   4.624  13.837  1.00  0.00     0.086 A 
HETATM    2  N2  UNL     1      -2.992   3.594  14.547  1.00  0.00    -0.339 N 
ATOM      3  H2  UNL     1      -2.004   3.344  14.575  1.00  0.00     0.167 HD
HETATM    4  C9  UNL     1      -3.967   2.948  15.212  1.00  0.00     0.129 A 
HETATM    5  C10 UNL     1      -3.941   1.861  16.049  1.00  0.00     0.275 A 
HETATM    6  O1  UNL     1      -2.824   1.309  16.289  1.00  0.00    -0.266 OA
HETATM    7  N3  UNL     1      -5.094   1.430  16.577  1.00  0.00    -0.312 N 
ATOM      8  H3  UNL     1      -5.076   0.622  17.199  1.00  0.00     0.170 HD
HETATM    9  C11 UNL     1      -6.284   2.025  16.316  1.00  0.00     0.108 A 
HETATM   10 CL1  UNL     1      -7.730   1.404  17.039  1.00  0.00    -0.064 Cl
HETATM   11  C12 UNL     1      -6.319   3.118  15.475  1.00  0.00     0.074 A 
HETATM   12  C13 UNL     1      -5.146   3.599  14.906  1.00  0.00     0.069 A 
HETATM   13  N4  UNL     1      -4.833   4.598  14.080  1.00  0.00    -0.344 N 
ATOM     14  H4  UNL     1      -5.506   5.254  13.685  1.00  0.00     0.167 HD
ENDROOT
BRANCH   1  15
HETATM   15  C7  UNL     1      -2.768   5.579  12.974  1.00  0.00     0.053 C 
HETATM   16  C6  UNL     1      -3.362   6.949  13.217  1.00  0.00     0.013 C 
HETATM   17  C5  UNL     1      -2.365   7.719  14.081  1.00  0.00     0.007 C 
HETATM   18  C4  UNL     1      -1.126   7.982  13.246  1.00  0.00     0.014 C 
HETATM   19  C15 UNL     1      -0.504   6.655  12.867  1.00  0.00     0.007 C 
HETATM   20  C14 UNL     1      -1.315   5.498  13.361  1.00  0.00     0.013 C 
BRANCH  18  21
HETATM   21  C3  UNL     1      -0.147   8.762  14.077  1.00  0.00     0.275 C 
BRANCH  21  22
HETATM   22  N1  UNL     1      -0.561  10.094  14.388  1.00  0.00     0.080 N 
HETATM   23  C1  UNL     1       0.367  10.649  15.345  1.00  0.00     0.309 C 
HETATM   24  C2  UNL     1      -0.679  10.971  13.266  1.00  0.00     0.309 C 
ENDBRANCH  21  22
ENDBRANCH  18  21
ENDBRANCH   1  15
TORSDOF 3
ENDMDL
MODEL 5
REMARK VINA RESULT: -6.946563795      1.989      2.646
REMARK  3 active torsions:
REMARK  status: ('A' for Active; 'I' for Inactive)
REMARK    1  A    between atoms: N1_2  and  C3_4 
REMARK    2  A    between atoms: C3_4  and  C4_5 
REMARK    3  A    between atoms: C7_8  and  C8_9 
ROOT
HETATM    1  C8  UNL     1      -3.680   5.001  14.195  1.00  0.00     0.086 A 
HETATM    2  N2  UNL     1      -3.112   3.921  14.781  1.00  0.00    -0.339 N 
ATOM      3  H2  UNL     1      -2.113   3.717  14.783  1.00  0.00     0.167 HD
HETATM    4  C9  UNL     1      -4.053   3.154  15.361  1.00  0.00     0.129 A 
HETATM    5  C10 UNL     1      -3.973   1.979  16.065  1.00  0.00     0.275 A 
HETATM    6  O1  UNL     1      -2.831   1.457  16.242  1.00  0.00    -0.266 OA
HETATM    7  N3  UNL     1      -5.104   1.433  16.532  1.00  0.00    -0.312 N 
ATOM      8  H3  UNL     1      -5.046   0.559  17.056  1.00  0.00     0.170 HD
HETATM    9  C11 UNL     1      -6.322   1.996  16.338  1.00  0.00     0.108 A 
HETATM   10 CL1  UNL     1      -7.734   1.225  16.978  1.00  0.00    -0.064 Cl
HETATM   11  C12 UNL     1      -6.411   3.178  15.632  1.00  0.00     0.074 A 
HETATM   12  C13 UNL     1      -5.264   3.779  15.128  1.00  0.00     0.069 A 
HETATM   13  N4  UNL     1      -5.000   4.882  14.427  1.00  0.00    -0.344 N 
ATOM     14  H4  UNL     1      -5.705   5.548  14.109  1.00  0.00     0.167 HD
ENDROOT
BRANCH   1  15
HETATM   15  C7  UNL     1      -2.987   6.086  13.454  1.00  0.00     0.053 C 
HETATM   16  C6  UNL     1      -1.504   5.915  13.698  1.00  0.00     0.013 C 
HETATM   17  C5  UNL     1      -0.908   5.331  12.419  1.00  0.00     0.007 C 
HETATM   18  C4  UNL     1      -0.996   6.388  11.335  1.00  0.00     0.014 C 
HETATM   19  C15 UNL     1      -2.455   6.702  11.080  1.00  0.00     0.007 C 
HETATM   20  C14 UNL     1      -3.358   5.942  12.001  1.00  0.00     0.013 C 
BRANCH  18  21
HETATM   21  C3  UNL     1      -0.388   5.835  10.078  1.00  0.00     0.275 C 
BRANCH  21  22
HETATM   22  N1  UNL     1      -0.120   4.432  10.114  1.00  0.00     0.080 N 
HETATM   23  C1  UNL     1      -0.982   3.778   9.157  1.00  0.00     0.309 C 
HETATM   24  C2  UNL     1       1.238   4.065   9.870  1.00  0.00     0.309 C 
ENDBRANCH  21  22
ENDBRANCH  18  21
ENDBRANCH   1  15
TORSDOF 3
ENDMDL
