MODEL 1
REMARK VINA RESULT: -6.997753191      0.000      0.000
REMARK  5 active torsions:
REMARK  status: ('A' for Active; 'I' for Inactive)
REMARK    1  A    between atoms: C2_2  and  C3_3 
REMARK    2  A    between atoms: C3_3  and  N1_4 
REMARK    3  A    between atoms: C6_11  and  C7_12 
REMARK    4  A    between atoms: C9_14  and  C10_15 
REMARK    5  A    between atoms: C10_15  and  O3_16 
ROOT
HETATM    1  N1  UNL     1      -4.874   2.828  13.967  1.00  0.00    -0.320 N 
HETATM    2  C4  UNL     1      -4.493   1.485  13.671  1.00  0.00     0.326 C 
HETATM    3  O1  UNL     1      -4.599   0.569  14.512  1.00  0.00    -0.247 OA
HETATM    4  N2  UNL     1      -3.996   1.300  12.347  1.00  0.00    -0.278 N 
ATOM      5  H2  UNL     1      -3.684   0.395  11.995  1.00  0.00     0.173 HD
HETATM    6  C5  UNL     1      -3.970   2.475  11.564  1.00  0.00     0.237 C 
HETATM    7  O2  UNL     1      -4.442   2.444  10.361  1.00  0.00    -0.272 OA
HETATM    8  C6  UNL     1      -3.404   3.729  12.128  1.00  0.00     0.072 C 
HETATM    9  C9  UNL     1      -3.791   4.863  11.259  1.00  0.00     0.033 C 
HETATM   10  C11 UNL     1      -3.643   6.246  11.861  1.00  0.00    -0.011 C 
HETATM   11  C12 UNL     1      -4.665   7.224  11.302  1.00  0.00     0.010 C 
HETATM   12  C13 UNL     1      -3.822   6.291  13.350  1.00  0.00     0.007 C 
HETATM   13  C14 UNL     1      -4.776   5.168  13.706  1.00  0.00     0.033 C 
HETATM   14  C15 UNL     1      -3.997   3.885  13.523  1.00  0.00     0.050 C 
HETATM   15  C16 UNL     1      -2.916   3.942  14.608  1.00  0.00     0.040 C 
ENDROOT
BRANCH   1  16
HETATM   16  C3  UNL     1      -6.122   3.073  14.717  1.00  0.00     0.155 C 
BRANCH  16  17
HETATM   17  C2  UNL     1      -6.007   2.827  16.151  1.00  0.00    -0.017 C 
HETATM   18  C1  UNL     1      -6.889   2.067  16.804  1.00  0.00     0.008 C 
ENDBRANCH  16  17
ENDBRANCH   1  16
BRANCH   8  19
HETATM   19  C7  UNL     1      -1.919   3.475  12.232  1.00  0.00     0.018 C 
HETATM   20  C8  UNL     1      -1.263   2.615  11.238  1.00  0.00     0.006 C 
ENDBRANCH   8  19
BRANCH   9  21
HETATM   21  C10 UNL     1      -3.151   4.974   9.919  1.00  0.00     0.170 C 
BRANCH  21  22
HETATM   22  O3  UNL     1      -4.170   4.745   8.937  1.00  0.00    -0.400 OA
ATOM     23  H3  UNL     1      -4.208   5.515   8.383  1.00  0.00     0.209 HD
ENDBRANCH  21  22
ENDBRANCH   9  21
TORSDOF 5
ENDMDL
MODEL 2
REMARK VINA RESULT: -6.438201488      2.724      5.205
REMARK  5 active torsions:
REMARK  status: ('A' for Active; 'I' for Inactive)
REMARK    1  A    between atoms: C2_2  and  C3_3 
REMARK    2  A    between atoms: C3_3  and  N1_4 
REMARK    3  A    between atoms: C6_11  and  C7_12 
REMARK    4  A    between atoms: C9_14  and  C10_15 
REMARK    5  A    between atoms: C10_15  and  O3_16 
ROOT
HETATM    1  N1  UNL     1      -3.035   5.877  14.521  1.00  0.00    -0.320 N 
HETATM    2  C4  UNL     1      -1.796   5.393  14.005  1.00  0.00     0.326 C 
HETATM    3  O1  UNL     1      -0.983   6.145  13.428  1.00  0.00    -0.247 OA
HETATM    4  N2  UNL     1      -1.585   3.998  14.214  1.00  0.00    -0.278 N 
ATOM      5  H2  UNL     1      -0.745   3.513  13.897  1.00  0.00     0.173 HD
HETATM    6  C5  UNL     1      -2.635   3.345  14.896  1.00  0.00     0.237 C 
HETATM    7  O2  UNL     1      -2.356   2.557  15.882  1.00  0.00    -0.272 OA
HETATM    8  C6  UNL     1      -4.043   3.567  14.473  1.00  0.00     0.072 C 
HETATM    9  C9  UNL     1      -4.946   3.052  15.527  1.00  0.00     0.033 C 
HETATM   10  C11 UNL     1      -6.384   3.526  15.464  1.00  0.00    -0.011 C 
HETATM   11  C12 UNL     1      -7.022   3.600  16.843  1.00  0.00     0.010 C 
HETATM   12  C13 UNL     1      -6.555   4.895  14.873  1.00  0.00     0.007 C 
HETATM   13  C14 UNL     1      -5.286   5.664  15.184  1.00  0.00     0.033 C 
HETATM   14  C15 UNL     1      -4.212   5.072  14.300  1.00  0.00     0.050 C 
HETATM   15  C16 UNL     1      -4.647   5.445  12.878  1.00  0.00     0.040 C 
ENDROOT
BRANCH   1  16
HETATM   16  C3  UNL     1      -3.062   7.170  15.235  1.00  0.00     0.155 C 
BRANCH  16  17
HETATM   17  C2  UNL     1      -2.074   8.131  14.753  1.00  0.00    -0.017 C 
HETATM   18  C1  UNL     1      -1.350   8.872  15.594  1.00  0.00     0.008 C 
ENDBRANCH  16  17
ENDBRANCH   1  16
BRANCH   8  19
HETATM   19  C7  UNL     1      -4.162   2.884  13.132  1.00  0.00     0.018 C 
HETATM   20  C8  UNL     1      -3.527   1.575  12.932  1.00  0.00     0.006 C 
ENDBRANCH   8  19
BRANCH   9  21
HETATM   21  C10 UNL     1      -5.052   1.578  15.704  1.00  0.00     0.170 C 
BRANCH  21  22
HETATM   22  O3  UNL     1      -4.594   1.271  17.027  1.00  0.00    -0.400 OA
ATOM     23  H3  UNL     1      -5.303   1.470  17.627  1.00  0.00     0.209 HD
ENDBRANCH  21  22
ENDBRANCH   9  21
TORSDOF 5
ENDMDL
MODEL 3
REMARK VINA RESULT: -6.433746529      2.559      5.886
REMARK  5 active torsions:
REMARK  status: ('A' for Active; 'I' for Inactive)
REMARK    1  A    between atoms: C2_2  and  C3_3 
REMARK    2  A    between atoms: C3_3  and  N1_4 
REMARK    3  A    between atoms: C6_11  and  C7_12 
REMARK    4  A    between atoms: C9_14  and  C10_15 
REMARK    5  A    between atoms: C10_15  and  O3_16 
ROOT
HETATM    1  N1  UNL     1      -1.501   4.817   9.991  1.00  0.00    -0.320 N 
HETATM    2  C4  UNL     1      -2.006   6.088  10.396  1.00  0.00     0.326 C 
HETATM    3  O1  UNL     1      -1.367   7.143  10.203  1.00  0.00    -0.247 OA
HETATM    4  N2  UNL     1      -3.285   6.032  11.024  1.00  0.00    -0.278 N 
ATOM      5  H2  UNL     1      -3.769   6.861  11.367  1.00  0.00     0.173 HD
HETATM    6  C5  UNL     1      -3.826   4.731  11.131  1.00  0.00     0.237 C 
HETATM    7  O2  UNL     1      -5.054   4.526  10.783  1.00  0.00    -0.272 OA
HETATM    8  C6  UNL     1      -2.982   3.619  11.641  1.00  0.00     0.072 C 
HETATM    9  C9  UNL     1      -3.655   2.333  11.346  1.00  0.00     0.033 C 
HETATM   10  C11 UNL     1      -2.791   1.092  11.437  1.00  0.00    -0.011 C 
HETATM   11  C12 UNL     1      -3.253   0.004  10.479  1.00  0.00     0.010 C 
HETATM   12  C13 UNL     1      -1.345   1.323  11.109  1.00  0.00     0.007 C 
HETATM   13  C14 UNL     1      -1.303   2.472  10.120  1.00  0.00     0.033 C 
HETATM   14  C15 UNL     1      -1.648   3.714  10.910  1.00  0.00     0.050 C 
HETATM   15  C16 UNL     1      -0.470   3.885  11.877  1.00  0.00     0.040 C 
ENDROOT
BRANCH   1  16
HETATM   16  C3  UNL     1      -0.844   4.689   8.673  1.00  0.00     0.155 C 
BRANCH  16  17
HETATM   17  C2  UNL     1      -1.704   5.049   7.549  1.00  0.00    -0.017 C 
HETATM   18  C1  UNL     1      -1.228   5.699   6.484  1.00  0.00     0.008 C 
ENDBRANCH  16  17
ENDBRANCH   1  16
BRANCH   8  19
HETATM   19  C7  UNL     1      -2.782   3.919  13.107  1.00  0.00     0.018 C 
HETATM   20  C8  UNL     1      -3.868   4.552  13.868  1.00  0.00     0.006 C 
ENDBRANCH   8  19
BRANCH   9  21
HETATM   21  C10 UNL     1      -4.879   1.987  12.119  1.00  0.00     0.170 C 
BRANCH  21  22
HETATM   22  O3  UNL     1      -5.976   1.965  11.196  1.00  0.00    -0.400 OA
ATOM     23  H3  UNL     1      -6.767   2.141  11.691  1.00  0.00     0.209 HD
ENDBRANCH  21  22
ENDBRANCH   9  21
TORSDOF 5
ENDMDL
MODEL 4
REMARK VINA RESULT: -6.279414835      2.296      4.114
REMARK  5 active torsions:
REMARK  status: ('A' for Active; 'I' for Inactive)
REMARK    1  A    between atoms: C2_2  and  C3_3 
REMARK    2  A    between atoms: C3_3  and  N1_4 
REMARK    3  A    between atoms: C6_11  and  C7_12 
REMARK    4  A    between atoms: C9_14  and  C10_15 
REMARK    5  A    between atoms: C10_15  and  O3_16 
ROOT
HETATM    1  N1  UNL     1      -3.600   1.222  12.734  1.00  0.00    -0.320 N 
HETATM    2  C4  UNL     1      -4.125   0.812  13.996  1.00  0.00     0.326 C 
HETATM    3  O1  UNL     1      -4.600  -0.328  14.174  1.00  0.00    -0.247 OA
HETATM    4  N2  UNL     1      -4.048   1.814  15.009  1.00  0.00    -0.278 N 
ATOM      5  H2  UNL     1      -4.386   1.664  15.960  1.00  0.00     0.173 HD
HETATM    6  C5  UNL     1      -3.466   3.029  14.587  1.00  0.00     0.237 C 
HETATM    7  O2  UNL     1      -2.554   3.582  15.318  1.00  0.00    -0.272 OA
HETATM    8  C6  UNL     1      -3.905   3.656  13.312  1.00  0.00     0.072 C 
HETATM    9  C9  UNL     1      -2.934   4.709  12.938  1.00  0.00     0.033 C 
HETATM   10  C11 UNL     1      -2.993   5.190  11.502  1.00  0.00    -0.011 C 
HETATM   11  C12 UNL     1      -1.633   5.648  10.998  1.00  0.00     0.010 C 
HETATM   12  C13 UNL     1      -3.451   4.148  10.523  1.00  0.00     0.007 C 
HETATM   13  C14 UNL     1      -3.027   2.807  11.087  1.00  0.00     0.033 C 
HETATM   14  C15 UNL     1      -3.934   2.547  12.268  1.00  0.00     0.050 C 
HETATM   15  C16 UNL     1      -5.324   2.374  11.646  1.00  0.00     0.040 C 
ENDROOT
BRANCH   1  16
HETATM   16  C3  UNL     1      -2.762   0.280  11.963  1.00  0.00     0.155 C 
BRANCH  16  17
HETATM   17  C2  UNL     1      -3.497  -0.865  11.434  1.00  0.00    -0.017 C 
HETATM   18  C1  UNL     1      -2.981  -2.096  11.452  1.00  0.00     0.008 C 
ENDBRANCH  16  17
ENDBRANCH   1  16
BRANCH   8  19
HETATM   19  C7  UNL     1      -5.310   4.141  13.579  1.00  0.00     0.018 C 
HETATM   20  C8  UNL     1      -5.697   4.516  14.946  1.00  0.00     0.006 C 
ENDBRANCH   8  19
BRANCH   9  21
HETATM   21  C10 UNL     1      -2.908   5.961  13.744  1.00  0.00     0.170 C 
BRANCH  21  22
HETATM   22  O3  UNL     1      -1.620   6.040  14.369  1.00  0.00    -0.400 OA
ATOM     23  H3  UNL     1      -1.452   6.955  14.557  1.00  0.00     0.209 HD
ENDBRANCH  21  22
ENDBRANCH   9  21
TORSDOF 5
ENDMDL
MODEL 5
REMARK VINA RESULT: -6.203713382      1.058      1.142
REMARK  5 active torsions:
REMARK  status: ('A' for Active; 'I' for Inactive)
REMARK    1  A    between atoms: C2_2  and  C3_3 
REMARK    2  A    between atoms: C3_3  and  N1_4 
REMARK    3  A    between atoms: C6_11  and  C7_12 
REMARK    4  A    between atoms: C9_14  and  C10_15 
REMARK    5  A    between atoms: C10_15  and  O3_16 
ROOT
HETATM    1  N1  UNL     1      -3.778   3.738  14.202  1.00  0.00    -0.320 N 
HETATM    2  C4  UNL     1      -3.463   2.348  14.145  1.00  0.00     0.326 C 
HETATM    3  O1  UNL     1      -3.429   1.636  15.169  1.00  0.00    -0.247 OA
HETATM    4  N2  UNL     1      -3.201   1.866  12.828  1.00  0.00    -0.278 N 
ATOM      5  H2  UNL     1      -2.961   0.894  12.633  1.00  0.00     0.173 HD
HETATM    6  C5  UNL     1      -3.303   2.846  11.816  1.00  0.00     0.237 C 
HETATM    7  O2  UNL     1      -3.975   2.581  10.744  1.00  0.00    -0.272 OA
HETATM    8  C6  UNL     1      -2.639   4.164  11.994  1.00  0.00     0.072 C 
HETATM    9  C9  UNL     1      -3.162   5.105  10.977  1.00  0.00     0.033 C 
HETATM   10  C11 UNL     1      -2.902   6.576  11.233  1.00  0.00    -0.011 C 
HETATM   11  C12 UNL     1      -3.999   7.457  10.653  1.00  0.00     0.010 C 
HETATM   12  C13 UNL     1      -2.823   6.943  12.686  1.00  0.00     0.007 C 
HETATM   13  C14 UNL     1      -3.710   5.964  13.430  1.00  0.00     0.033 C 
HETATM   14  C15 UNL     1      -2.983   4.638  13.401  1.00  0.00     0.050 C 
HETATM   15  C16 UNL     1      -1.731   4.876  14.253  1.00  0.00     0.040 C 
ENDROOT
BRANCH   1  16
HETATM   16  C3  UNL     1      -4.877   4.192  15.078  1.00  0.00     0.155 C 
BRANCH  16  17
HETATM   17  C2  UNL     1      -6.054   3.328  15.043  1.00  0.00    -0.017 C 
HETATM   18  C1  UNL     1      -6.618   2.868  16.162  1.00  0.00     0.008 C 
ENDBRANCH  16  17
ENDBRANCH   1  16
BRANCH   8  19
HETATM   19  C7  UNL     1      -1.160   3.874  11.902  1.00  0.00     0.018 C 
HETATM   20  C8  UNL     1      -0.700   2.718  11.121  1.00  0.00     0.006 C 
ENDBRANCH   8  19
BRANCH   9  21
HETATM   21  C10 UNL     1      -2.760   4.901   9.558  1.00  0.00     0.170 C 
BRANCH  21  22
HETATM   22  O3  UNL     1      -3.949   4.604   8.815  1.00  0.00    -0.400 OA
ATOM     23  H3  UNL     1      -4.007   3.659   8.737  1.00  0.00     0.209 HD
ENDBRANCH  21  22
ENDBRANCH   9  21
TORSDOF 5
ENDMDL
