MODEL 1
REMARK VINA RESULT: -6.915069021      0.000      0.000
REMARK  8 active torsions:
REMARK  status: ('A' for Active; 'I' for Inactive)
REMARK    1  A    between atoms: N1_2  and  C2_4 
REMARK    2  A    between atoms: C4_8  and  N3_9 
REMARK    3  A    between atoms: N3_9  and  C5_11 
REMARK    4  A    between atoms: C5_11  and  C6_12 
REMARK    5  A    between atoms: C6_12  and  C7_13 
REMARK    6  A    between atoms: C7_13  and  N4_14 
REMARK    7  A    between atoms: N4_14  and  C9_16 
REMARK    8  A    between atoms: C12_21  and  N6_22 
ROOT
HETATM    1  C2  UNL     1     -40.473 -60.007 -48.435  1.00  0.00     0.146 A 
HETATM    2  N2  UNL     1     -40.576 -60.392 -47.162  1.00  0.00    -0.331 N 
ATOM      3  H2  UNL     1     -41.485 -60.632 -46.765  1.00  0.00     0.168 HD
HETATM    4  C3  UNL     1     -39.488 -60.458 -46.429  1.00  0.00     0.114 A 
HETATM    5  C4  UNL     1     -39.404 -60.847 -45.064  1.00  0.00     0.146 A 
HETATM    6  N5  UNL     1     -38.207 -60.860 -44.470  1.00  0.00    -0.175 N 
ATOM      7  H5  UNL     1     -38.166 -61.142 -43.491  1.00  0.00     0.186 HD
HETATM    8  C12 UNL     1     -37.050 -60.527 -45.078  1.00  0.00     0.678 A 
HETATM    9  N7  UNL     1     -37.115 -60.161 -46.357  1.00  0.00    -0.183 N 
ATOM     10  H7  UNL     1     -36.259 -59.902 -46.847  1.00  0.00     0.185 HD
HETATM   11  C13 UNL     1     -38.307 -60.124 -47.027  1.00  0.00     0.124 A 
HETATM   12  S1  UNL     1     -38.803 -59.730 -48.614  1.00  0.00    -0.034 SA
ENDROOT
BRANCH   5  13
HETATM   13  N3  UNL     1     -40.476 -61.172 -44.443  1.00  0.00    -0.374 N 
ATOM     14  H3  UNL     1     -41.152 -60.412 -44.361  1.00  0.00     0.161 HD
BRANCH  13  15
HETATM   15  C5  UNL     1     -40.899 -62.379 -43.851  1.00  0.00     0.126 C 
BRANCH  15  16
HETATM   16  C6  UNL     1     -41.642 -63.217 -44.842  1.00  0.00     0.064 C 
BRANCH  16  17
HETATM   17  C7  UNL     1     -42.765 -64.044 -44.339  1.00  0.00     0.059 C 
BRANCH  17  18
HETATM   18  N4  UNL     1     -43.065 -65.272 -44.922  1.00  0.00    -0.394 N 
HETATM   19  C8  UNL     1     -44.398 -65.537 -45.335  1.00  0.00     0.149 C 
BRANCH  18  20
HETATM   20  C9  UNL     1     -42.366 -66.423 -44.447  1.00  0.00     0.074 C 
HETATM   21  C10 UNL     1     -42.334 -67.568 -45.393  1.00  0.00     0.032 C 
HETATM   22  C11 UNL     1     -43.007 -66.907 -43.161  1.00  0.00     0.032 C 
ENDBRANCH  18  20
ENDBRANCH  17  18
ENDBRANCH  16  17
ENDBRANCH  15  16
ENDBRANCH  13  15
ENDBRANCH   5  13
BRANCH   8  23
HETATM   23  N6  UNL     1     -35.979 -60.594 -44.372  1.00  0.00    -0.234 N 
ATOM     24  H62 UNL     1     -35.396 -61.422 -44.253  1.00  0.00     0.174 HD
ATOM     25  H61 UNL     1     -35.689 -59.743 -43.888  1.00  0.00     0.174 HD
ENDBRANCH   8  23
BRANCH   1  26
HETATM   26  N1  UNL     1     -41.451 -59.885 -49.311  1.00  0.00    -0.375 N 
HETATM   27  C1  UNL     1     -41.215 -60.397 -50.633  1.00  0.00     0.148 C 
ATOM     28  H1  UNL     1     -42.338 -59.447 -49.061  1.00  0.00     0.161 HD
ENDBRANCH   1  26
TORSDOF 8
ENDMDL
MODEL 2
REMARK VINA RESULT: -6.869389737      1.294      1.556
REMARK  8 active torsions:
REMARK  status: ('A' for Active; 'I' for Inactive)
REMARK    1  A    between atoms: N1_2  and  C2_4 
REMARK    2  A    between atoms: C4_8  and  N3_9 
REMARK    3  A    between atoms: N3_9  and  C5_11 
REMARK    4  A    between atoms: C5_11  and  C6_12 
REMARK    5  A    between atoms: C6_12  and  C7_13 
REMARK    6  A    between atoms: C7_13  and  N4_14 
REMARK    7  A    between atoms: N4_14  and  C9_16 
REMARK    8  A    between atoms: C12_21  and  N6_22 
ROOT
HETATM    1  C2  UNL     1     -40.208 -59.975 -47.389  1.00  0.00     0.146 A 
HETATM    2  N2  UNL     1     -40.587 -60.789 -46.402  1.00  0.00    -0.331 N 
ATOM      3  H2  UNL     1     -41.503 -61.238 -46.423  1.00  0.00     0.168 HD
HETATM    4  C3  UNL     1     -39.761 -61.002 -45.403  1.00  0.00     0.114 A 
HETATM    5  C4  UNL     1     -39.990 -61.833 -44.273  1.00  0.00     0.146 A 
HETATM    6  N5  UNL     1     -39.033 -61.939 -43.346  1.00  0.00    -0.175 N 
ATOM      7  H5  UNL     1     -39.213 -62.540 -42.542  1.00  0.00     0.186 HD
HETATM    8  C12 UNL     1     -37.843 -61.305 -43.402  1.00  0.00     0.678 A 
HETATM    9  N7  UNL     1     -37.616 -60.523 -44.456  1.00  0.00    -0.183 N 
ATOM     10  H7  UNL     1     -36.727 -60.028 -44.529  1.00  0.00     0.185 HD
HETATM   11  C13 UNL     1     -38.552 -60.369 -45.442  1.00  0.00     0.124 A 
HETATM   12  S1  UNL     1     -38.648 -59.494 -46.907  1.00  0.00    -0.034 SA
ENDROOT
BRANCH   5  13
HETATM   13  N3  UNL     1     -41.104 -62.456 -44.174  1.00  0.00    -0.374 N 
ATOM     14  H3  UNL     1     -41.658 -62.184 -43.361  1.00  0.00     0.161 HD
BRANCH  13  15
HETATM   15  C5  UNL     1     -41.712 -63.445 -44.974  1.00  0.00     0.126 C 
BRANCH  15  16
HETATM   16  C6  UNL     1     -42.832 -64.103 -44.234  1.00  0.00     0.064 C 
BRANCH  16  17
HETATM   17  C7  UNL     1     -43.710 -65.024 -44.994  1.00  0.00     0.059 C 
BRANCH  17  18
HETATM   18  N4  UNL     1     -43.758 -66.381 -44.688  1.00  0.00    -0.394 N 
HETATM   19  C8  UNL     1     -44.948 -67.110 -44.947  1.00  0.00     0.149 C 
BRANCH  18  20
HETATM   20  C9  UNL     1     -43.043 -66.829 -43.535  1.00  0.00     0.074 C 
HETATM   21  C10 UNL     1     -41.834 -67.640 -43.826  1.00  0.00     0.032 C 
HETATM   22  C11 UNL     1     -43.961 -67.668 -42.667  1.00  0.00     0.032 C 
ENDBRANCH  18  20
ENDBRANCH  17  18
ENDBRANCH  16  17
ENDBRANCH  15  16
ENDBRANCH  13  15
ENDBRANCH   5  13
BRANCH   8  23
HETATM   23  N6  UNL     1     -37.025 -61.511 -42.433  1.00  0.00    -0.234 N 
ATOM     24  H62 UNL     1     -36.466 -60.798 -41.965  1.00  0.00     0.174 HD
ATOM     25  H61 UNL     1     -36.927 -62.473 -42.106  1.00  0.00     0.174 HD
ENDBRANCH   8  23
BRANCH   1  26
HETATM   26  N1  UNL     1     -40.902 -59.649 -48.462  1.00  0.00    -0.375 N 
HETATM   27  C1  UNL     1     -40.478 -60.215 -49.713  1.00  0.00     0.148 C 
ATOM     28  H1  UNL     1     -41.704 -59.022 -48.406  1.00  0.00     0.161 HD
ENDBRANCH   1  26
TORSDOF 8
ENDMDL
MODEL 3
REMARK VINA RESULT: -6.855165202      1.392      1.863
REMARK  8 active torsions:
REMARK  status: ('A' for Active; 'I' for Inactive)
REMARK    1  A    between atoms: N1_2  and  C2_4 
REMARK    2  A    between atoms: C4_8  and  N3_9 
REMARK    3  A    between atoms: N3_9  and  C5_11 
REMARK    4  A    between atoms: C5_11  and  C6_12 
REMARK    5  A    between atoms: C6_12  and  C7_13 
REMARK    6  A    between atoms: C7_13  and  N4_14 
REMARK    7  A    between atoms: N4_14  and  C9_16 
REMARK    8  A    between atoms: C12_21  and  N6_22 
ROOT
HETATM    1  C2  UNL     1     -40.137 -59.862 -47.246  1.00  0.00     0.146 A 
HETATM    2  N2  UNL     1     -40.500 -60.700 -46.274  1.00  0.00    -0.331 N 
ATOM      3  H2  UNL     1     -41.426 -61.129 -46.278  1.00  0.00     0.168 HD
HETATM    4  C3  UNL     1     -39.645 -60.965 -45.312  1.00  0.00     0.114 A 
HETATM    5  C4  UNL     1     -39.854 -61.829 -44.203  1.00  0.00     0.146 A 
HETATM    6  N5  UNL     1     -38.868 -61.987 -43.314  1.00  0.00    -0.175 N 
ATOM      7  H5  UNL     1     -39.035 -62.610 -42.525  1.00  0.00     0.186 HD
HETATM    8  C12 UNL     1     -37.667 -61.376 -43.390  1.00  0.00     0.678 A 
HETATM    9  N7  UNL     1     -37.459 -60.564 -44.425  1.00  0.00    -0.183 N 
ATOM     10  H7  UNL     1     -36.562 -60.087 -44.513  1.00  0.00     0.185 HD
HETATM   11  C13 UNL     1     -38.424 -60.357 -45.372  1.00  0.00     0.124 A 
HETATM   12  S1  UNL     1     -38.550 -59.431 -46.803  1.00  0.00    -0.034 SA
ENDROOT
BRANCH   5  13
HETATM   13  N3  UNL     1     -40.978 -62.431 -44.086  1.00  0.00    -0.374 N 
ATOM     14  H3  UNL     1     -41.457 -62.243 -43.205  1.00  0.00     0.161 HD
BRANCH  13  15
HETATM   15  C5  UNL     1     -41.680 -63.303 -44.943  1.00  0.00     0.126 C 
BRANCH  15  16
HETATM   16  C6  UNL     1     -42.742 -64.037 -44.188  1.00  0.00     0.064 C 
BRANCH  16  17
HETATM   17  C7  UNL     1     -43.525 -65.059 -44.923  1.00  0.00     0.059 C 
BRANCH  17  18
HETATM   18  N4  UNL     1     -43.405 -66.411 -44.613  1.00  0.00    -0.394 N 
HETATM   19  C8  UNL     1     -42.171 -67.071 -44.850  1.00  0.00     0.149 C 
BRANCH  18  20
HETATM   20  C9  UNL     1     -44.552 -67.241 -44.802  1.00  0.00     0.074 C 
HETATM   21  C10 UNL     1     -45.769 -66.528 -45.267  1.00  0.00     0.032 C 
HETATM   22  C11 UNL     1     -44.895 -67.933 -43.497  1.00  0.00     0.032 C 
ENDBRANCH  18  20
ENDBRANCH  17  18
ENDBRANCH  16  17
ENDBRANCH  15  16
ENDBRANCH  13  15
ENDBRANCH   5  13
BRANCH   8  23
HETATM   23  N6  UNL     1     -36.822 -61.633 -42.458  1.00  0.00    -0.234 N 
ATOM     24  H62 UNL     1     -35.866 -61.280 -42.408  1.00  0.00     0.174 HD
ATOM     25  H61 UNL     1     -37.135 -62.244 -41.703  1.00  0.00     0.174 HD
ENDBRANCH   8  23
BRANCH   1  26
HETATM   26  N1  UNL     1     -40.859 -59.485 -48.283  1.00  0.00    -0.375 N 
HETATM   27  C1  UNL     1     -40.728 -60.256 -49.488  1.00  0.00     0.148 C 
ATOM     28  H1  UNL     1     -41.484 -58.681 -48.231  1.00  0.00     0.161 HD
ENDBRANCH   1  26
TORSDOF 8
ENDMDL
MODEL 4
REMARK VINA RESULT: -6.522375477      3.546      5.234
REMARK  8 active torsions:
REMARK  status: ('A' for Active; 'I' for Inactive)
REMARK    1  A    between atoms: N1_2  and  C2_4 
REMARK    2  A    between atoms: C4_8  and  N3_9 
REMARK    3  A    between atoms: N3_9  and  C5_11 
REMARK    4  A    between atoms: C5_11  and  C6_12 
REMARK    5  A    between atoms: C6_12  and  C7_13 
REMARK    6  A    between atoms: C7_13  and  N4_14 
REMARK    7  A    between atoms: N4_14  and  C9_16 
REMARK    8  A    between atoms: C12_21  and  N6_22 
ROOT
HETATM    1  C2  UNL     1     -39.621 -61.452 -51.106  1.00  0.00     0.146 A 
HETATM    2  N2  UNL     1     -39.026 -60.921 -50.037  1.00  0.00    -0.331 N 
ATOM      3  H2  UNL     1     -38.036 -61.088 -49.858  1.00  0.00     0.168 HD
HETATM    4  C3  UNL     1     -39.737 -60.179 -49.219  1.00  0.00     0.114 A 
HETATM    5  C4  UNL     1     -39.277 -59.533 -48.039  1.00  0.00     0.146 A 
HETATM    6  N5  UNL     1     -40.142 -58.809 -47.321  1.00  0.00    -0.175 N 
ATOM      7  H5  UNL     1     -39.795 -58.353 -46.478  1.00  0.00     0.186 HD
HETATM    8  C12 UNL     1     -41.443 -58.641 -47.637  1.00  0.00     0.678 A 
HETATM    9  N7  UNL     1     -41.886 -59.241 -48.740  1.00  0.00    -0.183 N 
ATOM     10  H7  UNL     1     -42.865 -59.135 -49.008  1.00  0.00     0.185 HD
HETATM   11  C13 UNL     1     -41.056 -59.997 -49.522  1.00  0.00     0.124 A 
HETATM   12  S1  UNL     1     -41.224 -60.897 -50.965  1.00  0.00    -0.034 SA
ENDROOT
BRANCH   5  13
HETATM   13  N3  UNL     1     -38.051 -59.663 -47.697  1.00  0.00    -0.374 N 
ATOM     14  H3  UNL     1     -37.420 -59.014 -48.167  1.00  0.00     0.161 HD
BRANCH  13  15
HETATM   15  C5  UNL     1     -37.405 -60.532 -46.793  1.00  0.00     0.126 C 
BRANCH  15  16
HETATM   16  C6  UNL     1     -37.622 -60.079 -45.385  1.00  0.00     0.064 C 
BRANCH  16  17
HETATM   17  C7  UNL     1     -37.716 -61.120 -44.334  1.00  0.00     0.059 C 
BRANCH  17  18
HETATM   18  N4  UNL     1     -38.944 -61.468 -43.779  1.00  0.00    -0.394 N 
HETATM   19  C8  UNL     1     -40.139 -61.084 -44.443  1.00  0.00     0.149 C 
BRANCH  18  20
HETATM   20  C9  UNL     1     -39.051 -61.482 -42.355  1.00  0.00     0.074 C 
HETATM   21  C10 UNL     1     -39.719 -60.293 -41.767  1.00  0.00     0.032 C 
HETATM   22  C11 UNL     1     -37.666 -61.579 -41.746  1.00  0.00     0.032 C 
ENDBRANCH  18  20
ENDBRANCH  17  18
ENDBRANCH  16  17
ENDBRANCH  15  16
ENDBRANCH  13  15
ENDBRANCH   5  13
BRANCH   8  23
HETATM   23  N6  UNL     1     -42.146 -57.912 -46.847  1.00  0.00    -0.234 N 
ATOM     24  H62 UNL     1     -41.856 -57.021 -46.444  1.00  0.00     0.174 HD
ATOM     25  H61 UNL     1     -43.075 -58.257 -46.601  1.00  0.00     0.174 HD
ENDBRANCH   8  23
BRANCH   1  26
HETATM   26  N1  UNL     1     -39.067 -62.216 -52.027  1.00  0.00    -0.375 N 
HETATM   27  C1  UNL     1     -37.635 -62.166 -52.146  1.00  0.00     0.148 C 
ATOM     28  H1  UNL     1     -39.630 -62.818 -52.629  1.00  0.00     0.161 HD
ENDBRANCH   1  26
TORSDOF 8
ENDMDL
MODEL 5
REMARK VINA RESULT: -6.417141297      4.498      6.577
REMARK  8 active torsions:
REMARK  status: ('A' for Active; 'I' for Inactive)
REMARK    1  A    between atoms: N1_2  and  C2_4 
REMARK    2  A    between atoms: C4_8  and  N3_9 
REMARK    3  A    between atoms: N3_9  and  C5_11 
REMARK    4  A    between atoms: C5_11  and  C6_12 
REMARK    5  A    between atoms: C6_12  and  C7_13 
REMARK    6  A    between atoms: C7_13  and  N4_14 
REMARK    7  A    between atoms: N4_14  and  C9_16 
REMARK    8  A    between atoms: C12_21  and  N6_22 
ROOT
HETATM    1  C2  UNL     1     -39.080 -60.731 -42.200  1.00  0.00     0.146 A 
HETATM    2  N2  UNL     1     -38.479 -60.428 -43.351  1.00  0.00    -0.331 N 
ATOM      3  H2  UNL     1     -38.883 -59.734 -43.980  1.00  0.00     0.168 HD
HETATM    4  C3  UNL     1     -37.357 -61.037 -43.661  1.00  0.00     0.114 A 
HETATM    5  C4  UNL     1     -36.580 -60.843 -44.835  1.00  0.00     0.146 A 
HETATM    6  N5  UNL     1     -35.456 -61.550 -44.989  1.00  0.00    -0.175 N 
ATOM      7  H5  UNL     1     -34.911 -61.397 -45.837  1.00  0.00     0.186 HD
HETATM    8  C12 UNL     1     -34.994 -62.452 -44.098  1.00  0.00     0.678 A 
HETATM    9  N7  UNL     1     -35.713 -62.643 -42.994  1.00  0.00    -0.183 N 
ATOM     10  H7  UNL     1     -35.393 -63.318 -42.299  1.00  0.00     0.185 HD
HETATM   11  C13 UNL     1     -36.874 -61.954 -42.772  1.00  0.00     0.124 A 
HETATM   12  S1  UNL     1     -38.046 -61.905 -41.528  1.00  0.00    -0.034 SA
ENDROOT
BRANCH   5  13
HETATM   13  N3  UNL     1     -36.977 -59.998 -45.711  1.00  0.00    -0.374 N 
ATOM     14  H3  UNL     1     -36.336 -59.217 -45.852  1.00  0.00     0.161 HD
BRANCH  13  15
HETATM   15  C5  UNL     1     -38.131 -59.942 -46.519  1.00  0.00     0.126 C 
BRANCH  15  16
HETATM   16  C6  UNL     1     -37.813 -60.361 -47.918  1.00  0.00     0.064 C 
BRANCH  16  17
HETATM   17  C7  UNL     1     -38.679 -59.843 -49.005  1.00  0.00     0.059 C 
BRANCH  17  18
HETATM   18  N4  UNL     1     -38.910 -60.594 -50.154  1.00  0.00    -0.394 N 
HETATM   19  C8  UNL     1     -37.866 -60.750 -51.103  1.00  0.00     0.149 C 
BRANCH  18  20
HETATM   20  C9  UNL     1     -40.215 -60.542 -50.731  1.00  0.00     0.074 C 
HETATM   21  C10 UNL     1     -41.300 -60.170 -49.788  1.00  0.00     0.032 C 
HETATM   22  C11 UNL     1     -40.561 -61.897 -51.319  1.00  0.00     0.032 C 
ENDBRANCH  18  20
ENDBRANCH  17  18
ENDBRANCH  16  17
ENDBRANCH  15  16
ENDBRANCH  13  15
ENDBRANCH   5  13
BRANCH   8  23
HETATM   23  N6  UNL     1     -33.895 -63.049 -44.388  1.00  0.00    -0.234 N 
ATOM     24  H62 UNL     1     -33.001 -62.594 -44.570  1.00  0.00     0.174 HD
ATOM     25  H61 UNL     1     -33.922 -64.068 -44.444  1.00  0.00     0.174 HD
ENDBRANCH   8  23
BRANCH   1  26
HETATM   26  N1  UNL     1     -40.203 -60.223 -41.730  1.00  0.00    -0.375 N 
HETATM   27  C1  UNL     1     -40.090 -59.230 -40.697  1.00  0.00     0.148 C 
ATOM     28  H1  UNL     1     -41.111 -60.521 -42.085  1.00  0.00     0.161 HD
ENDBRANCH   1  26
TORSDOF 8
ENDMDL
