MODEL 1
REMARK VINA RESULT: -5.870160540      0.000      0.000
REMARK  3 active torsions:
REMARK  status: ('A' for Active; 'I' for Inactive)
REMARK    1  A    between atoms: O1_2  and  N1_3 
REMARK    2  A    between atoms: N1_3  and  C2_5 
REMARK    3  A    between atoms: C3_8  and  N3_9 
ROOT
HETATM    1  C2  UNL     1      47.760   6.562  19.769  1.00  0.00     0.172 A 
HETATM    2  N2  UNL     1      48.543   5.548  19.353  1.00  0.00    -0.173 N 
ATOM      3  H2  UNL     1      49.172   5.695  18.564  1.00  0.00     0.186 HD
HETATM    4  C3  UNL     1      48.516   4.350  19.951  1.00  0.00     0.679 A 
HETATM    5  N4  UNL     1      47.692   4.140  20.997  1.00  0.00    -0.173 N 
ATOM      6  H4  UNL     1      47.681   3.223  21.444  1.00  0.00     0.186 HD
HETATM    7  C4  UNL     1      46.878   5.110  21.468  1.00  0.00     0.167 A 
HETATM    8  N5  UNL     1      45.938   5.553  22.335  1.00  0.00    -0.282 N 
ATOM      9  H5  UNL     1      45.420   5.157  23.119  1.00  0.00     0.188 HD
HETATM   10  N6  UNL     1      45.987   6.726  21.723  1.00  0.00    -0.292 N 
ATOM     11  H6  UNL     1      45.495   7.607  21.869  1.00  0.00     0.187 HD
HETATM   12  C5  UNL     1      46.921   6.332  20.840  1.00  0.00     0.140 A 
ENDROOT
BRANCH   1  13
HETATM   13  N1  UNL     1      47.759   7.711  19.227  1.00  0.00    -0.248 N 
ATOM     14  H1  UNL     1      47.858   7.801  18.216  1.00  0.00     0.196 HD
BRANCH  13  15
HETATM   15  O1  UNL     1      47.625   8.826  20.007  1.00  0.00    -0.284 OA
HETATM   16  C1  UNL     1      47.760  10.144  19.567  1.00  0.00     0.237 C 
ENDBRANCH  13  15
ENDBRANCH   1  13
BRANCH   4  17
HETATM   17  N3  UNL     1      49.259   3.367  19.566  1.00  0.00    -0.234 N 
ATOM     18  H32 UNL     1      49.171   3.057  18.598  1.00  0.00     0.174 HD
ATOM     19  H31 UNL     1      49.918   2.903  20.191  1.00  0.00     0.174 HD
ENDBRANCH   4  17
TORSDOF 3
ENDMDL
MODEL 2
REMARK VINA RESULT: -5.839715576      1.812      2.412
REMARK  3 active torsions:
REMARK  status: ('A' for Active; 'I' for Inactive)
REMARK    1  A    between atoms: O1_2  and  N1_3 
REMARK    2  A    between atoms: N1_3  and  C2_5 
REMARK    3  A    between atoms: C3_8  and  N3_9 
ROOT
HETATM    1  C2  UNL     1      49.732   5.993  19.761  1.00  0.00     0.172 A 
HETATM    2  N2  UNL     1      50.846   5.452  19.232  1.00  0.00    -0.173 N 
ATOM      3  H2  UNL     1      51.508   6.053  18.741  1.00  0.00     0.186 HD
HETATM    4  C3  UNL     1      51.107   4.142  19.336  1.00  0.00     0.679 A 
HETATM    5  N4  UNL     1      50.243   3.335  19.983  1.00  0.00    -0.173 N 
ATOM      6  H4  UNL     1      50.453   2.340  20.056  1.00  0.00     0.186 HD
HETATM    7  C4  UNL     1      49.106   3.808  20.538  1.00  0.00     0.167 A 
HETATM    8  N5  UNL     1      47.956   3.624  21.228  1.00  0.00    -0.282 N 
ATOM      9  H5  UNL     1      47.477   2.831  21.654  1.00  0.00     0.188 HD
HETATM   10  N6  UNL     1      47.726   4.922  21.109  1.00  0.00    -0.292 N 
ATOM     11  H6  UNL     1      46.967   5.526  21.424  1.00  0.00     0.187 HD
HETATM   12  C5  UNL     1      48.857   5.155  20.421  1.00  0.00     0.140 A 
ENDROOT
BRANCH   1  13
HETATM   13  N1  UNL     1      49.453   7.231  19.684  1.00  0.00    -0.248 N 
ATOM     14  H1  UNL     1      50.193   7.915  19.532  1.00  0.00     0.196 HD
BRANCH  13  15
HETATM   15  O1  UNL     1      48.153   7.639  19.804  1.00  0.00    -0.284 OA
HETATM   16  C1  UNL     1      47.731   8.837  20.384  1.00  0.00     0.237 C 
ENDBRANCH  13  15
ENDBRANCH   1  13
BRANCH   4  17
HETATM   17  N3  UNL     1      52.169   3.607  18.835  1.00  0.00    -0.234 N 
ATOM     18  H32 UNL     1      52.788   4.204  18.286  1.00  0.00     0.174 HD
ATOM     19  H31 UNL     1      52.400   2.623  18.969  1.00  0.00     0.174 HD
ENDBRANCH   4  17
TORSDOF 3
ENDMDL
MODEL 3
REMARK VINA RESULT: -5.834254444      2.804      4.164
REMARK  3 active torsions:
REMARK  status: ('A' for Active; 'I' for Inactive)
REMARK    1  A    between atoms: O1_2  and  N1_3 
REMARK    2  A    between atoms: N1_3  and  C2_5 
REMARK    3  A    between atoms: C3_8  and  N3_9 
ROOT
HETATM    1  C2  UNL     1      49.147   3.890  21.035  1.00  0.00     0.172 A 
HETATM    2  N2  UNL     1      50.331   3.366  21.408  1.00  0.00    -0.173 N 
ATOM      3  H2  UNL     1      50.343   2.543  22.011  1.00  0.00     0.186 HD
HETATM    4  C3  UNL     1      51.491   3.899  21.007  1.00  0.00     0.679 A 
HETATM    5  N4  UNL     1      51.492   4.985  20.209  1.00  0.00    -0.173 N 
ATOM      6  H4  UNL     1      52.383   5.381  19.910  1.00  0.00     0.186 HD
HETATM    7  C4  UNL     1      50.344   5.565  19.796  1.00  0.00     0.167 A 
HETATM    8  N5  UNL     1      49.678   6.518  19.102  1.00  0.00    -0.282 N 
ATOM      9  H5  UNL     1      49.936   7.312  18.516  1.00  0.00     0.188 HD
HETATM   10  N6  UNL     1      48.547   5.969  19.516  1.00  0.00    -0.292 N 
ATOM     11  H6  UNL     1      47.565   6.196  19.358  1.00  0.00     0.187 HD
HETATM   12  C5  UNL     1      49.163   5.003  20.219  1.00  0.00     0.140 A 
ENDROOT
BRANCH   1  13
HETATM   13  N1  UNL     1      48.027   3.412  21.395  1.00  0.00    -0.248 N 
ATOM     14  H1  UNL     1      47.961   2.447  21.719  1.00  0.00     0.196 HD
BRANCH  13  15
HETATM   15  O1  UNL     1      46.909   4.198  21.347  1.00  0.00    -0.284 OA
HETATM   16  C1  UNL     1      46.340   4.866  22.434  1.00  0.00     0.237 C 
ENDBRANCH  13  15
ENDBRANCH   1  13
BRANCH   4  17
HETATM   17  N3  UNL     1      52.634   3.409  21.355  1.00  0.00    -0.234 N 
ATOM     18  H32 UNL     1      53.408   3.495  20.695  1.00  0.00     0.174 HD
ATOM     19  H31 UNL     1      52.780   2.947  22.252  1.00  0.00     0.174 HD
ENDBRANCH   4  17
TORSDOF 3
ENDMDL
MODEL 4
REMARK VINA RESULT: -5.791219827      1.792      3.247
REMARK  3 active torsions:
REMARK  status: ('A' for Active; 'I' for Inactive)
REMARK    1  A    between atoms: O1_2  and  N1_3 
REMARK    2  A    between atoms: N1_3  and  C2_5 
REMARK    3  A    between atoms: C3_8  and  N3_9 
ROOT
HETATM    1  C2  UNL     1      47.139   5.011  21.434  1.00  0.00     0.172 A 
HETATM    2  N2  UNL     1      47.839   3.978  20.927  1.00  0.00    -0.173 N 
ATOM      3  H2  UNL     1      47.714   3.048  21.326  1.00  0.00     0.186 HD
HETATM    4  C3  UNL     1      48.695   4.143  19.911  1.00  0.00     0.679 A 
HETATM    5  N4  UNL     1      48.870   5.366  19.372  1.00  0.00    -0.173 N 
ATOM      6  H4  UNL     1      49.525   5.478  18.598  1.00  0.00     0.186 HD
HETATM    7  C4  UNL     1      48.203   6.448  19.830  1.00  0.00     0.167 A 
HETATM    8  N5  UNL     1      47.914   7.769  19.788  1.00  0.00    -0.282 N 
ATOM      9  H5  UNL     1      48.213   8.567  19.227  1.00  0.00     0.188 HD
HETATM   10  N6  UNL     1      47.076   7.575  20.794  1.00  0.00    -0.292 N 
ATOM     11  H6  UNL     1      46.461   8.198  21.318  1.00  0.00     0.187 HD
HETATM   12  C5  UNL     1      47.328   6.257  20.873  1.00  0.00     0.140 A 
ENDROOT
BRANCH   1  13
HETATM   13  N1  UNL     1      46.317   4.892  22.396  1.00  0.00    -0.248 N 
ATOM     14  H1  UNL     1      46.206   3.995  22.868  1.00  0.00     0.196 HD
BRANCH  13  15
HETATM   15  O1  UNL     1      45.583   5.974  22.795  1.00  0.00    -0.284 OA
HETATM   16  C1  UNL     1      44.489   5.936  23.663  1.00  0.00     0.237 C 
ENDBRANCH  13  15
ENDBRANCH   1  13
BRANCH   4  17
HETATM   17  N3  UNL     1      49.374   3.165  19.413  1.00  0.00    -0.234 N 
ATOM     18  H32 UNL     1      48.855   2.367  19.045  1.00  0.00     0.174 HD
ATOM     19  H31 UNL     1      50.393   3.168  19.379  1.00  0.00     0.174 HD
ENDBRANCH   4  17
TORSDOF 3
ENDMDL
MODEL 5
REMARK VINA RESULT: -5.773370075      4.629      5.976
REMARK  3 active torsions:
REMARK  status: ('A' for Active; 'I' for Inactive)
REMARK    1  A    between atoms: O1_2  and  N1_3 
REMARK    2  A    between atoms: N1_3  and  C2_5 
REMARK    3  A    between atoms: C3_8  and  N3_9 
ROOT
HETATM    1  C2  UNL     1      43.514   6.829  24.569  1.00  0.00     0.172 A 
HETATM    2  N2  UNL     1      43.872   6.843  23.270  1.00  0.00    -0.173 N 
ATOM      3  H2  UNL     1      43.437   7.517  22.641  1.00  0.00     0.186 HD
HETATM    4  C3  UNL     1      44.784   5.991  22.785  1.00  0.00     0.679 A 
HETATM    5  N4  UNL     1      45.369   5.095  23.605  1.00  0.00    -0.173 N 
ATOM      6  H4  UNL     1      46.063   4.452  23.223  1.00  0.00     0.186 HD
HETATM    7  C4  UNL     1      45.060   5.023  24.918  1.00  0.00     0.167 A 
HETATM    8  N5  UNL     1      45.213   4.473  26.145  1.00  0.00    -0.282 N 
ATOM      9  H5  UNL     1      45.780   3.727  26.547  1.00  0.00     0.188 HD
HETATM   10  N6  UNL     1      44.307   5.327  26.594  1.00  0.00    -0.292 N 
ATOM     11  H6  UNL     1      43.899   5.487  27.516  1.00  0.00     0.187 HD
HETATM   12  C5  UNL     1      44.121   5.906  25.396  1.00  0.00     0.140 A 
ENDROOT
BRANCH   1  13
HETATM   13  N1  UNL     1      42.653   7.621  25.064  1.00  0.00    -0.248 N 
ATOM     14  H1  UNL     1      41.860   7.933  24.503  1.00  0.00     0.196 HD
BRANCH  13  15
HETATM   15  O1  UNL     1      42.796   8.054  26.353  1.00  0.00    -0.284 OA
HETATM   16  C1  UNL     1      43.646   9.080  26.774  1.00  0.00     0.237 C 
ENDBRANCH  13  15
ENDBRANCH   1  13
BRANCH   4  17
HETATM   17  N3  UNL     1      45.139   5.990  21.544  1.00  0.00    -0.234 N 
ATOM     18  H32 UNL     1      45.439   6.876  21.136  1.00  0.00     0.174 HD
ATOM     19  H31 UNL     1      45.125   5.146  20.972  1.00  0.00     0.174 HD
ENDBRANCH   4  17
TORSDOF 3
ENDMDL
