MODEL 1
REMARK VINA RESULT: -6.393020667      0.000      0.000
REMARK  2 active torsions:
REMARK  status: ('A' for Active; 'I' for Inactive)
REMARK    1  A    between atoms: C5_12  and  N4_13 
REMARK    2  A    between atoms: N4_13  and  N5_15 
ROOT
HETATM    1  C1  UNL     1      46.798   4.803  22.144  1.00  0.00     0.040 C 
HETATM    2  C2  UNL     1      47.997   4.022  21.712  1.00  0.00     0.019 C 
HETATM    3  C3  UNL     1      48.893   4.572  20.912  1.00  0.00     0.132 A 
HETATM    4  N1  UNL     1      50.031   3.874  20.484  1.00  0.00    -0.176 N 
ATOM      5  H1  UNL     1      50.190   2.913  20.787  1.00  0.00     0.185 HD
HETATM    6  C4  UNL     1      50.960   4.517  19.624  1.00  0.00     0.692 A 
HETATM    7  N2  UNL     1      52.010   3.834  19.245  1.00  0.00    -0.234 N 
ATOM      8  H21 UNL     1      52.678   4.295  18.627  1.00  0.00     0.174 HD
ATOM      9  H22 UNL     1      52.171   2.873  19.547  1.00  0.00     0.174 HD
HETATM   10  N3  UNL     1      50.736   5.853  19.203  1.00  0.00    -0.021 N 
ATOM     11  H3  UNL     1      51.407   6.310  18.586  1.00  0.00     0.203 HD
HETATM   12  C5  UNL     1      49.671   6.504  19.605  1.00  0.00     0.714 A 
HETATM   13  N6  UNL     1      48.708   5.909  20.467  1.00  0.00    -0.174 N 
ATOM     14  H6  UNL     1      47.889   6.439  20.764  1.00  0.00     0.186 HD
ENDROOT
BRANCH  12  15
HETATM   15  N4  UNL     1      49.453   7.854  19.176  1.00  0.00    -0.134 N 
HETATM   16  C6  UNL     1      50.559   8.733  18.933  1.00  0.00     0.197 C 
BRANCH  15  17
HETATM   17  N5  UNL     1      48.143   8.301  18.999  1.00  0.00    -0.329 N 
ATOM     18  H52 UNL     1      47.555   8.509  19.805  1.00  0.00     0.177 HD
ATOM     19  H51 UNL     1      47.786   8.415  18.050  1.00  0.00     0.177 HD
ENDBRANCH  15  17
ENDBRANCH  12  15
TORSDOF 2
ENDMDL
MODEL 2
REMARK VINA RESULT: -6.084338932      1.498      3.714
REMARK  2 active torsions:
REMARK  status: ('A' for Active; 'I' for Inactive)
REMARK    1  A    between atoms: C5_12  and  N4_13 
REMARK    2  A    between atoms: N4_13  and  N5_15 
ROOT
HETATM    1  C1  UNL     1      45.631   4.826  22.496  1.00  0.00     0.040 C 
HETATM    2  C2  UNL     1      45.902   6.039  21.666  1.00  0.00     0.019 C 
HETATM    3  C3  UNL     1      47.007   6.117  20.947  1.00  0.00     0.132 A 
HETATM    4  N1  UNL     1      47.298   7.236  20.155  1.00  0.00    -0.176 N 
ATOM      5  H1  UNL     1      46.652   8.024  20.120  1.00  0.00     0.185 HD
HETATM    6  C4  UNL     1      48.501   7.263  19.403  1.00  0.00     0.692 A 
HETATM    7  N2  UNL     1      48.739   8.326  18.675  1.00  0.00    -0.234 N 
ATOM      8  H21 UNL     1      49.604   8.345  18.134  1.00  0.00     0.174 HD
ATOM      9  H22 UNL     1      48.094   9.114  18.639  1.00  0.00     0.174 HD
HETATM   10  N3  UNL     1      49.399   6.166  19.453  1.00  0.00    -0.021 N 
ATOM     11  H3  UNL     1      50.262   6.191  18.910  1.00  0.00     0.203 HD
HETATM   12  C5  UNL     1      49.125   5.120  20.194  1.00  0.00     0.714 A 
HETATM   13  N6  UNL     1      47.934   5.039  20.968  1.00  0.00    -0.174 N 
ATOM     14  H6  UNL     1      47.746   4.212  21.535  1.00  0.00     0.186 HD
ENDROOT
BRANCH  12  15
HETATM   15  N4  UNL     1      50.037   4.015  20.239  1.00  0.00    -0.134 N 
HETATM   16  C6  UNL     1      50.371   3.390  21.485  1.00  0.00     0.197 C 
BRANCH  15  17
HETATM   17  N5  UNL     1      50.599   3.558  19.046  1.00  0.00    -0.329 N 
ATOM     18  H52 UNL     1      51.281   2.800  19.055  1.00  0.00     0.177 HD
ATOM     19  H51 UNL     1      50.316   3.994  18.169  1.00  0.00     0.177 HD
ENDBRANCH  15  17
ENDBRANCH  12  15
TORSDOF 2
ENDMDL
MODEL 3
REMARK VINA RESULT: -6.035014492      1.413      3.890
REMARK  2 active torsions:
REMARK  status: ('A' for Active; 'I' for Inactive)
REMARK    1  A    between atoms: C5_12  and  N4_13 
REMARK    2  A    between atoms: N4_13  and  N5_15 
ROOT
HETATM    1  C1  UNL     1      49.036   8.360  20.056  1.00  0.00     0.040 C 
HETATM    2  C2  UNL     1      50.138   7.636  19.353  1.00  0.00     0.019 C 
HETATM    3  C3  UNL     1      50.268   6.328  19.494  1.00  0.00     0.132 A 
HETATM    4  N1  UNL     1      51.287   5.612  18.852  1.00  0.00    -0.176 N 
ATOM      5  H1  UNL     1      51.958   6.095  18.254  1.00  0.00     0.185 HD
HETATM    6  C4  UNL     1      51.377   4.208  19.040  1.00  0.00     0.692 A 
HETATM    7  N2  UNL     1      52.342   3.572  18.424  1.00  0.00    -0.234 N 
ATOM      8  H21 UNL     1      52.407   2.563  18.559  1.00  0.00     0.174 HD
ATOM      9  H22 UNL     1      53.014   4.054  17.827  1.00  0.00     0.174 HD
HETATM   10  N3  UNL     1      50.442   3.538  19.871  1.00  0.00    -0.021 N 
ATOM     11  H3  UNL     1      50.511   2.529  20.003  1.00  0.00     0.203 HD
HETATM   12  C5  UNL     1      49.490   4.211  20.471  1.00  0.00     0.714 A 
HETATM   13  N6  UNL     1      49.353   5.618  20.318  1.00  0.00    -0.174 N 
ATOM     14  H6  UNL     1      48.602   6.116  20.796  1.00  0.00     0.186 HD
ENDROOT
BRANCH  12  15
HETATM   15  N4  UNL     1      48.549   3.527  21.309  1.00  0.00    -0.134 N 
HETATM   16  C6  UNL     1      47.283   4.120  21.627  1.00  0.00     0.197 C 
BRANCH  15  17
HETATM   17  N5  UNL     1      48.887   2.270  21.814  1.00  0.00    -0.329 N 
ATOM     18  H52 UNL     1      48.495   1.425  21.399  1.00  0.00     0.177 HD
ATOM     19  H51 UNL     1      49.530   2.213  22.603  1.00  0.00     0.177 HD
ENDBRANCH  15  17
ENDBRANCH  12  15
TORSDOF 2
ENDMDL
MODEL 4
REMARK VINA RESULT: -6.032834775      2.493      4.696
REMARK  2 active torsions:
REMARK  status: ('A' for Active; 'I' for Inactive)
REMARK    1  A    between atoms: C5_12  and  N4_13 
REMARK    2  A    between atoms: N4_13  and  N5_15 
ROOT
HETATM    1  C1  UNL     1      49.296   2.651  21.870  1.00  0.00     0.040 C 
HETATM    2  C2  UNL     1      49.461   3.920  21.098  1.00  0.00     0.019 C 
HETATM    3  C3  UNL     1      48.492   4.818  21.084  1.00  0.00     0.132 A 
HETATM    4  N1  UNL     1      48.606   6.020  20.373  1.00  0.00    -0.176 N 
ATOM      5  H1  UNL     1      49.453   6.227  19.845  1.00  0.00     0.185 HD
HETATM    6  C4  UNL     1      47.531   6.947  20.395  1.00  0.00     0.692 A 
HETATM    7  N2  UNL     1      47.674   8.059  19.719  1.00  0.00    -0.234 N 
ATOM      8  H21 UNL     1      46.902   8.726  19.734  1.00  0.00     0.174 HD
ATOM      9  H22 UNL     1      48.521   8.268  19.190  1.00  0.00     0.174 HD
HETATM   10  N3  UNL     1      46.354   6.657  21.130  1.00  0.00    -0.021 N 
ATOM     11  H3  UNL     1      45.584   7.327  21.143  1.00  0.00     0.203 HD
HETATM   12  C5  UNL     1      46.249   5.531  21.795  1.00  0.00     0.714 A 
HETATM   13  N6  UNL     1      47.294   4.567  21.808  1.00  0.00    -0.174 N 
ATOM     14  H6  UNL     1      47.185   3.700  22.334  1.00  0.00     0.186 HD
ENDROOT
BRANCH  12  15
HETATM   15  N4  UNL     1      45.056   5.246  22.536  1.00  0.00    -0.134 N 
HETATM   16  C6  UNL     1      45.071   5.223  23.970  1.00  0.00     0.197 C 
BRANCH  15  17
HETATM   17  N5  UNL     1      43.875   4.990  21.838  1.00  0.00    -0.329 N 
ATOM     18  H52 UNL     1      43.890   4.860  20.827  1.00  0.00     0.177 HD
ATOM     19  H51 UNL     1      42.998   4.935  22.357  1.00  0.00     0.177 HD
ENDBRANCH  15  17
ENDBRANCH  12  15
TORSDOF 2
ENDMDL
MODEL 5
REMARK VINA RESULT: -5.967438155      2.070      4.209
REMARK  2 active torsions:
REMARK  status: ('A' for Active; 'I' for Inactive)
REMARK    1  A    between atoms: C5_12  and  N4_13 
REMARK    2  A    between atoms: N4_13  and  N5_15 
ROOT
HETATM    1  C1  UNL     1      49.927   3.058  21.791  1.00  0.00     0.040 C 
HETATM    2  C2  UNL     1      50.087   4.193  20.832  1.00  0.00     0.019 C 
HETATM    3  C3  UNL     1      49.117   5.077  20.684  1.00  0.00     0.132 A 
HETATM    4  N1  UNL     1      49.226   6.156  19.796  1.00  0.00    -0.176 N 
ATOM      5  H1  UNL     1      50.071   6.280  19.238  1.00  0.00     0.185 HD
HETATM    6  C4  UNL     1      48.151   7.075  19.679  1.00  0.00     0.692 A 
HETATM    7  N2  UNL     1      48.290   8.069  18.839  1.00  0.00    -0.234 N 
ATOM      8  H21 UNL     1      47.517   8.730  18.755  1.00  0.00     0.174 HD
ATOM      9  H22 UNL     1      49.134   8.194  18.281  1.00  0.00     0.174 HD
HETATM   10  N3  UNL     1      46.977   6.901  20.455  1.00  0.00    -0.021 N 
ATOM     11  H3  UNL     1      46.207   7.564  20.368  1.00  0.00     0.203 HD
HETATM   12  C5  UNL     1      46.876   5.891  21.286  1.00  0.00     0.714 A 
HETATM   13  N6  UNL     1      47.922   4.940  21.443  1.00  0.00    -0.174 N 
ATOM     14  H6  UNL     1      47.817   4.165  22.097  1.00  0.00     0.186 HD
ENDROOT
BRANCH  12  15
HETATM   15  N4  UNL     1      45.686   5.723  22.067  1.00  0.00    -0.134 N 
HETATM   16  C6  UNL     1      45.103   4.424  22.245  1.00  0.00     0.197 C 
BRANCH  15  17
HETATM   17  N5  UNL     1      45.101   6.846  22.653  1.00  0.00    -0.329 N 
ATOM     18  H52 UNL     1      44.654   7.556  22.074  1.00  0.00     0.177 HD
ATOM     19  H51 UNL     1      45.129   6.943  23.667  1.00  0.00     0.177 HD
ENDBRANCH  15  17
ENDBRANCH  12  15
TORSDOF 2
ENDMDL
