MODEL 1
REMARK VINA RESULT: -6.230724024      0.000      0.000
REMARK  1 active torsions:
REMARK  status: ('A' for Active; 'I' for Inactive)
REMARK    1  A    between atoms: N1_2  and  C2_4 
REMARK       I    between atoms: N4_10  and  C4_12 
REMARK       I    between atoms: C4_12  and  N5_13 
REMARK       I    between atoms: C4_12  and  N6_17 
ROOT
HETATM    1  C2  UNL     1      46.754   5.928  21.357  1.00  0.00     0.162 A 
HETATM    2  N2  UNL     1      47.478   4.934  21.870  1.00  0.00    -0.278 N 
ATOM      3  H2  UNL     1      47.166   4.445  22.709  1.00  0.00     0.189 HD
HETATM    4  N3  UNL     1      48.576   4.603  21.289  1.00  0.00    -0.278 N 
ATOM      5  H3  UNL     1      49.148   3.845  21.662  1.00  0.00     0.189 HD
HETATM    6  C3  UNL     1      48.955   5.259  20.197  1.00  0.00     0.165 A 
HETATM    7  N4  UNL     1      50.032   5.074  19.465  1.00  0.00    -0.320 N 
ATOM      8  H4  UNL     1      50.221   5.644  18.641  1.00  0.00     0.165 HD
HETATM    9  C4  UNL     1      50.937   4.025  19.882  1.00  0.00     0.482 C 
HETATM   10  N5  UNL     1      51.950   3.755  18.884  1.00  0.00    -0.033 N 
ATOM     11  H51 UNL     1      52.588   3.016  19.178  1.00  0.00     0.278 HD
ATOM     12  H52 UNL     1      52.457   4.604  18.633  1.00  0.00     0.278 HD
ATOM     13  H53 UNL     1      51.530   3.545  17.978  1.00  0.00     0.278 HD
HETATM   14  N6  UNL     1      51.621   4.487  21.073  1.00  0.00    -0.033 N 
ATOM     15  H61 UNL     1      52.259   3.748  21.367  1.00  0.00     0.278 HD
ATOM     16  H62 UNL     1      50.980   4.776  21.812  1.00  0.00     0.278 HD
ATOM     17  H63 UNL     1      52.086   5.385  20.942  1.00  0.00     0.278 HD
HETATM   18  S1  UNL     1      47.686   6.390  20.006  1.00  0.00    -0.016 SA
ENDROOT
BRANCH   1  19
HETATM   19  N1  UNL     1      45.612   6.404  21.813  1.00  0.00    -0.374 N 
HETATM   20  C1  UNL     1      45.047   5.697  22.944  1.00  0.00     0.148 C 
ATOM     21  H1  UNL     1      45.157   7.216  21.396  1.00  0.00     0.161 HD
ENDBRANCH   1  19
TORSDOF 1
ENDMDL
MODEL 2
REMARK VINA RESULT: -6.053695792      1.285      5.436
REMARK  1 active torsions:
REMARK  status: ('A' for Active; 'I' for Inactive)
REMARK    1  A    between atoms: N1_2  and  C2_4 
REMARK       I    between atoms: N4_10  and  C4_12 
REMARK       I    between atoms: C4_12  and  N5_13 
REMARK       I    between atoms: C4_12  and  N6_17 
ROOT
HETATM    1  C2  UNL     1      48.535   4.428  20.245  1.00  0.00     0.162 A 
HETATM    2  N2  UNL     1      47.776   3.743  21.099  1.00  0.00    -0.278 N 
ATOM      3  H2  UNL     1      47.964   2.758  21.285  1.00  0.00     0.189 HD
HETATM    4  N3  UNL     1      46.802   4.345  21.683  1.00  0.00    -0.278 N 
ATOM      5  H3  UNL     1      46.205   3.843  22.341  1.00  0.00     0.189 HD
HETATM    6  C3  UNL     1      46.582   5.629  21.419  1.00  0.00     0.165 A 
HETATM    7  N4  UNL     1      45.647   6.416  21.908  1.00  0.00    -0.320 N 
ATOM      8  H4  UNL     1      45.574   7.394  21.629  1.00  0.00     0.165 HD
HETATM    9  C4  UNL     1      44.727   5.831  22.858  1.00  0.00     0.482 C 
HETATM   10  N5  UNL     1      43.903   6.831  23.501  1.00  0.00    -0.033 N 
ATOM     11  H51 UNL     1      43.254   6.418  24.171  1.00  0.00     0.278 HD
ATOM     12  H52 UNL     1      43.412   7.403  22.814  1.00  0.00     0.278 HD
ATOM     13  H53 UNL     1      44.473   7.556  23.936  1.00  0.00     0.278 HD
HETATM   14  N6  UNL     1      43.840   4.952  22.122  1.00  0.00    -0.033 N 
ATOM     15  H61 UNL     1      43.191   4.540  22.792  1.00  0.00     0.278 HD
ATOM     16  H62 UNL     1      44.339   4.254  21.570  1.00  0.00     0.278 HD
ATOM     17  H63 UNL     1      43.368   5.421  21.348  1.00  0.00     0.278 HD
HETATM   18  S1  UNL     1      47.821   5.975  20.292  1.00  0.00    -0.016 SA
ENDROOT
BRANCH   1  19
HETATM   19  N1  UNL     1      49.568   3.982  19.558  1.00  0.00    -0.374 N 
HETATM   20  C1  UNL     1      50.845   4.039  20.241  1.00  0.00     0.148 C 
ATOM     21  H1  UNL     1      49.474   3.622  18.608  1.00  0.00     0.161 HD
ENDBRANCH   1  19
TORSDOF 1
ENDMDL
MODEL 3
REMARK VINA RESULT: -5.835229891      1.930      2.869
REMARK  1 active torsions:
REMARK  status: ('A' for Active; 'I' for Inactive)
REMARK    1  A    between atoms: N1_2  and  C2_4 
REMARK       I    between atoms: N4_10  and  C4_12 
REMARK       I    between atoms: C4_12  and  N5_13 
REMARK       I    between atoms: C4_12  and  N6_17 
ROOT
HETATM    1  C2  UNL     1      45.043   5.863  22.627  1.00  0.00     0.162 A 
HETATM    2  N2  UNL     1      45.561   6.936  22.034  1.00  0.00    -0.278 N 
ATOM      3  H2  UNL     1      45.135   7.854  22.159  1.00  0.00     0.189 HD
HETATM    4  N3  UNL     1      46.608   6.795  21.302  1.00  0.00    -0.278 N 
ATOM      5  H3  UNL     1      47.025   7.601  20.836  1.00  0.00     0.189 HD
HETATM    6  C3  UNL     1      47.141   5.586  21.159  1.00  0.00     0.165 A 
HETATM    7  N4  UNL     1      48.200   5.236  20.460  1.00  0.00    -0.320 N 
ATOM      8  H4  UNL     1      48.518   4.268  20.423  1.00  0.00     0.165 HD
HETATM    9  C4  UNL     1      48.891   6.287  19.746  1.00  0.00     0.482 C 
HETATM   10  N5  UNL     1      50.159   5.836  19.214  1.00  0.00    -0.033 N 
ATOM     11  H51 UNL     1      50.647   6.577  18.710  1.00  0.00     0.278 HD
ATOM     12  H52 UNL     1      50.042   5.007  18.631  1.00  0.00     0.278 HD
ATOM     13  H53 UNL     1      50.747   5.437  19.946  1.00  0.00     0.278 HD
HETATM   14  N6  UNL     1      48.063   6.666  18.618  1.00  0.00    -0.033 N 
ATOM     15  H61 UNL     1      48.551   7.406  18.114  1.00  0.00     0.278 HD
ATOM     16  H62 UNL     1      47.115   6.927  18.891  1.00  0.00     0.278 HD
ATOM     17  H63 UNL     1      47.816   5.875  18.023  1.00  0.00     0.278 HD
HETATM   18  S1  UNL     1      46.095   4.624  22.112  1.00  0.00    -0.016 SA
ENDROOT
BRANCH   1  19
HETATM   19  N1  UNL     1      43.981   5.813  23.407  1.00  0.00    -0.374 N 
HETATM   20  C1  UNL     1      43.868   6.885  24.377  1.00  0.00     0.148 C 
ATOM     21  H1  UNL     1      43.286   5.071  23.333  1.00  0.00     0.161 HD
ENDBRANCH   1  19
TORSDOF 1
ENDMDL
MODEL 4
REMARK VINA RESULT: -5.816811135      2.907      3.153
REMARK  1 active torsions:
REMARK  status: ('A' for Active; 'I' for Inactive)
REMARK    1  A    between atoms: N1_2  and  C2_4 
REMARK       I    between atoms: N4_10  and  C4_12 
REMARK       I    between atoms: C4_12  and  N5_13 
REMARK       I    between atoms: C4_12  and  N6_17 
ROOT
HETATM    1  C2  UNL     1      48.476   8.530  19.263  1.00  0.00     0.162 A 
HETATM    2  N2  UNL     1      48.067   7.276  19.079  1.00  0.00    -0.278 N 
ATOM      3  H2  UNL     1      47.099   7.078  18.829  1.00  0.00     0.189 HD
HETATM    4  N3  UNL     1      48.915   6.320  19.222  1.00  0.00    -0.278 N 
ATOM      5  H3  UNL     1      48.627   5.351  19.086  1.00  0.00     0.189 HD
HETATM    6  C3  UNL     1      50.170   6.611  19.548  1.00  0.00     0.165 A 
HETATM    7  N4  UNL     1      51.178   5.786  19.738  1.00  0.00    -0.320 N 
ATOM      8  H4  UNL     1      52.106   6.127  19.988  1.00  0.00     0.165 HD
HETATM    9  C4  UNL     1      50.909   4.374  19.577  1.00  0.00     0.482 C 
HETATM   10  N5  UNL     1      52.124   3.588  19.575  1.00  0.00    -0.033 N 
ATOM     11  H51 UNL     1      51.935   2.592  19.462  1.00  0.00     0.278 HD
ATOM     12  H52 UNL     1      52.681   3.767  20.411  1.00  0.00     0.278 HD
ATOM     13  H53 UNL     1      52.780   3.923  18.870  1.00  0.00     0.278 HD
HETATM   14  N6  UNL     1      50.124   3.947  20.718  1.00  0.00    -0.033 N 
ATOM     15  H61 UNL     1      49.935   2.951  20.605  1.00  0.00     0.278 HD
ATOM     16  H62 UNL     1      49.276   4.501  20.847  1.00  0.00     0.278 HD
ATOM     17  H63 UNL     1      50.565   4.169  21.610  1.00  0.00     0.278 HD
HETATM   18  S1  UNL     1      50.122   8.318  19.651  1.00  0.00    -0.016 SA
ENDROOT
BRANCH   1  19
HETATM   19  N1  UNL     1      47.755   9.630  19.162  1.00  0.00    -0.374 N 
HETATM   20  C1  UNL     1      47.463  10.302  20.413  1.00  0.00     0.148 C 
ATOM     21  H1  UNL     1      47.426   9.983  18.264  1.00  0.00     0.161 HD
ENDBRANCH   1  19
TORSDOF 1
ENDMDL
MODEL 5
REMARK VINA RESULT: -5.752692042      1.724      5.246
REMARK  1 active torsions:
REMARK  status: ('A' for Active; 'I' for Inactive)
REMARK    1  A    between atoms: N1_2  and  C2_4 
REMARK       I    between atoms: N4_10  and  C4_12 
REMARK       I    between atoms: C4_12  and  N5_13 
REMARK       I    between atoms: C4_12  and  N6_17 
ROOT
HETATM    1  C2  UNL     1      49.950   4.645  20.838  1.00  0.00     0.162 A 
HETATM    2  N2  UNL     1      49.154   5.589  20.339  1.00  0.00    -0.278 N 
ATOM      3  H2  UNL     1      49.523   6.300  19.708  1.00  0.00     0.189 HD
HETATM    4  N3  UNL     1      47.911   5.588  20.666  1.00  0.00    -0.278 N 
ATOM      5  H3  UNL     1      47.279   6.299  20.299  1.00  0.00     0.189 HD
HETATM    6  C3  UNL     1      47.459   4.647  21.490  1.00  0.00     0.165 A 
HETATM    7  N4  UNL     1      46.234   4.475  21.941  1.00  0.00    -0.320 N 
ATOM      8  H4  UNL     1      46.002   3.711  22.575  1.00  0.00     0.165 HD
HETATM    9  C4  UNL     1      45.232   5.418  21.496  1.00  0.00     0.482 C 
HETATM   10  N5  UNL     1      43.895   4.999  21.857  1.00  0.00    -0.033 N 
ATOM     11  H51 UNL     1      43.188   5.664  21.544  1.00  0.00     0.278 HD
ATOM     12  H52 UNL     1      43.820   4.824  22.859  1.00  0.00     0.278 HD
ATOM     13  H53 UNL     1      43.697   4.059  21.514  1.00  0.00     0.278 HD
HETATM   14  N6  UNL     1      45.485   6.675  22.173  1.00  0.00    -0.033 N 
ATOM     15  H61 UNL     1      44.778   7.340  21.860  1.00  0.00     0.278 HD
ATOM     16  H62 UNL     1      46.438   7.014  22.038  1.00  0.00     0.278 HD
ATOM     17  H63 UNL     1      45.519   6.580  23.188  1.00  0.00     0.278 HD
HETATM   18  S1  UNL     1      48.874   3.739  21.801  1.00  0.00    -0.016 SA
ENDROOT
BRANCH   1  19
HETATM   19  N1  UNL     1      51.241   4.489  20.618  1.00  0.00    -0.374 N 
HETATM   20  C1  UNL     1      51.942   3.658  21.576  1.00  0.00     0.148 C 
ATOM     21  H1  UNL     1      51.714   4.924  19.825  1.00  0.00     0.161 HD
ENDBRANCH   1  19
TORSDOF 1
ENDMDL
