MODEL 1
REMARK VINA RESULT: -7.130944951      0.000      0.000
REMARK  7 active torsions:
REMARK  status: ('A' for Active; 'I' for Inactive)
REMARK    1  A    between atoms: C2_2  and  N1_4 
REMARK    2  A    between atoms: N2_7  and  C6_8 
REMARK    3  A    between atoms: C6_8  and  C7_9 
REMARK    4  A    between atoms: C10_12  and  C11_13 
REMARK    5  A    between atoms: C13_18  and  N3_19 
REMARK    6  A    between atoms: N3_19  and  C14_21 
REMARK    7  A    between atoms: C14_21  and  C15_25 
ROOT
HETATM    1  C7  UNL     1     -11.882 -46.476 -57.854  1.00  0.00     0.006 A 
HETATM    2  C8  UNL     1     -11.995 -45.385 -57.057  1.00  0.00     0.016 A 
HETATM    3  C9  UNL     1     -13.044 -45.151 -56.182  1.00  0.00     0.017 A 
HETATM    4  C10 UNL     1     -14.061 -46.130 -56.116  1.00  0.00     0.050 A 
HETATM    5  C12 UNL     1     -13.936 -47.231 -56.931  1.00  0.00     0.046 A 
HETATM    6  C13 UNL     1     -12.921 -47.416 -57.775  1.00  0.00     0.045 A 
ENDROOT
BRANCH   6   7
HETATM    7  N3  UNL     1     -12.885 -48.470 -58.791  1.00  0.00    -0.345 N 
ATOM      8  H3  UNL     1     -12.933 -48.264 -59.789  1.00  0.00     0.167 HD
BRANCH   7   9
HETATM    9  C14 UNL     1     -12.779 -49.783 -58.302  1.00  0.00     0.080 C 
HETATM   10  N4  UNL     1     -13.883 -50.526 -58.156  1.00  0.00    -0.389 N 
ATOM     11  H42 UNL     1     -14.741 -50.066 -58.461  1.00  0.00     0.157 HD
ATOM     12  H41 UNL     1     -13.806 -51.479 -57.801  1.00  0.00     0.157 HD
BRANCH   9  13
HETATM   13  C15 UNL     1     -11.528 -50.454 -57.857  1.00  0.00     0.060 C 
HETATM   14  C16 UNL     1     -11.685 -51.318 -56.667  1.00  0.00     0.013 C 
HETATM   15  C17 UNL     1     -10.304 -51.800 -56.265  1.00  0.00     0.001 C 
HETATM   16  C18 UNL     1      -9.527 -52.379 -57.409  1.00  0.00     0.001 C 
HETATM   17  C19 UNL     1      -9.425 -51.403 -58.544  1.00  0.00     0.009 C 
HETATM   18  C20 UNL     1     -10.828 -51.074 -59.020  1.00  0.00    -0.037 C 
HETATM   19  C21 UNL     1     -10.703 -50.105 -60.148  1.00  0.00     0.015 C 
HETATM   20  C22 UNL     1     -11.542 -52.321 -59.494  1.00  0.00     0.015 C 
ENDBRANCH   9  13
ENDBRANCH   7   9
ENDBRANCH   6   7
BRANCH   1  21
HETATM   21  C6  UNL     1     -10.833 -46.746 -58.814  1.00  0.00     0.099 C 
BRANCH  21  22
HETATM   22  N2  UNL     1      -9.545 -46.989 -58.320  1.00  0.00    -0.386 N 
HETATM   23  C5  UNL     1      -8.565 -46.068 -58.779  1.00  0.00     0.152 C 
HETATM   24  C4  UNL     1      -8.315 -45.100 -57.587  1.00  0.00     0.292 C 
HETATM   25  N1  UNL     1      -7.830 -45.946 -56.525  1.00  0.00     0.095 N 
HETATM   26  C24 UNL     1      -8.909 -46.754 -56.020  1.00  0.00     0.292 C 
HETATM   27  C23 UNL     1      -9.255 -47.722 -57.187  1.00  0.00     0.152 C 
BRANCH  25  28
HETATM   28  C2  UNL     1      -7.188 -45.178 -55.475  1.00  0.00     0.215 C 
HETATM   29  C1  UNL     1      -7.276 -45.937 -54.180  1.00  0.00     0.042 C 
HETATM   30  C3  UNL     1      -5.722 -45.090 -55.850  1.00  0.00     0.042 C 
ENDBRANCH  25  28
ENDBRANCH  21  22
ENDBRANCH   1  21
BRANCH   4  31
HETATM   31  C11 UNL     1     -15.186 -45.972 -55.197  1.00  0.00     0.417 C 
HETATM   32  F1  UNL     1     -15.727 -47.172 -54.866  1.00  0.00    -0.166 F 
HETATM   33  F2  UNL     1     -16.162 -45.188 -55.818  1.00  0.00    -0.166 F 
HETATM   34  F3  UNL     1     -14.772 -45.336 -54.030  1.00  0.00    -0.166 F 
ENDBRANCH   4  31
TORSDOF 7
ENDMDL
MODEL 2
REMARK VINA RESULT: -6.956280079      3.980      7.839
REMARK  7 active torsions:
REMARK  status: ('A' for Active; 'I' for Inactive)
REMARK    1  A    between atoms: C2_2  and  N1_4 
REMARK    2  A    between atoms: N2_7  and  C6_8 
REMARK    3  A    between atoms: C6_8  and  C7_9 
REMARK    4  A    between atoms: C10_12  and  C11_13 
REMARK    5  A    between atoms: C13_18  and  N3_19 
REMARK    6  A    between atoms: N3_19  and  C14_21 
REMARK    7  A    between atoms: C14_21  and  C15_25 
ROOT
HETATM    1  C7  UNL     1      -9.525 -46.378 -57.551  1.00  0.00     0.006 A 
HETATM    2  C8  UNL     1      -9.343 -46.964 -56.342  1.00  0.00     0.016 A 
HETATM    3  C9  UNL     1      -8.326 -46.646 -55.456  1.00  0.00     0.017 A 
HETATM    4  C10 UNL     1      -7.423 -45.631 -55.844  1.00  0.00     0.050 A 
HETATM    5  C12 UNL     1      -7.617 -45.046 -57.073  1.00  0.00     0.046 A 
HETATM    6  C13 UNL     1      -8.597 -45.388 -57.910  1.00  0.00     0.045 A 
ENDROOT
BRANCH   6   7
HETATM    7  N3  UNL     1      -8.687 -44.925 -59.296  1.00  0.00    -0.345 N 
ATOM      8  H3  UNL     1      -9.577 -44.677 -59.729  1.00  0.00     0.167 HD
BRANCH   7   9
HETATM    9  C14 UNL     1      -7.469 -44.844 -59.992  1.00  0.00     0.080 C 
HETATM   10  N4  UNL     1      -6.928 -45.954 -60.510  1.00  0.00    -0.389 N 
ATOM     11  H42 UNL     1      -7.492 -46.795 -60.381  1.00  0.00     0.157 HD
ATOM     12  H41 UNL     1      -6.043 -45.896 -61.015  1.00  0.00     0.157 HD
BRANCH   9  13
HETATM   13  C15 UNL     1      -6.647 -43.619 -60.180  1.00  0.00     0.060 C 
HETATM   14  C16 UNL     1      -5.331 -43.854 -60.813  1.00  0.00     0.013 C 
HETATM   15  C17 UNL     1      -4.572 -42.541 -60.796  1.00  0.00     0.001 C 
HETATM   16  C18 UNL     1      -5.373 -41.391 -61.331  1.00  0.00     0.001 C 
HETATM   17  C19 UNL     1      -6.673 -41.248 -60.598  1.00  0.00     0.009 C 
HETATM   18  C20 UNL     1      -7.468 -42.528 -60.780  1.00  0.00    -0.037 C 
HETATM   19  C21 UNL     1      -8.758 -42.363 -60.046  1.00  0.00     0.015 C 
HETATM   20  C22 UNL     1      -7.745 -42.786 -62.246  1.00  0.00     0.015 C 
ENDBRANCH   9  13
ENDBRANCH   7   9
ENDBRANCH   6   7
BRANCH   1  21
HETATM   21  C6  UNL     1     -10.541 -46.701 -58.529  1.00  0.00     0.099 C 
BRANCH  21  22
HETATM   22  N2  UNL     1     -11.799 -46.103 -58.384  1.00  0.00    -0.386 N 
HETATM   23  C5  UNL     1     -12.890 -46.971 -58.658  1.00  0.00     0.152 C 
HETATM   24  C4  UNL     1     -13.459 -47.374 -57.267  1.00  0.00     0.292 C 
HETATM   25  N1  UNL     1     -13.874 -46.131 -56.668  1.00  0.00     0.095 N 
HETATM   26  C24 UNL     1     -12.716 -45.363 -56.295  1.00  0.00     0.292 C 
HETATM   27  C23 UNL     1     -12.056 -44.964 -57.646  1.00  0.00     0.152 C 
BRANCH  25  28
HETATM   28  C2  UNL     1     -14.768 -46.346 -55.545  1.00  0.00     0.215 C 
HETATM   29  C1  UNL     1     -15.557 -45.091 -55.292  1.00  0.00     0.042 C 
HETATM   30  C3  UNL     1     -15.749 -47.415 -55.984  1.00  0.00     0.042 C 
ENDBRANCH  25  28
ENDBRANCH  21  22
ENDBRANCH   1  21
BRANCH   4  31
HETATM   31  C11 UNL     1      -6.341 -45.218 -54.954  1.00  0.00     0.417 C 
HETATM   32  F1  UNL     1      -6.244 -43.866 -54.886  1.00  0.00    -0.166 F 
HETATM   33  F2  UNL     1      -5.138 -45.738 -55.442  1.00  0.00    -0.166 F 
HETATM   34  F3  UNL     1      -6.557 -45.711 -53.669  1.00  0.00    -0.166 F 
ENDBRANCH   4  31
TORSDOF 7
ENDMDL
MODEL 3
REMARK VINA RESULT: -6.929683032      3.982      7.731
REMARK  7 active torsions:
REMARK  status: ('A' for Active; 'I' for Inactive)
REMARK    1  A    between atoms: C2_2  and  N1_4 
REMARK    2  A    between atoms: N2_7  and  C6_8 
REMARK    3  A    between atoms: C6_8  and  C7_9 
REMARK    4  A    between atoms: C10_12  and  C11_13 
REMARK    5  A    between atoms: C13_18  and  N3_19 
REMARK    6  A    between atoms: N3_19  and  C14_21 
REMARK    7  A    between atoms: C14_21  and  C15_25 
ROOT
HETATM    1  C7  UNL     1      -9.180 -46.677 -57.321  1.00  0.00     0.006 A 
HETATM    2  C8  UNL     1      -9.112 -46.826 -55.975  1.00  0.00     0.016 A 
HETATM    3  C9  UNL     1      -8.094 -46.333 -55.176  1.00  0.00     0.017 A 
HETATM    4  C10 UNL     1      -7.059 -45.615 -55.816  1.00  0.00     0.050 A 
HETATM    5  C12 UNL     1      -7.137 -45.472 -57.182  1.00  0.00     0.046 A 
HETATM    6  C13 UNL     1      -8.124 -45.976 -57.924  1.00  0.00     0.045 A 
ENDROOT
BRANCH   6   7
HETATM    7  N3  UNL     1      -8.109 -46.012 -59.388  1.00  0.00    -0.345 N 
ATOM      8  H3  UNL     1      -8.715 -46.635 -59.922  1.00  0.00     0.167 HD
BRANCH   7   9
HETATM    9  C14 UNL     1      -7.206 -45.132 -60.009  1.00  0.00     0.080 C 
HETATM   10  N4  UNL     1      -6.038 -45.599 -60.467  1.00  0.00    -0.389 N 
ATOM     11  H42 UNL     1      -5.914 -46.605 -60.353  1.00  0.00     0.157 HD
ATOM     12  H41 UNL     1      -5.382 -44.960 -60.918  1.00  0.00     0.157 HD
BRANCH   9  13
HETATM   13  C15 UNL     1      -7.386 -43.666 -60.176  1.00  0.00     0.060 C 
HETATM   14  C16 UNL     1      -6.131 -42.913 -60.388  1.00  0.00     0.013 C 
HETATM   15  C17 UNL     1      -6.475 -41.436 -60.390  1.00  0.00     0.001 C 
HETATM   16  C18 UNL     1      -7.615 -41.099 -61.305  1.00  0.00     0.001 C 
HETATM   17  C19 UNL     1      -8.831 -41.915 -60.979  1.00  0.00     0.009 C 
HETATM   18  C20 UNL     1      -8.482 -43.382 -61.148  1.00  0.00    -0.037 C 
HETATM   19  C21 UNL     1      -9.705 -44.174 -60.821  1.00  0.00     0.015 C 
HETATM   20  C22 UNL     1      -8.050 -43.673 -62.569  1.00  0.00     0.015 C 
ENDBRANCH   9  13
ENDBRANCH   7   9
ENDBRANCH   6   7
BRANCH   1  21
HETATM   21  C6  UNL     1     -10.195 -47.208 -58.205  1.00  0.00     0.099 C 
BRANCH  21  22
HETATM   22  N2  UNL     1     -11.417 -46.528 -58.277  1.00  0.00    -0.386 N 
HETATM   23  C5  UNL     1     -12.540 -47.373 -58.484  1.00  0.00     0.152 C 
HETATM   24  C4  UNL     1     -13.237 -47.485 -57.098  1.00  0.00     0.292 C 
HETATM   25  N1  UNL     1     -13.611 -46.133 -56.768  1.00  0.00     0.095 N 
HETATM   26  C24 UNL     1     -12.435 -45.372 -56.440  1.00  0.00     0.292 C 
HETATM   27  C23 UNL     1     -11.651 -45.262 -57.778  1.00  0.00     0.152 C 
BRANCH  25  28
HETATM   28  C2  UNL     1     -14.600 -46.091 -55.705  1.00  0.00     0.215 C 
HETATM   29  C1  UNL     1     -15.465 -44.875 -55.880  1.00  0.00     0.042 C 
HETATM   30  C3  UNL     1     -15.483 -47.308 -55.901  1.00  0.00     0.042 C 
ENDBRANCH  25  28
ENDBRANCH  21  22
ENDBRANCH   1  21
BRANCH   4  31
HETATM   31  C11 UNL     1      -5.964 -45.037 -55.040  1.00  0.00     0.417 C 
HETATM   32  F1  UNL     1      -5.984 -43.681 -55.090  1.00  0.00    -0.166 F 
HETATM   33  F2  UNL     1      -4.753 -45.495 -55.568  1.00  0.00    -0.166 F 
HETATM   34  F3  UNL     1      -6.054 -45.433 -53.708  1.00  0.00    -0.166 F 
ENDBRANCH   4  31
TORSDOF 7
ENDMDL
MODEL 4
REMARK VINA RESULT: -6.924184907      3.882      7.428
REMARK  7 active torsions:
REMARK  status: ('A' for Active; 'I' for Inactive)
REMARK    1  A    between atoms: C2_2  and  N1_4 
REMARK    2  A    between atoms: N2_7  and  C6_8 
REMARK    3  A    between atoms: C6_8  and  C7_9 
REMARK    4  A    between atoms: C10_12  and  C11_13 
REMARK    5  A    between atoms: C13_18  and  N3_19 
REMARK    6  A    between atoms: N3_19  and  C14_21 
REMARK    7  A    between atoms: C14_21  and  C15_25 
ROOT
HETATM    1  C7  UNL     1      -9.085 -46.677 -57.626  1.00  0.00     0.006 A 
HETATM    2  C8  UNL     1      -9.200 -46.860 -56.287  1.00  0.00     0.016 A 
HETATM    3  C9  UNL     1      -8.294 -46.400 -55.346  1.00  0.00     0.017 A 
HETATM    4  C10 UNL     1      -7.175 -45.680 -55.822  1.00  0.00     0.050 A 
HETATM    5  C12 UNL     1      -7.068 -45.502 -57.182  1.00  0.00     0.046 A 
HETATM    6  C13 UNL     1      -7.951 -45.974 -58.062  1.00  0.00     0.045 A 
ENDROOT
BRANCH   6   7
HETATM    7  N3  UNL     1      -7.740 -45.973 -59.512  1.00  0.00    -0.345 N 
ATOM      8  H3  UNL     1      -7.659 -46.837 -60.049  1.00  0.00     0.167 HD
BRANCH   7   9
HETATM    9  C14 UNL     1      -7.656 -44.706 -60.114  1.00  0.00     0.080 C 
HETATM   10  N4  UNL     1      -6.455 -44.187 -60.396  1.00  0.00    -0.389 N 
ATOM     11  H42 UNL     1      -5.670 -44.799 -60.173  1.00  0.00     0.157 HD
ATOM     12  H41 UNL     1      -6.394 -43.267 -60.833  1.00  0.00     0.157 HD
BRANCH   9  13
HETATM   13  C15 UNL     1      -8.800 -43.814 -60.439  1.00  0.00     0.060 C 
HETATM   14  C16 UNL     1      -8.557 -42.381 -60.167  1.00  0.00     0.013 C 
HETATM   15  C17 UNL     1      -9.858 -41.639 -60.411  1.00  0.00     0.001 C 
HETATM   16  C18 UNL     1     -10.483 -41.969 -61.734  1.00  0.00     0.001 C 
HETATM   17  C19 UNL     1     -10.692 -43.447 -61.882  1.00  0.00     0.009 C 
HETATM   18  C20 UNL     1      -9.341 -44.133 -61.793  1.00  0.00    -0.037 C 
HETATM   19  C21 UNL     1      -9.573 -45.600 -61.944  1.00  0.00     0.015 C 
HETATM   20  C22 UNL     1      -8.416 -43.645 -62.887  1.00  0.00     0.015 C 
ENDBRANCH   9  13
ENDBRANCH   7   9
ENDBRANCH   6   7
BRANCH   1  21
HETATM   21  C6  UNL     1      -9.977 -47.172 -58.651  1.00  0.00     0.099 C 
BRANCH  21  22
HETATM   22  N2  UNL     1     -11.242 -46.580 -58.756  1.00  0.00    -0.386 N 
HETATM   23  C5  UNL     1     -12.322 -47.496 -58.653  1.00  0.00     0.152 C 
HETATM   24  C4  UNL     1     -12.889 -47.309 -57.216  1.00  0.00     0.292 C 
HETATM   25  N1  UNL     1     -13.318 -45.934 -57.170  1.00  0.00     0.095 N 
HETATM   26  C24 UNL     1     -12.169 -45.069 -57.142  1.00  0.00     0.292 C 
HETATM   27  C23 UNL     1     -11.512 -45.243 -58.541  1.00  0.00     0.152 C 
BRANCH  25  28
HETATM   28  C2  UNL     1     -14.213 -45.686 -56.053  1.00  0.00     0.215 C 
HETATM   29  C1  UNL     1     -15.176 -44.593 -56.422  1.00  0.00     0.042 C 
HETATM   30  C3  UNL     1     -15.019 -46.956 -55.866  1.00  0.00     0.042 C 
ENDBRANCH  25  28
ENDBRANCH  21  22
ENDBRANCH   1  21
BRANCH   4  31
HETATM   31  C11 UNL     1      -6.189 -45.137 -54.891  1.00  0.00     0.417 C 
HETATM   32  F1  UNL     1      -4.943 -45.604 -55.161  1.00  0.00    -0.166 F 
HETATM   33  F2  UNL     1      -6.546 -45.512 -53.593  1.00  0.00    -0.166 F 
HETATM   34  F3  UNL     1      -6.167 -43.746 -54.969  1.00  0.00    -0.166 F 
ENDBRANCH   4  31
TORSDOF 7
ENDMDL
MODEL 5
REMARK VINA RESULT: -6.799001931      3.956      6.992
REMARK  7 active torsions:
REMARK  status: ('A' for Active; 'I' for Inactive)
REMARK    1  A    between atoms: C2_2  and  N1_4 
REMARK    2  A    between atoms: N2_7  and  C6_8 
REMARK    3  A    between atoms: C6_8  and  C7_9 
REMARK    4  A    between atoms: C10_12  and  C11_13 
REMARK    5  A    between atoms: C13_18  and  N3_19 
REMARK    6  A    between atoms: N3_19  and  C14_21 
REMARK    7  A    between atoms: C14_21  and  C15_25 
ROOT
HETATM    1  C7  UNL     1      -9.366 -46.286 -57.600  1.00  0.00     0.006 A 
HETATM    2  C8  UNL     1      -9.275 -46.894 -56.391  1.00  0.00     0.016 A 
HETATM    3  C9  UNL     1      -8.309 -46.617 -55.437  1.00  0.00     0.017 A 
HETATM    4  C10 UNL     1      -7.357 -45.622 -55.751  1.00  0.00     0.050 A 
HETATM    5  C12 UNL     1      -7.457 -45.013 -56.981  1.00  0.00     0.046 A 
HETATM    6  C13 UNL     1      -8.391 -45.317 -57.884  1.00  0.00     0.045 A 
ENDROOT
BRANCH   6   7
HETATM    7  N3  UNL     1      -8.381 -44.832 -59.265  1.00  0.00    -0.345 N 
ATOM      8  H3  UNL     1      -9.241 -44.656 -59.786  1.00  0.00     0.167 HD
BRANCH   7   9
HETATM    9  C14 UNL     1      -7.110 -44.624 -59.828  1.00  0.00     0.080 C 
HETATM   10  N4  UNL     1      -6.503 -43.441 -59.673  1.00  0.00    -0.389 N 
ATOM     11  H42 UNL     1      -7.024 -42.775 -59.103  1.00  0.00     0.157 HD
ATOM     12  H41 UNL     1      -5.581 -43.290 -60.082  1.00  0.00     0.157 HD
BRANCH   9  13
HETATM   13  C15 UNL     1      -6.351 -45.596 -60.660  1.00  0.00     0.060 C 
HETATM   14  C16 UNL     1      -5.881 -46.793 -59.931  1.00  0.00     0.013 C 
HETATM   15  C17 UNL     1      -5.010 -47.596 -60.878  1.00  0.00     0.001 C 
HETATM   16  C18 UNL     1      -5.658 -47.840 -62.208  1.00  0.00     0.001 C 
HETATM   17  C19 UNL     1      -6.074 -46.550 -62.853  1.00  0.00     0.009 C 
HETATM   18  C20 UNL     1      -7.070 -45.859 -61.941  1.00  0.00    -0.037 C 
HETATM   19  C21 UNL     1      -7.471 -44.581 -62.602  1.00  0.00     0.015 C 
HETATM   20  C22 UNL     1      -8.291 -46.726 -61.721  1.00  0.00     0.015 C 
ENDBRANCH   9  13
ENDBRANCH   7   9
ENDBRANCH   6   7
BRANCH   1  21
HETATM   21  C6  UNL     1     -10.325 -46.568 -58.645  1.00  0.00     0.099 C 
BRANCH  21  22
HETATM   22  N2  UNL     1     -11.607 -46.017 -58.518  1.00  0.00    -0.386 N 
HETATM   23  C5  UNL     1     -12.661 -46.933 -58.782  1.00  0.00     0.152 C 
HETATM   24  C4  UNL     1     -13.223 -47.333 -57.387  1.00  0.00     0.292 C 
HETATM   25  N1  UNL     1     -13.690 -46.096 -56.814  1.00  0.00     0.095 N 
HETATM   26  C24 UNL     1     -12.565 -45.276 -56.449  1.00  0.00     0.292 C 
HETATM   27  C23 UNL     1     -11.914 -44.876 -57.803  1.00  0.00     0.152 C 
BRANCH  25  28
HETATM   28  C2  UNL     1     -14.583 -46.325 -55.693  1.00  0.00     0.215 C 
HETATM   29  C1  UNL     1     -15.472 -45.127 -55.514  1.00  0.00     0.042 C 
HETATM   30  C3  UNL     1     -15.468 -47.490 -56.087  1.00  0.00     0.042 C 
ENDBRANCH  25  28
ENDBRANCH  21  22
ENDBRANCH   1  21
BRANCH   4  31
HETATM   31  C11 UNL     1      -6.323 -45.251 -54.788  1.00  0.00     0.417 C 
HETATM   32  F1  UNL     1      -5.138 -45.846 -55.081  1.00  0.00    -0.166 F 
HETATM   33  F2  UNL     1      -6.734 -45.653 -53.515  1.00  0.00    -0.166 F 
HETATM   34  F3  UNL     1      -6.136 -43.870 -54.787  1.00  0.00    -0.166 F 
ENDBRANCH   4  31
TORSDOF 7
ENDMDL
