MODEL 1
REMARK VINA RESULT: -8.335730023      0.000      0.000
REMARK  8 active torsions:
REMARK  status: ('A' for Active; 'I' for Inactive)
REMARK    1  A    between atoms: C2_2  and  C4_4 
REMARK    2  A    between atoms: C4_4  and  C5_5 
REMARK    3  A    between atoms: C4_4  and  N2_12 
REMARK    4  A    between atoms: C5_5  and  O1_6 
REMARK    5  A    between atoms: N1_8  and  O2_10 
REMARK    6  A    between atoms: C8_15  and  N3_16 
REMARK       I    between atoms: N3_16  and  C9_18 
REMARK    7  A    between atoms: C9_18  and  C10_20 
REMARK    8  A    between atoms: C11_21  and  C12_22 
ROOT
HETATM    1  N3  UNL     1     -10.989 -45.753 -57.160  1.00  0.00    -0.356 N 
ATOM      2  H3  UNL     1     -10.671 -44.847 -57.504  1.00  0.00     0.162 HD
HETATM    3  C9  UNL     1     -10.047 -46.811 -57.087  1.00  0.00     0.223 C 
HETATM    4  O3  UNL     1     -10.496 -47.925 -56.648  1.00  0.00    -0.273 OA
ENDROOT
BRANCH   1   5
HETATM    5  C8  UNL     1     -12.364 -45.891 -56.776  1.00  0.00     0.087 C 
HETATM    6  C7  UNL     1     -13.142 -44.660 -57.191  1.00  0.00     0.055 C 
HETATM    7  C6  UNL     1     -14.566 -44.701 -56.634  1.00  0.00     0.275 C 
HETATM    8  N2  UNL     1     -14.707 -46.022 -56.047  1.00  0.00     0.101 N 
HETATM    9  C22 UNL     1     -14.520 -46.969 -57.094  1.00  0.00     0.275 C 
HETATM   10  C21 UNL     1     -13.017 -47.132 -57.302  1.00  0.00     0.055 C 
BRANCH   8  11
HETATM   11  C4  UNL     1     -15.887 -46.133 -55.264  1.00  0.00     0.301 C 
BRANCH  11  12
HETATM   12  C2  UNL     1     -16.357 -47.549 -55.017  1.00  0.00     0.019 C 
HETATM   13  C1  UNL     1     -17.012 -48.113 -56.284  1.00  0.00     0.012 C 
HETATM   14  C3  UNL     1     -17.380 -47.678 -53.930  1.00  0.00     0.012 C 
ENDBRANCH  11  12
BRANCH  11  15
HETATM   15  C5  UNL     1     -15.919 -45.286 -54.056  1.00  0.00     0.170 C 
HETATM   16  N1  UNL     1     -16.282 -44.055 -54.077  1.00  0.00    -0.249 N 
ATOM     17  H1  UNL     1     -16.563 -43.636 -54.963  1.00  0.00     0.196 HD
BRANCH  15  18
HETATM   18  O1  UNL     1     -15.537 -45.853 -52.837  1.00  0.00    -0.346 OA
ATOM     19  H1  UNL     1     -15.389 -45.276 -52.097  1.00  0.00     0.219 HD
ENDBRANCH  15  18
BRANCH  16  20
HETATM   20  O2  UNL     1     -16.303 -43.298 -52.954  1.00  0.00    -0.288 OA
ATOM     21  H2  UNL     1     -16.027 -42.389 -52.958  1.00  0.00     0.244 HD
ENDBRANCH  16  20
ENDBRANCH  11  15
ENDBRANCH   8  11
ENDBRANCH   1   5
BRANCH   3  22
HETATM   22  C10 UNL     1      -8.638 -46.696 -57.475  1.00  0.00     0.098 C 
HETATM   23  C11 UNL     1      -8.035 -45.404 -57.004  1.00  0.00     0.108 C 
HETATM   24  C13 UNL     1      -6.751 -45.045 -57.683  1.00  0.00     0.023 C 
HETATM   25  C14 UNL     1      -6.829 -45.063 -59.180  1.00  0.00    -0.046 C 
HETATM   26  C15 UNL     1      -5.558 -45.705 -59.734  1.00  0.00     0.015 C 
HETATM   27  C16 UNL     1      -6.817 -43.627 -59.732  1.00  0.00     0.015 C 
HETATM   28  C17 UNL     1      -8.062 -45.706 -59.715  1.00  0.00     0.018 C 
HETATM   29  C18 UNL     1      -8.508 -46.926 -58.948  1.00  0.00    -0.034 C 
HETATM   30  C19 UNL     1      -7.507 -48.060 -59.217  1.00  0.00     0.015 C 
HETATM   31  C20 UNL     1      -9.799 -47.389 -59.606  1.00  0.00     0.015 C 
BRANCH  23  32
HETATM   32  C12 UNL     1      -7.716 -45.567 -55.517  1.00  0.00     0.392 C 
HETATM   33  F1  UNL     1      -8.730 -45.017 -54.744  1.00  0.00    -0.171 F 
HETATM   34  F2  UNL     1      -6.561 -44.902 -55.175  1.00  0.00    -0.171 F 
HETATM   35  F3  UNL     1      -7.662 -46.906 -55.175  1.00  0.00    -0.171 F 
ENDBRANCH  23  32
ENDBRANCH   3  22
TORSDOF 8
ENDMDL
MODEL 2
REMARK VINA RESULT: -8.169292786      6.586      9.143
REMARK  8 active torsions:
REMARK  status: ('A' for Active; 'I' for Inactive)
REMARK    1  A    between atoms: C2_2  and  C4_4 
REMARK    2  A    between atoms: C4_4  and  C5_5 
REMARK    3  A    between atoms: C4_4  and  N2_12 
REMARK    4  A    between atoms: C5_5  and  O1_6 
REMARK    5  A    between atoms: N1_8  and  O2_10 
REMARK    6  A    between atoms: C8_15  and  N3_16 
REMARK       I    between atoms: N3_16  and  C9_18 
REMARK    7  A    between atoms: C9_18  and  C10_20 
REMARK    8  A    between atoms: C11_21  and  C12_22 
ROOT
HETATM    1  N3  UNL     1     -15.902 -42.207 -58.902  1.00  0.00    -0.356 N 
ATOM      2  H3  UNL     1     -15.437 -41.325 -58.687  1.00  0.00     0.162 HD
HETATM    3  C9  UNL     1     -16.817 -42.237 -59.985  1.00  0.00     0.223 C 
HETATM    4  O3  UNL     1     -17.371 -43.366 -60.213  1.00  0.00    -0.273 OA
ENDROOT
BRANCH   1   5
HETATM    5  C8  UNL     1     -15.597 -43.351 -58.093  1.00  0.00     0.087 C 
HETATM    6  C7  UNL     1     -15.181 -44.510 -58.974  1.00  0.00     0.055 C 
HETATM    7  C6  UNL     1     -15.025 -45.791 -58.154  1.00  0.00     0.275 C 
HETATM    8  N2  UNL     1     -15.165 -45.376 -56.769  1.00  0.00     0.101 N 
HETATM    9  C22 UNL     1     -14.119 -44.446 -56.502  1.00  0.00     0.275 C 
HETATM   10  C21 UNL     1     -14.564 -43.088 -57.040  1.00  0.00     0.055 C 
BRANCH   8  11
HETATM   11  C4  UNL     1     -15.297 -46.484 -55.890  1.00  0.00     0.301 C 
BRANCH  11  12
HETATM   12  C2  UNL     1     -16.547 -46.479 -55.041  1.00  0.00     0.019 C 
HETATM   13  C1  UNL     1     -16.276 -45.762 -53.712  1.00  0.00     0.012 C 
HETATM   14  C3  UNL     1     -17.051 -47.842 -54.678  1.00  0.00     0.012 C 
ENDBRANCH  11  12
BRANCH  11  15
HETATM   15  C5  UNL     1     -15.004 -47.799 -56.494  1.00  0.00     0.170 C 
HETATM   16  N1  UNL     1     -15.854 -48.442 -57.209  1.00  0.00    -0.249 N 
ATOM     17  H1  UNL     1     -16.775 -48.034 -57.372  1.00  0.00     0.196 HD
BRANCH  15  18
HETATM   18  O1  UNL     1     -13.745 -48.365 -56.276  1.00  0.00    -0.346 OA
ATOM     19  H1  UNL     1     -13.003 -48.015 -56.754  1.00  0.00     0.219 HD
ENDBRANCH  15  18
BRANCH  16  20
HETATM   20  O2  UNL     1     -15.563 -49.648 -57.753  1.00  0.00    -0.288 OA
ATOM     21  H2  UNL     1     -14.976 -49.734 -58.495  1.00  0.00     0.244 HD
ENDBRANCH  16  20
ENDBRANCH  11  15
ENDBRANCH   8  11
ENDBRANCH   1   5
BRANCH   3  22
HETATM   22  C10 UNL     1     -17.146 -41.081 -60.825  1.00  0.00     0.098 C 
HETATM   23  C11 UNL     1     -18.618 -41.001 -61.110  1.00  0.00     0.108 C 
HETATM   24  C13 UNL     1     -18.972 -40.104 -62.253  1.00  0.00     0.023 C 
HETATM   25  C14 UNL     1     -18.218 -40.400 -63.514  1.00  0.00    -0.046 C 
HETATM   26  C15 UNL     1     -17.800 -39.081 -64.163  1.00  0.00     0.015 C 
HETATM   27  C16 UNL     1     -19.143 -41.069 -64.545  1.00  0.00     0.015 C 
HETATM   28  C17 UNL     1     -17.063 -41.324 -63.328  1.00  0.00     0.018 C 
HETATM   29  C18 UNL     1     -16.290 -41.099 -62.053  1.00  0.00    -0.034 C 
HETATM   30  C19 UNL     1     -15.522 -39.773 -62.178  1.00  0.00     0.015 C 
HETATM   31  C20 UNL     1     -15.208 -42.168 -62.022  1.00  0.00     0.015 C 
BRANCH  23  32
HETATM   32  C12 UNL     1     -19.290 -40.415 -59.866  1.00  0.00     0.392 C 
HETATM   33  F1  UNL     1     -20.464 -39.762 -60.216  1.00  0.00    -0.171 F 
HETATM   34  F2  UNL     1     -18.488 -39.477 -59.257  1.00  0.00    -0.171 F 
HETATM   35  F3  UNL     1     -19.661 -41.422 -58.994  1.00  0.00    -0.171 F 
ENDBRANCH  23  32
ENDBRANCH   3  22
TORSDOF 8
ENDMDL
MODEL 3
REMARK VINA RESULT: -7.989791572      4.355      5.630
REMARK  8 active torsions:
REMARK  status: ('A' for Active; 'I' for Inactive)
REMARK    1  A    between atoms: C2_2  and  C4_4 
REMARK    2  A    between atoms: C4_4  and  C5_5 
REMARK    3  A    between atoms: C4_4  and  N2_12 
REMARK    4  A    between atoms: C5_5  and  O1_6 
REMARK    5  A    between atoms: N1_8  and  O2_10 
REMARK    6  A    between atoms: C8_15  and  N3_16 
REMARK       I    between atoms: N3_16  and  C9_18 
REMARK    7  A    between atoms: C9_18  and  C10_20 
REMARK    8  A    between atoms: C11_21  and  C12_22 
ROOT
HETATM    1  N3  UNL     1     -12.611 -50.221 -58.111  1.00  0.00    -0.356 N 
ATOM      2  H3  UNL     1     -12.994 -50.794 -58.862  1.00  0.00     0.162 HD
HETATM    3  C9  UNL     1     -11.417 -50.652 -57.479  1.00  0.00     0.223 C 
HETATM    4  O3  UNL     1     -10.978 -49.896 -56.545  1.00  0.00    -0.273 OA
ENDROOT
BRANCH   1   5
HETATM    5  C8  UNL     1     -13.307 -49.020 -57.750  1.00  0.00     0.087 C 
HETATM    6  C7  UNL     1     -12.573 -47.813 -58.296  1.00  0.00     0.055 C 
HETATM    7  C6  UNL     1     -13.191 -46.515 -57.774  1.00  0.00     0.275 C 
HETATM    8  N2  UNL     1     -14.395 -46.923 -57.071  1.00  0.00     0.101 N 
HETATM    9  C22 UNL     1     -15.238 -47.567 -58.021  1.00  0.00     0.275 C 
HETATM   10  C21 UNL     1     -14.743 -49.003 -58.176  1.00  0.00     0.055 C 
BRANCH   8  11
HETATM   11  C4  UNL     1     -14.954 -45.861 -56.311  1.00  0.00     0.301 C 
BRANCH  11  12
HETATM   12  C2  UNL     1     -15.436 -46.249 -54.931  1.00  0.00     0.019 C 
HETATM   13  C1  UNL     1     -16.631 -47.203 -55.042  1.00  0.00     0.012 C 
HETATM   14  C3  UNL     1     -15.903 -45.097 -54.096  1.00  0.00     0.012 C 
ENDBRANCH  11  12
BRANCH  11  15
HETATM   15  C5  UNL     1     -14.181 -44.604 -56.330  1.00  0.00     0.170 C 
HETATM   16  N1  UNL     1     -14.570 -43.556 -56.961  1.00  0.00    -0.249 N 
ATOM     17  H1  UNL     1     -15.450 -43.584 -57.474  1.00  0.00     0.196 HD
BRANCH  15  18
HETATM   18  O1  UNL     1     -12.973 -44.556 -55.628  1.00  0.00    -0.346 OA
ATOM     19  H1  UNL     1     -12.807 -43.809 -55.066  1.00  0.00     0.219 HD
ENDBRANCH  15  18
BRANCH  16  20
HETATM   20  O2  UNL     1     -13.842 -42.413 -56.963  1.00  0.00    -0.288 OA
ATOM     21  H2  UNL     1     -13.774 -41.865 -57.736  1.00  0.00     0.244 HD
ENDBRANCH  16  20
ENDBRANCH  11  15
ENDBRANCH   8  11
ENDBRANCH   1   5
BRANCH   3  22
HETATM   22  C10 UNL     1     -10.689 -51.875 -57.829  1.00  0.00     0.098 C 
HETATM   23  C11 UNL     1     -10.124 -52.554 -56.613  1.00  0.00     0.108 C 
HETATM   24  C13 UNL     1      -9.062 -53.563 -56.915  1.00  0.00     0.023 C 
HETATM   25  C14 UNL     1      -7.952 -53.039 -57.776  1.00  0.00    -0.046 C 
HETATM   26  C15 UNL     1      -7.582 -54.102 -58.809  1.00  0.00     0.015 C 
HETATM   27  C16 UNL     1      -6.676 -52.842 -56.940  1.00  0.00     0.015 C 
HETATM   28  C17 UNL     1      -8.246 -51.721 -58.408  1.00  0.00     0.018 C 
HETATM   29  C18 UNL     1      -9.669 -51.563 -58.879  1.00  0.00    -0.034 C 
HETATM   30  C19 UNL     1      -9.880 -52.470 -60.101  1.00  0.00     0.015 C 
HETATM   31  C20 UNL     1      -9.778 -50.149 -59.427  1.00  0.00     0.015 C 
BRANCH  23  32
HETATM   32  C12 UNL     1     -11.272 -53.310 -55.941  1.00  0.00     0.392 C 
HETATM   33  F1  UNL     1     -10.776 -54.362 -55.183  1.00  0.00    -0.171 F 
HETATM   34  F2  UNL     1     -12.120 -53.865 -56.872  1.00  0.00    -0.171 F 
HETATM   35  F3  UNL     1     -11.943 -52.487 -55.055  1.00  0.00    -0.171 F 
ENDBRANCH  23  32
ENDBRANCH   3  22
TORSDOF 8
ENDMDL
MODEL 4
REMARK VINA RESULT: -7.961855048      3.347      8.683
REMARK  8 active torsions:
REMARK  status: ('A' for Active; 'I' for Inactive)
REMARK    1  A    between atoms: C2_2  and  C4_4 
REMARK    2  A    between atoms: C4_4  and  C5_5 
REMARK    3  A    between atoms: C4_4  and  N2_12 
REMARK    4  A    between atoms: C5_5  and  O1_6 
REMARK    5  A    between atoms: N1_8  and  O2_10 
REMARK    6  A    between atoms: C8_15  and  N3_16 
REMARK       I    between atoms: N3_16  and  C9_18 
REMARK    7  A    between atoms: C9_18  and  C10_20 
REMARK    8  A    between atoms: C11_21  and  C12_22 
ROOT
HETATM    1  N3  UNL     1     -11.812 -45.503 -56.738  1.00  0.00    -0.356 N 
ATOM      2  H3  UNL     1     -12.087 -45.280 -55.782  1.00  0.00     0.162 HD
HETATM    3  C9  UNL     1     -12.822 -45.890 -57.655  1.00  0.00     0.223 C 
HETATM    4  O3  UNL     1     -12.424 -46.157 -58.840  1.00  0.00    -0.273 OA
ENDROOT
BRANCH   1   5
HETATM    5  C8  UNL     1     -10.424 -45.409 -57.086  1.00  0.00     0.087 C 
HETATM    6  C7  UNL     1      -9.827 -46.795 -57.212  1.00  0.00     0.055 C 
HETATM    7  C6  UNL     1      -8.311 -46.721 -57.403  1.00  0.00     0.275 C 
HETATM    8  N2  UNL     1      -8.017 -45.309 -57.575  1.00  0.00     0.101 N 
HETATM    9  C22 UNL     1      -8.719 -44.873 -58.735  1.00  0.00     0.275 C 
HETATM   10  C21 UNL     1     -10.165 -44.606 -58.324  1.00  0.00     0.055 C 
BRANCH   8  11
HETATM   11  C4  UNL     1      -6.623 -45.044 -57.513  1.00  0.00     0.301 C 
BRANCH  11  12
HETATM   12  C2  UNL     1      -5.928 -45.571 -56.278  1.00  0.00     0.019 C 
HETATM   13  C1  UNL     1      -6.492 -44.886 -55.026  1.00  0.00     0.012 C 
HETATM   14  C3  UNL     1      -4.451 -45.328 -56.250  1.00  0.00     0.012 C 
ENDBRANCH  11  12
BRANCH  11  15
HETATM   15  C5  UNL     1      -5.880 -45.308 -58.760  1.00  0.00     0.170 C 
HETATM   16  N1  UNL     1      -5.661 -46.492 -59.204  1.00  0.00    -0.249 N 
ATOM     17  H1  UNL     1      -6.014 -47.292 -58.678  1.00  0.00     0.196 HD
BRANCH  15  18
HETATM   18  O1  UNL     1      -5.394 -44.218 -59.487  1.00  0.00    -0.346 OA
ATOM     19  H1  UNL     1      -5.821 -43.994 -60.306  1.00  0.00     0.219 HD
ENDBRANCH  15  18
BRANCH  16  20
HETATM   20  O2  UNL     1      -4.976 -46.709 -60.352  1.00  0.00    -0.288 OA
ATOM     21  H2  UNL     1      -4.147 -47.173 -60.360  1.00  0.00     0.244 HD
ENDBRANCH  16  20
ENDBRANCH  11  15
ENDBRANCH   8  11
ENDBRANCH   1   5
BRANCH   3  22
HETATM   22  C10 UNL     1     -14.247 -45.995 -57.324  1.00  0.00     0.098 C 
HETATM   23  C11 UNL     1     -14.694 -44.875 -56.430  1.00  0.00     0.108 C 
HETATM   24  C13 UNL     1     -16.001 -45.124 -55.746  1.00  0.00     0.023 C 
HETATM   25  C14 UNL     1     -16.063 -46.428 -55.009  1.00  0.00    -0.046 C 
HETATM   26  C15 UNL     1     -17.428 -47.070 -55.252  1.00  0.00     0.015 C 
HETATM   27  C16 UNL     1     -16.006 -46.188 -53.491  1.00  0.00     0.015 C 
HETATM   28  C17 UNL     1     -14.942 -47.358 -55.327  1.00  0.00     0.018 C 
HETATM   29  C18 UNL     1     -14.531 -47.359 -56.778  1.00  0.00    -0.034 C 
HETATM   30  C19 UNL     1     -15.643 -48.032 -57.597  1.00  0.00     0.015 C 
HETATM   31  C20 UNL     1     -13.349 -48.311 -56.880  1.00  0.00     0.015 C 
BRANCH  23  32
HETATM   32  C12 UNL     1     -14.888 -43.639 -57.311  1.00  0.00     0.392 C 
HETATM   33  F1  UNL     1     -15.613 -42.671 -56.630  1.00  0.00    -0.171 F 
HETATM   34  F2  UNL     1     -15.606 -43.940 -58.446  1.00  0.00    -0.171 F 
HETATM   35  F3  UNL     1     -13.668 -43.059 -57.610  1.00  0.00    -0.171 F 
ENDBRANCH  23  32
ENDBRANCH   3  22
TORSDOF 8
ENDMDL
MODEL 5
REMARK VINA RESULT: -7.933609179      2.361      2.938
REMARK  8 active torsions:
REMARK  status: ('A' for Active; 'I' for Inactive)
REMARK    1  A    between atoms: C2_2  and  C4_4 
REMARK    2  A    between atoms: C4_4  and  C5_5 
REMARK    3  A    between atoms: C4_4  and  N2_12 
REMARK    4  A    between atoms: C5_5  and  O1_6 
REMARK    5  A    between atoms: N1_8  and  O2_10 
REMARK    6  A    between atoms: C8_15  and  N3_16 
REMARK       I    between atoms: N3_16  and  C9_18 
REMARK    7  A    between atoms: C9_18  and  C10_20 
REMARK    8  A    between atoms: C11_21  and  C12_22 
ROOT
HETATM    1  N3  UNL     1     -11.263 -45.994 -58.333  1.00  0.00    -0.356 N 
ATOM      2  H3  UNL     1     -11.120 -46.429 -59.244  1.00  0.00     0.162 HD
HETATM    3  C9  UNL     1     -10.204 -45.233 -57.778  1.00  0.00     0.223 C 
HETATM    4  O3  UNL     1     -10.437 -44.708 -56.635  1.00  0.00    -0.273 OA
ENDROOT
BRANCH   1   5
HETATM    5  C8  UNL     1     -12.527 -46.184 -57.681  1.00  0.00     0.087 C 
HETATM    6  C7  UNL     1     -13.655 -45.832 -58.628  1.00  0.00     0.055 C 
HETATM    7  C6  UNL     1     -15.002 -45.851 -57.904  1.00  0.00     0.275 C 
HETATM    8  N2  UNL     1     -14.717 -46.386 -56.584  1.00  0.00     0.101 N 
HETATM    9  C22 UNL     1     -14.195 -47.699 -56.767  1.00  0.00     0.275 C 
HETATM   10  C21 UNL     1     -12.716 -47.560 -57.120  1.00  0.00     0.055 C 
BRANCH   8  11
HETATM   11  C4  UNL     1     -15.817 -46.235 -55.699  1.00  0.00     0.301 C 
BRANCH  11  12
HETATM   12  C2  UNL     1     -16.403 -47.530 -55.183  1.00  0.00     0.019 C 
HETATM   13  C1  UNL     1     -17.194 -48.228 -56.296  1.00  0.00     0.012 C 
HETATM   14  C3  UNL     1     -17.358 -47.362 -54.042  1.00  0.00     0.012 C 
ENDBRANCH  11  12
BRANCH  11  15
HETATM   15  C5  UNL     1     -15.640 -45.213 -54.648  1.00  0.00     0.170 C 
HETATM   16  N1  UNL     1     -14.907 -45.399 -53.612  1.00  0.00    -0.249 N 
ATOM     17  H1  UNL     1     -14.422 -46.290 -53.501  1.00  0.00     0.196 HD
BRANCH  15  18
HETATM   18  O1  UNL     1     -16.300 -43.990 -54.793  1.00  0.00    -0.346 OA
ATOM     19  H1  UNL     1     -16.583 -43.729 -55.661  1.00  0.00     0.219 HD
ENDBRANCH  15  18
BRANCH  16  20
HETATM   20  O2  UNL     1     -14.759 -44.446 -52.661  1.00  0.00    -0.288 OA
ATOM     21  H2  UNL     1     -13.950 -43.959 -52.561  1.00  0.00     0.244 HD
ENDBRANCH  16  20
ENDBRANCH  11  15
ENDBRANCH   8  11
ENDBRANCH   1   5
BRANCH   3  22
HETATM   22  C10 UNL     1      -8.904 -45.026 -58.423  1.00  0.00     0.098 C 
HETATM   23  C11 UNL     1      -9.028 -44.972 -59.919  1.00  0.00     0.108 C 
HETATM   24  C13 UNL     1      -7.734 -45.156 -60.647  1.00  0.00     0.023 C 
HETATM   25  C14 UNL     1      -6.973 -46.380 -60.236  1.00  0.00    -0.046 C 
HETATM   26  C15 UNL     1      -5.490 -46.030 -60.129  1.00  0.00     0.015 C 
HETATM   27  C16 UNL     1      -7.046 -47.450 -61.339  1.00  0.00     0.015 C 
HETATM   28  C17 UNL     1      -7.488 -47.026 -58.994  1.00  0.00     0.018 C 
HETATM   29  C18 UNL     1      -7.935 -46.054 -57.931  1.00  0.00    -0.034 C 
HETATM   30  C19 UNL     1      -6.690 -45.367 -57.348  1.00  0.00     0.015 C 
HETATM   31  C20 UNL     1      -8.476 -46.900 -56.788  1.00  0.00     0.015 C 
BRANCH  23  32
HETATM   32  C12 UNL     1      -9.543 -43.578 -60.283  1.00  0.00     0.392 C 
HETATM   33  F1  UNL     1      -9.210 -43.269 -61.594  1.00  0.00    -0.171 F 
HETATM   34  F2  UNL     1      -8.966 -42.609 -59.494  1.00  0.00    -0.171 F 
HETATM   35  F3  UNL     1     -10.924 -43.539 -60.222  1.00  0.00    -0.171 F 
ENDBRANCH  23  32
ENDBRANCH   3  22
TORSDOF 8
ENDMDL
