MODEL 1
REMARK VINA RESULT: -7.534752536      0.000      0.000
REMARK  7 active torsions:
REMARK  status: ('A' for Active; 'I' for Inactive)
REMARK    1  A    between atoms: C2_2  and  C3_3 
REMARK    2  A    between atoms: C3_3  and  N1_4 
REMARK    3  A    between atoms: C3_3  and  C13_17 
REMARK    4  A    between atoms: N1_4  and  C4_6 
REMARK    5  A    between atoms: C13_17  and  O1_18 
REMARK    6  A    between atoms: C13_17  and  C14_20 
REMARK    7  A    between atoms: C18_28  and  O3_29 
ROOT
HETATM    1  C3  UNL     1     -12.945 -47.052 -57.619  1.00  0.00     0.134 C 
ENDROOT
BRANCH   1   2
HETATM    2  C2  UNL     1     -12.944 -48.569 -57.413  1.00  0.00     0.027 C 
HETATM    3  C1  UNL     1     -13.092 -49.340 -58.701  1.00  0.00     0.007 C 
ENDBRANCH   1   2
BRANCH   1   4
HETATM    4  N1  UNL     1     -11.982 -46.421 -56.772  1.00  0.00    -0.402 N 
ATOM      5  H1  UNL     1     -12.263 -46.228 -55.810  1.00  0.00     0.154 HD
BRANCH   4   6
HETATM    6  C4  UNL     1     -10.708 -46.050 -57.143  1.00  0.00     0.034 C 
HETATM    7  C5  UNL     1     -10.452 -45.282 -58.382  1.00  0.00     0.074 C 
HETATM    8  C6  UNL     1      -9.041 -45.773 -58.765  1.00  0.00     0.107 C 
HETATM    9  F1  UNL     1      -8.673 -45.319 -59.989  1.00  0.00    -0.243 F 
HETATM   10  C7  UNL     1      -9.312 -47.262 -58.733  1.00  0.00     0.050 C 
HETATM   11  C11 UNL     1      -8.085 -45.336 -57.681  1.00  0.00     0.064 C 
HETATM   12  C8  UNL     1      -9.933 -47.370 -57.358  1.00  0.00     0.018 C 
HETATM   13  C9  UNL     1      -8.788 -47.343 -56.369  1.00  0.00     0.028 C 
HETATM   14  C10 UNL     1      -8.514 -45.837 -56.345  1.00  0.00     0.024 C 
HETATM   15 BR1  UNL     1      -7.263 -45.360 -54.972  1.00  0.00    -0.085 Br
HETATM   16  C12 UNL     1      -9.913 -45.345 -56.041  1.00  0.00     0.052 C 
ENDBRANCH   4   6
ENDBRANCH   1   4
BRANCH   1  17
HETATM   17  C13 UNL     1     -14.251 -46.506 -57.243  1.00  0.00     0.080 C 
BRANCH  17  18
HETATM   18  O1  UNL     1     -14.746 -45.799 -58.229  1.00  0.00    -0.362 OA
ATOM     19  H1  UNL     1     -15.691 -45.893 -58.258  1.00  0.00     0.217 HD
ENDBRANCH  17  18
BRANCH  17  20
HETATM   20  C14 UNL     1     -15.079 -46.559 -56.094  1.00  0.00     0.057 A 
HETATM   21  C15 UNL     1     -16.103 -47.441 -55.908  1.00  0.00     0.065 A 
HETATM   22 CL1  UNL     1     -16.577 -48.677 -57.082  1.00  0.00    -0.082 Cl
HETATM   23  C16 UNL     1     -16.865 -47.348 -54.739  1.00  0.00     0.116 A 
HETATM   24  N2  UNL     1     -16.649 -46.436 -53.782  1.00  0.00    -0.330 N 
HETATM   25  C17 UNL     1     -15.645 -45.552 -53.940  1.00  0.00     0.279 A 
ATOM     26  H2  UNL     1     -17.234 -46.411 -52.947  1.00  0.00     0.168 HD
HETATM   27  O2  UNL     1     -15.434 -44.689 -53.045  1.00  0.00    -0.265 OA
HETATM   28  C18 UNL     1     -14.877 -45.610 -55.068  1.00  0.00     0.148 A 
BRANCH  28  29
HETATM   29  O3  UNL     1     -13.856 -44.667 -55.168  1.00  0.00    -0.355 OA
ATOM     30  H3  UNL     1     -13.028 -44.894 -55.574  1.00  0.00     0.218 HD
ENDBRANCH  28  29
ENDBRANCH  17  20
ENDBRANCH   1  17
TORSDOF 7
ENDMDL
MODEL 2
REMARK VINA RESULT: -7.378201371      3.983      6.718
REMARK  7 active torsions:
REMARK  status: ('A' for Active; 'I' for Inactive)
REMARK    1  A    between atoms: C2_2  and  C3_3 
REMARK    2  A    between atoms: C3_3  and  N1_4 
REMARK    3  A    between atoms: C3_3  and  C13_17 
REMARK    4  A    between atoms: N1_4  and  C4_6 
REMARK    5  A    between atoms: C13_17  and  O1_18 
REMARK    6  A    between atoms: C13_17  and  C14_20 
REMARK    7  A    between atoms: C18_28  and  O3_29 
ROOT
HETATM    1  C3  UNL     1     -10.411 -46.982 -56.709  1.00  0.00     0.134 C 
ENDROOT
BRANCH   1   2
HETATM    2  C2  UNL     1      -9.556 -48.206 -57.046  1.00  0.00     0.027 C 
HETATM    3  C1  UNL     1     -10.343 -49.494 -57.046  1.00  0.00     0.007 C 
ENDBRANCH   1   2
BRANCH   1   4
HETATM    4  N1  UNL     1     -11.125 -46.526 -57.861  1.00  0.00    -0.402 N 
ATOM      5  H1  UNL     1     -10.576 -46.298 -58.689  1.00  0.00     0.154 HD
BRANCH   4   6
HETATM    6  C4  UNL     1     -12.491 -46.368 -57.947  1.00  0.00     0.034 C 
HETATM    7  C5  UNL     1     -13.272 -46.945 -59.065  1.00  0.00     0.074 C 
HETATM    8  C6  UNL     1     -14.435 -45.939 -59.183  1.00  0.00     0.107 C 
HETATM    9  F1  UNL     1     -15.193 -46.184 -60.280  1.00  0.00    -0.243 F 
HETATM   10  C7  UNL     1     -13.616 -44.670 -59.289  1.00  0.00     0.050 C 
HETATM   11  C11 UNL     1     -15.239 -46.004 -57.907  1.00  0.00     0.064 C 
HETATM   12  C8  UNL     1     -12.731 -44.847 -58.074  1.00  0.00     0.018 C 
HETATM   13  C9  UNL     1     -13.568 -44.458 -56.876  1.00  0.00     0.028 C 
HETATM   14  C10 UNL     1     -14.384 -45.743 -56.714  1.00  0.00     0.024 C 
HETATM   15 BR1  UNL     1     -15.410 -45.738 -55.093  1.00  0.00    -0.085 Br
HETATM   16  C12 UNL     1     -13.249 -46.743 -56.671  1.00  0.00     0.052 C 
ENDBRANCH   4   6
ENDBRANCH   1   4
BRANCH   1  17
HETATM   17  C13 UNL     1      -9.546 -45.876 -56.293  1.00  0.00     0.080 C 
BRANCH  17  18
HETATM   18  O1  UNL     1     -10.238 -44.988 -55.622  1.00  0.00    -0.362 OA
ATOM     19  H1  UNL     1      -9.660 -44.324 -55.266  1.00  0.00     0.217 HD
ENDBRANCH  17  18
BRANCH  17  20
HETATM   20  C14 UNL     1      -8.175 -45.551 -56.443  1.00  0.00     0.057 A 
HETATM   21  C15 UNL     1      -7.529 -45.414 -57.637  1.00  0.00     0.065 A 
HETATM   22 CL1  UNL     1      -8.301 -45.622 -59.215  1.00  0.00    -0.082 Cl
HETATM   23  C16 UNL     1      -6.159 -45.132 -57.630  1.00  0.00     0.116 A 
HETATM   24  N2  UNL     1      -5.435 -44.988 -56.512  1.00  0.00    -0.330 N 
HETATM   25  C17 UNL     1      -6.047 -45.120 -55.320  1.00  0.00     0.279 A 
ATOM     26  H2  UNL     1      -4.438 -44.782 -56.563  1.00  0.00     0.168 HD
HETATM   27  O2  UNL     1      -5.374 -44.988 -54.262  1.00  0.00    -0.265 OA
HETATM   28  C18 UNL     1      -7.384 -45.395 -55.283  1.00  0.00     0.148 A 
BRANCH  28  29
HETATM   29  O3  UNL     1      -7.954 -45.519 -54.017  1.00  0.00    -0.355 OA
ATOM     30  H3  UNL     1      -7.470 -45.258 -53.243  1.00  0.00     0.218 HD
ENDBRANCH  28  29
ENDBRANCH  17  20
ENDBRANCH   1  17
TORSDOF 7
ENDMDL
MODEL 3
REMARK VINA RESULT: -7.290717882      3.166      4.500
REMARK  7 active torsions:
REMARK  status: ('A' for Active; 'I' for Inactive)
REMARK    1  A    between atoms: C2_2  and  C3_3 
REMARK    2  A    between atoms: C3_3  and  N1_4 
REMARK    3  A    between atoms: C3_3  and  C13_17 
REMARK    4  A    between atoms: N1_4  and  C4_6 
REMARK    5  A    between atoms: C13_17  and  O1_18 
REMARK    6  A    between atoms: C13_17  and  C14_20 
REMARK    7  A    between atoms: C18_28  and  O3_29 
ROOT
HETATM    1  C3  UNL     1     -13.936 -46.137 -56.406  1.00  0.00     0.134 C 
ENDROOT
BRANCH   1   2
HETATM    2  C2  UNL     1     -12.979 -44.945 -56.331  1.00  0.00     0.027 C 
HETATM    3  C1  UNL     1     -11.535 -45.334 -56.527  1.00  0.00     0.007 C 
ENDBRANCH   1   2
BRANCH   1   4
HETATM    4  N1  UNL     1     -14.309 -46.408 -57.759  1.00  0.00    -0.402 N 
ATOM      5  H1  UNL     1     -14.889 -45.713 -58.230  1.00  0.00     0.154 HD
BRANCH   4   6
HETATM    6  C4  UNL     1     -13.954 -47.526 -58.481  1.00  0.00     0.034 C 
HETATM    7  C5  UNL     1     -13.461 -48.755 -57.819  1.00  0.00     0.074 C 
HETATM    8  C6  UNL     1     -12.521 -49.333 -58.895  1.00  0.00     0.107 C 
HETATM    9  F1  UNL     1     -11.815 -50.389 -58.423  1.00  0.00    -0.243 F 
HETATM   10  C7  UNL     1     -11.674 -48.100 -59.130  1.00  0.00     0.050 C 
HETATM   11  C11 UNL     1     -13.358 -49.697 -60.099  1.00  0.00     0.064 C 
HETATM   12  C8  UNL     1     -12.773 -47.090 -59.378  1.00  0.00     0.018 C 
HETATM   13  C9  UNL     1     -13.234 -47.302 -60.802  1.00  0.00     0.028 C 
HETATM   14  C10 UNL     1     -14.133 -48.525 -60.595  1.00  0.00     0.024 C 
HETATM   15 BR1  UNL     1     -15.134 -48.951 -62.174  1.00  0.00    -0.085 Br
HETATM   16  C12 UNL     1     -15.013 -47.989 -59.486  1.00  0.00     0.052 C 
ENDBRANCH   4   6
ENDBRANCH   1   4
BRANCH   1  17
HETATM   17  C13 UNL     1     -15.173 -45.821 -55.689  1.00  0.00     0.080 C 
BRANCH  17  18
HETATM   18  O1  UNL     1     -15.639 -44.660 -56.082  1.00  0.00    -0.362 OA
ATOM     19  H1  UNL     1     -16.144 -44.258 -55.385  1.00  0.00     0.217 HD
ENDBRANCH  17  18
BRANCH  17  20
HETATM   20  C14 UNL     1     -15.961 -46.458 -54.698  1.00  0.00     0.057 A 
HETATM   21  C15 UNL     1     -16.741 -47.558 -54.905  1.00  0.00     0.065 A 
HETATM   22 CL1  UNL     1     -16.904 -48.382 -56.462  1.00  0.00    -0.082 Cl
HETATM   23  C16 UNL     1     -17.500 -48.052 -53.840  1.00  0.00     0.116 A 
HETATM   24  N2  UNL     1     -17.508 -47.506 -52.617  1.00  0.00    -0.330 N 
HETATM   25  C17 UNL     1     -16.749 -46.419 -52.385  1.00  0.00     0.279 A 
ATOM     26  H2  UNL     1     -18.080 -47.907 -51.874  1.00  0.00     0.168 HD
HETATM   27  O2  UNL     1     -16.751 -45.897 -51.237  1.00  0.00    -0.265 OA
HETATM   28  C18 UNL     1     -15.992 -45.904 -53.399  1.00  0.00     0.148 A 
BRANCH  28  29
HETATM   29  O3  UNL     1     -15.230 -44.779 -53.091  1.00  0.00    -0.355 OA
ATOM     30  H3  UNL     1     -15.497 -44.192 -52.394  1.00  0.00     0.218 HD
ENDBRANCH  28  29
ENDBRANCH  17  20
ENDBRANCH   1  17
TORSDOF 7
ENDMDL
MODEL 4
REMARK VINA RESULT: -7.239770389      4.239      6.994
REMARK  7 active torsions:
REMARK  status: ('A' for Active; 'I' for Inactive)
REMARK    1  A    between atoms: C2_2  and  C3_3 
REMARK    2  A    between atoms: C3_3  and  N1_4 
REMARK    3  A    between atoms: C3_3  and  C13_17 
REMARK    4  A    between atoms: N1_4  and  C4_6 
REMARK    5  A    between atoms: C13_17  and  O1_18 
REMARK    6  A    between atoms: C13_17  and  C14_20 
REMARK    7  A    between atoms: C18_28  and  O3_29 
ROOT
HETATM    1  C3  UNL     1     -10.325 -46.821 -56.558  1.00  0.00     0.134 C 
ENDROOT
BRANCH   1   2
HETATM    2  C2  UNL     1      -9.546 -48.048 -57.037  1.00  0.00     0.027 C 
HETATM    3  C1  UNL     1     -10.303 -49.339 -56.844  1.00  0.00     0.007 C 
ENDBRANCH   1   2
BRANCH   1   4
HETATM    4  N1  UNL     1     -11.099 -46.261 -57.622  1.00  0.00    -0.402 N 
ATOM      5  H1  UNL     1     -10.612 -46.054 -58.494  1.00  0.00     0.154 HD
BRANCH   4   6
HETATM    6  C4  UNL     1     -12.446 -45.976 -57.570  1.00  0.00     0.034 C 
HETATM    7  C5  UNL     1     -13.045 -45.255 -56.425  1.00  0.00     0.074 C 
HETATM    8  C6  UNL     1     -14.472 -45.838 -56.402  1.00  0.00     0.107 C 
HETATM    9  F1  UNL     1     -15.155 -45.436 -55.302  1.00  0.00    -0.243 F 
HETATM   10  C7  UNL     1     -14.107 -47.307 -56.381  1.00  0.00     0.050 C 
HETATM   11  C11 UNL     1     -15.162 -45.432 -57.683  1.00  0.00     0.064 C 
HETATM   12  C8  UNL     1     -13.165 -47.344 -57.563  1.00  0.00     0.018 C 
HETATM   13  C9  UNL     1     -14.033 -47.362 -58.801  1.00  0.00     0.028 C 
HETATM   14  C10 UNL     1     -14.389 -45.874 -58.878  1.00  0.00     0.024 C 
HETATM   15 BR1  UNL     1     -15.296 -45.440 -60.512  1.00  0.00    -0.085 Br
HETATM   16  C12 UNL     1     -12.993 -45.292 -58.827  1.00  0.00     0.052 C 
ENDBRANCH   4   6
ENDBRANCH   1   4
BRANCH   1  17
HETATM   17  C13 UNL     1      -9.388 -45.779 -56.133  1.00  0.00     0.080 C 
BRANCH  17  18
HETATM   18  O1  UNL     1      -9.995 -44.915 -55.355  1.00  0.00    -0.362 OA
ATOM     19  H1  UNL     1      -9.690 -44.036 -55.541  1.00  0.00     0.217 HD
ENDBRANCH  17  18
BRANCH  17  20
HETATM   20  C14 UNL     1      -8.019 -45.493 -56.360  1.00  0.00     0.057 A 
HETATM   21  C15 UNL     1      -7.441 -45.357 -57.589  1.00  0.00     0.065 A 
HETATM   22 CL1  UNL     1      -8.311 -45.520 -59.120  1.00  0.00    -0.082 Cl
HETATM   23  C16 UNL     1      -6.066 -45.117 -57.660  1.00  0.00     0.116 A 
HETATM   24  N2  UNL     1      -5.273 -45.011 -56.585  1.00  0.00    -0.330 N 
HETATM   25  C17 UNL     1      -5.817 -45.142 -55.360  1.00  0.00     0.279 A 
ATOM     26  H2  UNL     1      -4.274 -44.835 -56.692  1.00  0.00     0.168 HD
HETATM   27  O2  UNL     1      -5.079 -45.045 -54.342  1.00  0.00    -0.265 OA
HETATM   28  C18 UNL     1      -7.157 -45.377 -55.247  1.00  0.00     0.148 A 
BRANCH  28  29
HETATM   29  O3  UNL     1      -7.655 -45.502 -53.951  1.00  0.00    -0.355 OA
ATOM     30  H3  UNL     1      -7.485 -44.829 -53.303  1.00  0.00     0.218 HD
ENDBRANCH  28  29
ENDBRANCH  17  20
ENDBRANCH   1  17
TORSDOF 7
ENDMDL
MODEL 5
REMARK VINA RESULT: -7.218978110      3.115      4.142
REMARK  7 active torsions:
REMARK  status: ('A' for Active; 'I' for Inactive)
REMARK    1  A    between atoms: C2_2  and  C3_3 
REMARK    2  A    between atoms: C3_3  and  N1_4 
REMARK    3  A    between atoms: C3_3  and  C13_17 
REMARK    4  A    between atoms: N1_4  and  C4_6 
REMARK    5  A    between atoms: C13_17  and  O1_18 
REMARK    6  A    between atoms: C13_17  and  C14_20 
REMARK    7  A    between atoms: C18_28  and  O3_29 
ROOT
HETATM    1  C3  UNL     1     -13.771 -45.927 -56.252  1.00  0.00     0.134 C 
ENDROOT
BRANCH   1   2
HETATM    2  C2  UNL     1     -13.136 -44.549 -56.459  1.00  0.00     0.027 C 
HETATM    3  C1  UNL     1     -12.910 -44.216 -57.913  1.00  0.00     0.007 C 
ENDBRANCH   1   2
BRANCH   1   4
HETATM    4  N1  UNL     1     -13.899 -46.621 -57.495  1.00  0.00    -0.402 N 
ATOM      5  H1  UNL     1     -14.450 -46.172 -58.226  1.00  0.00     0.154 HD
BRANCH   4   6
HETATM    6  C4  UNL     1     -13.342 -47.846 -57.791  1.00  0.00     0.034 C 
HETATM    7  C5  UNL     1     -13.082 -48.856 -56.740  1.00  0.00     0.074 C 
HETATM    8  C6  UNL     1     -11.857 -49.595 -57.315  1.00  0.00     0.107 C 
HETATM    9  F1  UNL     1     -11.335 -50.466 -56.417  1.00  0.00    -0.243 F 
HETATM   10  C7  UNL     1     -10.975 -48.390 -57.568  1.00  0.00     0.050 C 
HETATM   11  C11 UNL     1     -12.282 -50.279 -58.593  1.00  0.00     0.064 C 
HETATM   12  C8  UNL     1     -11.940 -47.542 -58.367  1.00  0.00     0.018 C 
HETATM   13  C9  UNL     1     -11.939 -48.101 -59.772  1.00  0.00     0.028 C 
HETATM   14  C10 UNL     1     -12.861 -49.306 -59.562  1.00  0.00     0.024 C 
HETATM   15 BR1  UNL     1     -13.327 -50.147 -61.221  1.00  0.00    -0.085 Br
HETATM   16  C12 UNL     1     -14.039 -48.596 -58.929  1.00  0.00     0.052 C 
ENDBRANCH   4   6
ENDBRANCH   1   4
BRANCH   1  17
HETATM   17  C13 UNL     1     -15.127 -45.770 -55.723  1.00  0.00     0.080 C 
BRANCH  17  18
HETATM   18  O1  UNL     1     -15.726 -44.760 -56.307  1.00  0.00    -0.362 OA
ATOM     19  H1  UNL     1     -16.071 -45.028 -57.150  1.00  0.00     0.217 HD
ENDBRANCH  17  18
BRANCH  17  20
HETATM   20  C14 UNL     1     -15.920 -46.433 -54.754  1.00  0.00     0.057 A 
HETATM   21  C15 UNL     1     -16.676 -47.544 -54.988  1.00  0.00     0.065 A 
HETATM   22 CL1  UNL     1     -16.797 -48.351 -56.557  1.00  0.00    -0.082 Cl
HETATM   23  C16 UNL     1     -17.443 -48.066 -53.942  1.00  0.00     0.116 A 
HETATM   24  N2  UNL     1     -17.482 -47.536 -52.713  1.00  0.00    -0.330 N 
HETATM   25  C17 UNL     1     -16.747 -46.438 -52.454  1.00  0.00     0.279 A 
ATOM     26  H2  UNL     1     -18.059 -47.957 -51.984  1.00  0.00     0.168 HD
HETATM   27  O2  UNL     1     -16.778 -45.931 -51.300  1.00  0.00    -0.265 OA
HETATM   28  C18 UNL     1     -15.983 -45.897 -53.448  1.00  0.00     0.148 A 
BRANCH  28  29
HETATM   29  O3  UNL     1     -15.247 -44.762 -53.113  1.00  0.00    -0.355 OA
ATOM     30  H3  UNL     1     -15.557 -44.168 -52.440  1.00  0.00     0.218 HD
ENDBRANCH  28  29
ENDBRANCH  17  20
ENDBRANCH   1  17
TORSDOF 7
ENDMDL
