MODEL 1
REMARK VINA RESULT: -7.593070179      0.000      0.000
REMARK  8 active torsions:
REMARK  status: ('A' for Active; 'I' for Inactive)
REMARK    1  A    between atoms: C2_2  and  N1_3 
REMARK    2  A    between atoms: C2_2  and  C18_30 
REMARK    3  A    between atoms: N1_3  and  C3_5 
REMARK    4  A    between atoms: C3_5  and  O1_7 
REMARK    5  A    between atoms: O1_7  and  C4_8 
REMARK    6  A    between atoms: C9_13  and  N2_14 
REMARK       I    between atoms: N2_14  and  C10_16 
REMARK       I    between atoms: C10_16  and  N3_18 
REMARK    7  A    between atoms: N3_18  and  C11_20 
REMARK    8  A    between atoms: C15_24  and  C16_25 
ROOT
HETATM    1  C4  UNL     1     -14.635 -46.364 -57.642  1.00  0.00     0.154 C 
HETATM    2  C5  UNL     1     -14.710 -47.301 -56.515  1.00  0.00     0.034 C 
HETATM    3  C6  UNL     1     -15.509 -46.772 -55.359  1.00  0.00     0.003 C 
HETATM    4  C7  UNL     1     -15.656 -45.301 -55.248  1.00  0.00     0.002 C 
HETATM    5  C8  UNL     1     -15.155 -44.434 -56.325  1.00  0.00     0.028 C 
HETATM    6  C9  UNL     1     -14.010 -45.063 -57.163  1.00  0.00     0.115 C 
ENDROOT
BRANCH   6   7
HETATM    7  N2  UNL     1     -12.923 -45.179 -56.259  1.00  0.00    -0.336 N 
HETATM    8  C10 UNL     1     -11.542 -45.247 -56.744  1.00  0.00     0.321 C 
HETATM    9  O2  UNL     1     -11.320 -45.263 -57.964  1.00  0.00    -0.247 OA
HETATM   10  N3  UNL     1     -10.516 -45.289 -55.810  1.00  0.00    -0.309 N 
ATOM     11  H3  UNL     1     -10.887 -45.172 -54.867  1.00  0.00     0.170 HD
ATOM     12  H2  UNL     1     -13.105 -45.215 -55.256  1.00  0.00     0.164 HD
BRANCH  10  13
HETATM   13  C11 UNL     1      -9.147 -45.439 -55.774  1.00  0.00     0.037 A 
HETATM   14  C12 UNL     1      -8.477 -45.584 -54.538  1.00  0.00     0.029 A 
HETATM   15  C13 UNL     1      -7.113 -45.640 -54.445  1.00  0.00     0.003 A 
HETATM   16  C14 UNL     1      -6.353 -45.554 -55.578  1.00  0.00     0.016 A 
HETATM   17  C15 UNL     1      -6.967 -45.416 -56.795  1.00  0.00     0.050 A 
HETATM   18  C17 UNL     1      -8.351 -45.360 -56.883  1.00  0.00     0.045 A 
BRANCH  17  19
HETATM   19  C16 UNL     1      -6.083 -45.301 -57.990  1.00  0.00     0.417 C 
HETATM   20  F1  UNL     1      -4.754 -45.276 -57.557  1.00  0.00    -0.166 F 
HETATM   21  F2  UNL     1      -6.223 -46.499 -58.702  1.00  0.00    -0.166 F 
HETATM   22  F3  UNL     1      -6.371 -44.214 -58.770  1.00  0.00    -0.166 F 
ENDBRANCH  17  19
ENDBRANCH  10  13
ENDBRANCH   6   7
BRANCH   1  23
HETATM   23  O1  UNL     1     -14.365 -46.767 -58.889  1.00  0.00    -0.320 OA
BRANCH  23  24
HETATM   24  C3  UNL     1     -13.558 -47.844 -59.304  1.00  0.00     0.210 C 
HETATM   25  S1  UNL     1     -14.291 -48.783 -60.409  1.00  0.00    -0.033 SA
BRANCH  24  26
HETATM   26  N1  UNL     1     -12.280 -48.089 -58.837  1.00  0.00    -0.356 N 
ATOM     27  H1  UNL     1     -11.770 -47.208 -58.771  1.00  0.00     0.162 HD
BRANCH  26  28
HETATM   28  C2  UNL     1     -11.450 -49.133 -58.427  1.00  0.00     0.087 C 
HETATM   29  C1  UNL     1     -11.951 -49.571 -56.986  1.00  0.00     0.033 C 
BRANCH  28  30
HETATM   30  C18 UNL     1      -9.986 -49.099 -58.278  1.00  0.00    -0.031 C 
HETATM   31  C19 UNL     1      -9.727 -48.787 -56.740  1.00  0.00     0.016 C 
HETATM   32  C20 UNL     1      -9.262 -48.032 -59.008  1.00  0.00     0.016 C 
HETATM   33  C21 UNL     1      -9.272 -50.446 -58.393  1.00  0.00     0.016 C 
ENDBRANCH  28  30
ENDBRANCH  26  28
ENDBRANCH  24  26
ENDBRANCH  23  24
ENDBRANCH   1  23
TORSDOF 8
ENDMDL
MODEL 2
REMARK VINA RESULT: -7.510667788      0.139      1.071
REMARK  8 active torsions:
REMARK  status: ('A' for Active; 'I' for Inactive)
REMARK    1  A    between atoms: C2_2  and  N1_3 
REMARK    2  A    between atoms: C2_2  and  C18_30 
REMARK    3  A    between atoms: N1_3  and  C3_5 
REMARK    4  A    between atoms: C3_5  and  O1_7 
REMARK    5  A    between atoms: O1_7  and  C4_8 
REMARK    6  A    between atoms: C9_13  and  N2_14 
REMARK       I    between atoms: N2_14  and  C10_16 
REMARK       I    between atoms: C10_16  and  N3_18 
REMARK    7  A    between atoms: N3_18  and  C11_20 
REMARK    8  A    between atoms: C15_24  and  C16_25 
ROOT
HETATM    1  C4  UNL     1     -14.649 -46.353 -57.654  1.00  0.00     0.154 C 
HETATM    2  C5  UNL     1     -14.704 -47.329 -56.560  1.00  0.00     0.034 C 
HETATM    3  C6  UNL     1     -15.511 -46.855 -55.385  1.00  0.00     0.003 C 
HETATM    4  C7  UNL     1     -15.684 -45.392 -55.223  1.00  0.00     0.002 C 
HETATM    5  C8  UNL     1     -15.202 -44.480 -56.270  1.00  0.00     0.028 C 
HETATM    6  C9  UNL     1     -14.048 -45.057 -57.131  1.00  0.00     0.115 C 
ENDROOT
BRANCH   6   7
HETATM    7  N2  UNL     1     -12.957 -45.184 -56.233  1.00  0.00    -0.336 N 
HETATM    8  C10 UNL     1     -11.578 -45.248 -56.725  1.00  0.00     0.321 C 
HETATM    9  O2  UNL     1     -11.361 -45.250 -57.946  1.00  0.00    -0.247 OA
HETATM   10  N3  UNL     1     -10.548 -45.300 -55.796  1.00  0.00    -0.309 N 
ATOM     11  H3  UNL     1     -10.915 -45.194 -54.850  1.00  0.00     0.170 HD
ATOM     12  H2  UNL     1     -13.134 -45.231 -55.230  1.00  0.00     0.164 HD
BRANCH  10  13
HETATM   13  C11 UNL     1      -9.179 -45.452 -55.768  1.00  0.00     0.037 A 
HETATM   14  C12 UNL     1      -8.498 -45.568 -54.534  1.00  0.00     0.029 A 
HETATM   15  C13 UNL     1      -7.133 -45.623 -54.451  1.00  0.00     0.003 A 
HETATM   16  C14 UNL     1      -6.384 -45.566 -55.592  1.00  0.00     0.016 A 
HETATM   17  C15 UNL     1      -7.008 -45.457 -56.807  1.00  0.00     0.050 A 
HETATM   18  C17 UNL     1      -8.392 -45.401 -56.884  1.00  0.00     0.045 A 
BRANCH  17  19
HETATM   19  C16 UNL     1      -6.133 -45.372 -58.012  1.00  0.00     0.417 C 
HETATM   20  F1  UNL     1      -6.498 -44.240 -58.746  1.00  0.00    -0.166 F 
HETATM   21  F2  UNL     1      -4.838 -45.113 -57.542  1.00  0.00    -0.166 F 
HETATM   22  F3  UNL     1      -6.173 -46.501 -58.786  1.00  0.00    -0.166 F 
ENDBRANCH  17  19
ENDBRANCH  10  13
ENDBRANCH   6   7
BRANCH   1  23
HETATM   23  O1  UNL     1     -14.374 -46.707 -58.915  1.00  0.00    -0.320 OA
BRANCH  23  24
HETATM   24  C3  UNL     1     -13.589 -47.785 -59.368  1.00  0.00     0.210 C 
HETATM   25  S1  UNL     1     -14.375 -48.722 -60.439  1.00  0.00    -0.033 SA
BRANCH  24  26
HETATM   26  N1  UNL     1     -12.291 -48.032 -58.961  1.00  0.00    -0.356 N 
ATOM     27  H1  UNL     1     -11.785 -47.150 -58.892  1.00  0.00     0.162 HD
BRANCH  26  28
HETATM   28  C2  UNL     1     -11.438 -49.081 -58.614  1.00  0.00     0.087 C 
HETATM   29  C1  UNL     1     -12.137 -49.856 -57.418  1.00  0.00     0.033 C 
BRANCH  28  30
HETATM   30  C18 UNL     1     -10.036 -48.978 -58.176  1.00  0.00    -0.031 C 
HETATM   31  C19 UNL     1      -9.387 -50.390 -58.512  1.00  0.00     0.016 C 
HETATM   32  C20 UNL     1      -9.798 -48.785 -56.727  1.00  0.00     0.016 C 
HETATM   33  C21 UNL     1      -9.139 -48.073 -59.021  1.00  0.00     0.016 C 
ENDBRANCH  28  30
ENDBRANCH  26  28
ENDBRANCH  24  26
ENDBRANCH  23  24
ENDBRANCH   1  23
TORSDOF 8
ENDMDL
MODEL 3
REMARK VINA RESULT: -7.446191144      0.735      1.187
REMARK  8 active torsions:
REMARK  status: ('A' for Active; 'I' for Inactive)
REMARK    1  A    between atoms: C2_2  and  N1_3 
REMARK    2  A    between atoms: C2_2  and  C18_30 
REMARK    3  A    between atoms: N1_3  and  C3_5 
REMARK    4  A    between atoms: C3_5  and  O1_7 
REMARK    5  A    between atoms: O1_7  and  C4_8 
REMARK    6  A    between atoms: C9_13  and  N2_14 
REMARK       I    between atoms: N2_14  and  C10_16 
REMARK       I    between atoms: C10_16  and  N3_18 
REMARK    7  A    between atoms: N3_18  and  C11_20 
REMARK    8  A    between atoms: C15_24  and  C16_25 
ROOT
HETATM    1  C4  UNL     1     -14.746 -46.477 -57.498  1.00  0.00     0.154 C 
HETATM    2  C5  UNL     1     -14.881 -47.327 -56.310  1.00  0.00     0.034 C 
HETATM    3  C6  UNL     1     -15.595 -46.648 -55.176  1.00  0.00     0.003 C 
HETATM    4  C7  UNL     1     -15.597 -45.167 -55.162  1.00  0.00     0.002 C 
HETATM    5  C8  UNL     1     -15.043 -44.425 -56.304  1.00  0.00     0.028 C 
HETATM    6  C9  UNL     1     -13.986 -45.215 -57.120  1.00  0.00     0.115 C 
ENDROOT
BRANCH   6   7
HETATM    7  N2  UNL     1     -12.892 -45.378 -56.232  1.00  0.00    -0.336 N 
HETATM    8  C10 UNL     1     -11.510 -45.312 -56.716  1.00  0.00     0.321 C 
HETATM    9  O2  UNL     1     -11.291 -45.170 -57.928  1.00  0.00    -0.247 OA
HETATM   10  N3  UNL     1     -10.482 -45.407 -55.789  1.00  0.00    -0.309 N 
ATOM     11  H3  UNL     1     -10.856 -45.425 -54.841  1.00  0.00     0.170 HD
ATOM     12  H2  UNL     1     -13.069 -45.543 -55.241  1.00  0.00     0.164 HD
BRANCH  10  13
HETATM   13  C11 UNL     1      -9.106 -45.485 -55.765  1.00  0.00     0.037 A 
HETATM   14  C12 UNL     1      -8.415 -45.548 -54.534  1.00  0.00     0.029 A 
HETATM   15  C13 UNL     1      -7.049 -45.530 -54.456  1.00  0.00     0.003 A 
HETATM   16  C14 UNL     1      -6.308 -45.448 -55.602  1.00  0.00     0.016 A 
HETATM   17  C15 UNL     1      -6.942 -45.389 -56.815  1.00  0.00     0.050 A 
HETATM   18  C17 UNL     1      -8.328 -45.408 -56.886  1.00  0.00     0.045 A 
BRANCH  17  19
HETATM   19  C16 UNL     1      -6.078 -45.274 -58.025  1.00  0.00     0.417 C 
HETATM   20  F1  UNL     1      -4.741 -45.289 -57.618  1.00  0.00    -0.166 F 
HETATM   21  F2  UNL     1      -6.262 -46.456 -58.755  1.00  0.00    -0.166 F 
HETATM   22  F3  UNL     1      -6.355 -44.166 -58.780  1.00  0.00    -0.166 F 
ENDBRANCH  17  19
ENDBRANCH  10  13
ENDBRANCH   6   7
BRANCH   1  23
HETATM   23  O1  UNL     1     -14.548 -46.985 -58.721  1.00  0.00    -0.320 OA
BRANCH  23  24
HETATM   24  C3  UNL     1     -13.327 -47.290 -59.352  1.00  0.00     0.210 C 
HETATM   25  S1  UNL     1     -13.229 -46.673 -60.853  1.00  0.00    -0.033 SA
BRANCH  24  26
HETATM   26  N1  UNL     1     -12.310 -48.028 -58.775  1.00  0.00    -0.356 N 
ATOM     27  H1  UNL     1     -11.660 -47.398 -58.306  1.00  0.00     0.162 HD
BRANCH  26  28
HETATM   28  C2  UNL     1     -11.872 -49.344 -58.616  1.00  0.00     0.087 C 
HETATM   29  C1  UNL     1     -13.165 -50.222 -58.342  1.00  0.00     0.033 C 
BRANCH  28  30
HETATM   30  C18 UNL     1     -10.908 -49.845 -57.623  1.00  0.00    -0.031 C 
HETATM   31  C19 UNL     1      -9.792 -50.602 -58.466  1.00  0.00     0.016 C 
HETATM   32  C20 UNL     1     -11.402 -50.852 -56.656  1.00  0.00     0.016 C 
HETATM   33  C21 UNL     1     -10.042 -48.784 -56.940  1.00  0.00     0.016 C 
ENDBRANCH  28  30
ENDBRANCH  26  28
ENDBRANCH  24  26
ENDBRANCH  23  24
ENDBRANCH   1  23
TORSDOF 8
ENDMDL
MODEL 4
REMARK VINA RESULT: -7.432709516      3.253      5.719
REMARK  8 active torsions:
REMARK  status: ('A' for Active; 'I' for Inactive)
REMARK    1  A    between atoms: C2_2  and  N1_3 
REMARK    2  A    between atoms: C2_2  and  C18_30 
REMARK    3  A    between atoms: N1_3  and  C3_5 
REMARK    4  A    between atoms: C3_5  and  O1_7 
REMARK    5  A    between atoms: O1_7  and  C4_8 
REMARK    6  A    between atoms: C9_13  and  N2_14 
REMARK       I    between atoms: N2_14  and  C10_16 
REMARK       I    between atoms: C10_16  and  N3_18 
REMARK    7  A    between atoms: N3_18  and  C11_20 
REMARK    8  A    between atoms: C15_24  and  C16_25 
ROOT
HETATM    1  C4  UNL     1     -15.378 -45.679 -57.834  1.00  0.00     0.154 C 
HETATM    2  C5  UNL     1     -15.249 -47.101 -57.495  1.00  0.00     0.034 C 
HETATM    3  C6  UNL     1     -15.812 -47.440 -56.145  1.00  0.00     0.003 C 
HETATM    4  C7  UNL     1     -15.921 -46.341 -55.157  1.00  0.00     0.002 C 
HETATM    5  C8  UNL     1     -15.623 -44.960 -55.564  1.00  0.00     0.028 C 
HETATM    6  C9  UNL     1     -14.662 -44.852 -56.778  1.00  0.00     0.115 C 
ENDROOT
BRANCH   6   7
HETATM    7  N2  UNL     1     -13.425 -45.363 -56.305  1.00  0.00    -0.336 N 
HETATM    8  C10 UNL     1     -12.155 -44.927 -56.891  1.00  0.00     0.321 C 
HETATM    9  O2  UNL     1     -12.159 -44.144 -57.852  1.00  0.00    -0.247 OA
HETATM   10  N3  UNL     1     -10.975 -45.408 -56.340  1.00  0.00    -0.309 N 
ATOM     11  H3  UNL     1     -11.171 -45.960 -55.505  1.00  0.00     0.170 HD
ATOM     12  H2  UNL     1     -13.421 -46.045 -55.546  1.00  0.00     0.164 HD
BRANCH  10  13
HETATM   13  C11 UNL     1      -9.620 -45.364 -56.583  1.00  0.00     0.037 A 
HETATM   14  C12 UNL     1      -9.124 -45.509 -57.898  1.00  0.00     0.029 A 
HETATM   15  C13 UNL     1      -7.785 -45.568 -58.176  1.00  0.00     0.003 A 
HETATM   16  C14 UNL     1      -6.879 -45.485 -57.157  1.00  0.00     0.016 A 
HETATM   17  C15 UNL     1      -7.321 -45.341 -55.868  1.00  0.00     0.050 A 
HETATM   18  C17 UNL     1      -8.680 -45.281 -55.593  1.00  0.00     0.045 A 
BRANCH  17  19
HETATM   19  C16 UNL     1      -6.283 -45.283 -54.799  1.00  0.00     0.417 C 
HETATM   20  F1  UNL     1      -5.109 -45.863 -55.289  1.00  0.00    -0.166 F 
HETATM   21  F2  UNL     1      -5.983 -43.927 -54.613  1.00  0.00    -0.166 F 
HETATM   22  F3  UNL     1      -6.680 -45.877 -53.631  1.00  0.00    -0.166 F 
ENDBRANCH  17  19
ENDBRANCH  10  13
ENDBRANCH   6   7
BRANCH   1  23
HETATM   23  O1  UNL     1     -15.350 -45.241 -59.098  1.00  0.00    -0.320 OA
BRANCH  23  24
HETATM   24  C3  UNL     1     -15.375 -43.911 -59.562  1.00  0.00     0.210 C 
HETATM   25  S1  UNL     1     -14.170 -43.592 -60.605  1.00  0.00    -0.033 SA
BRANCH  24  26
HETATM   26  N1  UNL     1     -16.315 -42.969 -59.188  1.00  0.00    -0.356 N 
ATOM     27  H1  UNL     1     -16.081 -42.608 -58.263  1.00  0.00     0.162 HD
BRANCH  26  28
HETATM   28  C2  UNL     1     -17.476 -42.345 -59.646  1.00  0.00     0.087 C 
HETATM   29  C1  UNL     1     -17.726 -42.878 -61.120  1.00  0.00     0.033 C 
BRANCH  28  30
HETATM   30  C18 UNL     1     -17.718 -40.898 -59.765  1.00  0.00    -0.031 C 
HETATM   31  C19 UNL     1     -17.712 -40.598 -61.327  1.00  0.00     0.016 C 
HETATM   32  C20 UNL     1     -16.688 -39.996 -59.201  1.00  0.00     0.016 C 
HETATM   33  C21 UNL     1     -19.132 -40.428 -59.417  1.00  0.00     0.016 C 
ENDBRANCH  28  30
ENDBRANCH  26  28
ENDBRANCH  24  26
ENDBRANCH  23  24
ENDBRANCH   1  23
TORSDOF 8
ENDMDL
MODEL 5
REMARK VINA RESULT: -7.366470608      3.683      6.201
REMARK  8 active torsions:
REMARK  status: ('A' for Active; 'I' for Inactive)
REMARK    1  A    between atoms: C2_2  and  N1_3 
REMARK    2  A    between atoms: C2_2  and  C18_30 
REMARK    3  A    between atoms: N1_3  and  C3_5 
REMARK    4  A    between atoms: C3_5  and  O1_7 
REMARK    5  A    between atoms: O1_7  and  C4_8 
REMARK    6  A    between atoms: C9_13  and  N2_14 
REMARK       I    between atoms: N2_14  and  C10_16 
REMARK       I    between atoms: C10_16  and  N3_18 
REMARK    7  A    between atoms: N3_18  and  C11_20 
REMARK    8  A    between atoms: C15_24  and  C16_25 
ROOT
HETATM    1  C4  UNL     1     -15.332 -45.196 -57.817  1.00  0.00     0.154 C 
HETATM    2  C5  UNL     1     -15.056 -46.575 -58.238  1.00  0.00     0.034 C 
HETATM    3  C6  UNL     1     -15.660 -47.603 -57.326  1.00  0.00     0.003 C 
HETATM    4  C7  UNL     1     -15.963 -47.188 -55.936  1.00  0.00     0.002 C 
HETATM    5  C8  UNL     1     -15.807 -45.780 -55.544  1.00  0.00     0.028 C 
HETATM    6  C9  UNL     1     -14.790 -44.991 -56.411  1.00  0.00     0.115 C 
ENDROOT
BRANCH   6   7
HETATM    7  N2  UNL     1     -13.534 -45.586 -56.124  1.00  0.00    -0.336 N 
HETATM    8  C10 UNL     1     -12.290 -45.006 -56.638  1.00  0.00     0.321 C 
HETATM    9  O2  UNL     1     -12.335 -44.016 -57.381  1.00  0.00    -0.247 OA
HETATM   10  N3  UNL     1     -11.087 -45.591 -56.266  1.00  0.00    -0.309 N 
ATOM     11  H3  UNL     1     -11.247 -46.330 -55.581  1.00  0.00     0.170 HD
ATOM     12  H2  UNL     1     -13.496 -46.429 -55.552  1.00  0.00     0.164 HD
BRANCH  10  13
HETATM   13  C11 UNL     1      -9.743 -45.474 -56.543  1.00  0.00     0.037 A 
HETATM   14  C12 UNL     1      -9.278 -45.562 -57.875  1.00  0.00     0.029 A 
HETATM   15  C13 UNL     1      -7.946 -45.548 -58.191  1.00  0.00     0.003 A 
HETATM   16  C14 UNL     1      -7.017 -45.445 -57.195  1.00  0.00     0.016 A 
HETATM   17  C15 UNL     1      -7.429 -45.354 -55.891  1.00  0.00     0.050 A 
HETATM   18  C17 UNL     1      -8.781 -45.369 -55.578  1.00  0.00     0.045 A 
BRANCH  17  19
HETATM   19  C16 UNL     1      -6.365 -45.272 -54.849  1.00  0.00     0.417 C 
HETATM   20  F1  UNL     1      -5.198 -45.846 -55.361  1.00  0.00    -0.166 F 
HETATM   21  F2  UNL     1      -6.074 -43.910 -54.689  1.00  0.00    -0.166 F 
HETATM   22  F3  UNL     1      -6.726 -45.854 -53.664  1.00  0.00    -0.166 F 
ENDBRANCH  17  19
ENDBRANCH  10  13
ENDBRANCH   6   7
BRANCH   1  23
HETATM   23  O1  UNL     1     -15.276 -44.165 -58.667  1.00  0.00    -0.320 OA
BRANCH  23  24
HETATM   24  C3  UNL     1     -15.972 -42.942 -58.604  1.00  0.00     0.210 C 
HETATM   25  S1  UNL     1     -15.356 -41.930 -57.492  1.00  0.00    -0.033 SA
BRANCH  24  26
HETATM   26  N1  UNL     1     -17.059 -42.619 -59.396  1.00  0.00    -0.356 N 
ATOM     27  H1  UNL     1     -17.787 -43.322 -59.274  1.00  0.00     0.162 HD
BRANCH  26  28
HETATM   28  C2  UNL     1     -17.496 -41.655 -60.306  1.00  0.00     0.087 C 
HETATM   29  C1  UNL     1     -16.195 -41.030 -60.966  1.00  0.00     0.033 C 
BRANCH  28  30
HETATM   30  C18 UNL     1     -18.329 -40.476 -60.019  1.00  0.00    -0.031 C 
HETATM   31  C19 UNL     1     -18.799 -39.938 -61.440  1.00  0.00     0.016 C 
HETATM   32  C20 UNL     1     -17.659 -39.321 -59.379  1.00  0.00     0.016 C 
HETATM   33  C21 UNL     1     -19.692 -40.760 -59.386  1.00  0.00     0.016 C 
ENDBRANCH  28  30
ENDBRANCH  26  28
ENDBRANCH  24  26
ENDBRANCH  23  24
ENDBRANCH   1  23
TORSDOF 8
ENDMDL
