MODEL 1
REMARK VINA RESULT: -4.885360910      0.000      0.000
REMARK  7 active torsions:
REMARK  status: ('A' for Active; 'I' for Inactive)
REMARK    1  A    between atoms: C2_2  and  C4_4 
REMARK    2  A    between atoms: C4_4  and  C5_5 
REMARK    3  A    between atoms: C9_10  and  N1_11 
REMARK    4  A    between atoms: C10_18  and  C11_19 
REMARK    5  A    between atoms: C11_19  and  C12_20 
REMARK    6  A    between atoms: C12_20  and  C13_21 
REMARK    7  A    between atoms: C17_29  and  N5_30 
ROOT
HETATM    1  C5  UNL     1      28.947  29.796  -2.244  1.00  0.00     0.153 C 
HETATM    2  O1  UNL     1      27.570  29.776  -2.176  1.00  0.00    -0.370 OA
HETATM    3  C6  UNL     1      26.982  29.031  -3.162  1.00  0.00     0.108 C 
HETATM    4  C7  UNL     1      27.058  29.621  -4.532  1.00  0.00     0.050 C 
HETATM    5  C8  UNL     1      25.502  28.876  -2.789  1.00  0.00     0.050 C 
HETATM    6  C9  UNL     1      27.548  27.604  -3.121  1.00  0.00     0.414 C 
HETATM    7  N2  UNL     1      28.958  27.655  -3.353  1.00  0.00    -0.037 N 
ATOM      8  H21 UNL     1      29.177  27.970  -4.298  1.00  0.00     0.280 HD
ATOM      9  H22 UNL     1      29.369  26.724  -3.407  1.00  0.00     0.280 HD
HETATM   10  C10 UNL     1      29.591  28.463  -2.360  1.00  0.00     0.217 C 
ENDROOT
BRANCH  10  11
HETATM   11  C11 UNL     1      29.671  27.710  -1.059  1.00  0.00     0.038 C 
BRANCH  11  12
HETATM   12  C12 UNL     1      30.252  26.333  -1.295  1.00  0.00     0.039 C 
BRANCH  12  13
HETATM   13  C13 UNL     1      29.965  25.404  -0.134  1.00  0.00     0.246 C 
HETATM   14  N3  UNL     1      31.194  24.962   0.453  1.00  0.00    -0.065 N 
HETATM   15  C14 UNL     1      30.963  24.226   1.679  1.00  0.00     0.263 C 
ATOM     16  H32 UNL     1      31.749  24.418  -0.208  1.00  0.00     0.277 HD
ATOM     17  H31 UNL     1      31.837  25.739   0.600  1.00  0.00     0.277 HD
HETATM   18  C15 UNL     1      29.635  23.479   1.600  1.00  0.00     0.302 C 
HETATM   19  N4  UNL     1      29.468  23.097   0.196  1.00  0.00     0.118 N 
HETATM   20  C16 UNL     1      28.516  22.031   0.036  1.00  0.00     0.312 C 
HETATM   21  C17 UNL     1      29.011  24.314  -0.487  1.00  0.00     0.446 C 
BRANCH  21  22
HETATM   22  N5  UNL     1      28.890  24.078  -1.905  1.00  0.00    -0.045 N 
ATOM     23  H53 UNL     1      29.128  24.919  -2.430  1.00  0.00     0.277 HD
ATOM     24  H52 UNL     1      29.632  23.457  -2.229  1.00  0.00     0.277 HD
ATOM     25  H51 UNL     1      27.976  23.723  -2.189  1.00  0.00     0.277 HD
ENDBRANCH  21  22
ENDBRANCH  12  13
ENDBRANCH  11  12
ENDBRANCH  10  11
BRANCH   1  26
HETATM   26  C4  UNL     1      29.524  30.581  -1.103  1.00  0.00     0.038 C 
BRANCH  26  27
HETATM   27  C2  UNL     1      29.151  32.032  -1.117  1.00  0.00    -0.020 C 
HETATM   28  C1  UNL     1      28.257  32.387  -2.288  1.00  0.00     0.009 C 
HETATM   29  C3  UNL     1      28.350  32.309   0.146  1.00  0.00     0.009 C 
ENDBRANCH  26  27
ENDBRANCH   1  26
BRANCH   6  30
HETATM   30  N1  UNL     1      26.875  26.778  -4.100  1.00  0.00    -0.047 N 
ATOM     31  H13 UNL     1      25.889  26.647  -3.878  1.00  0.00     0.276 HD
ATOM     32  H12 UNL     1      26.763  27.258  -4.994  1.00  0.00     0.276 HD
ATOM     33  H11 UNL     1      27.366  25.890  -4.202  1.00  0.00     0.276 HD
ENDBRANCH   6  30
TORSDOF 7
ENDMDL
MODEL 2
REMARK VINA RESULT: -3.999828912      1.558      3.355
REMARK  7 active torsions:
REMARK  status: ('A' for Active; 'I' for Inactive)
REMARK    1  A    between atoms: C2_2  and  C4_4 
REMARK    2  A    between atoms: C4_4  and  C5_5 
REMARK    3  A    between atoms: C9_10  and  N1_11 
REMARK    4  A    between atoms: C10_18  and  C11_19 
REMARK    5  A    between atoms: C11_19  and  C12_20 
REMARK    6  A    between atoms: C12_20  and  C13_21 
REMARK    7  A    between atoms: C17_29  and  N5_30 
ROOT
HETATM    1  C5  UNL     1      27.077  28.834  -2.163  1.00  0.00     0.153 C 
HETATM    2  O1  UNL     1      27.201  29.974  -2.927  1.00  0.00    -0.370 OA
HETATM    3  C6  UNL     1      28.152  30.844  -2.465  1.00  0.00     0.108 C 
HETATM    4  C7  UNL     1      27.802  31.550  -1.196  1.00  0.00     0.050 C 
HETATM    5  C8  UNL     1      28.365  31.900  -3.557  1.00  0.00     0.050 C 
HETATM    6  C9  UNL     1      29.497  30.112  -2.361  1.00  0.00     0.414 C 
HETATM    7  N2  UNL     1      29.367  29.029  -1.435  1.00  0.00    -0.037 N 
ATOM      8  H21 UNL     1      29.201  29.357  -0.485  1.00  0.00     0.280 HD
ATOM      9  H22 UNL     1      30.256  28.554  -1.277  1.00  0.00     0.280 HD
HETATM   10  C10 UNL     1      28.351  28.126  -1.874  1.00  0.00     0.217 C 
ENDROOT
BRANCH  10  11
HETATM   11  C11 UNL     1      28.860  27.296  -3.021  1.00  0.00     0.038 C 
BRANCH  11  12
HETATM   12  C12 UNL     1      30.040  26.462  -2.571  1.00  0.00     0.039 C 
BRANCH  12  13
HETATM   13  C13 UNL     1      29.751  25.752  -1.266  1.00  0.00     0.246 C 
HETATM   14  N3  UNL     1      30.974  25.502  -0.564  1.00  0.00    -0.065 N 
HETATM   15  C14 UNL     1      30.729  24.997   0.770  1.00  0.00     0.263 C 
ATOM     16  H32 UNL     1      31.586  24.879  -1.092  1.00  0.00     0.277 HD
ATOM     17  H31 UNL     1      31.569  26.331  -0.546  1.00  0.00     0.277 HD
HETATM   18  C15 UNL     1      29.447  24.169   0.790  1.00  0.00     0.302 C 
HETATM   19  N4  UNL     1      29.363  23.522  -0.521  1.00  0.00     0.118 N 
HETATM   20  C16 UNL     1      28.476  22.389  -0.508  1.00  0.00     0.312 C 
HETATM   21  C17 UNL     1      28.873  24.559  -1.438  1.00  0.00     0.446 C 
BRANCH  21  22
HETATM   22  N5  UNL     1      28.827  24.054  -2.788  1.00  0.00    -0.045 N 
ATOM     23  H53 UNL     1      28.879  23.036  -2.792  1.00  0.00     0.277 HD
ATOM     24  H52 UNL     1      27.897  24.181  -3.187  1.00  0.00     0.277 HD
ATOM     25  H51 UNL     1      29.539  24.452  -3.403  1.00  0.00     0.277 HD
ENDBRANCH  21  22
ENDBRANCH  12  13
ENDBRANCH  11  12
ENDBRANCH  10  11
BRANCH   1  26
HETATM   26  C4  UNL     1      26.061  27.902  -2.759  1.00  0.00     0.038 C 
BRANCH  26  27
HETATM   27  C2  UNL     1      24.662  28.153  -2.287  1.00  0.00    -0.020 C 
HETATM   28  C1  UNL     1      23.753  28.632  -3.400  1.00  0.00     0.009 C 
HETATM   29  C3  UNL     1      24.099  26.824  -1.803  1.00  0.00     0.009 C 
ENDBRANCH  26  27
ENDBRANCH   1  26
BRANCH   6  30
HETATM   30  N1  UNL     1      30.533  31.038  -1.956  1.00  0.00    -0.047 N 
ATOM     31  H13 UNL     1      30.169  31.978  -1.809  1.00  0.00     0.276 HD
ATOM     32  H12 UNL     1      30.861  30.855  -1.007  1.00  0.00     0.276 HD
ATOM     33  H11 UNL     1      31.295  31.024  -2.633  1.00  0.00     0.276 HD
ENDBRANCH   6  30
TORSDOF 7
ENDMDL
MODEL 3
REMARK VINA RESULT: -3.964255149      2.236      6.959
REMARK  7 active torsions:
REMARK  status: ('A' for Active; 'I' for Inactive)
REMARK    1  A    between atoms: C2_2  and  C4_4 
REMARK    2  A    between atoms: C4_4  and  C5_5 
REMARK    3  A    between atoms: C9_10  and  N1_11 
REMARK    4  A    between atoms: C10_18  and  C11_19 
REMARK    5  A    between atoms: C11_19  and  C12_20 
REMARK    6  A    between atoms: C12_20  and  C13_21 
REMARK    7  A    between atoms: C17_29  and  N5_30 
ROOT
HETATM    1  C5  UNL     1      29.466  24.549  -1.195  1.00  0.00     0.153 C 
HETATM    2  O1  UNL     1      28.757  23.931  -0.188  1.00  0.00    -0.370 OA
HETATM    3  C6  UNL     1      29.520  23.606   0.902  1.00  0.00     0.108 C 
HETATM    4  C7  UNL     1      30.486  22.487   0.687  1.00  0.00     0.050 C 
HETATM    5  C8  UNL     1      28.555  23.197   2.022  1.00  0.00     0.050 C 
HETATM    6  C9  UNL     1      30.215  24.870   1.425  1.00  0.00     0.414 C 
HETATM    7  N2  UNL     1      31.065  25.393   0.400  1.00  0.00    -0.037 N 
ATOM      8  H21 UNL     1      31.840  24.765   0.191  1.00  0.00     0.280 HD
ATOM      9  H22 UNL     1      31.605  26.195   0.725  1.00  0.00     0.280 HD
HETATM   10  C10 UNL     1      30.298  25.702  -0.764  1.00  0.00     0.217 C 
ENDROOT
BRANCH  10  11
HETATM   11  C11 UNL     1      29.516  26.969  -0.543  1.00  0.00     0.038 C 
BRANCH  11  12
HETATM   12  C12 UNL     1      29.822  27.963  -1.642  1.00  0.00     0.039 C 
BRANCH  12  13
HETATM   13  C13 UNL     1      28.577  28.702  -2.084  1.00  0.00     0.246 C 
HETATM   14  N3  UNL     1      28.180  28.256  -3.386  1.00  0.00    -0.065 N 
HETATM   15  C14 UNL     1      26.892  28.797  -3.764  1.00  0.00     0.263 C 
ATOM     16  H32 UNL     1      28.893  28.466  -4.086  1.00  0.00     0.277 HD
ATOM     17  H31 UNL     1      28.191  27.238  -3.450  1.00  0.00     0.277 HD
HETATM   18  C15 UNL     1      26.701  30.179  -3.145  1.00  0.00     0.302 C 
HETATM   19  N4  UNL     1      28.032  30.789  -3.097  1.00  0.00     0.118 N 
HETATM   20  C16 UNL     1      27.965  32.219  -2.959  1.00  0.00     0.312 C 
HETATM   21  C17 UNL     1      28.699  30.181  -1.939  1.00  0.00     0.446 C 
BRANCH  21  22
HETATM   22  N5  UNL     1      30.060  30.650  -1.841  1.00  0.00    -0.045 N 
ATOM     23  H53 UNL     1      30.705  29.863  -1.771  1.00  0.00     0.277 HD
ATOM     24  H52 UNL     1      30.367  31.046  -2.729  1.00  0.00     0.277 HD
ATOM     25  H51 UNL     1      30.216  31.311  -1.080  1.00  0.00     0.277 HD
ENDBRANCH  21  22
ENDBRANCH  12  13
ENDBRANCH  11  12
ENDBRANCH  10  11
BRANCH   1  26
HETATM   26  C4  UNL     1      28.559  24.928  -2.329  1.00  0.00     0.038 C 
BRANCH  26  27
HETATM   27  C2  UNL     1      29.280  25.206  -3.613  1.00  0.00    -0.020 C 
HETATM   28  C1  UNL     1      30.786  25.160  -3.452  1.00  0.00     0.009 C 
HETATM   29  C3  UNL     1      28.910  24.101  -4.591  1.00  0.00     0.009 C 
ENDBRANCH  26  27
ENDBRANCH   1  26
BRANCH   6  30
HETATM   30  N1  UNL     1      30.958  24.562   2.628  1.00  0.00    -0.047 N 
ATOM     31  H13 UNL     1      30.353  24.222   3.375  1.00  0.00     0.276 HD
ATOM     32  H12 UNL     1      31.539  23.731   2.518  1.00  0.00     0.276 HD
ATOM     33  H11 UNL     1      31.502  25.374   2.918  1.00  0.00     0.276 HD
ENDBRANCH   6  30
TORSDOF 7
ENDMDL
MODEL 4
REMARK VINA RESULT: -3.381341241      2.051      3.785
REMARK  7 active torsions:
REMARK  status: ('A' for Active; 'I' for Inactive)
REMARK    1  A    between atoms: C2_2  and  C4_4 
REMARK    2  A    between atoms: C4_4  and  C5_5 
REMARK    3  A    between atoms: C9_10  and  N1_11 
REMARK    4  A    between atoms: C10_18  and  C11_19 
REMARK    5  A    between atoms: C11_19  and  C12_20 
REMARK    6  A    between atoms: C12_20  and  C13_21 
REMARK    7  A    between atoms: C17_29  and  N5_30 
ROOT
HETATM    1  C5  UNL     1      26.045  28.546  -2.641  1.00  0.00     0.153 C 
HETATM    2  O1  UNL     1      25.874  29.015  -3.926  1.00  0.00    -0.370 OA
HETATM    3  C6  UNL     1      26.602  30.142  -4.201  1.00  0.00     0.108 C 
HETATM    4  C7  UNL     1      26.125  31.384  -3.522  1.00  0.00     0.050 C 
HETATM    5  C8  UNL     1      26.529  30.367  -5.716  1.00  0.00     0.050 C 
HETATM    6  C9  UNL     1      28.085  29.866  -3.917  1.00  0.00     0.414 C 
HETATM    7  N2  UNL     1      28.241  29.537  -2.534  1.00  0.00    -0.037 N 
ATOM      8  H21 UNL     1      28.025  30.328  -1.927  1.00  0.00     0.280 HD
ATOM      9  H22 UNL     1      29.220  29.416  -2.279  1.00  0.00     0.280 HD
HETATM   10  C10 UNL     1      27.458  28.387  -2.210  1.00  0.00     0.217 C 
ENDROOT
BRANCH  10  11
HETATM   11  C11 UNL     1      28.121  27.147  -2.746  1.00  0.00     0.038 C 
BRANCH  11  12
HETATM   12  C12 UNL     1      29.432  26.911  -2.028  1.00  0.00     0.039 C 
BRANCH  12  13
HETATM   13  C13 UNL     1      29.552  25.480  -1.549  1.00  0.00     0.246 C 
HETATM   14  N3  UNL     1      28.257  24.873  -1.492  1.00  0.00    -0.065 N 
HETATM   15  C14 UNL     1      28.345  23.453  -1.222  1.00  0.00     0.263 C 
ATOM     16  H32 UNL     1      27.653  25.344  -0.816  1.00  0.00     0.277 HD
ATOM     17  H31 UNL     1      27.721  25.059  -2.339  1.00  0.00     0.277 HD
HETATM   18  C15 UNL     1      29.560  23.161  -0.346  1.00  0.00     0.302 C 
HETATM   19  N4  UNL     1      29.718  24.325   0.529  1.00  0.00     0.118 N 
HETATM   20  C16 UNL     1      30.521  24.026   1.685  1.00  0.00     0.312 C 
HETATM   21  C17 UNL     1      30.359  25.353  -0.301  1.00  0.00     0.446 C 
BRANCH  21  22
HETATM   22  N5  UNL     1      30.492  26.584   0.439  1.00  0.00    -0.045 N 
ATOM     23  H53 UNL     1      30.444  27.386  -0.189  1.00  0.00     0.277 HD
ATOM     24  H52 UNL     1      29.658  26.756   1.001  1.00  0.00     0.277 HD
ATOM     25  H51 UNL     1      31.331  26.631   1.017  1.00  0.00     0.277 HD
ENDBRANCH  21  22
ENDBRANCH  12  13
ENDBRANCH  11  12
ENDBRANCH  10  11
BRANCH   1  26
HETATM   26  C4  UNL     1      25.267  27.281  -2.429  1.00  0.00     0.038 C 
BRANCH  26  27
HETATM   27  C2  UNL     1      23.832  27.508  -2.062  1.00  0.00    -0.020 C 
HETATM   28  C1  UNL     1      23.033  26.222  -2.028  1.00  0.00     0.009 C 
HETATM   29  C3  UNL     1      23.807  28.077  -0.651  1.00  0.00     0.009 C 
ENDBRANCH  26  27
ENDBRANCH   1  26
BRANCH   6  30
HETATM   30  N1  UNL     1      28.880  31.019  -4.283  1.00  0.00    -0.047 N 
ATOM     31  H13 UNL     1      28.300  31.809  -4.566  1.00  0.00     0.276 HD
ATOM     32  H12 UNL     1      29.329  31.448  -3.474  1.00  0.00     0.276 HD
ATOM     33  H11 UNL     1      29.553  30.761  -5.004  1.00  0.00     0.276 HD
ENDBRANCH   6  30
TORSDOF 7
ENDMDL
MODEL 5
REMARK VINA RESULT: -3.292930141      1.660      3.655
REMARK  7 active torsions:
REMARK  status: ('A' for Active; 'I' for Inactive)
REMARK    1  A    between atoms: C2_2  and  C4_4 
REMARK    2  A    between atoms: C4_4  and  C5_5 
REMARK    3  A    between atoms: C9_10  and  N1_11 
REMARK    4  A    between atoms: C10_18  and  C11_19 
REMARK    5  A    between atoms: C11_19  and  C12_20 
REMARK    6  A    between atoms: C12_20  and  C13_21 
REMARK    7  A    between atoms: C17_29  and  N5_30 
ROOT
HETATM    1  C5  UNL     1      26.708  28.673  -2.299  1.00  0.00     0.153 C 
HETATM    2  O1  UNL     1      26.869  29.645  -3.263  1.00  0.00    -0.370 OA
HETATM    3  C6  UNL     1      27.804  30.592  -2.940  1.00  0.00     0.108 C 
HETATM    4  C7  UNL     1      27.404  31.528  -1.847  1.00  0.00     0.050 C 
HETATM    5  C8  UNL     1      28.066  31.418  -4.205  1.00  0.00     0.050 C 
HETATM    6  C9  UNL     1      29.140  29.899  -2.640  1.00  0.00     0.414 C 
HETATM    7  N2  UNL     1      28.968  29.015  -1.529  1.00  0.00    -0.037 N 
ATOM      8  H21 UNL     1      28.764  29.521  -0.667  1.00  0.00     0.280 HD
ATOM      9  H22 UNL     1      29.847  28.584  -1.244  1.00  0.00     0.280 HD
HETATM   10  C10 UNL     1      27.967  28.040  -1.826  1.00  0.00     0.217 C 
ENDROOT
BRANCH  10  11
HETATM   11  C11 UNL     1      28.520  27.006  -2.769  1.00  0.00     0.038 C 
BRANCH  11  12
HETATM   12  C12 UNL     1      29.863  26.519  -2.270  1.00  0.00     0.039 C 
BRANCH  12  13
HETATM   13  C13 UNL     1      29.751  25.156  -1.620  1.00  0.00     0.246 C 
HETATM   14  N3  UNL     1      28.390  24.711  -1.647  1.00  0.00    -0.065 N 
HETATM   15  C14 UNL     1      28.271  23.336  -1.208  1.00  0.00     0.263 C 
ATOM     16  H32 UNL     1      27.785  25.329  -1.106  1.00  0.00     0.277 HD
ATOM     17  H31 UNL     1      27.973  24.847  -2.567  1.00  0.00     0.277 HD
HETATM   18  C15 UNL     1      29.343  23.023  -0.168  1.00  0.00     0.302 C 
HETATM   19  N4  UNL     1      29.555  24.264   0.581  1.00  0.00     0.118 N 
HETATM   20  C16 UNL     1      30.190  24.026   1.849  1.00  0.00     0.312 C 
HETATM   21  C17 UNL     1      30.402  25.099  -0.280  1.00  0.00     0.446 C 
BRANCH  21  22
HETATM   22  N5  UNL     1      30.612  26.391   0.325  1.00  0.00    -0.045 N 
ATOM     23  H53 UNL     1      29.725  26.794   0.627  1.00  0.00     0.277 HD
ATOM     24  H52 UNL     1      31.074  26.293   1.229  1.00  0.00     0.277 HD
ATOM     25  H51 UNL     1      31.121  27.048  -0.268  1.00  0.00     0.277 HD
ENDBRANCH  21  22
ENDBRANCH  12  13
ENDBRANCH  11  12
ENDBRANCH  10  11
BRANCH   1  26
HETATM   26  C4  UNL     1      25.715  27.640  -2.745  1.00  0.00     0.038 C 
BRANCH  26  27
HETATM   27  C2  UNL     1      24.305  27.945  -2.342  1.00  0.00    -0.020 C 
HETATM   28  C1  UNL     1      23.419  26.716  -2.361  1.00  0.00     0.009 C 
HETATM   29  C3  UNL     1      24.338  28.439  -0.903  1.00  0.00     0.009 C 
ENDBRANCH  26  27
ENDBRANCH   1  26
BRANCH   6  30
HETATM   30  N1  UNL     1      30.162  30.890  -2.379  1.00  0.00    -0.047 N 
ATOM     31  H13 UNL     1      30.080  31.696  -2.998  1.00  0.00     0.276 HD
ATOM     32  H12 UNL     1      30.013  31.369  -1.491  1.00  0.00     0.276 HD
ATOM     33  H11 UNL     1      31.085  30.460  -2.432  1.00  0.00     0.276 HD
ENDBRANCH   6  30
TORSDOF 7
ENDMDL
