MODEL 1
REMARK VINA RESULT: -7.930136452      0.000      0.000
REMARK  8 active torsions:
REMARK  status: ('A' for Active; 'I' for Inactive)
REMARK    1  A    between atoms: C6_10  and  N3_11 
REMARK    2  A    between atoms: N3_11  and  C7_13 
REMARK    3  A    between atoms: C8_16  and  N5_17 
REMARK    4  A    between atoms: N5_17  and  C9_19 
REMARK    5  A    between atoms: C9_19  and  C10_20 
REMARK    6  A    between atoms: C10_20  and  C11_21 
REMARK    7  A    between atoms: C11_21  and  C12_22 
REMARK    8  A    between atoms: C12_22  and  O1_23 
ROOT
HETATM    1  C1  UNL     1      31.220  26.138   1.447  1.00  0.00     0.103 C 
HETATM    2  C2  UNL     1      30.559  25.687   0.519  1.00  0.00    -0.143 C 
HETATM    3  C3  UNL     1      29.793  25.139  -0.564  1.00  0.00     0.073 A 
HETATM    4  C4  UNL     1      29.212  23.884  -0.652  1.00  0.00     0.043 A 
HETATM    5  C5  UNL     1      29.325  22.880   0.456  1.00  0.00     0.071 C 
HETATM    6  N1  UNL     1      28.577  23.749  -1.830  1.00  0.00    -0.302 N 
ATOM      7  H1  UNL     1      28.067  22.925  -2.151  1.00  0.00     0.186 HD
HETATM    8  N2  UNL     1      28.734  24.865  -2.484  1.00  0.00    -0.284 N 
ATOM      9  H2  UNL     1      28.356  25.044  -3.414  1.00  0.00     0.188 HD
HETATM   10  C6  UNL     1      29.466  25.758  -1.771  1.00  0.00     0.141 A 
ENDROOT
BRANCH  10  11
HETATM   11  N3  UNL     1      29.815  26.950  -2.102  1.00  0.00    -0.324 N 
ATOM     12  H3  UNL     1      30.796  27.201  -2.226  1.00  0.00     0.169 HD
BRANCH  11  13
HETATM   13  C7  UNL     1      28.767  27.915  -2.288  1.00  0.00     0.153 A 
HETATM   14  N4  UNL     1      27.538  27.470  -2.602  1.00  0.00    -0.174 N 
HETATM   15  C8  UNL     1      26.552  28.383  -2.778  1.00  0.00     0.681 A 
ATOM     16  H4  UNL     1      27.353  26.472  -2.706  1.00  0.00     0.186 HD
HETATM   17  N6  UNL     1      26.807  29.689  -2.638  1.00  0.00    -0.174 N 
HETATM   18  C13 UNL     1      28.015  30.182  -2.325  1.00  0.00     0.152 A 
ATOM     19  H6  UNL     1      26.040  30.347  -2.776  1.00  0.00     0.186 HD
HETATM   20  N7  UNL     1      28.457  31.426  -2.145  1.00  0.00    -0.336 N 
HETATM   21  C15 UNL     1      29.031  29.266  -2.143  1.00  0.00     0.123 A 
HETATM   22  C14 UNL     1      29.764  31.307  -1.846  1.00  0.00     0.182 A 
ATOM     23  H7  UNL     1      27.917  32.289  -2.220  1.00  0.00     0.168 HD
HETATM   24  N8  UNL     1      30.113  29.987  -1.846  1.00  0.00    -0.346 N 
ATOM     25  H8  UNL     1      31.044  29.616  -1.652  1.00  0.00     0.167 HD
BRANCH  15  26
HETATM   26  N5  UNL     1      25.386  27.928  -3.079  1.00  0.00    -0.226 N 
ATOM     27  H5  UNL     1      25.279  27.389  -3.938  1.00  0.00     0.177 HD
BRANCH  26  28
HETATM   28  C9  UNL     1      24.220  28.148  -2.252  1.00  0.00     0.138 C 
BRANCH  28  29
HETATM   29  C10 UNL     1      23.720  26.861  -1.638  1.00  0.00     0.022 C 
BRANCH  29  30
HETATM   30  C11 UNL     1      22.512  27.053  -0.773  1.00  0.00     0.028 C 
BRANCH  30  31
HETATM   31  C12 UNL     1      21.368  26.156  -1.143  1.00  0.00     0.164 C 
BRANCH  31  32
HETATM   32  O1  UNL     1      21.922  24.912  -1.502  1.00  0.00    -0.401 OA
ATOM     33  H1  UNL     1      21.818  24.823  -2.442  1.00  0.00     0.209 HD
ENDBRANCH  31  32
ENDBRANCH  30  31
ENDBRANCH  29  30
ENDBRANCH  28  29
ENDBRANCH  26  28
ENDBRANCH  15  26
ENDBRANCH  11  13
ENDBRANCH  10  11
TORSDOF 8
ENDMDL
MODEL 2
REMARK VINA RESULT: -6.773649113      1.252      1.909
REMARK  8 active torsions:
REMARK  status: ('A' for Active; 'I' for Inactive)
REMARK    1  A    between atoms: C6_10  and  N3_11 
REMARK    2  A    between atoms: N3_11  and  C7_13 
REMARK    3  A    between atoms: C8_16  and  N5_17 
REMARK    4  A    between atoms: N5_17  and  C9_19 
REMARK    5  A    between atoms: C9_19  and  C10_20 
REMARK    6  A    between atoms: C10_20  and  C11_21 
REMARK    7  A    between atoms: C11_21  and  C12_22 
REMARK    8  A    between atoms: C12_22  and  O1_23 
ROOT
HETATM    1  C1  UNL     1      28.885  24.270  -4.670  1.00  0.00     0.103 C 
HETATM    2  C2  UNL     1      29.086  24.599  -3.508  1.00  0.00    -0.143 C 
HETATM    3  C3  UNL     1      29.306  24.971  -2.139  1.00  0.00     0.073 A 
HETATM    4  C4  UNL     1      29.183  24.181  -1.007  1.00  0.00     0.043 A 
HETATM    5  C5  UNL     1      28.776  22.741  -1.088  1.00  0.00     0.071 C 
HETATM    6  N1  UNL     1      29.476  24.898   0.093  1.00  0.00    -0.302 N 
ATOM      7  H1  UNL     1      29.464  24.562   1.055  1.00  0.00     0.186 HD
HETATM    8  N2  UNL     1      29.777  26.104  -0.301  1.00  0.00    -0.284 N 
ATOM      9  H2  UNL     1      30.041  26.864   0.325  1.00  0.00     0.188 HD
HETATM   10  C6  UNL     1      29.695  26.219  -1.650  1.00  0.00     0.141 A 
ENDROOT
BRANCH  10  11
HETATM   11  N3  UNL     1      29.920  27.254  -2.380  1.00  0.00    -0.324 N 
ATOM     12  H3  UNL     1      30.805  27.376  -2.871  1.00  0.00     0.169 HD
BRANCH  11  13
HETATM   13  C7  UNL     1      28.871  28.232  -2.475  1.00  0.00     0.153 A 
HETATM   14  N4  UNL     1      27.652  27.824  -2.869  1.00  0.00    -0.174 N 
HETATM   15  C8  UNL     1      26.665  28.750  -2.958  1.00  0.00     0.681 A 
ATOM     16  H4  UNL     1      27.474  26.845  -3.094  1.00  0.00     0.186 HD
HETATM   17  N6  UNL     1      26.911  30.030  -2.658  1.00  0.00    -0.174 N 
HETATM   18  C13 UNL     1      28.109  30.485  -2.261  1.00  0.00     0.152 A 
ATOM     19  H6  UNL     1      26.144  30.698  -2.735  1.00  0.00     0.186 HD
HETATM   20  N7  UNL     1      28.541  31.701  -1.925  1.00  0.00    -0.336 N 
HETATM   21  C15 UNL     1      29.125  29.556  -2.165  1.00  0.00     0.123 A 
HETATM   22  C14 UNL     1      29.841  31.550  -1.612  1.00  0.00     0.182 A 
ATOM     23  H7  UNL     1      27.999  32.565  -1.909  1.00  0.00     0.168 HD
HETATM   24  N8  UNL     1      30.197  30.240  -1.760  1.00  0.00    -0.346 N 
ATOM     25  H8  UNL     1      31.124  29.850  -1.589  1.00  0.00     0.167 HD
BRANCH  15  26
HETATM   26  N5  UNL     1      25.508  28.331  -3.337  1.00  0.00    -0.226 N 
ATOM     27  H5  UNL     1      25.410  27.961  -4.283  1.00  0.00     0.177 HD
BRANCH  26  28
HETATM   28  C9  UNL     1      24.343  28.361  -2.481  1.00  0.00     0.138 C 
BRANCH  28  29
HETATM   29  C10 UNL     1      24.067  27.009  -1.866  1.00  0.00     0.022 C 
BRANCH  29  30
HETATM   30  C11 UNL     1      22.967  27.039  -0.849  1.00  0.00     0.028 C 
BRANCH  30  31
HETATM   31  C12 UNL     1      21.730  26.316  -1.291  1.00  0.00     0.164 C 
BRANCH  31  32
HETATM   32  O1  UNL     1      22.090  24.969  -1.489  1.00  0.00    -0.401 OA
ATOM     33  H1  UNL     1      22.233  24.592  -0.629  1.00  0.00     0.209 HD
ENDBRANCH  31  32
ENDBRANCH  30  31
ENDBRANCH  29  30
ENDBRANCH  28  29
ENDBRANCH  26  28
ENDBRANCH  15  26
ENDBRANCH  11  13
ENDBRANCH  10  11
TORSDOF 8
ENDMDL
MODEL 3
REMARK VINA RESULT: -6.283370409      2.499      4.845
REMARK  8 active torsions:
REMARK  status: ('A' for Active; 'I' for Inactive)
REMARK    1  A    between atoms: C6_10  and  N3_11 
REMARK    2  A    between atoms: N3_11  and  C7_13 
REMARK    3  A    between atoms: C8_16  and  N5_17 
REMARK    4  A    between atoms: N5_17  and  C9_19 
REMARK    5  A    between atoms: C9_19  and  C10_20 
REMARK    6  A    between atoms: C10_20  and  C11_21 
REMARK    7  A    between atoms: C11_21  and  C12_22 
REMARK    8  A    between atoms: C12_22  and  O1_23 
ROOT
HETATM    1  C1  UNL     1      28.394  22.532  -1.081  1.00  0.00     0.103 C 
HETATM    2  C2  UNL     1      28.793  23.688  -1.025  1.00  0.00    -0.143 C 
HETATM    3  C3  UNL     1      29.264  25.041  -0.937  1.00  0.00     0.073 A 
HETATM    4  C4  UNL     1      30.187  25.570  -0.048  1.00  0.00     0.043 A 
HETATM    5  C5  UNL     1      30.848  24.728   1.001  1.00  0.00     0.071 C 
HETATM    6  N1  UNL     1      30.361  26.882  -0.288  1.00  0.00    -0.302 N 
ATOM      7  H1  UNL     1      30.983  27.513   0.219  1.00  0.00     0.186 HD
HETATM    8  N2  UNL     1      29.588  27.198  -1.289  1.00  0.00    -0.284 N 
ATOM      9  H2  UNL     1      29.517  28.135  -1.687  1.00  0.00     0.188 HD
HETATM   10  C6  UNL     1      28.890  26.124  -1.735  1.00  0.00     0.141 A 
ENDROOT
BRANCH  10  11
HETATM   11  N3  UNL     1      28.040  26.065  -2.697  1.00  0.00    -0.324 N 
ATOM     12  H3  UNL     1      27.964  25.238  -3.289  1.00  0.00     0.169 HD
BRANCH  11  13
HETATM   13  C7  UNL     1      27.201  27.213  -2.905  1.00  0.00     0.153 A 
HETATM   14  N4  UNL     1      27.739  28.299  -3.487  1.00  0.00    -0.174 N 
HETATM   15  C8  UNL     1      26.944  29.381  -3.680  1.00  0.00     0.681 A 
ATOM     16  H4  UNL     1      28.717  28.310  -3.775  1.00  0.00     0.186 HD
HETATM   17  N6  UNL     1      25.661  29.354  -3.300  1.00  0.00    -0.174 N 
HETATM   18  C13 UNL     1      25.080  28.295  -2.716  1.00  0.00     0.152 A 
ATOM     19  H6  UNL     1      25.094  30.185  -3.463  1.00  0.00     0.186 HD
HETATM   20  N7  UNL     1      23.841  28.082  -2.274  1.00  0.00    -0.336 N 
HETATM   21  C15 UNL     1      25.876  27.186  -2.511  1.00  0.00     0.123 A 
HETATM   22  C14 UNL     1      23.841  26.829  -1.784  1.00  0.00     0.182 A 
ATOM     23  H7  UNL     1      23.056  28.733  -2.302  1.00  0.00     0.168 HD
HETATM   24  N8  UNL     1      25.085  26.282  -1.928  1.00  0.00    -0.346 N 
ATOM     25  H8  UNL     1      25.362  25.344  -1.639  1.00  0.00     0.167 HD
BRANCH  15  26
HETATM   26  N5  UNL     1      27.485  30.406  -4.240  1.00  0.00    -0.226 N 
ATOM     27  H5  UNL     1      28.060  30.263  -5.070  1.00  0.00     0.177 HD
BRANCH  26  28
HETATM   28  C9  UNL     1      27.314  31.754  -3.743  1.00  0.00     0.138 C 
BRANCH  28  29
HETATM   29  C10 UNL     1      28.490  32.192  -2.902  1.00  0.00     0.022 C 
BRANCH  29  30
HETATM   30  C11 UNL     1      28.427  31.686  -1.494  1.00  0.00     0.028 C 
BRANCH  30  31
HETATM   31  C12 UNL     1      29.611  30.847  -1.112  1.00  0.00     0.164 C 
BRANCH  31  32
HETATM   32  O1  UNL     1      29.876  29.993  -2.199  1.00  0.00    -0.401 OA
ATOM     33  H1  UNL     1      30.235  29.191  -1.840  1.00  0.00     0.209 HD
ENDBRANCH  31  32
ENDBRANCH  30  31
ENDBRANCH  29  30
ENDBRANCH  28  29
ENDBRANCH  26  28
ENDBRANCH  15  26
ENDBRANCH  11  13
ENDBRANCH  10  11
TORSDOF 8
ENDMDL
MODEL 4
REMARK VINA RESULT: -5.939641270      1.701      2.454
REMARK  8 active torsions:
REMARK  status: ('A' for Active; 'I' for Inactive)
REMARK    1  A    between atoms: C6_10  and  N3_11 
REMARK    2  A    between atoms: N3_11  and  C7_13 
REMARK    3  A    between atoms: C8_16  and  N5_17 
REMARK    4  A    between atoms: N5_17  and  C9_19 
REMARK    5  A    between atoms: C9_19  and  C10_20 
REMARK    6  A    between atoms: C10_20  and  C11_21 
REMARK    7  A    between atoms: C11_21  and  C12_22 
REMARK    8  A    between atoms: C12_22  and  O1_23 
ROOT
HETATM    1  C1  UNL     1      29.867  29.258  -1.150  1.00  0.00     0.103 C 
HETATM    2  C2  UNL     1      29.682  28.054  -1.274  1.00  0.00    -0.143 C 
HETATM    3  C3  UNL     1      29.485  26.639  -1.410  1.00  0.00     0.073 A 
HETATM    4  C4  UNL     1      29.928  25.629  -0.571  1.00  0.00     0.043 A 
HETATM    5  C5  UNL     1      30.722  25.919   0.666  1.00  0.00     0.071 C 
HETATM    6  N1  UNL     1      29.539  24.430  -1.043  1.00  0.00    -0.302 N 
ATOM      7  H1  UNL     1      29.731  23.522  -0.620  1.00  0.00     0.186 HD
HETATM    8  N2  UNL     1      28.872  24.646  -2.141  1.00  0.00    -0.284 N 
ATOM      9  H2  UNL     1      28.457  23.912  -2.715  1.00  0.00     0.188 HD
HETATM   10  C6  UNL     1      28.799  25.971  -2.425  1.00  0.00     0.141 A 
ENDROOT
BRANCH  10  11
HETATM   11  N3  UNL     1      28.224  26.545  -3.422  1.00  0.00    -0.324 N 
ATOM     12  H3  UNL     1      28.605  26.478  -4.366  1.00  0.00     0.169 HD
BRANCH  11  13
HETATM   13  C7  UNL     1      27.022  27.284  -3.151  1.00  0.00     0.153 A 
HETATM   14  N4  UNL     1      26.037  26.672  -2.470  1.00  0.00    -0.174 N 
HETATM   15  C8  UNL     1      24.903  27.373  -2.217  1.00  0.00     0.681 A 
ATOM     16  H4  UNL     1      26.139  25.708  -2.153  1.00  0.00     0.186 HD
HETATM   17  N6  UNL     1      24.783  28.638  -2.637  1.00  0.00    -0.174 N 
HETATM   18  C13 UNL     1      25.736  29.290  -3.318  1.00  0.00     0.152 A 
ATOM     19  H6  UNL     1      23.917  29.133  -2.426  1.00  0.00     0.186 HD
HETATM   20  N7  UNL     1      25.800  30.526  -3.812  1.00  0.00    -0.336 N 
HETATM   21  C15 UNL     1      26.897  28.591  -3.585  1.00  0.00     0.123 A 
HETATM   22  C14 UNL     1      27.007  30.621  -4.399  1.00  0.00     0.182 A 
ATOM     23  H7  UNL     1      25.082  31.250  -3.757  1.00  0.00     0.168 HD
HETATM   24  N8  UNL     1      27.676  29.438  -4.260  1.00  0.00    -0.346 N 
ATOM     25  H8  UNL     1      28.612  29.237  -4.612  1.00  0.00     0.167 HD
BRANCH  15  26
HETATM   26  N5  UNL     1      23.977  26.762  -1.564  1.00  0.00    -0.226 N 
ATOM     27  H5  UNL     1      24.249  26.076  -0.860  1.00  0.00     0.177 HD
BRANCH  26  28
HETATM   28  C9  UNL     1      22.569  27.007  -1.784  1.00  0.00     0.138 C 
BRANCH  28  29
HETATM   29  C10 UNL     1      21.837  27.262  -0.488  1.00  0.00     0.022 C 
BRANCH  29  30
HETATM   30  C11 UNL     1      20.821  26.208  -0.169  1.00  0.00     0.028 C 
BRANCH  30  31
HETATM   31  C12 UNL     1      20.821  25.069  -1.145  1.00  0.00     0.164 C 
BRANCH  31  32
HETATM   32  O1  UNL     1      20.986  23.888  -0.396  1.00  0.00    -0.401 OA
ATOM     33  H1  UNL     1      21.344  23.234  -0.985  1.00  0.00     0.209 HD
ENDBRANCH  31  32
ENDBRANCH  30  31
ENDBRANCH  29  30
ENDBRANCH  28  29
ENDBRANCH  26  28
ENDBRANCH  15  26
ENDBRANCH  11  13
ENDBRANCH  10  11
TORSDOF 8
ENDMDL
MODEL 5
REMARK VINA RESULT: -5.524835758      1.195      1.977
REMARK  8 active torsions:
REMARK  status: ('A' for Active; 'I' for Inactive)
REMARK    1  A    between atoms: C6_10  and  N3_11 
REMARK    2  A    between atoms: N3_11  and  C7_13 
REMARK    3  A    between atoms: C8_16  and  N5_17 
REMARK    4  A    between atoms: N5_17  and  C9_19 
REMARK    5  A    between atoms: C9_19  and  C10_20 
REMARK    6  A    between atoms: C10_20  and  C11_21 
REMARK    7  A    between atoms: C11_21  and  C12_22 
REMARK    8  A    between atoms: C12_22  and  O1_23 
ROOT
HETATM    1  C1  UNL     1      28.258  22.623  -1.449  1.00  0.00     0.103 C 
HETATM    2  C2  UNL     1      28.787  23.685  -1.148  1.00  0.00    -0.143 C 
HETATM    3  C3  UNL     1      29.406  24.926  -0.774  1.00  0.00     0.073 A 
HETATM    4  C4  UNL     1      30.201  25.186   0.330  1.00  0.00     0.043 A 
HETATM    5  C5  UNL     1      30.533  24.125   1.335  1.00  0.00     0.071 C 
HETATM    6  N1  UNL     1      30.589  26.475   0.328  1.00  0.00    -0.302 N 
ATOM      7  H1  UNL     1      31.179  26.930   1.025  1.00  0.00     0.186 HD
HETATM    8  N2  UNL     1      30.071  27.032  -0.729  1.00  0.00    -0.284 N 
ATOM      9  H2  UNL     1      30.200  28.011  -0.985  1.00  0.00     0.188 HD
HETATM   10  C6  UNL     1      29.337  26.146  -1.448  1.00  0.00     0.141 A 
ENDROOT
BRANCH  10  11
HETATM   11  N3  UNL     1      28.687  26.344  -2.540  1.00  0.00    -0.324 N 
ATOM     12  H3  UNL     1      28.828  25.750  -3.357  1.00  0.00     0.169 HD
BRANCH  11  13
HETATM   13  C7  UNL     1      27.754  27.437  -2.561  1.00  0.00     0.153 A 
HETATM   14  N4  UNL     1      26.440  27.153  -2.561  1.00  0.00    -0.174 N 
HETATM   15  C8  UNL     1      25.562  28.187  -2.581  1.00  0.00     0.681 A 
ATOM     16  H4  UNL     1      26.112  26.187  -2.546  1.00  0.00     0.186 HD
HETATM   17  N6  UNL     1      26.005  29.449  -2.599  1.00  0.00    -0.174 N 
HETATM   18  C13 UNL     1      27.304  29.782  -2.600  1.00  0.00     0.152 A 
ATOM     19  H6  UNL     1      25.315  30.200  -2.613  1.00  0.00     0.186 HD
HETATM   20  N7  UNL     1      27.929  30.959  -2.616  1.00  0.00    -0.336 N 
HETATM   21  C15 UNL     1      28.212  28.742  -2.580  1.00  0.00     0.123 A 
HETATM   22  C14 UNL     1      29.244  30.673  -2.606  1.00  0.00     0.182 A 
ATOM     23  H7  UNL     1      27.499  31.885  -2.633  1.00  0.00     0.168 HD
HETATM   24  N8  UNL     1      29.415  29.318  -2.584  1.00  0.00    -0.346 N 
ATOM     25  H8  UNL     1      30.311  28.830  -2.574  1.00  0.00     0.167 HD
BRANCH  15  26
HETATM   26  N5  UNL     1      24.311  27.885  -2.581  1.00  0.00    -0.226 N 
ATOM     27  H5  UNL     1      23.670  28.462  -3.127  1.00  0.00     0.177 HD
BRANCH  26  28
HETATM   28  C9  UNL     1      23.772  26.765  -1.841  1.00  0.00     0.138 C 
BRANCH  28  29
HETATM   29  C10 UNL     1      22.839  27.219  -0.743  1.00  0.00     0.022 C 
BRANCH  29  30
HETATM   30  C11 UNL     1      21.455  26.663  -0.881  1.00  0.00     0.028 C 
BRANCH  30  31
HETATM   31  C12 UNL     1      21.411  25.353  -1.611  1.00  0.00     0.164 C 
BRANCH  31  32
HETATM   32  O1  UNL     1      21.159  24.356  -0.650  1.00  0.00    -0.401 OA
ATOM     33  H1  UNL     1      20.847  23.591  -1.119  1.00  0.00     0.209 HD
ENDBRANCH  31  32
ENDBRANCH  30  31
ENDBRANCH  29  30
ENDBRANCH  28  29
ENDBRANCH  26  28
ENDBRANCH  15  26
ENDBRANCH  11  13
ENDBRANCH  10  11
TORSDOF 8
ENDMDL
