MODEL 1
REMARK VINA RESULT: -4.577162693      0.000      0.000
REMARK  9 active torsions:
REMARK  status: ('A' for Active; 'I' for Inactive)
REMARK    1  A    between atoms: C2_2  and  C3_3 
REMARK    2  A    between atoms: C3_3  and  N1_4 
REMARK    3  A    between atoms: N1_4  and  C4_6 
REMARK    4  A    between atoms: C5_9  and  N3_10 
REMARK    5  A    between atoms: C7_16  and  N5_17 
REMARK    6  A    between atoms: N5_17  and  C8_19 
REMARK    7  A    between atoms: C8_19  and  C10_21 
REMARK    8  A    between atoms: C10_21  and  O1_22 
REMARK    9  A    between atoms: C13_28  and  O2_29 
ROOT
HETATM    1  C4  UNL     1      27.847  31.099   9.508  1.00  0.00     0.132 A 
HETATM    2  N2  UNL     1      28.324  29.845   9.733  1.00  0.00    -0.176 N 
ATOM      3  H2  UNL     1      29.332  29.710   9.816  1.00  0.00     0.186 HD
HETATM    4  C5  UNL     1      27.518  28.782   9.851  1.00  0.00     0.678 A 
HETATM    5  N4  UNL     1      26.203  28.933   9.746  1.00  0.00    -0.187 N 
ATOM      6  H4  UNL     1      25.603  28.114   9.838  1.00  0.00     0.184 HD
HETATM    7  C6  UNL     1      25.643  30.120   9.526  1.00  0.00     0.109 A 
HETATM    8  C7  UNL     1      24.260  30.239   9.410  1.00  0.00     0.130 A 
HETATM    9  N6  UNL     1      23.730  31.441   9.179  1.00  0.00    -0.342 N 
ATOM     10  H6  UNL     1      22.718  31.536   9.091  1.00  0.00     0.167 HD
HETATM   11  C11 UNL     1      24.523  32.549   9.056  1.00  0.00     0.041 A 
HETATM   12  C12 UNL     1      23.937  33.882   8.798  1.00  0.00     0.071 C 
HETATM   13  C13 UNL     1      25.901  32.469   9.165  1.00  0.00     0.106 A 
HETATM   14  C15 UNL     1      26.478  31.240   9.402  1.00  0.00     0.074 A 
ENDROOT
BRANCH   8  15
HETATM   15  N5  UNL     1      23.559  29.185   9.532  1.00  0.00    -0.368 N 
ATOM     16  H5  UNL     1      23.530  28.746  10.453  1.00  0.00     0.161 HD
BRANCH  15  17
HETATM   17  C8  UNL     1      22.809  28.562   8.483  1.00  0.00     0.102 C 
HETATM   18  C9  UNL     1      21.431  28.235   9.052  1.00  0.00     0.034 C 
BRANCH  17  19
HETATM   19  C10 UNL     1      23.441  27.273   7.993  1.00  0.00     0.188 C 
BRANCH  19  20
HETATM   20  O1  UNL     1      24.668  27.482   7.415  1.00  0.00    -0.399 OA
ATOM     21  H1  UNL     1      24.844  26.869   6.712  1.00  0.00     0.209 HD
ENDBRANCH  19  20
ENDBRANCH  17  19
ENDBRANCH  15  17
ENDBRANCH   8  15
BRANCH   4  22
HETATM   22  N3  UNL     1      28.068  27.623  10.067  1.00  0.00    -0.234 N 
ATOM     23  H32 UNL     1      28.922  27.329   9.592  1.00  0.00     0.174 HD
ATOM     24  H31 UNL     1      27.616  26.999  10.736  1.00  0.00     0.174 HD
ENDBRANCH   4  22
BRANCH   1  25
HETATM   25  N1  UNL     1      28.628  32.093   9.381  1.00  0.00    -0.375 N 
ATOM     26  H1  UNL     1      28.269  32.903   8.876  1.00  0.00     0.161 HD
BRANCH  25  27
HETATM   27  C3  UNL     1      29.962  32.179   9.881  1.00  0.00     0.121 C 
BRANCH  27  28
HETATM   28  C2  UNL     1      30.911  32.576   8.762  1.00  0.00     0.015 C 
HETATM   29  C1  UNL     1      31.252  34.058   8.886  1.00  0.00     0.006 C 
ENDBRANCH  27  28
ENDBRANCH  25  27
ENDBRANCH   1  25
BRANCH  13  30
HETATM   30  O2  UNL     1      26.628  33.608   9.032  1.00  0.00    -0.353 OA
HETATM   31  C14 UNL     1      26.791  34.621  10.012  1.00  0.00     0.210 C 
ENDBRANCH  13  30
TORSDOF 9
ENDMDL
MODEL 2
REMARK VINA RESULT: -4.110969006      2.112      4.124
REMARK  9 active torsions:
REMARK  status: ('A' for Active; 'I' for Inactive)
REMARK    1  A    between atoms: C2_2  and  C3_3 
REMARK    2  A    between atoms: C3_3  and  N1_4 
REMARK    3  A    between atoms: N1_4  and  C4_6 
REMARK    4  A    between atoms: C5_9  and  N3_10 
REMARK    5  A    between atoms: C7_16  and  N5_17 
REMARK    6  A    between atoms: N5_17  and  C8_19 
REMARK    7  A    between atoms: C8_19  and  C10_21 
REMARK    8  A    between atoms: C10_21  and  O1_22 
REMARK    9  A    between atoms: C13_28  and  O2_29 
ROOT
HETATM    1  C4  UNL     1      24.407  32.330   9.377  1.00  0.00     0.132 A 
HETATM    2  N2  UNL     1      23.058  32.361   9.548  1.00  0.00    -0.176 N 
ATOM      3  H2  UNL     1      22.609  33.253   9.760  1.00  0.00     0.186 HD
HETATM    4  C5  UNL     1      22.298  31.263   9.446  1.00  0.00     0.678 A 
HETATM    5  N4  UNL     1      22.859  30.092   9.171  1.00  0.00    -0.187 N 
ATOM      6  H4  UNL     1      22.267  29.265   9.097  1.00  0.00     0.184 HD
HETATM    7  C6  UNL     1      24.171  29.962   8.988  1.00  0.00     0.109 A 
HETATM    8  C7  UNL     1      24.727  28.715   8.711  1.00  0.00     0.130 A 
HETATM    9  N6  UNL     1      26.047  28.617   8.544  1.00  0.00    -0.342 N 
ATOM     10  H6  UNL     1      26.461  27.707   8.343  1.00  0.00     0.167 HD
HETATM   11  C11 UNL     1      26.853  29.718   8.638  1.00  0.00     0.041 A 
HETATM   12  C12 UNL     1      28.317  29.610   8.453  1.00  0.00     0.071 C 
HETATM   13  C13 UNL     1      26.336  30.973   8.911  1.00  0.00     0.106 A 
HETATM   14  C15 UNL     1      24.976  31.106   9.091  1.00  0.00     0.074 A 
ENDROOT
BRANCH   8  15
HETATM   15  N5  UNL     1      23.942  27.718   8.631  1.00  0.00    -0.368 N 
ATOM     16  H5  UNL     1      23.320  27.548   9.421  1.00  0.00     0.161 HD
BRANCH  15  17
HETATM   17  C8  UNL     1      23.860  26.814   7.523  1.00  0.00     0.102 C 
HETATM   18  C9  UNL     1      23.003  27.489   6.456  1.00  0.00     0.034 C 
BRANCH  17  19
HETATM   19  C10 UNL     1      23.212  25.492   7.890  1.00  0.00     0.188 C 
BRANCH  19  20
HETATM   20  O1  UNL     1      24.116  24.460   7.922  1.00  0.00    -0.399 OA
ATOM     21  H1  UNL     1      24.906  24.689   8.398  1.00  0.00     0.209 HD
ENDBRANCH  19  20
ENDBRANCH  17  19
ENDBRANCH  15  17
ENDBRANCH   8  15
BRANCH   4  22
HETATM   22  N3  UNL     1      21.015  31.392   9.624  1.00  0.00    -0.234 N 
ATOM     23  H32 UNL     1      20.436  31.967   9.011  1.00  0.00     0.174 HD
ATOM     24  H31 UNL     1      20.591  30.896  10.408  1.00  0.00     0.174 HD
ENDBRANCH   4  22
BRANCH   1  25
HETATM   25  N1  UNL     1      25.114  33.379   9.496  1.00  0.00    -0.375 N 
ATOM     26  H1  UNL     1      25.986  33.294  10.017  1.00  0.00     0.161 HD
BRANCH  25  27
HETATM   27  C3  UNL     1      24.800  34.666   8.965  1.00  0.00     0.121 C 
BRANCH  27  28
HETATM   28  C2  UNL     1      26.076  35.458   8.734  1.00  0.00     0.015 C 
HETATM   29  C1  UNL     1      25.767  36.679   7.872  1.00  0.00     0.006 C 
ENDBRANCH  27  28
ENDBRANCH  25  27
ENDBRANCH   1  25
BRANCH  13  30
HETATM   30  O2  UNL     1      27.194  32.023   8.991  1.00  0.00    -0.353 OA
HETATM   31  C14 UNL     1      28.045  32.333  10.081  1.00  0.00     0.210 C 
ENDBRANCH  13  30
TORSDOF 9
ENDMDL
MODEL 3
REMARK VINA RESULT: -4.067732870      1.725      6.045
REMARK  9 active torsions:
REMARK  status: ('A' for Active; 'I' for Inactive)
REMARK    1  A    between atoms: C2_2  and  C3_3 
REMARK    2  A    between atoms: C3_3  and  N1_4 
REMARK    3  A    between atoms: N1_4  and  C4_6 
REMARK    4  A    between atoms: C5_9  and  N3_10 
REMARK    5  A    between atoms: C7_16  and  N5_17 
REMARK    6  A    between atoms: N5_17  and  C8_19 
REMARK    7  A    between atoms: C8_19  and  C10_21 
REMARK    8  A    between atoms: C10_21  and  O1_22 
REMARK    9  A    between atoms: C13_28  and  O2_29 
ROOT
HETATM    1  C4  UNL     1      25.449  30.415   8.984  1.00  0.00     0.132 A 
HETATM    2  N2  UNL     1      26.295  29.366   9.169  1.00  0.00    -0.176 N 
ATOM      3  H2  UNL     1      25.943  28.419   9.023  1.00  0.00     0.186 HD
HETATM    4  C5  UNL     1      27.573  29.532   9.534  1.00  0.00     0.678 A 
HETATM    5  N4  UNL     1      28.052  30.754   9.730  1.00  0.00    -0.187 N 
ATOM      6  H4  UNL     1      29.027  30.863  10.008  1.00  0.00     0.184 HD
HETATM    7  C6  UNL     1      27.301  31.841   9.575  1.00  0.00     0.109 A 
HETATM    8  C7  UNL     1      27.836  33.108   9.800  1.00  0.00     0.130 A 
HETATM    9  N6  UNL     1      27.054  34.178   9.646  1.00  0.00    -0.342 N 
ATOM     10  H6  UNL     1      27.437  35.109   9.811  1.00  0.00     0.167 HD
HETATM   11  C11 UNL     1      25.745  34.046   9.271  1.00  0.00     0.041 A 
HETATM   12  C12 UNL     1      24.877  35.231   9.101  1.00  0.00     0.071 C 
HETATM   13  C13 UNL     1      25.180  32.804   9.039  1.00  0.00     0.106 A 
HETATM   14  C15 UNL     1      25.962  31.679   9.191  1.00  0.00     0.074 A 
ENDROOT
BRANCH   8  15
HETATM   15  N5  UNL     1      29.057  33.186  10.146  1.00  0.00    -0.368 N 
ATOM     16  H5  UNL     1      29.287  32.936  11.107  1.00  0.00     0.161 HD
BRANCH  15  17
HETATM   17  C8  UNL     1      30.135  33.597   9.297  1.00  0.00     0.102 C 
HETATM   18  C9  UNL     1      31.369  32.807   9.725  1.00  0.00     0.034 C 
BRANCH  17  19
HETATM   19  C10 UNL     1      30.449  35.076   9.419  1.00  0.00     0.188 C 
BRANCH  19  20
HETATM   20  O1  UNL     1      31.030  35.580   8.282  1.00  0.00    -0.399 OA
ATOM     21  H1  UNL     1      30.562  36.333   7.942  1.00  0.00     0.209 HD
ENDBRANCH  19  20
ENDBRANCH  17  19
ENDBRANCH  15  17
ENDBRANCH   8  15
BRANCH   4  22
HETATM   22  N3  UNL     1      28.305  28.467   9.685  1.00  0.00    -0.234 N 
ATOM     23  H32 UNL     1      28.193  27.837  10.480  1.00  0.00     0.174 HD
ATOM     24  H31 UNL     1      29.012  28.271   8.976  1.00  0.00     0.174 HD
ENDBRANCH   4  22
BRANCH   1  25
HETATM   25  N1  UNL     1      24.234  30.238   8.655  1.00  0.00    -0.375 N 
ATOM     26  H1  UNL     1      23.784  30.985   8.128  1.00  0.00     0.161 HD
BRANCH  25  27
HETATM   27  C3  UNL     1      23.444  29.088   8.956  1.00  0.00     0.121 C 
BRANCH  27  28
HETATM   28  C2  UNL     1      23.502  28.102   7.801  1.00  0.00     0.015 C 
HETATM   29  C1  UNL     1      22.138  28.036   7.120  1.00  0.00     0.006 C 
ENDBRANCH  27  28
ENDBRANCH  25  27
ENDBRANCH   1  25
BRANCH  13  30
HETATM   30  O2  UNL     1      23.874  32.745   8.669  1.00  0.00    -0.353 OA
HETATM   31  C14 UNL     1      22.751  32.927   9.515  1.00  0.00     0.210 C 
ENDBRANCH  13  30
TORSDOF 9
ENDMDL
MODEL 4
REMARK VINA RESULT: -3.930644777      2.168      6.484
REMARK  9 active torsions:
REMARK  status: ('A' for Active; 'I' for Inactive)
REMARK    1  A    between atoms: C2_2  and  C3_3 
REMARK    2  A    between atoms: C3_3  and  N1_4 
REMARK    3  A    between atoms: N1_4  and  C4_6 
REMARK    4  A    between atoms: C5_9  and  N3_10 
REMARK    5  A    between atoms: C7_16  and  N5_17 
REMARK    6  A    between atoms: N5_17  and  C8_19 
REMARK    7  A    between atoms: C8_19  and  C10_21 
REMARK    8  A    between atoms: C10_21  and  O1_22 
REMARK    9  A    between atoms: C13_28  and  O2_29 
ROOT
HETATM    1  C4  UNL     1      23.965  29.426   9.078  1.00  0.00     0.132 A 
HETATM    2  N2  UNL     1      22.709  29.919   9.253  1.00  0.00    -0.176 N 
ATOM      3  H2  UNL     1      21.922  29.269   9.266  1.00  0.00     0.186 HD
HETATM    4  C5  UNL     1      22.468  31.228   9.408  1.00  0.00     0.678 A 
HETATM    5  N4  UNL     1      23.475  32.093   9.393  1.00  0.00    -0.187 N 
ATOM      6  H4  UNL     1      23.275  33.086   9.513  1.00  0.00     0.184 HD
HETATM    7  C6  UNL     1      24.737  31.706   9.228  1.00  0.00     0.109 A 
HETATM    8  C7  UNL     1      25.768  32.643   9.207  1.00  0.00     0.130 A 
HETATM    9  N6  UNL     1      27.021  32.224   9.029  1.00  0.00    -0.342 N 
ATOM     10  H6  UNL     1      27.781  32.904   9.011  1.00  0.00     0.167 HD
HETATM   11  C11 UNL     1      27.305  30.895   8.870  1.00  0.00     0.041 A 
HETATM   12  C12 UNL     1      28.694  30.429   8.672  1.00  0.00     0.071 C 
HETATM   13  C13 UNL     1      26.307  29.935   8.886  1.00  0.00     0.106 A 
HETATM   14  C15 UNL     1      25.001  30.337   9.066  1.00  0.00     0.074 A 
ENDROOT
BRANCH   8  15
HETATM   15  N5  UNL     1      25.461  33.868   9.360  1.00  0.00    -0.368 N 
ATOM     16  H5  UNL     1      24.585  34.075   9.838  1.00  0.00     0.161 HD
BRANCH  15  17
HETATM   17  C8  UNL     1      26.246  34.981   8.914  1.00  0.00     0.102 C 
HETATM   18  C9  UNL     1      26.924  35.573  10.146  1.00  0.00     0.034 C 
BRANCH  17  19
HETATM   19  C10 UNL     1      25.410  36.065   8.261  1.00  0.00     0.188 C 
BRANCH  19  20
HETATM   20  O1  UNL     1      26.026  36.606   7.161  1.00  0.00    -0.399 OA
ATOM     21  H1  UNL     1      25.599  37.400   6.863  1.00  0.00     0.209 HD
ENDBRANCH  19  20
ENDBRANCH  17  19
ENDBRANCH  15  17
ENDBRANCH   8  15
BRANCH   4  22
HETATM   22  N3  UNL     1      21.233  31.604   9.570  1.00  0.00    -0.234 N 
ATOM     23  H32 UNL     1      20.445  30.995   9.349  1.00  0.00     0.174 HD
ATOM     24  H31 UNL     1      21.064  32.544   9.930  1.00  0.00     0.174 HD
ENDBRANCH   4  22
BRANCH   1  25
HETATM   25  N1  UNL     1      24.172  28.184   8.915  1.00  0.00    -0.375 N 
ATOM     26  H1  UNL     1      25.054  27.812   9.265  1.00  0.00     0.161 HD
BRANCH  25  27
HETATM   27  C3  UNL     1      23.282  27.261   8.286  1.00  0.00     0.121 C 
BRANCH  27  28
HETATM   28  C2  UNL     1      23.532  27.238   6.788  1.00  0.00     0.015 C 
HETATM   29  C1  UNL     1      22.239  27.578   6.052  1.00  0.00     0.006 C 
ENDBRANCH  27  28
ENDBRANCH  25  27
ENDBRANCH   1  25
BRANCH  13  30
HETATM   30  O2  UNL     1      26.658  28.634   8.723  1.00  0.00    -0.353 OA
HETATM   31  C14 UNL     1      27.150  27.763   9.727  1.00  0.00     0.210 C 
ENDBRANCH  13  30
TORSDOF 9
ENDMDL
MODEL 5
REMARK VINA RESULT: -3.916115440      1.962      6.287
REMARK  9 active torsions:
REMARK  status: ('A' for Active; 'I' for Inactive)
REMARK    1  A    between atoms: C2_2  and  C3_3 
REMARK    2  A    between atoms: C3_3  and  N1_4 
REMARK    3  A    between atoms: N1_4  and  C4_6 
REMARK    4  A    between atoms: C5_9  and  N3_10 
REMARK    5  A    between atoms: C7_16  and  N5_17 
REMARK    6  A    between atoms: N5_17  and  C8_19 
REMARK    7  A    between atoms: C8_19  and  C10_21 
REMARK    8  A    between atoms: C10_21  and  O1_22 
REMARK    9  A    between atoms: C13_28  and  O2_29 
ROOT
HETATM    1  C4  UNL     1      25.158  30.467   9.042  1.00  0.00     0.132 A 
HETATM    2  N2  UNL     1      23.859  30.872   9.023  1.00  0.00    -0.176 N 
ATOM      3  H2  UNL     1      23.129  30.175   8.877  1.00  0.00     0.186 HD
HETATM    4  C5  UNL     1      23.506  32.154   9.190  1.00  0.00     0.678 A 
HETATM    5  N4  UNL     1      24.440  33.079   9.380  1.00  0.00    -0.187 N 
ATOM      6  H4  UNL     1      24.154  34.050   9.505  1.00  0.00     0.184 HD
HETATM    7  C6  UNL     1      25.735  32.779   9.414  1.00  0.00     0.109 A 
HETATM    8  C7  UNL     1      26.688  33.778   9.605  1.00  0.00     0.130 A 
HETATM    9  N6  UNL     1      27.980  33.446   9.623  1.00  0.00    -0.342 N 
ATOM     10  H6  UNL     1      28.683  34.172   9.761  1.00  0.00     0.167 HD
HETATM   11  C11 UNL     1      28.377  32.147   9.459  1.00  0.00     0.041 A 
HETATM   12  C12 UNL     1      29.809  31.778   9.478  1.00  0.00     0.071 C 
HETATM   13  C13 UNL     1      27.459  31.129   9.267  1.00  0.00     0.106 A 
HETATM   14  C15 UNL     1      26.116  31.440   9.242  1.00  0.00     0.074 A 
ENDROOT
BRANCH   8  15
HETATM   15  N5  UNL     1      26.276  34.972   9.754  1.00  0.00    -0.368 N 
ATOM     16  H5  UNL     1      25.833  35.206  10.642  1.00  0.00     0.161 HD
BRANCH  15  17
HETATM   17  C8  UNL     1      26.385  36.015   8.778  1.00  0.00     0.102 C 
HETATM   18  C9  UNL     1      27.214  37.131   9.406  1.00  0.00     0.034 C 
BRANCH  17  19
HETATM   19  C10 UNL     1      25.038  36.587   8.378  1.00  0.00     0.188 C 
BRANCH  19  20
HETATM   20  O1  UNL     1      24.190  35.627   7.887  1.00  0.00    -0.399 OA
ATOM     21  H1  UNL     1      23.480  36.000   7.379  1.00  0.00     0.209 HD
ENDBRANCH  19  20
ENDBRANCH  17  19
ENDBRANCH  15  17
ENDBRANCH   8  15
BRANCH   4  22
HETATM   22  N3  UNL     1      22.238  32.445   9.157  1.00  0.00    -0.234 N 
ATOM     23  H32 UNL     1      21.515  31.738   9.293  1.00  0.00     0.174 HD
ATOM     24  H31 UNL     1      21.977  33.416   8.988  1.00  0.00     0.174 HD
ENDBRANCH   4  22
BRANCH   1  25
HETATM   25  N1  UNL     1      25.475  29.250   8.864  1.00  0.00    -0.375 N 
ATOM     26  H1  UNL     1      26.369  29.066   8.409  1.00  0.00     0.161 HD
BRANCH  25  27
HETATM   27  C3  UNL     1      24.695  28.117   9.243  1.00  0.00     0.121 C 
BRANCH  27  28
HETATM   28  C2  UNL     1      24.588  27.147   8.078  1.00  0.00     0.015 C 
HETATM   29  C1  UNL     1      23.458  27.587   7.152  1.00  0.00     0.006 C 
ENDBRANCH  27  28
ENDBRANCH  25  27
ENDBRANCH   1  25
BRANCH  13  30
HETATM   30  O2  UNL     1      27.921  29.862   9.111  1.00  0.00    -0.353 OA
HETATM   31  C14 UNL     1      28.321  28.978  10.146  1.00  0.00     0.210 C 
ENDBRANCH  13  30
TORSDOF 9
ENDMDL
