MODEL 1
REMARK VINA RESULT: -5.400806667      0.000      0.000
REMARK  9 active torsions:
REMARK  status: ('A' for Active; 'I' for Inactive)
REMARK    1  A    between atoms: C2_2  and  C3_3 
REMARK    2  A    between atoms: C3_3  and  C4_4 
REMARK    3  A    between atoms: C5_5  and  C6_6 
REMARK    4  A    between atoms: C6_6  and  C7_7 
REMARK    5  A    between atoms: C8_8  and  S1_9 
REMARK    6  A    between atoms: S1_9  and  N1_10 
REMARK    7  A    between atoms: C9_16  and  N3_17 
REMARK    8  A    between atoms: C10_22  and  N5_23 
REMARK    9  A    between atoms: N6_28  and  O2_29 
ROOT
HETATM    1  C7  UNL     1      29.744  25.433  -1.172  1.00  0.00     0.029 A 
HETATM    2  C8  UNL     1      30.153  25.091   0.090  1.00  0.00     0.147 A 
HETATM    3  N2  UNL     1      29.880  23.908   0.662  1.00  0.00    -0.181 N 
ATOM      4  H2  UNL     1      30.213  23.715   1.607  1.00  0.00     0.185 HD
HETATM    5  C9  UNL     1      29.178  22.985   0.010  1.00  0.00     0.678 A 
HETATM    6  N4  UNL     1      28.755  23.273  -1.234  1.00  0.00    -0.177 N 
ATOM      7  H4  UNL     1      28.218  22.573  -1.744  1.00  0.00     0.185 HD
HETATM    8  C10 UNL     1      29.017  24.461  -1.836  1.00  0.00     0.124 A 
ENDROOT
BRANCH   1   9
HETATM    9  C6  UNL     1      30.080  26.699  -1.783  1.00  0.00     0.094 C 
BRANCH   9  10
HETATM   10  C5  UNL     1      29.004  27.576  -2.286  1.00  0.00     0.013 A 
HETATM   11  C4  UNL     1      28.830  28.912  -2.448  1.00  0.00     0.053 A 
HETATM   12  N6  UNL     1      27.681  29.350  -2.932  1.00  0.00    -0.233 N 
HETATM   13  C11 UNL     1      26.740  28.464  -3.239  1.00  0.00     0.173 A 
HETATM   14  S2  UNL     1      27.465  26.985  -2.850  1.00  0.00    -0.084 SA
BRANCH  11  15
HETATM   15  C3  UNL     1      29.904  29.913  -2.086  1.00  0.00     0.060 C 
BRANCH  15  16
HETATM   16  C2  UNL     1      29.526  30.526  -0.773  1.00  0.00     0.002 C 
HETATM   17  C1  UNL     1      29.058  31.962  -0.925  1.00  0.00     0.005 C 
ENDBRANCH  15  16
ENDBRANCH  11  15
BRANCH  12  18
HETATM   18  O2  UNL     1      27.348  30.720  -3.155  1.00  0.00    -0.283 OA
ATOM     19  H2  UNL     1      26.473  31.087  -3.111  1.00  0.00     0.245 HD
ENDBRANCH  12  18
ENDBRANCH   9  10
ENDBRANCH   1   9
BRANCH   2  20
HETATM   20  S1  UNL     1      31.084  26.207   1.022  1.00  0.00     0.162 S 
HETATM   21  O1  UNL     1      30.428  27.742   0.877  1.00  0.00    -0.229 OA
BRANCH  20  22
HETATM   22  N1  UNL     1      31.214  25.677   2.637  1.00  0.00    -0.344 NA
ATOM     23  H12 UNL     1      31.920  24.954   2.770  1.00  0.00     0.166 HD
ATOM     24  H11 UNL     1      31.409  26.463   3.257  1.00  0.00     0.166 HD
ENDBRANCH  20  22
ENDBRANCH   2  20
BRANCH   8  25
HETATM   25  N5  UNL     1      28.590  24.616  -3.037  1.00  0.00    -0.385 N 
ATOM     26  H52 UNL     1      28.840  23.899  -3.717  1.00  0.00     0.157 HD
ATOM     27  H51 UNL     1      28.043  25.428  -3.326  1.00  0.00     0.157 HD
ENDBRANCH   8  25
BRANCH   5  28
HETATM   28  N3  UNL     1      28.905  21.825   0.558  1.00  0.00    -0.234 N 
ATOM     29  H32 UNL     1      29.389  21.520   1.403  1.00  0.00     0.174 HD
ATOM     30  H31 UNL     1      28.203  21.202   0.157  1.00  0.00     0.174 HD
ENDBRANCH   5  28
TORSDOF 9
ENDMDL
MODEL 2
REMARK VINA RESULT: -5.364891037      2.057      3.003
REMARK  9 active torsions:
REMARK  status: ('A' for Active; 'I' for Inactive)
REMARK    1  A    between atoms: C2_2  and  C3_3 
REMARK    2  A    between atoms: C3_3  and  C4_4 
REMARK    3  A    between atoms: C5_5  and  C6_6 
REMARK    4  A    between atoms: C6_6  and  C7_7 
REMARK    5  A    between atoms: C8_8  and  S1_9 
REMARK    6  A    between atoms: S1_9  and  N1_10 
REMARK    7  A    between atoms: C9_16  and  N3_17 
REMARK    8  A    between atoms: C10_22  and  N5_23 
REMARK    9  A    between atoms: N6_28  and  O2_29 
ROOT
HETATM    1  C7  UNL     1      29.616  25.767  -1.821  1.00  0.00     0.029 A 
HETATM    2  C8  UNL     1      29.194  24.610  -2.423  1.00  0.00     0.147 A 
HETATM    3  N2  UNL     1      28.928  23.479  -1.751  1.00  0.00    -0.181 N 
ATOM      4  H2  UNL     1      28.618  22.651  -2.260  1.00  0.00     0.185 HD
HETATM    5  C9  UNL     1      29.064  23.428  -0.429  1.00  0.00     0.678 A 
HETATM    6  N4  UNL     1      29.474  24.540   0.208  1.00  0.00    -0.177 N 
ATOM      7  H4  UNL     1      29.581  24.513   1.222  1.00  0.00     0.185 HD
HETATM    8  C10 UNL     1      29.750  25.696  -0.446  1.00  0.00     0.124 A 
ENDROOT
BRANCH   1   9
HETATM    9  C6  UNL     1      29.862  26.984  -2.560  1.00  0.00     0.094 C 
BRANCH   9  10
HETATM   10  C5  UNL     1      28.761  27.945  -2.772  1.00  0.00     0.013 A 
HETATM   11  C4  UNL     1      28.614  29.292  -2.700  1.00  0.00     0.053 A 
HETATM   12  N6  UNL     1      27.428  29.817  -2.951  1.00  0.00    -0.233 N 
HETATM   13  C11 UNL     1      26.425  29.005  -3.264  1.00  0.00     0.173 A 
HETATM   14  S2  UNL     1      27.142  27.473  -3.210  1.00  0.00    -0.084 SA
BRANCH  11  15
HETATM   15  C3  UNL     1      29.760  30.208  -2.333  1.00  0.00     0.060 C 
BRANCH  15  16
HETATM   16  C2  UNL     1      29.630  30.535  -0.877  1.00  0.00     0.002 C 
HETATM   17  C1  UNL     1      29.062  31.924  -0.652  1.00  0.00     0.005 C 
ENDBRANCH  15  16
ENDBRANCH  11  15
BRANCH  12  18
HETATM   18  O2  UNL     1      27.118  31.211  -2.912  1.00  0.00    -0.283 OA
ATOM     19  H2  UNL     1      26.241  31.578  -2.906  1.00  0.00     0.245 HD
ENDBRANCH  12  18
ENDBRANCH   9  10
ENDBRANCH   1   9
BRANCH   2  20
HETATM   20  S1  UNL     1      28.968  24.567  -4.135  1.00  0.00     0.162 S 
HETATM   21  O1  UNL     1      30.454  24.688  -4.900  1.00  0.00    -0.229 OA
BRANCH  20  22
HETATM   22  N1  UNL     1      28.084  23.182  -4.588  1.00  0.00    -0.344 NA
ATOM     23  H12 UNL     1      27.075  23.327  -4.585  1.00  0.00     0.166 HD
ATOM     24  H11 UNL     1      28.379  22.854  -5.508  1.00  0.00     0.166 HD
ENDBRANCH  20  22
ENDBRANCH   2  20
BRANCH   8  25
HETATM   25  N5  UNL     1      30.105  26.704   0.267  1.00  0.00    -0.385 N 
ATOM     26  H52 UNL     1      29.462  27.006   0.998  1.00  0.00     0.157 HD
ATOM     27  H51 UNL     1      30.976  27.210   0.109  1.00  0.00     0.157 HD
ENDBRANCH   8  25
BRANCH   5  28
HETATM   28  N3  UNL     1      28.807  22.329   0.239  1.00  0.00    -0.234 N 
ATOM     29  H32 UNL     1      28.119  21.659  -0.104  1.00  0.00     0.174 HD
ATOM     30  H31 UNL     1      29.288  22.117   1.113  1.00  0.00     0.174 HD
ENDBRANCH   5  28
TORSDOF 9
ENDMDL
MODEL 3
REMARK VINA RESULT: -4.979435742      2.356      3.404
REMARK  9 active torsions:
REMARK  status: ('A' for Active; 'I' for Inactive)
REMARK    1  A    between atoms: C2_2  and  C3_3 
REMARK    2  A    between atoms: C3_3  and  C4_4 
REMARK    3  A    between atoms: C5_5  and  C6_6 
REMARK    4  A    between atoms: C6_6  and  C7_7 
REMARK    5  A    between atoms: C8_8  and  S1_9 
REMARK    6  A    between atoms: S1_9  and  N1_10 
REMARK    7  A    between atoms: C9_16  and  N3_17 
REMARK    8  A    between atoms: C10_22  and  N5_23 
REMARK    9  A    between atoms: N6_28  and  O2_29 
ROOT
HETATM    1  C7  UNL     1      30.550  24.910   0.481  1.00  0.00     0.029 A 
HETATM    2  C8  UNL     1      29.734  23.845   0.761  1.00  0.00     0.147 A 
HETATM    3  N2  UNL     1      29.416  23.463   2.008  1.00  0.00    -0.181 N 
ATOM      4  H2  UNL     1      28.803  22.660   2.149  1.00  0.00     0.185 HD
HETATM    5  C9  UNL     1      29.892  24.122   3.061  1.00  0.00     0.678 A 
HETATM    6  N4  UNL     1      30.696  25.177   2.837  1.00  0.00    -0.177 N 
ATOM      7  H4  UNL     1      31.066  25.690   3.637  1.00  0.00     0.185 HD
HETATM    8  C10 UNL     1      31.035  25.584   1.588  1.00  0.00     0.124 A 
ENDROOT
BRANCH   1   9
HETATM    9  C6  UNL     1      30.851  25.326  -0.870  1.00  0.00     0.094 C 
BRANCH   9  10
HETATM   10  C5  UNL     1      29.806  25.981  -1.682  1.00  0.00     0.013 A 
HETATM   11  C4  UNL     1      29.248  27.216  -1.740  1.00  0.00     0.053 A 
HETATM   12  N6  UNL     1      28.287  27.439  -2.620  1.00  0.00    -0.233 N 
HETATM   13  C11 UNL     1      27.905  26.444  -3.412  1.00  0.00     0.173 A 
HETATM   14  S2  UNL     1      28.902  25.165  -2.928  1.00  0.00    -0.084 SA
BRANCH  11  15
HETATM   15  C3  UNL     1      29.683  28.341  -0.827  1.00  0.00     0.060 C 
BRANCH  15  16
HETATM   16  C2  UNL     1      29.966  29.535  -1.685  1.00  0.00     0.002 C 
HETATM   17  C1  UNL     1      29.624  30.837  -0.984  1.00  0.00     0.005 C 
ENDBRANCH  15  16
ENDBRANCH  11  15
BRANCH  12  18
HETATM   18  O2  UNL     1      27.603  28.680  -2.798  1.00  0.00    -0.283 OA
ATOM     19  H2  UNL     1      27.129  29.148  -2.119  1.00  0.00     0.245 HD
ENDBRANCH  12  18
ENDBRANCH   9  10
ENDBRANCH   1   9
BRANCH   2  20
HETATM   20  S1  UNL     1      29.047  22.928  -0.531  1.00  0.00     0.162 S 
HETATM   21  O1  UNL     1      29.196  21.292  -0.198  1.00  0.00    -0.229 OA
BRANCH  20  22
HETATM   22  N1  UNL     1      27.440  23.415  -0.823  1.00  0.00    -0.344 NA
ATOM     23  H12 UNL     1      27.246  24.369  -0.523  1.00  0.00     0.166 HD
ATOM     24  H11 UNL     1      27.209  23.313  -1.811  1.00  0.00     0.166 HD
ENDBRANCH  20  22
ENDBRANCH   2  20
BRANCH   8  25
HETATM   25  N5  UNL     1      31.785  26.622   1.492  1.00  0.00    -0.385 N 
ATOM     26  H52 UNL     1      32.160  26.843   0.570  1.00  0.00     0.157 HD
ATOM     27  H51 UNL     1      32.028  27.200   2.296  1.00  0.00     0.157 HD
ENDBRANCH   8  25
BRANCH   5  28
HETATM   28  N3  UNL     1      29.588  23.759   4.285  1.00  0.00    -0.234 N 
ATOM     29  H32 UNL     1      30.169  24.045   5.073  1.00  0.00     0.174 HD
ATOM     30  H31 UNL     1      28.767  23.185   4.478  1.00  0.00     0.174 HD
ENDBRANCH   5  28
TORSDOF 9
ENDMDL
MODEL 4
REMARK VINA RESULT: -4.622791348      2.158      3.744
REMARK  9 active torsions:
REMARK  status: ('A' for Active; 'I' for Inactive)
REMARK    1  A    between atoms: C2_2  and  C3_3 
REMARK    2  A    between atoms: C3_3  and  C4_4 
REMARK    3  A    between atoms: C5_5  and  C6_6 
REMARK    4  A    between atoms: C6_6  and  C7_7 
REMARK    5  A    between atoms: C8_8  and  S1_9 
REMARK    6  A    between atoms: S1_9  and  N1_10 
REMARK    7  A    between atoms: C9_16  and  N3_17 
REMARK    8  A    between atoms: C10_22  and  N5_23 
REMARK    9  A    between atoms: N6_28  and  O2_29 
ROOT
HETATM    1  C7  UNL     1      29.724  25.845  -1.903  1.00  0.00     0.029 A 
HETATM    2  C8  UNL     1      29.203  24.727  -2.502  1.00  0.00     0.147 A 
HETATM    3  N2  UNL     1      28.801  23.642  -1.823  1.00  0.00    -0.181 N 
ATOM      4  H2  UNL     1      28.423  22.841  -2.330  1.00  0.00     0.185 HD
HETATM    5  C9  UNL     1      28.891  23.599  -0.497  1.00  0.00     0.678 A 
HETATM    6  N4  UNL     1      29.394  24.674   0.138  1.00  0.00    -0.177 N 
ATOM      7  H4  UNL     1      29.467  24.653   1.154  1.00  0.00     0.185 HD
HETATM    8  C10 UNL     1      29.809  25.784  -0.524  1.00  0.00     0.124 A 
ENDROOT
BRANCH   1   9
HETATM    9  C6  UNL     1      30.117  27.017  -2.651  1.00  0.00     0.094 C 
BRANCH   9  10
HETATM   10  C5  UNL     1      29.383  28.284  -2.462  1.00  0.00     0.013 A 
HETATM   11  C4  UNL     1      28.168  28.770  -2.821  1.00  0.00     0.053 A 
HETATM   12  N6  UNL     1      27.849  30.005  -2.475  1.00  0.00    -0.233 N 
HETATM   13  C11 UNL     1      28.732  30.722  -1.788  1.00  0.00     0.173 A 
HETATM   14  S2  UNL     1      30.038  29.660  -1.617  1.00  0.00    -0.084 SA
BRANCH  11  15
HETATM   15  C3  UNL     1      27.173  27.949  -3.611  1.00  0.00     0.060 C 
BRANCH  15  16
HETATM   16  C2  UNL     1      26.296  27.236  -2.629  1.00  0.00     0.002 C 
HETATM   17  C1  UNL     1      24.923  27.876  -2.520  1.00  0.00     0.005 C 
ENDBRANCH  15  16
ENDBRANCH  11  15
BRANCH  12  18
HETATM   18  O2  UNL     1      26.616  30.655  -2.782  1.00  0.00    -0.283 OA
ATOM     19  H2  UNL     1      25.949  30.318  -3.369  1.00  0.00     0.245 HD
ENDBRANCH  12  18
ENDBRANCH   9  10
ENDBRANCH   1   9
BRANCH   2  20
HETATM   20  S1  UNL     1      29.026  24.679  -4.220  1.00  0.00     0.162 S 
HETATM   21  O1  UNL     1      30.539  24.676  -4.940  1.00  0.00    -0.229 OA
BRANCH  20  22
HETATM   22  N1  UNL     1      28.053  23.358  -4.684  1.00  0.00    -0.344 NA
ATOM     23  H12 UNL     1      28.261  23.012  -5.620  1.00  0.00     0.166 HD
ATOM     24  H11 UNL     1      28.139  22.596  -4.011  1.00  0.00     0.166 HD
ENDBRANCH  20  22
ENDBRANCH   2  20
BRANCH   8  25
HETATM   25  N5  UNL     1      30.244  26.762   0.186  1.00  0.00    -0.385 N 
ATOM     26  H52 UNL     1      30.371  27.658  -0.283  1.00  0.00     0.157 HD
ATOM     27  H51 UNL     1      30.482  26.661   1.173  1.00  0.00     0.157 HD
ENDBRANCH   8  25
BRANCH   5  28
HETATM   28  N3  UNL     1      28.501  22.544   0.178  1.00  0.00    -0.234 N 
ATOM     29  H32 UNL     1      28.235  21.686  -0.304  1.00  0.00     0.174 HD
ATOM     30  H31 UNL     1      28.456  22.555   1.197  1.00  0.00     0.174 HD
ENDBRANCH   5  28
TORSDOF 9
ENDMDL
MODEL 5
REMARK VINA RESULT: -4.512317780      2.314      5.866
REMARK  9 active torsions:
REMARK  status: ('A' for Active; 'I' for Inactive)
REMARK    1  A    between atoms: C2_2  and  C3_3 
REMARK    2  A    between atoms: C3_3  and  C4_4 
REMARK    3  A    between atoms: C5_5  and  C6_6 
REMARK    4  A    between atoms: C6_6  and  C7_7 
REMARK    5  A    between atoms: C8_8  and  S1_9 
REMARK    6  A    between atoms: S1_9  and  N1_10 
REMARK    7  A    between atoms: C9_16  and  N3_17 
REMARK    8  A    between atoms: C10_22  and  N5_23 
REMARK    9  A    between atoms: N6_28  and  O2_29 
ROOT
HETATM    1  C7  UNL     1      28.779  28.365  -2.367  1.00  0.00     0.029 A 
HETATM    2  C8  UNL     1      28.503  29.702  -2.240  1.00  0.00     0.147 A 
HETATM    3  N2  UNL     1      27.575  30.339  -2.971  1.00  0.00    -0.181 N 
ATOM      4  H2  UNL     1      27.418  31.336  -2.828  1.00  0.00     0.185 HD
HETATM    5  C9  UNL     1      26.858  29.682  -3.879  1.00  0.00     0.678 A 
HETATM    6  N4  UNL     1      27.091  28.367  -4.039  1.00  0.00    -0.177 N 
ATOM      7  H4  UNL     1      26.547  27.853  -4.732  1.00  0.00     0.185 HD
HETATM    8  C10 UNL     1      28.024  27.698  -3.315  1.00  0.00     0.124 A 
ENDROOT
BRANCH   1   9
HETATM    9  C6  UNL     1      29.758  27.691  -1.545  1.00  0.00     0.094 C 
BRANCH   9  10
HETATM   10  C5  UNL     1      29.559  26.272  -1.189  1.00  0.00     0.013 A 
HETATM   11  C4  UNL     1      30.152  25.384  -0.351  1.00  0.00     0.053 A 
HETATM   12  N6  UNL     1      29.694  24.145  -0.309  1.00  0.00    -0.233 N 
HETATM   13  C11 UNL     1      28.670  23.818  -1.090  1.00  0.00     0.173 A 
HETATM   14  S2  UNL     1      28.332  25.262  -1.904  1.00  0.00    -0.084 SA
BRANCH  11  15
HETATM   15  C3  UNL     1      31.323  25.764   0.527  1.00  0.00     0.060 C 
BRANCH  15  16
HETATM   16  C2  UNL     1      30.772  26.210   1.846  1.00  0.00     0.002 C 
HETATM   17  C1  UNL     1      30.894  25.134   2.910  1.00  0.00     0.005 C 
ENDBRANCH  15  16
ENDBRANCH  11  15
BRANCH  12  18
HETATM   18  O2  UNL     1      30.213  23.101   0.515  1.00  0.00    -0.283 OA
ATOM     19  H2  UNL     1      31.086  22.732   0.448  1.00  0.00     0.245 HD
ENDBRANCH  12  18
ENDBRANCH   9  10
ENDBRANCH   1   9
BRANCH   2  20
HETATM   20  S1  UNL     1      29.363  30.648  -1.080  1.00  0.00     0.162 S 
HETATM   21  O1  UNL     1      30.848  31.098  -1.713  1.00  0.00    -0.229 OA
BRANCH  20  22
HETATM   22  N1  UNL     1      28.418  31.971  -0.567  1.00  0.00    -0.344 NA
ATOM     23  H12 UNL     1      28.179  31.938   0.423  1.00  0.00     0.166 HD
ATOM     24  H11 UNL     1      28.890  32.851  -0.776  1.00  0.00     0.166 HD
ENDBRANCH  20  22
ENDBRANCH   2  20
BRANCH   8  25
HETATM   25  N5  UNL     1      28.140  26.437  -3.531  1.00  0.00    -0.385 N 
ATOM     26  H52 UNL     1      28.704  26.152  -4.331  1.00  0.00     0.157 HD
ATOM     27  H51 UNL     1      27.676  25.736  -2.954  1.00  0.00     0.157 HD
ENDBRANCH   8  25
BRANCH   5  28
HETATM   28  N3  UNL     1      25.948  30.294  -4.599  1.00  0.00    -0.234 N 
ATOM     29  H32 UNL     1      24.961  30.051  -4.508  1.00  0.00     0.174 HD
ATOM     30  H31 UNL     1      26.202  31.025  -5.263  1.00  0.00     0.174 HD
ENDBRANCH   5  28
TORSDOF 9
ENDMDL
