MODEL 1
REMARK VINA RESULT: -3.910311598      0.000      0.000
REMARK  7 active torsions:
REMARK  status: ('A' for Active; 'I' for Inactive)
REMARK    1  A    between atoms: C5_9  and  N3_10 
REMARK    2  A    between atoms: C6_15  and  N5_16 
REMARK    3  A    between atoms: N6_21  and  C9_22 
REMARK    4  A    between atoms: C9_22  and  C10_23 
REMARK    5  A    between atoms: C10_23  and  N7_24 
REMARK    6  A    between atoms: N7_24  and  C11_25 
REMARK    7  A    between atoms: N7_24  and  C14_28 
ROOT
HETATM    1  C1  UNL     1      27.417  29.588   7.764  1.00  0.00     0.034 C 
HETATM    2  C2  UNL     1      27.200  29.225   9.239  1.00  0.00     0.097 C 
HETATM    3  C3  UNL     1      27.866  30.283  10.146  1.00  0.00     0.146 C 
HETATM    4  N1  UNL     1      27.443  31.579   9.627  1.00  0.00    -0.373 N 
ATOM      5  H1  UNL     1      28.157  32.267   9.387  1.00  0.00     0.161 HD
HETATM    6  C4  UNL     1      26.072  31.925   9.441  1.00  0.00     0.132 A 
HETATM    7  N2  UNL     1      25.941  33.210   8.994  1.00  0.00    -0.176 N 
ATOM      8  H2  UNL     1      26.766  33.788   8.834  1.00  0.00     0.186 HD
HETATM    9  C5  UNL     1      24.711  33.699   8.769  1.00  0.00     0.679 A 
HETATM   10  N4  UNL     1      23.605  32.947   8.978  1.00  0.00    -0.176 N 
ATOM     11  H4  UNL     1      22.684  33.347   8.799  1.00  0.00     0.186 HD
HETATM   12  C6  UNL     1      23.703  31.675   9.419  1.00  0.00     0.130 A 
HETATM   13  C7  UNL     1      24.944  31.146   9.657  1.00  0.00     0.068 A 
HETATM   14  C8  UNL     1      24.968  29.755  10.126  1.00  0.00     0.105 C 
HETATM   15  N6  UNL     1      25.897  28.897   9.569  1.00  0.00    -0.381 N 
ENDROOT
BRANCH  15  16
HETATM   16  C9  UNL     1      25.478  27.594   9.111  1.00  0.00     0.153 C 
BRANCH  16  17
HETATM   17  C10 UNL     1      24.092  27.651   8.639  1.00  0.00     0.293 C 
BRANCH  17  18
HETATM   18  N7  UNL     1      23.415  26.525   8.096  1.00  0.00     0.097 N 
BRANCH  18  19
HETATM   19  C11 UNL     1      22.721  25.898   9.205  1.00  0.00     0.215 C 
HETATM   20  C12 UNL     1      21.949  24.681   8.775  1.00  0.00     0.042 C 
HETATM   21  C13 UNL     1      22.015  26.826  10.146  1.00  0.00     0.042 C 
ENDBRANCH  18  19
BRANCH  18  22
HETATM   22  C14 UNL     1      22.758  26.649   6.914  1.00  0.00     0.215 C 
HETATM   23  C15 UNL     1      22.002  27.936   6.755  1.00  0.00     0.042 C 
HETATM   24  C16 UNL     1      23.579  26.537   5.643  1.00  0.00     0.042 C 
ENDBRANCH  18  22
ENDBRANCH  17  18
ENDBRANCH  16  17
ENDBRANCH  15  16
BRANCH  12  25
HETATM   25  N5  UNL     1      22.680  30.939   9.628  1.00  0.00    -0.384 N 
ATOM     26  H52 UNL     1      22.057  31.183  10.397  1.00  0.00     0.157 HD
ATOM     27  H51 UNL     1      22.465  30.123   9.056  1.00  0.00     0.157 HD
ENDBRANCH  12  25
BRANCH   9  28
HETATM   28  N3  UNL     1      24.531  34.902   8.340  1.00  0.00    -0.234 N 
ATOM     29  H32 UNL     1      25.365  35.459   8.153  1.00  0.00     0.174 HD
ATOM     30  H31 UNL     1      23.596  35.284   8.198  1.00  0.00     0.174 HD
ENDBRANCH   9  28
TORSDOF 7
ENDMDL
MODEL 2
REMARK VINA RESULT: -3.612778816     11.279     13.150
REMARK  7 active torsions:
REMARK  status: ('A' for Active; 'I' for Inactive)
REMARK    1  A    between atoms: C5_9  and  N3_10 
REMARK    2  A    between atoms: C6_15  and  N5_16 
REMARK    3  A    between atoms: N6_21  and  C9_22 
REMARK    4  A    between atoms: C9_22  and  C10_23 
REMARK    5  A    between atoms: C10_23  and  N7_24 
REMARK    6  A    between atoms: N7_24  and  C11_25 
REMARK    7  A    between atoms: N7_24  and  C14_28 
ROOT
HETATM    1  C1  UNL     1      29.405  25.213  -3.583  1.00  0.00     0.034 C 
HETATM    2  C2  UNL     1      28.605  26.136  -2.654  1.00  0.00     0.097 C 
HETATM    3  C3  UNL     1      27.422  25.361  -2.033  1.00  0.00     0.146 C 
HETATM    4  N1  UNL     1      27.979  24.107  -1.539  1.00  0.00    -0.373 N 
ATOM      5  H1  UNL     1      27.558  23.230  -1.847  1.00  0.00     0.161 HD
HETATM    6  C4  UNL     1      29.087  24.055  -0.643  1.00  0.00     0.132 A 
HETATM    7  N2  UNL     1      29.382  22.768  -0.292  1.00  0.00    -0.176 N 
ATOM      8  H2  UNL     1      28.835  21.992  -0.666  1.00  0.00     0.186 HD
HETATM    9  C5  UNL     1      30.401  22.539   0.552  1.00  0.00     0.679 A 
HETATM   10  N4  UNL     1      31.137  23.556   1.058  1.00  0.00    -0.176 N 
ATOM     11  H4  UNL     1      31.904  23.351   1.698  1.00  0.00     0.186 HD
HETATM   12  C6  UNL     1      30.869  24.838   0.730  1.00  0.00     0.130 A 
HETATM   13  C7  UNL     1      29.836  25.104  -0.130  1.00  0.00     0.068 A 
HETATM   14  C8  UNL     1      29.615  26.521  -0.445  1.00  0.00     0.105 C 
HETATM   15  N6  UNL     1      29.370  26.864  -1.760  1.00  0.00    -0.381 N 
ENDROOT
BRANCH  15  16
HETATM   16  C9  UNL     1      30.090  27.965  -2.355  1.00  0.00     0.153 C 
BRANCH  16  17
HETATM   17  C10 UNL     1      29.173  28.802  -3.132  1.00  0.00     0.293 C 
BRANCH  17  18
HETATM   18  N7  UNL     1      28.215  29.661  -2.528  1.00  0.00     0.097 N 
BRANCH  18  19
HETATM   19  C11 UNL     1      28.916  30.893  -2.217  1.00  0.00     0.215 C 
HETATM   20  C12 UNL     1      29.686  30.797  -0.929  1.00  0.00     0.042 C 
HETATM   21  C13 UNL     1      28.144  32.159  -2.430  1.00  0.00     0.042 C 
ENDBRANCH  18  19
BRANCH  18  22
HETATM   22  C14 UNL     1      26.969  29.749  -3.062  1.00  0.00     0.215 C 
HETATM   23  C15 UNL     1      26.933  29.733  -4.562  1.00  0.00     0.042 C 
HETATM   24  C16 UNL     1      25.958  28.694  -2.651  1.00  0.00     0.042 C 
ENDBRANCH  18  22
ENDBRANCH  17  18
ENDBRANCH  16  17
ENDBRANCH  15  16
BRANCH  12  25
HETATM   25  N5  UNL     1      31.543  25.821   1.192  1.00  0.00    -0.384 N 
ATOM     26  H52 UNL     1      32.378  25.620   1.740  1.00  0.00     0.157 HD
ATOM     27  H51 UNL     1      31.276  26.792   1.031  1.00  0.00     0.157 HD
ENDBRANCH  12  25
BRANCH   9  28
HETATM   28  N3  UNL     1      30.727  21.344   0.910  1.00  0.00    -0.234 N 
ATOM     29  H32 UNL     1      30.462  20.583   0.283  1.00  0.00     0.174 HD
ATOM     30  H31 UNL     1      31.222  21.164   1.782  1.00  0.00     0.174 HD
ENDBRANCH   9  28
TORSDOF 7
ENDMDL
MODEL 3
REMARK VINA RESULT: -3.612701434     11.214     13.144
REMARK  7 active torsions:
REMARK  status: ('A' for Active; 'I' for Inactive)
REMARK    1  A    between atoms: C5_9  and  N3_10 
REMARK    2  A    between atoms: C6_15  and  N5_16 
REMARK    3  A    between atoms: N6_21  and  C9_22 
REMARK    4  A    between atoms: C9_22  and  C10_23 
REMARK    5  A    between atoms: C10_23  and  N7_24 
REMARK    6  A    between atoms: N7_24  and  C11_25 
REMARK    7  A    between atoms: N7_24  and  C14_28 
ROOT
HETATM    1  C1  UNL     1      29.447  25.254  -3.664  1.00  0.00     0.034 C 
HETATM    2  C2  UNL     1      28.556  26.149  -2.792  1.00  0.00     0.097 C 
HETATM    3  C3  UNL     1      27.437  25.306  -2.142  1.00  0.00     0.146 C 
HETATM    4  N1  UNL     1      28.096  24.133  -1.579  1.00  0.00    -0.373 N 
ATOM      5  H1  UNL     1      27.758  23.207  -1.844  1.00  0.00     0.161 HD
HETATM    6  C4  UNL     1      29.192  24.225  -0.671  1.00  0.00     0.132 A 
HETATM    7  N2  UNL     1      29.593  22.988  -0.251  1.00  0.00    -0.176 N 
ATOM      8  H2  UNL     1      29.122  22.149  -0.588  1.00  0.00     0.186 HD
HETATM    9  C5  UNL     1      30.617  22.894   0.613  1.00  0.00     0.679 A 
HETATM   10  N4  UNL     1      31.253  23.996   1.073  1.00  0.00    -0.176 N 
ATOM     11  H4  UNL     1      32.027  23.893   1.730  1.00  0.00     0.186 HD
HETATM   12  C6  UNL     1      30.879  25.231   0.676  1.00  0.00     0.130 A 
HETATM   13  C7  UNL     1      29.839  25.361  -0.206  1.00  0.00     0.068 A 
HETATM   14  C8  UNL     1      29.498  26.735  -0.597  1.00  0.00     0.105 C 
HETATM   15  N6  UNL     1      29.243  26.987  -1.931  1.00  0.00    -0.381 N 
ENDROOT
BRANCH  15  16
HETATM   16  C9  UNL     1      29.872  28.115  -2.575  1.00  0.00     0.153 C 
BRANCH  16  17
HETATM   17  C10 UNL     1      29.343  29.365  -2.025  1.00  0.00     0.293 C 
BRANCH  17  18
HETATM   18  N7  UNL     1      28.452  30.208  -2.744  1.00  0.00     0.097 N 
BRANCH  18  19
HETATM   19  C11 UNL     1      27.488  29.330  -3.379  1.00  0.00     0.215 C 
HETATM   20  C12 UNL     1      27.228  29.714  -4.810  1.00  0.00     0.042 C 
HETATM   21  C13 UNL     1      26.282  28.979  -2.562  1.00  0.00     0.042 C 
ENDBRANCH  18  19
BRANCH  18  22
HETATM   22  C14 UNL     1      27.997  31.346  -2.159  1.00  0.00     0.215 C 
HETATM   23  C15 UNL     1      28.873  31.877  -1.063  1.00  0.00     0.042 C 
HETATM   24  C16 UNL     1      27.754  32.544  -3.059  1.00  0.00     0.042 C 
ENDBRANCH  18  22
ENDBRANCH  17  18
ENDBRANCH  16  17
ENDBRANCH  15  16
BRANCH  12  25
HETATM   25  N5  UNL     1      31.457  26.292   1.092  1.00  0.00    -0.384 N 
ATOM     26  H52 UNL     1      32.053  26.227   1.917  1.00  0.00     0.157 HD
ATOM     27  H51 UNL     1      31.346  27.195   0.631  1.00  0.00     0.157 HD
ENDBRANCH  12  25
BRANCH   9  28
HETATM   28  N3  UNL     1      31.041  21.752   1.036  1.00  0.00    -0.234 N 
ATOM     29  H32 UNL     1      31.157  21.013   0.342  1.00  0.00     0.174 HD
ATOM     30  H31 UNL     1      31.247  21.590   2.022  1.00  0.00     0.174 HD
ENDBRANCH   9  28
TORSDOF 7
ENDMDL
MODEL 4
REMARK VINA RESULT: -3.548502109     10.127     12.103
REMARK  7 active torsions:
REMARK  status: ('A' for Active; 'I' for Inactive)
REMARK    1  A    between atoms: C5_9  and  N3_10 
REMARK    2  A    between atoms: C6_15  and  N5_16 
REMARK    3  A    between atoms: N6_21  and  C9_22 
REMARK    4  A    between atoms: C9_22  and  C10_23 
REMARK    5  A    between atoms: C10_23  and  N7_24 
REMARK    6  A    between atoms: N7_24  and  C11_25 
REMARK    7  A    between atoms: N7_24  and  C14_28 
ROOT
HETATM    1  C1  UNL     1      27.822  24.994  -1.453  1.00  0.00     0.034 C 
HETATM    2  C2  UNL     1      29.254  25.206  -1.963  1.00  0.00     0.097 C 
HETATM    3  C3  UNL     1      29.265  25.225  -3.507  1.00  0.00     0.146 C 
HETATM    4  N1  UNL     1      28.190  26.127  -3.905  1.00  0.00    -0.373 N 
ATOM      5  H1  UNL     1      27.480  25.786  -4.553  1.00  0.00     0.161 HD
HETATM    6  C4  UNL     1      28.091  27.467  -3.426  1.00  0.00     0.132 A 
HETATM    7  N2  UNL     1      27.027  28.116  -3.987  1.00  0.00    -0.176 N 
ATOM      8  H2  UNL     1      26.423  27.639  -4.656  1.00  0.00     0.186 HD
HETATM    9  C5  UNL     1      26.790  29.394  -3.646  1.00  0.00     0.679 A 
HETATM   10  N4  UNL     1      27.582  30.045  -2.762  1.00  0.00    -0.176 N 
ATOM     11  H4  UNL     1      27.378  31.015  -2.524  1.00  0.00     0.186 HD
HETATM   12  C6  UNL     1      28.640  29.429  -2.192  1.00  0.00     0.130 A 
HETATM   13  C7  UNL     1      28.908  28.125  -2.518  1.00  0.00     0.068 A 
HETATM   14  C8  UNL     1      30.068  27.524  -1.849  1.00  0.00     0.105 C 
HETATM   15  N6  UNL     1      29.939  26.241  -1.353  1.00  0.00    -0.381 N 
ENDROOT
BRANCH  15  16
HETATM   16  C9  UNL     1      30.382  25.950  -0.010  1.00  0.00     0.153 C 
BRANCH  16  17
HETATM   17  C10 UNL     1      30.408  24.502   0.206  1.00  0.00     0.293 C 
BRANCH  17  18
HETATM   18  N7  UNL     1      29.772  23.876   1.313  1.00  0.00     0.097 N 
BRANCH  18  19
HETATM   19  C11 UNL     1      29.205  22.639   0.807  1.00  0.00     0.215 C 
HETATM   20  C12 UNL     1      27.798  22.421   1.291  1.00  0.00     0.042 C 
HETATM   21  C13 UNL     1      30.106  21.443   0.841  1.00  0.00     0.042 C 
ENDBRANCH  18  19
BRANCH  18  22
HETATM   22  C14 UNL     1      30.404  23.848   2.514  1.00  0.00     0.215 C 
HETATM   23  C15 UNL     1      31.057  25.141   2.904  1.00  0.00     0.042 C 
HETATM   24  C16 UNL     1      29.578  23.464   3.728  1.00  0.00     0.042 C 
ENDBRANCH  18  22
ENDBRANCH  17  18
ENDBRANCH  16  17
ENDBRANCH  15  16
BRANCH  12  25
HETATM   25  N5  UNL     1      29.408  30.015  -1.356  1.00  0.00    -0.384 N 
ATOM     26  H52 UNL     1      29.513  29.607  -0.427  1.00  0.00     0.157 HD
ATOM     27  H51 UNL     1      29.917  30.868  -1.584  1.00  0.00     0.157 HD
ENDBRANCH  12  25
BRANCH   9  28
HETATM   28  N3  UNL     1      25.797  30.051  -4.140  1.00  0.00    -0.234 N 
ATOM     29  H32 UNL     1      25.961  30.560  -5.009  1.00  0.00     0.174 HD
ATOM     30  H31 UNL     1      24.886  30.067  -3.681  1.00  0.00     0.174 HD
ENDBRANCH   9  28
TORSDOF 7
ENDMDL
MODEL 5
REMARK VINA RESULT: -3.336952293     10.270     12.378
REMARK  7 active torsions:
REMARK  status: ('A' for Active; 'I' for Inactive)
REMARK    1  A    between atoms: C5_9  and  N3_10 
REMARK    2  A    between atoms: C6_15  and  N5_16 
REMARK    3  A    between atoms: N6_21  and  C9_22 
REMARK    4  A    between atoms: C9_22  and  C10_23 
REMARK    5  A    between atoms: C10_23  and  N7_24 
REMARK    6  A    between atoms: N7_24  and  C11_25 
REMARK    7  A    between atoms: N7_24  and  C14_28 
ROOT
HETATM    1  C1  UNL     1      30.106  27.151  -0.192  1.00  0.00     0.034 C 
HETATM    2  C2  UNL     1      30.358  26.088  -1.271  1.00  0.00     0.097 C 
HETATM    3  C3  UNL     1      31.611  25.259  -0.912  1.00  0.00     0.146 C 
HETATM    4  N1  UNL     1      31.453  24.880   0.488  1.00  0.00    -0.373 N 
ATOM      5  H1  UNL     1      32.201  25.105   1.143  1.00  0.00     0.161 HD
HETATM    6  C4  UNL     1      30.296  24.205   0.978  1.00  0.00     0.132 A 
HETATM    7  N2  UNL     1      30.416  23.917   2.308  1.00  0.00    -0.176 N 
ATOM      8  H2  UNL     1      31.257  24.184   2.822  1.00  0.00     0.186 HD
HETATM    9  C5  UNL     1      29.413  23.277   2.930  1.00  0.00     0.679 A 
HETATM   10  N4  UNL     1      28.291  22.914   2.265  1.00  0.00    -0.176 N 
ATOM     11  H4  UNL     1      27.546  22.428   2.764  1.00  0.00     0.186 HD
HETATM   12  C6  UNL     1      28.144  23.185   0.951  1.00  0.00     0.130 A 
HETATM   13  C7  UNL     1      29.150  23.838   0.288  1.00  0.00     0.068 A 
HETATM   14  C8  UNL     1      28.911  24.104  -1.136  1.00  0.00     0.105 C 
HETATM   15  N6  UNL     1      29.243  25.351  -1.629  1.00  0.00    -0.381 N 
ENDROOT
BRANCH  15  16
HETATM   16  C9  UNL     1      28.297  26.066  -2.451  1.00  0.00     0.153 C 
BRANCH  16  17
HETATM   17  C10 UNL     1      28.704  27.467  -2.579  1.00  0.00     0.293 C 
BRANCH  17  18
HETATM   18  N7  UNL     1      27.773  28.541  -2.624  1.00  0.00     0.097 N 
BRANCH  18  19
HETATM   19  C11 UNL     1      28.558  29.760  -2.581  1.00  0.00     0.215 C 
HETATM   20  C12 UNL     1      29.915  29.538  -1.969  1.00  0.00     0.042 C 
HETATM   21  C13 UNL     1      27.831  30.993  -2.141  1.00  0.00     0.042 C 
ENDBRANCH  18  19
BRANCH  18  22
HETATM   22  C14 UNL     1      26.729  28.479  -3.492  1.00  0.00     0.215 C 
HETATM   23  C15 UNL     1      25.378  28.584  -2.848  1.00  0.00     0.042 C 
HETATM   24  C16 UNL     1      26.692  29.503  -4.612  1.00  0.00     0.042 C 
ENDBRANCH  18  22
ENDBRANCH  17  18
ENDBRANCH  16  17
ENDBRANCH  15  16
BRANCH  12  25
HETATM   25  N5  UNL     1      27.099  22.854   0.293  1.00  0.00    -0.384 N 
ATOM     26  H52 UNL     1      26.195  22.905   0.763  1.00  0.00     0.157 HD
ATOM     27  H51 UNL     1      27.137  22.545  -0.678  1.00  0.00     0.157 HD
ENDBRANCH  12  25
BRANCH   9  28
HETATM   28  N3  UNL     1      29.471  22.988   4.186  1.00  0.00    -0.234 N 
ATOM     29  H32 UNL     1      30.255  22.412   4.494  1.00  0.00     0.174 HD
ATOM     30  H31 UNL     1      28.763  23.314   4.843  1.00  0.00     0.174 HD
ENDBRANCH   9  28
TORSDOF 7
ENDMDL
