MODEL 1
REMARK VINA RESULT: -4.769652522      0.000      0.000
REMARK  4 active torsions:
REMARK  status: ('A' for Active; 'I' for Inactive)
REMARK    1  A    between atoms: C2_2  and  C3_3 
REMARK    2  A    between atoms: C3_3  and  N1_4 
REMARK    3  A    between atoms: C6_10  and  N2_11 
REMARK    4  A    between atoms: N3_16  and  N4_18 
ROOT
HETATM    1  C1  UNL     1     -37.691  11.449 -12.341  1.00  0.00     0.023 C 
HETATM    2  C2  UNL     1     -38.735  11.391 -11.231  1.00  0.00     0.022 C 
HETATM    3  C4  UNL     1     -38.611  12.589 -10.378  1.00  0.00     0.019 C 
HETATM    4  C5  UNL     1     -38.837  12.016  -8.974  1.00  0.00     0.040 C 
HETATM    5  C6  UNL     1     -37.945  10.796  -9.061  1.00  0.00     0.231 C 
HETATM    6  C7  UNL     1     -38.365  10.236 -10.368  1.00  0.00     0.043 C 
HETATM    7  N3  UNL     1     -38.397   8.988 -10.676  1.00  0.00    -0.312 N 
ATOM      8  H3  UNL     1     -38.704   8.712 -11.609  1.00  0.00     0.185 HD
ENDROOT
BRANCH   2   9
HETATM    9  C3  UNL     1     -40.059  11.166 -11.871  1.00  0.00     0.244 C 
BRANCH   9  10
HETATM   10  N1  UNL     1     -40.804  10.052 -11.402  1.00  0.00    -0.078 N 
ATOM     11  H13 UNL     1     -40.905  10.108 -10.388  1.00  0.00     0.274 HD
ATOM     12  H12 UNL     1     -41.777  10.143 -11.690  1.00  0.00     0.274 HD
ATOM     13  H11 UNL     1     -40.452   9.131 -11.663  1.00  0.00     0.274 HD
ENDBRANCH   9  10
ENDBRANCH   2   9
BRANCH   5  14
HETATM   14  N2  UNL     1     -38.136   9.889  -7.966  1.00  0.00    -0.070 N 
ATOM     15  H23 UNL     1     -38.733  10.302  -7.250  1.00  0.00     0.275 HD
ATOM     16  H22 UNL     1     -38.727   9.104  -8.240  1.00  0.00     0.275 HD
ATOM     17  H21 UNL     1     -37.257   9.562  -7.566  1.00  0.00     0.275 HD
ENDBRANCH   5  14
BRANCH   7  18
HETATM   18  N4  UNL     1     -38.020   8.001  -9.766  1.00  0.00    -0.345 N 
ATOM     19  H42 UNL     1     -37.103   8.077  -9.326  1.00  0.00     0.176 HD
ATOM     20  H41 UNL     1     -38.636   7.220  -9.539  1.00  0.00     0.176 HD
ENDBRANCH   7  18
TORSDOF 4
ENDMDL
MODEL 2
REMARK VINA RESULT: -4.552639808      1.675      2.720
REMARK  4 active torsions:
REMARK  status: ('A' for Active; 'I' for Inactive)
REMARK    1  A    between atoms: C2_2  and  C3_3 
REMARK    2  A    between atoms: C3_3  and  N1_4 
REMARK    3  A    between atoms: C6_10  and  N2_11 
REMARK    4  A    between atoms: N3_16  and  N4_18 
ROOT
HETATM    1  C1  UNL     1     -40.026  12.327 -10.504  1.00  0.00     0.023 C 
HETATM    2  C2  UNL     1     -39.111  11.181 -10.923  1.00  0.00     0.022 C 
HETATM    3  C4  UNL     1     -39.921  10.101 -11.520  1.00  0.00     0.019 C 
HETATM    4  C5  UNL     1     -39.245   8.841 -10.965  1.00  0.00     0.040 C 
HETATM    5  C6  UNL     1     -39.107   9.257  -9.515  1.00  0.00     0.231 C 
HETATM    6  C7  UNL     1     -38.542  10.619  -9.668  1.00  0.00     0.043 C 
HETATM    7  N3  UNL     1     -37.718  11.186  -8.860  1.00  0.00    -0.312 N 
ATOM      8  H3  UNL     1     -37.392  12.131  -9.064  1.00  0.00     0.185 HD
ENDROOT
BRANCH   2   9
HETATM    9  C3  UNL     1     -38.036  11.754 -11.778  1.00  0.00     0.244 C 
BRANCH   9  10
HETATM   10  N1  UNL     1     -36.917  10.917 -12.026  1.00  0.00    -0.078 N 
ATOM     11  H13 UNL     1     -37.132  10.272 -12.787  1.00  0.00     0.274 HD
ATOM     12  H12 UNL     1     -36.168  11.462 -12.452  1.00  0.00     0.274 HD
ATOM     13  H11 UNL     1     -36.554  10.399 -11.227  1.00  0.00     0.274 HD
ENDBRANCH   9  10
ENDBRANCH   2   9
BRANCH   5  14
HETATM   14  N2  UNL     1     -38.263   8.373  -8.763  1.00  0.00    -0.070 N 
ATOM     15  H23 UNL     1     -38.706   7.462  -8.641  1.00  0.00     0.275 HD
ATOM     16  H22 UNL     1     -37.450   8.090  -9.309  1.00  0.00     0.275 HD
ATOM     17  H21 UNL     1     -37.982   8.766  -7.864  1.00  0.00     0.275 HD
ENDBRANCH   5  14
BRANCH   7  18
HETATM   18  N4  UNL     1     -37.261  10.542  -7.712  1.00  0.00    -0.345 N 
ATOM     19  H42 UNL     1     -37.383  11.013  -6.814  1.00  0.00     0.176 HD
ATOM     20  H41 UNL     1     -36.814   9.626  -7.754  1.00  0.00     0.176 HD
ENDBRANCH   7  18
TORSDOF 4
ENDMDL
MODEL 3
REMARK VINA RESULT: -4.440260091      1.750      3.443
REMARK  4 active torsions:
REMARK  status: ('A' for Active; 'I' for Inactive)
REMARK    1  A    between atoms: C2_2  and  C3_3 
REMARK    2  A    between atoms: C3_3  and  N1_4 
REMARK    3  A    between atoms: C6_10  and  N2_11 
REMARK    4  A    between atoms: N3_16  and  N4_18 
ROOT
HETATM    1  C1  UNL     1     -37.198  11.087 -11.551  1.00  0.00     0.023 C 
HETATM    2  C2  UNL     1     -38.235  10.675 -10.513  1.00  0.00     0.022 C 
HETATM    3  C4  UNL     1     -37.916   9.324 -10.008  1.00  0.00     0.019 C 
HETATM    4  C5  UNL     1     -39.304   8.684  -9.889  1.00  0.00     0.040 C 
HETATM    5  C6  UNL     1     -39.883   9.105 -11.223  1.00  0.00     0.231 C 
HETATM    6  C7  UNL     1     -39.527  10.544 -11.240  1.00  0.00     0.043 C 
HETATM    7  N3  UNL     1     -40.217  11.483 -11.784  1.00  0.00    -0.312 N 
ATOM      8  H3  UNL     1     -39.876  12.444 -11.736  1.00  0.00     0.185 HD
ENDROOT
BRANCH   2   9
HETATM    9  C3  UNL     1     -38.311  11.761  -9.498  1.00  0.00     0.244 C 
BRANCH   9  10
HETATM   10  N1  UNL     1     -38.012  11.393  -8.160  1.00  0.00    -0.078 N 
ATOM     11  H13 UNL     1     -37.273  11.994  -7.795  1.00  0.00     0.274 HD
ATOM     12  H12 UNL     1     -38.785  11.659  -7.549  1.00  0.00     0.274 HD
ATOM     13  H11 UNL     1     -37.771  10.415  -8.003  1.00  0.00     0.274 HD
ENDBRANCH   9  10
ENDBRANCH   2   9
BRANCH   5  14
HETATM   14  N2  UNL     1     -41.296   8.868 -11.314  1.00  0.00    -0.070 N 
ATOM     15  H23 UNL     1     -41.492   8.050 -11.890  1.00  0.00     0.275 HD
ATOM     16  H22 UNL     1     -41.669   8.538 -10.424  1.00  0.00     0.275 HD
ATOM     17  H21 UNL     1     -41.812   9.683 -11.648  1.00  0.00     0.275 HD
ENDBRANCH   5  14
BRANCH   7  18
HETATM   18  N4  UNL     1     -41.419  11.221 -12.439  1.00  0.00    -0.345 N 
ATOM     19  H42 UNL     1     -42.289  11.469 -11.967  1.00  0.00     0.176 HD
ATOM     20  H41 UNL     1     -41.441  10.793 -13.365  1.00  0.00     0.176 HD
ENDBRANCH   7  18
TORSDOF 4
ENDMDL
MODEL 4
REMARK VINA RESULT: -4.192359785      1.286      1.520
REMARK  4 active torsions:
REMARK  status: ('A' for Active; 'I' for Inactive)
REMARK    1  A    between atoms: C2_2  and  C3_3 
REMARK    2  A    between atoms: C3_3  and  N1_4 
REMARK    3  A    between atoms: C6_10  and  N2_11 
REMARK    4  A    between atoms: N3_16  and  N4_18 
ROOT
HETATM    1  C1  UNL     1     -37.778  11.296 -11.899  1.00  0.00     0.023 C 
HETATM    2  C2  UNL     1     -38.559  11.242 -10.592  1.00  0.00     0.022 C 
HETATM    3  C4  UNL     1     -37.660  11.575  -9.468  1.00  0.00     0.019 C 
HETATM    4  C5  UNL     1     -38.115  10.592  -8.383  1.00  0.00     0.040 C 
HETATM    5  C6  UNL     1     -38.195   9.329  -9.215  1.00  0.00     0.231 C 
HETATM    6  C7  UNL     1     -38.949   9.819 -10.394  1.00  0.00     0.043 C 
HETATM    7  N3  UNL     1     -39.776   9.130 -11.097  1.00  0.00    -0.312 N 
ATOM      8  H3  UNL     1     -40.242   9.570 -11.892  1.00  0.00     0.185 HD
ENDROOT
BRANCH   2   9
HETATM    9  C3  UNL     1     -39.764  12.100 -10.752  1.00  0.00     0.244 C 
BRANCH   9  10
HETATM   10  N1  UNL     1     -40.614  11.792 -11.847  1.00  0.00    -0.078 N 
ATOM     11  H13 UNL     1     -40.813  12.640 -12.378  1.00  0.00     0.274 HD
ATOM     12  H12 UNL     1     -40.098  11.254 -12.543  1.00  0.00     0.274 HD
ATOM     13  H11 UNL     1     -41.487  11.314 -11.621  1.00  0.00     0.274 HD
ENDBRANCH   9  10
ENDBRANCH   2   9
BRANCH   5  14
HETATM   14  N2  UNL     1     -38.851   8.253  -8.529  1.00  0.00    -0.070 N 
ATOM     15  H23 UNL     1     -38.417   8.079  -7.623  1.00  0.00     0.275 HD
ATOM     16  H22 UNL     1     -39.781   8.532  -8.215  1.00  0.00     0.275 HD
ATOM     17  H21 UNL     1     -38.893   7.398  -9.084  1.00  0.00     0.275 HD
ENDBRANCH   5  14
BRANCH   7  18
HETATM   18  N4  UNL     1     -40.052   7.796 -10.801  1.00  0.00    -0.345 N 
ATOM     19  H42 UNL     1     -40.168   7.534  -9.822  1.00  0.00     0.176 HD
ATOM     20  H41 UNL     1     -40.139   7.093 -11.535  1.00  0.00     0.176 HD
ENDBRANCH   7  18
TORSDOF 4
ENDMDL
MODEL 5
REMARK VINA RESULT: -3.942456270      9.313     10.271
REMARK  4 active torsions:
REMARK  status: ('A' for Active; 'I' for Inactive)
REMARK    1  A    between atoms: C2_2  and  C3_3 
REMARK    2  A    between atoms: C3_3  and  N1_4 
REMARK    3  A    between atoms: C6_10  and  N2_11 
REMARK    4  A    between atoms: N3_16  and  N4_18 
ROOT
HETATM    1  C1  UNL     1     -43.739  17.350  -5.264  1.00  0.00     0.023 C 
HETATM    2  C2  UNL     1     -43.394  17.438  -3.782  1.00  0.00     0.022 C 
HETATM    3  C4  UNL     1     -43.136  18.846  -3.421  1.00  0.00     0.019 C 
HETATM    4  C5  UNL     1     -41.950  18.724  -2.457  1.00  0.00     0.040 C 
HETATM    5  C6  UNL     1     -41.093  17.756  -3.245  1.00  0.00     0.231 C 
HETATM    6  C7  UNL     1     -42.097  16.729  -3.611  1.00  0.00     0.043 C 
HETATM    7  N3  UNL     1     -41.869  15.470  -3.748  1.00  0.00    -0.312 N 
ATOM      8  H3  UNL     1     -42.638  14.850  -4.004  1.00  0.00     0.185 HD
ENDROOT
BRANCH   2   9
HETATM    9  C3  UNL     1     -44.474  16.747  -3.027  1.00  0.00     0.244 C 
BRANCH   9  10
HETATM   10  N1  UNL     1     -45.410  16.011  -3.800  1.00  0.00    -0.078 N 
ATOM     11  H13 UNL     1     -46.021  16.653  -4.305  1.00  0.00     0.274 HD
ATOM     12  H12 UNL     1     -44.933  15.559  -4.580  1.00  0.00     0.274 HD
ATOM     13  H11 UNL     1     -45.972  15.324  -3.296  1.00  0.00     0.274 HD
ENDBRANCH   9  10
ENDBRANCH   2   9
BRANCH   5  14
HETATM   14  N2  UNL     1     -39.998  17.233  -2.478  1.00  0.00    -0.070 N 
ATOM     15  H23 UNL     1     -39.787  17.837  -1.684  1.00  0.00     0.275 HD
ATOM     16  H22 UNL     1     -40.273  16.390  -1.975  1.00  0.00     0.275 HD
ATOM     17  H21 UNL     1     -39.165  17.067  -3.043  1.00  0.00     0.275 HD
ENDBRANCH   5  14
BRANCH   7  18
HETATM   18  N4  UNL     1     -40.597  14.932  -3.557  1.00  0.00    -0.345 N 
ATOM     19  H42 UNL     1     -40.526  13.958  -3.264  1.00  0.00     0.176 HD
ATOM     20  H41 UNL     1     -39.754  15.488  -3.703  1.00  0.00     0.176 HD
ENDBRANCH   7  18
TORSDOF 4
ENDMDL
