MODEL 1
REMARK VINA RESULT: -6.531742399      0.000      0.000
REMARK  1 active torsions:
REMARK  status: ('A' for Active; 'I' for Inactive)
REMARK    1  A    between atoms: C2_3  and  N2_4 
REMARK       I    between atoms: N2_4  and  C3_6 
ROOT
HETATM    1  N1  UNL     1     -37.743  11.797 -12.551  1.00  0.00    -0.194 NA
HETATM    2  C1  UNL     1     -38.317  11.157 -11.780  1.00  0.00     0.093 C 
HETATM    3  C2  UNL     1     -39.053  10.331 -10.817  1.00  0.00     0.145 C 
HETATM    4  C4  UNL     1     -40.413   9.930 -11.321  1.00  0.00     0.075 C 
HETATM    5  C5  UNL     1     -40.412   8.437 -11.086  1.00  0.00     0.171 C 
HETATM    6  O1  UNL     1     -39.386   8.198 -10.172  1.00  0.00    -0.388 OA
HETATM    7  C6  UNL     1     -38.352   8.987 -10.720  1.00  0.00     0.214 C 
ENDROOT
BRANCH   3   8
HETATM    8  N2  UNL     1     -39.110  10.953  -9.516  1.00  0.00    -0.341 N 
HETATM    9  C3  UNL     1     -37.945  11.310  -8.799  1.00  0.00     0.183 C 
HETATM   10  N3  UNL     1     -37.623  10.691  -7.692  1.00  0.00    -0.374 N 
HETATM   11  N4  UNL     1     -37.056  12.338  -9.211  1.00  0.00    -0.064 NA
ATOM     12  H32 UNL     1     -38.262   9.953  -7.397  1.00  0.00     0.158 HD
ATOM     13  H31 UNL     1     -36.783  10.948  -7.175  1.00  0.00     0.158 HD
ATOM     14  H2  UNL     1     -40.022  11.142  -9.099  1.00  0.00     0.164 HD
ENDBRANCH   3   8
TORSDOF 1
ENDMDL
MODEL 2
REMARK VINA RESULT: -6.072619794      1.984      3.382
REMARK  1 active torsions:
REMARK  status: ('A' for Active; 'I' for Inactive)
REMARK    1  A    between atoms: C2_3  and  N2_4 
REMARK       I    between atoms: N2_4  and  C3_6 
ROOT
HETATM    1  N1  UNL     1     -37.036  11.367 -12.349  1.00  0.00    -0.194 NA
HETATM    2  C1  UNL     1     -37.687  11.063 -11.445  1.00  0.00     0.093 C 
HETATM    3  C2  UNL     1     -38.497  10.665 -10.288  1.00  0.00     0.145 C 
HETATM    4  C4  UNL     1     -38.316   9.216  -9.928  1.00  0.00     0.075 C 
HETATM    5  C5  UNL     1     -38.036   9.289  -8.445  1.00  0.00     0.171 C 
HETATM    6  O1  UNL     1     -38.473  10.550  -8.039  1.00  0.00    -0.388 OA
HETATM    7  C6  UNL     1     -37.934  11.360  -9.061  1.00  0.00     0.214 C 
ENDROOT
BRANCH   3   8
HETATM    8  N2  UNL     1     -39.885  11.020 -10.463  1.00  0.00    -0.341 N 
HETATM    9  C3  UNL     1     -40.699  10.417 -11.449  1.00  0.00     0.183 C 
HETATM   10  N3  UNL     1     -41.142  11.110 -12.468  1.00  0.00    -0.374 N 
HETATM   11  N4  UNL     1     -41.091   9.052 -11.416  1.00  0.00    -0.064 NA
ATOM     12  H32 UNL     1     -40.860  12.089 -12.491  1.00  0.00     0.158 HD
ATOM     13  H31 UNL     1     -41.729  10.675 -13.180  1.00  0.00     0.158 HD
ATOM     14  H2  UNL     1     -40.293  11.729  -9.854  1.00  0.00     0.164 HD
ENDBRANCH   3   8
TORSDOF 1
ENDMDL
MODEL 3
REMARK VINA RESULT: -5.861762820      2.276      3.809
REMARK  1 active torsions:
REMARK  status: ('A' for Active; 'I' for Inactive)
REMARK    1  A    between atoms: C2_3  and  N2_4 
REMARK       I    between atoms: N2_4  and  C3_6 
ROOT
HETATM    1  N1  UNL     1     -37.864   9.973  -7.732  1.00  0.00    -0.194 NA
HETATM    2  C1  UNL     1     -38.175  10.125  -8.833  1.00  0.00     0.093 C 
HETATM    3  C2  UNL     1     -38.572  10.340 -10.229  1.00  0.00     0.145 C 
HETATM    4  C4  UNL     1     -39.687  11.341 -10.364  1.00  0.00     0.075 C 
HETATM    5  C5  UNL     1     -39.147  12.278 -11.419  1.00  0.00     0.171 C 
HETATM    6  O1  UNL     1     -38.115  11.584 -12.050  1.00  0.00    -0.388 OA
HETATM    7  C6  UNL     1     -37.432  11.052 -10.936  1.00  0.00     0.214 C 
ENDROOT
BRANCH   3   8
HETATM    8  N2  UNL     1     -38.866   9.095 -10.896  1.00  0.00    -0.341 N 
HETATM    9  C3  UNL     1     -40.147   8.499 -10.853  1.00  0.00     0.183 C 
HETATM   10  N3  UNL     1     -40.341   7.371 -10.218  1.00  0.00    -0.374 N 
HETATM   11  N4  UNL     1     -41.294   9.060 -11.475  1.00  0.00    -0.064 NA
ATOM     12  H32 UNL     1     -39.517   6.969  -9.771  1.00  0.00     0.158 HD
ATOM     13  H31 UNL     1     -41.265   6.942 -10.186  1.00  0.00     0.158 HD
ATOM     14  H2  UNL     1     -38.124   8.628 -11.418  1.00  0.00     0.164 HD
ENDBRANCH   3   8
TORSDOF 1
ENDMDL
MODEL 4
REMARK VINA RESULT: -5.611114031      1.843      2.761
REMARK  1 active torsions:
REMARK  status: ('A' for Active; 'I' for Inactive)
REMARK    1  A    between atoms: C2_3  and  N2_4 
REMARK       I    between atoms: N2_4  and  C3_6 
ROOT
HETATM    1  N1  UNL     1     -40.301   7.795 -11.024  1.00  0.00    -0.194 NA
HETATM    2  C1  UNL     1     -39.810   8.826 -10.855  1.00  0.00     0.093 C 
HETATM    3  C2  UNL     1     -39.178  10.135 -10.662  1.00  0.00     0.145 C 
HETATM    4  C4  UNL     1     -37.841  10.238 -11.345  1.00  0.00     0.075 C 
HETATM    5  C5  UNL     1     -37.976  11.531 -12.115  1.00  0.00     0.171 C 
HETATM    6  O1  UNL     1     -39.048  12.208 -11.535  1.00  0.00    -0.388 OA
HETATM    7  C6  UNL     1     -39.993  11.165 -11.424  1.00  0.00     0.214 C 
ENDROOT
BRANCH   3   8
HETATM    8  N2  UNL     1     -39.112  10.493  -9.265  1.00  0.00    -0.341 N 
HETATM    9  C3  UNL     1     -37.899  10.854  -8.635  1.00  0.00     0.183 C 
HETATM   10  N3  UNL     1     -37.365  10.086  -7.720  1.00  0.00    -0.374 N 
HETATM   11  N4  UNL     1     -37.183  12.043  -8.936  1.00  0.00    -0.064 NA
ATOM     12  H32 UNL     1     -37.880   9.232  -7.505  1.00  0.00     0.158 HD
ATOM     13  H31 UNL     1     -36.490  10.345  -7.266  1.00  0.00     0.158 HD
ATOM     14  H2  UNL     1     -39.970  10.487  -8.714  1.00  0.00     0.164 HD
ENDBRANCH   3   8
TORSDOF 1
ENDMDL
MODEL 5
REMARK VINA RESULT: -5.456035732      1.357      2.944
REMARK  1 active torsions:
REMARK  status: ('A' for Active; 'I' for Inactive)
REMARK    1  A    between atoms: C2_3  and  N2_4 
REMARK       I    between atoms: N2_4  and  C3_6 
ROOT
HETATM    1  N1  UNL     1     -38.103   9.851  -7.637  1.00  0.00    -0.194 NA
HETATM    2  C1  UNL     1     -38.475   9.658  -8.713  1.00  0.00     0.093 C 
HETATM    3  C2  UNL     1     -38.963   9.399 -10.072  1.00  0.00     0.145 C 
HETATM    4  C4  UNL     1     -39.307   7.951 -10.296  1.00  0.00     0.075 C 
HETATM    5  C5  UNL     1     -40.694   8.042 -10.889  1.00  0.00     0.171 C 
HETATM    6  O1  UNL     1     -40.834   9.359 -11.326  1.00  0.00    -0.388 OA
HETATM    7  C6  UNL     1     -40.321  10.064 -10.217  1.00  0.00     0.214 C 
ENDROOT
BRANCH   3   8
HETATM    8  N2  UNL     1     -38.054   9.910 -11.070  1.00  0.00    -0.341 N 
HETATM    9  C3  UNL     1     -37.943  11.290 -11.354  1.00  0.00     0.183 C 
HETATM   10  N3  UNL     1     -38.337  11.771 -12.505  1.00  0.00    -0.374 N 
HETATM   11  N4  UNL     1     -37.412  12.238 -10.439  1.00  0.00    -0.064 NA
ATOM     12  H32 UNL     1     -38.718  11.091 -13.162  1.00  0.00     0.158 HD
ATOM     13  H31 UNL     1     -38.257  12.768 -12.710  1.00  0.00     0.158 HD
ATOM     14  H2  UNL     1     -37.472   9.252 -11.589  1.00  0.00     0.164 HD
ENDBRANCH   3   8
TORSDOF 1
ENDMDL
