MODEL 1
REMARK VINA RESULT: -5.447635685      0.000      0.000
REMARK  4 active torsions:
REMARK  status: ('A' for Active; 'I' for Inactive)
REMARK    1  A    between atoms: N1_1  and  C1_5 
REMARK    2  A    between atoms: C1_5  and  C2_6 
REMARK    3  A    between atoms: C7_11  and  N2_12 
REMARK    4  A    between atoms: C8_16  and  O1_17 
ROOT
HETATM    1  C2  UNL     1     -38.770  10.911  -9.634  1.00  0.00     0.043 C 
HETATM    2  C3  UNL     1     -37.889  10.365  -8.541  1.00  0.00     0.020 C 
HETATM    3  C4  UNL     1     -38.213   8.865  -8.213  1.00  0.00     0.080 C 
HETATM    4  C5  UNL     1     -38.924   8.392  -9.326  1.00  0.00    -0.181 C 
HETATM    5  C6  UNL     1     -39.614   7.958 -10.466  1.00  0.00     0.115 C 
HETATM    6  C7  UNL     1     -39.761   9.221 -11.382  1.00  0.00     0.222 C 
HETATM    7  C8  UNL     1     -38.888  10.376 -10.955  1.00  0.00     0.155 C 
ENDROOT
BRANCH   1   8
HETATM    8  C1  UNL     1     -38.204  12.352  -9.795  1.00  0.00     0.236 C 
BRANCH   8   9
HETATM    9  N1  UNL     1     -36.889  12.419  -9.227  1.00  0.00    -0.079 N 
ATOM     10  H13 UNL     1     -36.838  11.951  -8.322  1.00  0.00     0.274 HD
ATOM     11  H12 UNL     1     -36.222  11.836  -9.731  1.00  0.00     0.274 HD
ATOM     12  H11 UNL     1     -36.589  13.392  -9.176  1.00  0.00     0.274 HD
ENDBRANCH   8   9
ENDBRANCH   1   8
BRANCH   7  13
HETATM   13  O1  UNL     1     -37.644  10.381 -11.645  1.00  0.00    -0.393 OA
ATOM     14  H1  UNL     1     -37.265   9.512 -11.703  1.00  0.00     0.210 HD
ENDBRANCH   7  13
BRANCH   6  15
HETATM   15  N2  UNL     1     -41.153   9.574 -11.494  1.00  0.00    -0.072 N 
ATOM     16  H23 UNL     1     -41.767   8.783 -11.299  1.00  0.00     0.274 HD
ATOM     17  H22 UNL     1     -41.457  10.186 -10.737  1.00  0.00     0.274 HD
ATOM     18  H21 UNL     1     -41.327   9.981 -12.413  1.00  0.00     0.274 HD
ENDBRANCH   6  15
TORSDOF 4
ENDMDL
MODEL 2
REMARK VINA RESULT: -5.324585581      1.703      3.507
REMARK  4 active torsions:
REMARK  status: ('A' for Active; 'I' for Inactive)
REMARK    1  A    between atoms: N1_1  and  C1_5 
REMARK    2  A    between atoms: C1_5  and  C2_6 
REMARK    3  A    between atoms: C7_11  and  N2_12 
REMARK    4  A    between atoms: C8_16  and  O1_17 
ROOT
HETATM    1  C2  UNL     1     -38.940   9.243 -10.526  1.00  0.00     0.043 C 
HETATM    2  C3  UNL     1     -38.987   8.810  -9.083  1.00  0.00     0.020 C 
HETATM    3  C4  UNL     1     -38.051   9.681  -8.173  1.00  0.00     0.080 C 
HETATM    4  C5  UNL     1     -37.797  10.844  -8.915  1.00  0.00    -0.181 C 
HETATM    5  C6  UNL     1     -37.586  11.997  -9.683  1.00  0.00     0.115 C 
HETATM    6  C7  UNL     1     -38.315  11.739 -11.048  1.00  0.00     0.222 C 
HETATM    7  C8  UNL     1     -39.246  10.552 -11.014  1.00  0.00     0.155 C 
ENDROOT
BRANCH   1   8
HETATM    8  C1  UNL     1     -39.980   8.281 -11.171  1.00  0.00     0.236 C 
BRANCH   8   9
HETATM    9  N1  UNL     1     -40.485   7.381 -10.174  1.00  0.00    -0.079 N 
ATOM     10  H13 UNL     1     -40.555   6.425 -10.520  1.00  0.00     0.274 HD
ATOM     11  H12 UNL     1     -39.811   7.217  -9.426  1.00  0.00     0.274 HD
ATOM     12  H11 UNL     1     -41.375   7.730  -9.820  1.00  0.00     0.274 HD
ENDBRANCH   8   9
ENDBRANCH   1   8
BRANCH   7  13
HETATM   13  O1  UNL     1     -40.581  10.936 -10.709  1.00  0.00    -0.393 OA
ATOM     14  H1  UNL     1     -40.828  11.742 -11.146  1.00  0.00     0.210 HD
ENDBRANCH   7  13
BRANCH   6  15
HETATM   15  N2  UNL     1     -37.340  11.666 -12.106  1.00  0.00    -0.072 N 
ATOM     16  H23 UNL     1     -36.386  11.614 -11.748  1.00  0.00     0.274 HD
ATOM     17  H22 UNL     1     -37.364  10.768 -12.589  1.00  0.00     0.274 HD
ATOM     18  H21 UNL     1     -37.472  12.451 -12.744  1.00  0.00     0.274 HD
ENDBRANCH   6  15
TORSDOF 4
ENDMDL
MODEL 3
REMARK VINA RESULT: -5.015461659      1.800      2.355
REMARK  4 active torsions:
REMARK  status: ('A' for Active; 'I' for Inactive)
REMARK    1  A    between atoms: N1_1  and  C1_5 
REMARK    2  A    between atoms: C1_5  and  C2_6 
REMARK    3  A    between atoms: C7_11  and  N2_12 
REMARK    4  A    between atoms: C8_16  and  O1_17 
ROOT
HETATM    1  C2  UNL     1     -39.396  10.780 -10.319  1.00  0.00     0.043 C 
HETATM    2  C3  UNL     1     -38.532  11.711  -9.509  1.00  0.00     0.020 C 
HETATM    3  C4  UNL     1     -37.983  11.028  -8.208  1.00  0.00     0.080 C 
HETATM    4  C5  UNL     1     -38.125   9.650  -8.430  1.00  0.00    -0.181 C 
HETATM    5  C6  UNL     1     -38.268   8.283  -8.702  1.00  0.00     0.115 C 
HETATM    6  C7  UNL     1     -38.976   8.198 -10.099  1.00  0.00     0.222 C 
HETATM    7  C8  UNL     1     -38.993   9.511 -10.842  1.00  0.00     0.155 C 
ENDROOT
BRANCH   1   8
HETATM    8  C1  UNL     1     -39.741  11.670 -11.549  1.00  0.00     0.236 C 
BRANCH   8   9
HETATM    9  N1  UNL     1     -40.793  11.056 -12.306  1.00  0.00    -0.079 N 
ATOM     10  H13 UNL     1     -40.884  11.463 -13.237  1.00  0.00     0.274 HD
ATOM     11  H12 UNL     1     -40.562  10.103 -12.585  1.00  0.00     0.274 HD
ATOM     12  H11 UNL     1     -41.664  11.102 -11.779  1.00  0.00     0.274 HD
ENDBRANCH   8   9
ENDBRANCH   1   8
BRANCH   7  13
HETATM   13  O1  UNL     1     -37.892   9.628 -11.735  1.00  0.00    -0.393 OA
ATOM     14  H1  UNL     1     -37.060   9.624 -11.276  1.00  0.00     0.210 HD
ENDBRANCH   7  13
BRANCH   6  15
HETATM   15  N2  UNL     1     -40.285   7.619  -9.939  1.00  0.00    -0.072 N 
ATOM     16  H23 UNL     1     -40.257   6.737  -9.428  1.00  0.00     0.274 HD
ATOM     17  H22 UNL     1     -40.863   8.148  -9.285  1.00  0.00     0.274 HD
ATOM     18  H21 UNL     1     -40.728   7.522 -10.853  1.00  0.00     0.274 HD
ENDBRANCH   6  15
TORSDOF 4
ENDMDL
MODEL 4
REMARK VINA RESULT: -4.822492399      1.333      1.742
REMARK  4 active torsions:
REMARK  status: ('A' for Active; 'I' for Inactive)
REMARK    1  A    between atoms: N1_1  and  C1_5 
REMARK    2  A    between atoms: C1_5  and  C2_6 
REMARK    3  A    between atoms: C7_11  and  N2_12 
REMARK    4  A    between atoms: C8_16  and  O1_17 
ROOT
HETATM    1  C2  UNL     1     -38.670  10.392  -9.421  1.00  0.00     0.043 C 
HETATM    2  C3  UNL     1     -38.455   8.971  -8.970  1.00  0.00     0.020 C 
HETATM    3  C4  UNL     1     -39.487   7.981  -9.615  1.00  0.00     0.080 C 
HETATM    4  C5  UNL     1     -40.007   8.665 -10.724  1.00  0.00    -0.181 C 
HETATM    5  C6  UNL     1     -40.484   9.379 -11.832  1.00  0.00     0.115 C 
HETATM    6  C7  UNL     1     -39.801  10.788 -11.757  1.00  0.00     0.222 C 
HETATM    7  C8  UNL     1     -38.655  10.847 -10.776  1.00  0.00     0.155 C 
ENDROOT
BRANCH   1   8
HETATM    8  C1  UNL     1     -37.502  11.125  -8.700  1.00  0.00     0.236 C 
BRANCH   8   9
HETATM    9  N1  UNL     1     -37.148  10.409  -7.509  1.00  0.00    -0.079 N 
ATOM     10  H13 UNL     1     -37.692  10.712  -6.701  1.00  0.00     0.274 HD
ATOM     11  H12 UNL     1     -37.457   9.437  -7.537  1.00  0.00     0.274 HD
ATOM     12  H11 UNL     1     -36.144  10.489  -7.349  1.00  0.00     0.274 HD
ENDBRANCH   8   9
ENDBRANCH   1   8
BRANCH   7  13
HETATM   13  O1  UNL     1     -37.405  10.599 -11.408  1.00  0.00    -0.393 OA
ATOM     14  H1  UNL     1     -37.240   9.670 -11.517  1.00  0.00     0.210 HD
ENDBRANCH   7  13
BRANCH   6  15
HETATM   15  N2  UNL     1     -40.802  11.796 -11.520  1.00  0.00    -0.072 N 
ATOM     16  H23 UNL     1     -41.747  11.410 -11.531  1.00  0.00     0.274 HD
ATOM     17  H22 UNL     1     -40.793  12.130 -10.557  1.00  0.00     0.274 HD
ATOM     18  H21 UNL     1     -40.687  12.554 -12.193  1.00  0.00     0.274 HD
ENDBRANCH   6  15
TORSDOF 4
ENDMDL
MODEL 5
REMARK VINA RESULT: -4.657925165      1.609      3.965
REMARK  4 active torsions:
REMARK  status: ('A' for Active; 'I' for Inactive)
REMARK    1  A    between atoms: N1_1  and  C1_5 
REMARK    2  A    between atoms: C1_5  and  C2_6 
REMARK    3  A    between atoms: C7_11  and  N2_12 
REMARK    4  A    between atoms: C8_16  and  O1_17 
ROOT
HETATM    1  C2  UNL     1     -39.897  10.091 -10.592  1.00  0.00     0.043 C 
HETATM    2  C3  UNL     1     -40.219  11.099 -11.663  1.00  0.00     0.020 C 
HETATM    3  C4  UNL     1     -39.624  12.515 -11.343  1.00  0.00     0.080 C 
HETATM    4  C5  UNL     1     -38.630  12.285 -10.379  1.00  0.00    -0.181 C 
HETATM    5  C6  UNL     1     -37.636  12.006  -9.432  1.00  0.00     0.115 C 
HETATM    6  C7  UNL     1     -37.734  10.467  -9.151  1.00  0.00     0.222 C 
HETATM    7  C8  UNL     1     -38.584   9.728 -10.156  1.00  0.00     0.155 C 
ENDROOT
BRANCH   1   8
HETATM    8  C1  UNL     1     -40.535   8.799 -11.181  1.00  0.00     0.236 C 
BRANCH   8   9
HETATM    9  N1  UNL     1     -40.256   7.689 -10.317  1.00  0.00    -0.079 N 
ATOM     10  H13 UNL     1     -39.323   7.306 -10.472  1.00  0.00     0.274 HD
ATOM     11  H12 UNL     1     -40.137   7.976  -9.346  1.00  0.00     0.274 HD
ATOM     12  H11 UNL     1     -40.984   6.983 -10.423  1.00  0.00     0.274 HD
ENDBRANCH   8   9
ENDBRANCH   1   8
BRANCH   7  13
HETATM   13  O1  UNL     1     -37.802   9.188 -11.215  1.00  0.00    -0.393 OA
ATOM     14  H1  UNL     1     -37.593   8.272 -11.072  1.00  0.00     0.210 HD
ENDBRANCH   7  13
BRANCH   6  15
HETATM   15  N2  UNL     1     -38.151  10.253  -7.790  1.00  0.00    -0.072 N 
ATOM     16  H23 UNL     1     -38.046  11.092  -7.218  1.00  0.00     0.274 HD
ATOM     17  H22 UNL     1     -39.162  10.147  -7.709  1.00  0.00     0.274 HD
ATOM     18  H21 UNL     1     -37.647   9.456  -7.401  1.00  0.00     0.274 HD
ENDBRANCH   6  15
TORSDOF 4
ENDMDL
