MODEL 1
REMARK VINA RESULT: -5.074722713      0.000      0.000
REMARK  2 active torsions:
REMARK  status: ('A' for Active; 'I' for Inactive)
REMARK    1  A    between atoms: N1_1  and  N2_4 
REMARK       I    between atoms: C1_6  and  N4_8 
REMARK    2  A    between atoms: N4_8  and  C2_10 
ROOT
HETATM    1  N2  UNL     1     -36.600  10.347  -7.040  1.00  0.00    -0.280 N 
ATOM      2  H2  UNL     1     -36.450  11.329  -6.806  1.00  0.00     0.189 HD
HETATM    3  C1  UNL     1     -37.589  10.006  -7.775  1.00  0.00     0.202 C 
HETATM    4  N3  UNL     1     -37.750   8.631  -8.070  1.00  0.00    -0.062 NA
HETATM    5  N4  UNL     1     -38.509  10.932  -8.295  1.00  0.00    -0.359 N 
ATOM      6  H4  UNL     1     -38.919  11.595  -7.638  1.00  0.00     0.162 HD
ENDROOT
BRANCH   5   7
HETATM    7  C2  UNL     1     -38.923  11.030  -9.660  1.00  0.00     0.084 C 
HETATM    8  C3  UNL     1     -37.831  11.637 -10.544  1.00  0.00     0.025 C 
HETATM    9  C4  UNL     1     -38.255  11.543 -11.988  1.00  0.00     0.002 C 
HETATM   10  C5  UNL     1     -39.735  11.311 -12.129  1.00  0.00     0.000 C 
HETATM   11  C6  UNL     1     -40.154  10.016 -11.498  1.00  0.00     0.002 C 
HETATM   12  C7  UNL     1     -39.302   9.711 -10.275  1.00  0.00     0.025 C 
ENDBRANCH   5   7
BRANCH   1  13
HETATM   13  N1  UNL     1     -35.732   9.373  -6.562  1.00  0.00    -0.343 N 
ATOM     14  H12 UNL     1     -35.460   8.604  -7.175  1.00  0.00     0.176 HD
ATOM     15  H11 UNL     1     -35.379   9.438  -5.608  1.00  0.00     0.176 HD
ENDBRANCH   1  13
TORSDOF 2
ENDMDL
MODEL 2
REMARK VINA RESULT: -4.711010161      8.983      9.734
REMARK  2 active torsions:
REMARK  status: ('A' for Active; 'I' for Inactive)
REMARK    1  A    between atoms: N1_1  and  N2_4 
REMARK       I    between atoms: C1_6  and  N4_8 
REMARK    2  A    between atoms: N4_8  and  C2_10 
ROOT
HETATM    1  N2  UNL     1     -41.102  17.161  -2.725  1.00  0.00    -0.280 N 
ATOM      2  H2  UNL     1     -41.534  17.861  -2.120  1.00  0.00     0.189 HD
HETATM    3  C1  UNL     1     -41.832  16.393  -3.439  1.00  0.00     0.202 C 
HETATM    4  N3  UNL     1     -41.182  15.440  -4.261  1.00  0.00    -0.062 NA
HETATM    5  N4  UNL     1     -43.235  16.456  -3.441  1.00  0.00    -0.359 N 
ATOM      6  H4  UNL     1     -43.699  16.447  -2.532  1.00  0.00     0.162 HD
ENDROOT
BRANCH   5   7
HETATM    7  C2  UNL     1     -44.073  16.531  -4.597  1.00  0.00     0.084 C 
HETATM    8  C3  UNL     1     -45.536  16.234  -4.260  1.00  0.00     0.025 C 
HETATM    9  C4  UNL     1     -46.388  16.509  -5.473  1.00  0.00     0.002 C 
HETATM   10  C5  UNL     1     -45.574  16.559  -6.737  1.00  0.00     0.000 C 
HETATM   11  C6  UNL     1     -44.557  17.661  -6.696  1.00  0.00     0.002 C 
HETATM   12  C7  UNL     1     -44.044  17.871  -5.280  1.00  0.00     0.025 C 
ENDBRANCH   5   7
BRANCH   1  13
HETATM   13  N1  UNL     1     -39.719  17.038  -2.777  1.00  0.00    -0.343 N 
ATOM     14  H12 UNL     1     -39.286  16.161  -2.489  1.00  0.00     0.176 HD
ATOM     15  H11 UNL     1     -39.156  17.825  -3.101  1.00  0.00     0.176 HD
ENDBRANCH   1  13
TORSDOF 2
ENDMDL
MODEL 3
REMARK VINA RESULT: -4.202605019      9.184      9.834
REMARK  2 active torsions:
REMARK  status: ('A' for Active; 'I' for Inactive)
REMARK    1  A    between atoms: N1_1  and  N2_4 
REMARK       I    between atoms: C1_6  and  N4_8 
REMARK    2  A    between atoms: N4_8  and  C2_10 
ROOT
HETATM    1  N2  UNL     1     -41.999  17.289  -2.655  1.00  0.00    -0.280 N 
ATOM      2  H2  UNL     1     -42.537  17.742  -1.916  1.00  0.00     0.189 HD
HETATM    3  C1  UNL     1     -42.600  16.702  -3.618  1.00  0.00     0.202 C 
HETATM    4  N3  UNL     1     -41.805  16.090  -4.618  1.00  0.00    -0.062 NA
HETATM    5  N4  UNL     1     -43.999  16.642  -3.722  1.00  0.00    -0.359 N 
ATOM      6  H4  UNL     1     -44.511  16.329  -2.898  1.00  0.00     0.162 HD
ENDROOT
BRANCH   5   7
HETATM    7  C2  UNL     1     -44.772  16.979  -4.877  1.00  0.00     0.084 C 
HETATM    8  C3  UNL     1     -44.166  18.155  -5.645  1.00  0.00     0.025 C 
HETATM    9  C4  UNL     1     -44.916  18.340  -6.940  1.00  0.00     0.002 C 
HETATM   10  C5  UNL     1     -46.256  17.658  -6.919  1.00  0.00     0.000 C 
HETATM   11  C6  UNL     1     -46.119  16.175  -6.737  1.00  0.00     0.002 C 
HETATM   12  C7  UNL     1     -44.923  15.847  -5.856  1.00  0.00     0.025 C 
ENDBRANCH   5   7
BRANCH   1  13
HETATM   13  N1  UNL     1     -40.610  17.306  -2.621  1.00  0.00    -0.343 N 
ATOM     14  H12 UNL     1     -40.103  16.424  -2.545  1.00  0.00     0.176 HD
ATOM     15  H11 UNL     1     -40.116  18.197  -2.670  1.00  0.00     0.176 HD
ENDBRANCH   1  13
TORSDOF 2
ENDMDL
MODEL 4
REMARK VINA RESULT: -4.153836950      9.570     10.258
REMARK  2 active torsions:
REMARK  status: ('A' for Active; 'I' for Inactive)
REMARK    1  A    between atoms: N1_1  and  N2_4 
REMARK       I    between atoms: C1_6  and  N4_8 
REMARK    2  A    between atoms: N4_8  and  C2_10 
ROOT
HETATM    1  N2  UNL     1     -42.127  16.583  -4.310  1.00  0.00    -0.280 N 
ATOM      2  H2  UNL     1     -41.519  16.645  -5.127  1.00  0.00     0.189 HD
HETATM    3  C1  UNL     1     -43.253  17.185  -4.300  1.00  0.00     0.202 C 
HETATM    4  N3  UNL     1     -44.057  17.065  -3.141  1.00  0.00    -0.062 NA
HETATM    5  N4  UNL     1     -43.718  17.952  -5.380  1.00  0.00    -0.359 N 
ATOM      6  H4  UNL     1     -43.079  18.650  -5.761  1.00  0.00     0.162 HD
ENDROOT
BRANCH   5   7
HETATM    7  C2  UNL     1     -45.005  17.846  -5.996  1.00  0.00     0.084 C 
HETATM    8  C3  UNL     1     -45.143  18.789  -7.194  1.00  0.00     0.025 C 
HETATM    9  C4  UNL     1     -46.440  18.498  -7.905  1.00  0.00     0.002 C 
HETATM   10  C5  UNL     1     -47.398  17.726  -7.040  1.00  0.00     0.000 C 
HETATM   11  C6  UNL     1     -46.839  16.389  -6.653  1.00  0.00     0.002 C 
HETATM   12  C7  UNL     1     -45.328  16.462  -6.488  1.00  0.00     0.025 C 
ENDBRANCH   5   7
BRANCH   1  13
HETATM   13  N1  UNL     1     -41.734  15.842  -3.201  1.00  0.00    -0.343 N 
ATOM     14  H12 UNL     1     -41.981  14.854  -3.150  1.00  0.00     0.176 HD
ATOM     15  H11 UNL     1     -41.207  16.294  -2.454  1.00  0.00     0.176 HD
ENDBRANCH   1  13
TORSDOF 2
ENDMDL
MODEL 5
REMARK VINA RESULT: -3.996096298      0.687      1.586
REMARK  2 active torsions:
REMARK  status: ('A' for Active; 'I' for Inactive)
REMARK    1  A    between atoms: N1_1  and  N2_4 
REMARK       I    between atoms: C1_6  and  N4_8 
REMARK    2  A    between atoms: N4_8  and  C2_10 
ROOT
HETATM    1  N2  UNL     1     -36.483  10.217  -6.786  1.00  0.00    -0.280 N 
ATOM      2  H2  UNL     1     -36.463  11.177  -6.440  1.00  0.00     0.189 HD
HETATM    3  C1  UNL     1     -37.339   9.870  -7.669  1.00  0.00     0.202 C 
HETATM    4  N3  UNL     1     -37.322   8.526  -8.113  1.00  0.00    -0.062 NA
HETATM    5  N4  UNL     1     -38.283  10.759  -8.208  1.00  0.00    -0.359 N 
ATOM      6  H4  UNL     1     -38.833  11.307  -7.546  1.00  0.00     0.162 HD
ENDROOT
BRANCH   5   7
HETATM    7  C2  UNL     1     -38.545  10.968  -9.598  1.00  0.00     0.084 C 
HETATM    8  C3  UNL     1     -39.634  10.028 -10.120  1.00  0.00     0.025 C 
HETATM    9  C4  UNL     1     -39.991  10.420 -11.531  1.00  0.00     0.002 C 
HETATM   10  C5  UNL     1     -38.932  11.280 -12.164  1.00  0.00     0.000 C 
HETATM   11  C6  UNL     1     -38.748  12.569 -11.419  1.00  0.00     0.002 C 
HETATM   12  C7  UNL     1     -38.980  12.369  -9.929  1.00  0.00     0.025 C 
ENDBRANCH   5   7
BRANCH   1  13
HETATM   13  N1  UNL     1     -35.580   9.280  -6.299  1.00  0.00    -0.343 N 
ATOM     14  H12 UNL     1     -34.716   9.601  -5.862  1.00  0.00     0.176 HD
ATOM     15  H11 UNL     1     -35.790   8.286  -6.386  1.00  0.00     0.176 HD
ENDBRANCH   1  13
TORSDOF 2
ENDMDL
