MODEL 1
REMARK VINA RESULT: -6.186588365      0.000      0.000
REMARK  9 active torsions:
REMARK  status: ('A' for Active; 'I' for Inactive)
REMARK    1  A    between atoms: C2_2  and  C3_3 
REMARK    2  A    between atoms: C3_3  and  N1_4 
REMARK    3  A    between atoms: N1_4  and  C4_6 
REMARK    4  A    between atoms: C5_11  and  N4_12 
REMARK    5  A    between atoms: N5_14  and  N6_16 
REMARK    6  A    between atoms: N6_16  and  C6_18 
REMARK    7  A    between atoms: C6_18  and  N7_19 
REMARK    8  A    between atoms: C6_18  and  C7_23 
REMARK    9  A    between atoms: C7_23  and  N8_24 
ROOT
HETATM    1  N4  UNL     1     -11.793  -6.337 -41.074  1.00  0.00    -0.266 N 
ATOM      2  H4  UNL     1     -12.234  -6.278 -40.156  1.00  0.00     0.190 HD
HETATM    3  N5  UNL     1     -12.413  -5.955 -42.083  1.00  0.00    -0.243 N 
ATOM      4  H5  UNL     1     -13.358  -5.587 -41.987  1.00  0.00     0.208 HD
ENDROOT
BRANCH   1   5
HETATM    5  C5  UNL     1     -10.475  -6.853 -41.192  1.00  0.00     0.206 A 
HETATM    6  N3  UNL     1      -9.393  -6.125 -40.818  1.00  0.00    -0.266 N 
HETATM    7  N2  UNL     1      -8.174  -6.622 -40.935  1.00  0.00    -0.130 N 
ATOM      8  H3  UNL     1      -9.522  -5.185 -40.443  1.00  0.00     0.189 HD
HETATM    9  C4  UNL     1      -7.966  -7.862 -41.428  1.00  0.00     0.696 A 
ATOM     10  H2  UNL     1      -7.374  -6.059 -40.647  1.00  0.00     0.205 HD
HETATM   11  N9  UNL     1      -9.025  -8.602 -41.805  1.00  0.00    -0.152 N 
HETATM   12  C8  UNL     1     -10.250  -8.114 -41.692  1.00  0.00     0.306 A 
ATOM     13  H9  UNL     1      -8.884  -9.541 -42.178  1.00  0.00     0.188 HD
HETATM   14  O1  UNL     1     -11.279  -8.782 -42.039  1.00  0.00    -0.263 OA
BRANCH   9  15
HETATM   15  N1  UNL     1      -6.778  -8.317 -41.530  1.00  0.00    -0.221 N 
ATOM     16  H1  UNL     1      -6.618  -9.229 -41.958  1.00  0.00     0.178 HD
BRANCH  15  17
HETATM   17  C3  UNL     1      -5.651  -7.535 -41.036  1.00  0.00     0.164 C 
BRANCH  17  18
HETATM   18  C2  UNL     1      -4.715  -7.167 -42.103  1.00  0.00    -0.017 C 
HETATM   19  C1  UNL     1      -4.950  -6.143 -42.910  1.00  0.00     0.008 C 
ENDBRANCH  17  18
ENDBRANCH  15  17
ENDBRANCH   9  15
ENDBRANCH   1   5
BRANCH   3  20
HETATM   20  N6  UNL     1     -11.828  -6.027 -43.336  1.00  0.00    -0.290 N 
ATOM     21  H6  UNL     1     -11.780  -6.919 -43.828  1.00  0.00     0.184 HD
BRANCH  20  22
HETATM   22  C6  UNL     1     -11.289  -4.838 -43.940  1.00  0.00     0.322 C 
BRANCH  22  23
HETATM   23  N7  UNL     1     -12.168  -4.313 -44.964  1.00  0.00    -0.055 N 
ATOM     24  H73 UNL     1     -13.079  -4.769 -44.942  1.00  0.00     0.276 HD
ATOM     25  H72 UNL     1     -12.461  -3.360 -44.750  1.00  0.00     0.276 HD
ATOM     26  H71 UNL     1     -11.744  -4.373 -45.891  1.00  0.00     0.276 HD
ENDBRANCH  22  23
BRANCH  22  27
HETATM   27  C7  UNL     1      -9.922  -5.189 -44.495  1.00  0.00     0.285 C 
BRANCH  27  28
HETATM   28  N8  UNL     1      -8.885  -4.324 -44.017  1.00  0.00    -0.076 N 
ATOM     29  H83 UNL     1      -9.201  -3.792 -43.206  1.00  0.00     0.274 HD
ATOM     30  H82 UNL     1      -8.134  -4.861 -43.582  1.00  0.00     0.274 HD
ATOM     31  H81 UNL     1      -8.519  -3.705 -44.739  1.00  0.00     0.274 HD
ENDBRANCH  27  28
ENDBRANCH  22  27
ENDBRANCH  20  22
ENDBRANCH   3  20
TORSDOF 9
ENDMDL
MODEL 2
REMARK VINA RESULT: -6.110384610      1.184      1.446
REMARK  9 active torsions:
REMARK  status: ('A' for Active; 'I' for Inactive)
REMARK    1  A    between atoms: C2_2  and  C3_3 
REMARK    2  A    between atoms: C3_3  and  N1_4 
REMARK    3  A    between atoms: N1_4  and  C4_6 
REMARK    4  A    between atoms: C5_11  and  N4_12 
REMARK    5  A    between atoms: N5_14  and  N6_16 
REMARK    6  A    between atoms: N6_16  and  C6_18 
REMARK    7  A    between atoms: C6_18  and  N7_19 
REMARK    8  A    between atoms: C6_18  and  C7_23 
REMARK    9  A    between atoms: C7_23  and  N8_24 
ROOT
HETATM    1  N4  UNL     1     -11.445  -6.576 -40.583  1.00  0.00    -0.266 N 
ATOM      2  H4  UNL     1     -11.706  -6.571 -39.597  1.00  0.00     0.190 HD
HETATM    3  N5  UNL     1     -12.265  -6.204 -41.442  1.00  0.00    -0.243 N 
ATOM      4  H5  UNL     1     -13.193  -5.896 -41.155  1.00  0.00     0.208 HD
ENDROOT
BRANCH   1   5
HETATM    5  C5  UNL     1     -10.148  -7.009 -40.967  1.00  0.00     0.206 A 
HETATM    6  N3  UNL     1      -9.038  -6.307 -40.627  1.00  0.00    -0.266 N 
HETATM    7  N2  UNL     1      -7.838  -6.726 -40.994  1.00  0.00    -0.130 N 
ATOM      8  H3  UNL     1      -9.130  -5.449 -40.084  1.00  0.00     0.189 HD
HETATM    9  C4  UNL     1      -7.679  -7.856 -41.714  1.00  0.00     0.696 A 
ATOM     10  H2  UNL     1      -7.017  -6.184 -40.727  1.00  0.00     0.205 HD
HETATM   11  N9  UNL     1      -8.767  -8.569 -42.063  1.00  0.00    -0.152 N 
HETATM   12  C8  UNL     1      -9.973  -8.158 -41.701  1.00  0.00     0.306 A 
ATOM     13  H9  UNL     1      -8.663  -9.426 -42.606  1.00  0.00     0.188 HD
HETATM   14  O1  UNL     1     -11.028  -8.804 -42.011  1.00  0.00    -0.263 OA
BRANCH   9  15
HETATM   15  N1  UNL     1      -6.510  -8.237 -42.055  1.00  0.00    -0.221 N 
ATOM     16  H1  UNL     1      -6.304  -8.436 -43.034  1.00  0.00     0.178 HD
BRANCH  15  17
HETATM   17  C3  UNL     1      -5.468  -8.389 -41.045  1.00  0.00     0.164 C 
BRANCH  17  18
HETATM   18  C2  UNL     1      -4.916  -9.746 -41.012  1.00  0.00    -0.017 C 
HETATM   19  C1  UNL     1      -4.794 -10.474 -42.112  1.00  0.00     0.008 C 
ENDBRANCH  17  18
ENDBRANCH  15  17
ENDBRANCH   9  15
ENDBRANCH   1   5
BRANCH   3  20
HETATM   20  N6  UNL     1     -11.926  -6.205 -42.784  1.00  0.00    -0.290 N 
ATOM     21  H6  UNL     1     -11.570  -7.054 -43.221  1.00  0.00     0.184 HD
BRANCH  20  22
HETATM   22  C6  UNL     1     -12.080  -5.003 -43.558  1.00  0.00     0.322 C 
BRANCH  22  23
HETATM   23  N7  UNL     1     -13.466  -4.760 -43.899  1.00  0.00    -0.055 N 
ATOM     24  H73 UNL     1     -13.960  -4.294 -43.139  1.00  0.00     0.276 HD
ATOM     25  H72 UNL     1     -13.552  -4.034 -44.612  1.00  0.00     0.276 HD
ATOM     26  H71 UNL     1     -13.941  -5.617 -44.182  1.00  0.00     0.276 HD
ENDBRANCH  22  23
BRANCH  22  27
HETATM   27  C7  UNL     1     -11.211  -5.144 -44.794  1.00  0.00     0.285 C 
BRANCH  27  28
HETATM   28  N8  UNL     1      -9.852  -4.750 -44.570  1.00  0.00    -0.076 N 
ATOM     29  H83 UNL     1      -9.590  -3.979 -45.183  1.00  0.00     0.274 HD
ATOM     30  H82 UNL     1      -9.752  -4.286 -43.667  1.00  0.00     0.274 HD
ATOM     31  H81 UNL     1      -9.194  -5.524 -44.656  1.00  0.00     0.274 HD
ENDBRANCH  27  28
ENDBRANCH  22  27
ENDBRANCH  20  22
ENDBRANCH   3  20
TORSDOF 9
ENDMDL
MODEL 3
REMARK VINA RESULT: -6.012531027      1.743      2.509
REMARK  9 active torsions:
REMARK  status: ('A' for Active; 'I' for Inactive)
REMARK    1  A    between atoms: C2_2  and  C3_3 
REMARK    2  A    between atoms: C3_3  and  N1_4 
REMARK    3  A    between atoms: N1_4  and  C4_6 
REMARK    4  A    between atoms: C5_11  and  N4_12 
REMARK    5  A    between atoms: N5_14  and  N6_16 
REMARK    6  A    between atoms: N6_16  and  C6_18 
REMARK    7  A    between atoms: C6_18  and  N7_19 
REMARK    8  A    between atoms: C6_18  and  C7_23 
REMARK    9  A    between atoms: C7_23  and  N8_24 
ROOT
HETATM    1  N4  UNL     1      -9.902  -7.154 -40.765  1.00  0.00    -0.266 N 
ATOM      2  H4  UNL     1     -10.284  -7.525 -39.894  1.00  0.00     0.190 HD
HETATM    3  N5  UNL     1     -10.668  -6.681 -41.624  1.00  0.00    -0.243 N 
ATOM      4  H5  UNL     1     -11.673  -6.667 -41.452  1.00  0.00     0.208 HD
ENDROOT
BRANCH   1   5
HETATM    5  C5  UNL     1      -8.500  -7.181 -40.988  1.00  0.00     0.206 A 
HETATM    6  N3  UNL     1      -7.663  -6.329 -40.345  1.00  0.00    -0.266 N 
HETATM    7  N2  UNL     1      -6.360  -6.369 -40.566  1.00  0.00    -0.130 N 
ATOM      8  H3  UNL     1      -8.043  -5.651 -39.684  1.00  0.00     0.189 HD
HETATM    9  C4  UNL     1      -5.823  -7.252 -41.434  1.00  0.00     0.696 A 
ATOM     10  H2  UNL     1      -5.749  -5.720 -40.071  1.00  0.00     0.205 HD
HETATM   11  N9  UNL     1      -6.634  -8.108 -42.084  1.00  0.00    -0.152 N 
HETATM   12  C8  UNL     1      -7.940  -8.076 -41.870  1.00  0.00     0.306 A 
ATOM     13  H9  UNL     1      -6.243  -8.781 -42.742  1.00  0.00     0.188 HD
HETATM   14  O1  UNL     1      -8.742  -8.868 -42.466  1.00  0.00    -0.263 OA
BRANCH   9  15
HETATM   15  N1  UNL     1      -4.562  -7.269 -41.628  1.00  0.00    -0.221 N 
ATOM     16  H1  UNL     1      -4.149  -7.982 -42.230  1.00  0.00     0.178 HD
BRANCH  15  17
HETATM   17  C3  UNL     1      -3.711  -6.270 -40.991  1.00  0.00     0.164 C 
BRANCH  17  18
HETATM   18  C2  UNL     1      -2.444  -6.836 -40.516  1.00  0.00    -0.017 C 
HETATM   19  C1  UNL     1      -2.280  -8.143 -40.369  1.00  0.00     0.008 C 
ENDBRANCH  17  18
ENDBRANCH  15  17
ENDBRANCH   9  15
ENDBRANCH   1   5
BRANCH   3  20
HETATM   20  N6  UNL     1     -10.166  -6.173 -42.809  1.00  0.00    -0.290 N 
ATOM     21  H6  UNL     1      -9.162  -6.037 -42.924  1.00  0.00     0.184 HD
BRANCH  20  22
HETATM   22  C6  UNL     1     -11.067  -5.838 -43.879  1.00  0.00     0.322 C 
BRANCH  22  23
HETATM   23  N7  UNL     1     -10.767  -4.540 -44.445  1.00  0.00    -0.055 N 
ATOM     24  H73 UNL     1     -11.276  -4.386 -45.315  1.00  0.00     0.276 HD
ATOM     25  H72 UNL     1     -11.174  -3.788 -43.888  1.00  0.00     0.276 HD
ATOM     26  H71 UNL     1      -9.763  -4.407 -44.573  1.00  0.00     0.276 HD
ENDBRANCH  22  23
BRANCH  22  27
HETATM   27  C7  UNL     1     -12.477  -5.899 -43.322  1.00  0.00     0.285 C 
BRANCH  27  28
HETATM   28  N8  UNL     1     -13.303  -4.817 -43.771  1.00  0.00    -0.076 N 
ATOM     29  H83 UNL     1     -12.752  -3.969 -43.900  1.00  0.00     0.274 HD
ATOM     30  H82 UNL     1     -13.607  -4.966 -44.733  1.00  0.00     0.274 HD
ATOM     31  H81 UNL     1     -14.101  -4.645 -43.160  1.00  0.00     0.274 HD
ENDBRANCH  27  28
ENDBRANCH  22  27
ENDBRANCH  20  22
ENDBRANCH   3  20
TORSDOF 9
ENDMDL
MODEL 4
REMARK VINA RESULT: -5.943036434      1.509      1.746
REMARK  9 active torsions:
REMARK  status: ('A' for Active; 'I' for Inactive)
REMARK    1  A    between atoms: C2_2  and  C3_3 
REMARK    2  A    between atoms: C3_3  and  N1_4 
REMARK    3  A    between atoms: N1_4  and  C4_6 
REMARK    4  A    between atoms: C5_11  and  N4_12 
REMARK    5  A    between atoms: N5_14  and  N6_16 
REMARK    6  A    between atoms: N6_16  and  C6_18 
REMARK    7  A    between atoms: C6_18  and  N7_19 
REMARK    8  A    between atoms: C6_18  and  C7_23 
REMARK    9  A    between atoms: C7_23  and  N8_24 
ROOT
HETATM    1  N4  UNL     1     -10.732  -6.553 -40.674  1.00  0.00    -0.266 N 
ATOM      2  H4  UNL     1     -10.650  -6.460 -39.661  1.00  0.00     0.190 HD
HETATM    3  N5  UNL     1     -11.833  -6.373 -41.224  1.00  0.00    -0.243 N 
ATOM      4  H5  UNL     1     -12.648  -6.133 -40.658  1.00  0.00     0.208 HD
ENDROOT
BRANCH   1   5
HETATM    5  C5  UNL     1      -9.589  -6.887 -41.447  1.00  0.00     0.206 A 
HETATM    6  N3  UNL     1      -8.664  -5.954 -41.784  1.00  0.00    -0.266 N 
HETATM    7  N2  UNL     1      -7.605  -6.284 -42.504  1.00  0.00    -0.130 N 
ATOM      8  H3  UNL     1      -8.787  -4.988 -41.479  1.00  0.00     0.189 HD
HETATM    9  C4  UNL     1      -7.412  -7.551 -42.926  1.00  0.00     0.696 A 
ATOM     10  H2  UNL     1      -6.922  -5.567 -42.746  1.00  0.00     0.205 HD
HETATM   11  N9  UNL     1      -8.317  -8.495 -42.603  1.00  0.00    -0.152 N 
HETATM   12  C8  UNL     1      -9.380  -8.175 -41.883  1.00  0.00     0.306 A 
ATOM     13  H9  UNL     1      -8.183  -9.457 -42.914  1.00  0.00     0.188 HD
HETATM   14  O1  UNL     1     -10.259  -9.038 -41.556  1.00  0.00    -0.263 OA
BRANCH   9  15
HETATM   15  N1  UNL     1      -6.381  -7.842 -43.620  1.00  0.00    -0.221 N 
ATOM     16  H1  UNL     1      -6.007  -7.165 -44.285  1.00  0.00     0.178 HD
BRANCH  15  17
HETATM   17  C3  UNL     1      -5.739  -9.143 -43.464  1.00  0.00     0.164 C 
BRANCH  17  18
HETATM   18  C2  UNL     1      -4.736  -9.145 -42.394  1.00  0.00    -0.017 C 
HETATM   19  C1  UNL     1      -4.986  -9.684 -41.210  1.00  0.00     0.008 C 
ENDBRANCH  17  18
ENDBRANCH  15  17
ENDBRANCH   9  15
ENDBRANCH   1   5
BRANCH   3  20
HETATM   20  N6  UNL     1     -11.962  -6.494 -42.596  1.00  0.00    -0.290 N 
ATOM     21  H6  UNL     1     -12.036  -7.417 -43.024  1.00  0.00     0.184 HD
BRANCH  20  22
HETATM   22  C6  UNL     1     -11.992  -5.313 -43.416  1.00  0.00     0.322 C 
BRANCH  22  23
HETATM   23  N7  UNL     1     -13.345  -4.952 -43.785  1.00  0.00    -0.055 N 
ATOM     24  H73 UNL     1     -13.489  -5.030 -44.791  1.00  0.00     0.276 HD
ATOM     25  H72 UNL     1     -14.016  -5.654 -43.473  1.00  0.00     0.276 HD
ATOM     26  H71 UNL     1     -13.593  -4.022 -43.445  1.00  0.00     0.276 HD
ENDBRANCH  22  23
BRANCH  22  27
HETATM   27  C7  UNL     1     -11.128  -5.582 -44.634  1.00  0.00     0.285 C 
BRANCH  27  28
HETATM   28  N8  UNL     1      -9.995  -4.709 -44.720  1.00  0.00    -0.076 N 
ATOM     29  H83 UNL     1     -10.053  -4.119 -45.550  1.00  0.00     0.274 HD
ATOM     30  H82 UNL     1     -10.036  -3.988 -44.000  1.00  0.00     0.274 HD
ATOM     31  H81 UNL     1      -9.105  -5.207 -44.687  1.00  0.00     0.274 HD
ENDBRANCH  27  28
ENDBRANCH  22  27
ENDBRANCH  20  22
ENDBRANCH   3  20
TORSDOF 9
ENDMDL
MODEL 5
REMARK VINA RESULT: -5.807831387      2.583      3.691
REMARK  9 active torsions:
REMARK  status: ('A' for Active; 'I' for Inactive)
REMARK    1  A    between atoms: C2_2  and  C3_3 
REMARK    2  A    between atoms: C3_3  and  N1_4 
REMARK    3  A    between atoms: N1_4  and  C4_6 
REMARK    4  A    between atoms: C5_11  and  N4_12 
REMARK    5  A    between atoms: N5_14  and  N6_16 
REMARK    6  A    between atoms: N6_16  and  C6_18 
REMARK    7  A    between atoms: C6_18  and  N7_19 
REMARK    8  A    between atoms: C6_18  and  C7_23 
REMARK    9  A    between atoms: C7_23  and  N8_24 
ROOT
HETATM    1  N4  UNL     1      -8.478  -6.861 -40.671  1.00  0.00    -0.266 N 
ATOM      2  H4  UNL     1      -8.040  -7.102 -39.781  1.00  0.00     0.190 HD
HETATM    3  N5  UNL     1      -9.679  -6.540 -40.702  1.00  0.00    -0.243 N 
ATOM      4  H5  UNL     1     -10.220  -6.520 -39.837  1.00  0.00     0.208 HD
ENDROOT
BRANCH   1   5
HETATM    5  C5  UNL     1      -7.712  -6.894 -41.866  1.00  0.00     0.206 A 
HETATM    6  N3  UNL     1      -6.832  -5.907 -42.172  1.00  0.00    -0.266 N 
HETATM    7  N2  UNL     1      -6.128  -5.955 -43.289  1.00  0.00    -0.130 N 
ATOM      8  H3  UNL     1      -6.714  -5.121 -41.533  1.00  0.00     0.189 HD
HETATM    9  C4  UNL     1      -6.260  -6.979 -44.158  1.00  0.00     0.696 A 
ATOM     10  H2  UNL     1      -5.471  -5.203 -43.499  1.00  0.00     0.205 HD
HETATM   11  N9  UNL     1      -7.127  -7.970 -43.876  1.00  0.00    -0.152 N 
HETATM   12  C8  UNL     1      -7.837  -7.932 -42.760  1.00  0.00     0.306 A 
ATOM     13  H9  UNL     1      -7.236  -8.752 -44.522  1.00  0.00     0.188 HD
HETATM   14  O1  UNL     1      -8.668  -8.849 -42.456  1.00  0.00    -0.263 OA
BRANCH   9  15
HETATM   15  N1  UNL     1      -5.567  -7.001 -45.230  1.00  0.00    -0.221 N 
ATOM     16  H1  UNL     1      -5.163  -7.878 -45.558  1.00  0.00     0.178 HD
BRANCH  15  17
HETATM   17  C3  UNL     1      -5.353  -5.772 -45.986  1.00  0.00     0.164 C 
BRANCH  17  18
HETATM   18  C2  UNL     1      -6.389  -5.551 -46.999  1.00  0.00    -0.017 C 
HETATM   19  C1  UNL     1      -6.252  -5.994 -48.240  1.00  0.00     0.008 C 
ENDBRANCH  17  18
ENDBRANCH  15  17
ENDBRANCH   9  15
ENDBRANCH   1   5
BRANCH   3  20
HETATM   20  N6  UNL     1     -10.288  -6.209 -41.899  1.00  0.00    -0.290 N 
ATOM     21  H6  UNL     1      -9.793  -5.641 -42.586  1.00  0.00     0.184 HD
BRANCH  20  22
HETATM   22  C6  UNL     1     -11.623  -6.671 -42.171  1.00  0.00     0.322 C 
BRANCH  22  23
HETATM   23  N7  UNL     1     -11.711  -8.115 -42.122  1.00  0.00    -0.055 N 
ATOM     24  H73 UNL     1     -10.907  -8.521 -41.642  1.00  0.00     0.276 HD
ATOM     25  H72 UNL     1     -12.447  -8.422 -41.485  1.00  0.00     0.276 HD
ATOM     26  H71 UNL     1     -11.831  -8.518 -43.052  1.00  0.00     0.276 HD
ENDBRANCH  22  23
BRANCH  22  27
HETATM   27  C7  UNL     1     -12.024  -6.128 -43.530  1.00  0.00     0.285 C 
BRANCH  27  28
HETATM   28  N8  UNL     1     -13.192  -5.299 -43.479  1.00  0.00    -0.076 N 
ATOM     29  H83 UNL     1     -14.010  -5.841 -43.201  1.00  0.00     0.274 HD
ATOM     30  H82 UNL     1     -13.145  -4.653 -42.691  1.00  0.00     0.274 HD
ATOM     31  H81 UNL     1     -13.364  -4.799 -44.350  1.00  0.00     0.274 HD
ENDBRANCH  27  28
ENDBRANCH  22  27
ENDBRANCH  20  22
ENDBRANCH   3  20
TORSDOF 9
ENDMDL
