MODEL 1
REMARK VINA RESULT: -6.283498331      0.000      0.000
REMARK  11 active torsions:
REMARK  status: ('A' for Active; 'I' for Inactive)
REMARK    1  A    between atoms: C2_2  and  C3_3 
REMARK    2  A    between atoms: C3_3  and  O1_4 
REMARK    3  A    between atoms: C3_3  and  C4_6 
REMARK    4  A    between atoms: C4_6  and  N1_7 
REMARK    5  A    between atoms: C4_6  and  C10_21 
REMARK    6  A    between atoms: N1_7  and  C5_9 
REMARK    7  A    between atoms: C5_9  and  C6_10 
REMARK    8  A    between atoms: C8_12  and  C9_13 
REMARK    9  A    between atoms: C9_13  and  N2_14 
REMARK   10  A    between atoms: C10_21  and  N4_22 
REMARK   11  A    between atoms: C10_21  and  O3_26 
ROOT
HETATM    1  N1  UNL     1      -9.858  -5.578 -43.412  1.00  0.00    -0.385 N 
ATOM      2  H1  UNL     1      -9.622  -5.211 -42.489  1.00  0.00     0.159 HD
ENDROOT
BRANCH   1   3
HETATM    3  C4  UNL     1     -11.208  -5.827 -43.757  1.00  0.00     0.169 C 
BRANCH   3   4
HETATM    4  C3  UNL     1     -11.872  -6.424 -42.551  1.00  0.00     0.167 C 
BRANCH   4   5
HETATM    5  C2  UNL     1     -10.768  -7.082 -41.766  1.00  0.00    -0.004 C 
HETATM    6  C1  UNL     1     -10.948  -8.244 -41.149  1.00  0.00     0.009 C 
ENDBRANCH   4   5
BRANCH   4   7
HETATM    7  O1  UNL     1     -12.830  -7.384 -42.835  1.00  0.00    -0.390 OA
ATOM      8  H1  UNL     1     -13.010  -7.354 -43.768  1.00  0.00     0.210 HD
ENDBRANCH   4   7
ENDBRANCH   3   4
BRANCH   3   9
HETATM    9  C10 UNL     1     -11.936  -4.613 -44.284  1.00  0.00     0.341 C 
BRANCH   9  10
HETATM   10  N4  UNL     1     -13.347  -4.653 -43.962  1.00  0.00    -0.051 N 
ATOM     11  H43 UNL     1     -13.712  -5.605 -44.008  1.00  0.00     0.277 HD
ATOM     12  H42 UNL     1     -13.508  -4.469 -42.972  1.00  0.00     0.277 HD
ATOM     13  H41 UNL     1     -13.887  -4.018 -44.551  1.00  0.00     0.277 HD
ENDBRANCH   9  10
BRANCH   9  14
HETATM   14  O3  UNL     1     -11.827  -4.578 -45.669  1.00  0.00    -0.368 OA
ATOM     15  H3  UNL     1     -11.013  -4.993 -45.929  1.00  0.00     0.212 HD
ENDBRANCH   9  14
ENDBRANCH   3   9
ENDBRANCH   1   3
BRANCH   1  16
HETATM   16  C5  UNL     1      -8.847  -5.839 -44.346  1.00  0.00     0.115 C 
BRANCH  16  17
HETATM   17  C6  UNL     1      -8.121  -4.538 -44.601  1.00  0.00     0.072 A 
HETATM   18  C7  UNL     1      -7.280  -4.330 -45.644  1.00  0.00     0.069 A 
HETATM   19  C8  UNL     1      -6.840  -3.021 -45.519  1.00  0.00     0.104 A 
HETATM   20  O2  UNL     1      -7.417  -2.537 -44.449  1.00  0.00    -0.240 OA
HETATM   21  N3  UNL     1      -8.186  -3.409 -43.878  1.00  0.00    -0.260 N 
ATOM     22  H3  UNL     1      -8.739  -3.265 -43.033  1.00  0.00     0.195 HD
BRANCH  19  23
HETATM   23  C9  UNL     1      -5.892  -2.347 -46.448  1.00  0.00     0.296 C 
BRANCH  23  24
HETATM   24  N2  UNL     1      -6.625  -1.658 -47.497  1.00  0.00    -0.073 N 
ATOM     25  H23 UNL     1      -7.179  -2.302 -48.063  1.00  0.00     0.274 HD
ATOM     26  H22 UNL     1      -7.388  -1.094 -47.123  1.00  0.00     0.274 HD
ATOM     27  H21 UNL     1      -5.986  -1.104 -48.067  1.00  0.00     0.274 HD
ENDBRANCH  23  24
ENDBRANCH  19  23
ENDBRANCH  16  17
ENDBRANCH   1  16
TORSDOF 11
ENDMDL
MODEL 2
REMARK VINA RESULT: -6.266342241      1.651      2.769
REMARK  11 active torsions:
REMARK  status: ('A' for Active; 'I' for Inactive)
REMARK    1  A    between atoms: C2_2  and  C3_3 
REMARK    2  A    between atoms: C3_3  and  O1_4 
REMARK    3  A    between atoms: C3_3  and  C4_6 
REMARK    4  A    between atoms: C4_6  and  N1_7 
REMARK    5  A    between atoms: C4_6  and  C10_21 
REMARK    6  A    between atoms: N1_7  and  C5_9 
REMARK    7  A    between atoms: C5_9  and  C6_10 
REMARK    8  A    between atoms: C8_12  and  C9_13 
REMARK    9  A    between atoms: C9_13  and  N2_14 
REMARK   10  A    between atoms: C10_21  and  N4_22 
REMARK   11  A    between atoms: C10_21  and  O3_26 
ROOT
HETATM    1  N1  UNL     1      -9.280  -6.357 -43.613  1.00  0.00    -0.385 N 
ATOM      2  H1  UNL     1      -9.676  -6.662 -44.502  1.00  0.00     0.159 HD
ENDROOT
BRANCH   1   3
HETATM    3  C4  UNL     1     -10.114  -6.196 -42.479  1.00  0.00     0.169 C 
BRANCH   3   4
HETATM    4  C3  UNL     1     -11.531  -6.371 -42.942  1.00  0.00     0.167 C 
BRANCH   4   5
HETATM    5  C2  UNL     1     -11.572  -5.809 -44.339  1.00  0.00    -0.004 C 
HETATM    6  C1  UNL     1     -12.285  -4.729 -44.635  1.00  0.00     0.009 C 
ENDBRANCH   4   5
BRANCH   4   7
HETATM    7  O1  UNL     1     -12.473  -5.700 -42.180  1.00  0.00    -0.390 OA
ATOM      8  H1  UNL     1     -12.339  -4.767 -42.298  1.00  0.00     0.210 HD
ENDBRANCH   4   7
ENDBRANCH   3   4
BRANCH   3   9
HETATM    9  C10 UNL     1      -9.758  -7.107 -41.328  1.00  0.00     0.341 C 
BRANCH   9  10
HETATM   10  N4  UNL     1     -10.935  -7.531 -40.599  1.00  0.00    -0.051 N 
ATOM     11  H43 UNL     1     -11.774  -7.462 -41.174  1.00  0.00     0.277 HD
ATOM     12  H42 UNL     1     -10.932  -8.539 -40.443  1.00  0.00     0.277 HD
ATOM     13  H41 UNL     1     -11.041  -7.020 -39.722  1.00  0.00     0.277 HD
ENDBRANCH   9  10
BRANCH   9  14
HETATM   14  O3  UNL     1      -8.943  -6.420 -40.436  1.00  0.00    -0.368 OA
ATOM     15  H3  UNL     1      -9.417  -5.672 -40.092  1.00  0.00     0.212 HD
ENDBRANCH   9  14
ENDBRANCH   3   9
ENDBRANCH   1   3
BRANCH   1  16
HETATM   16  C5  UNL     1      -7.908  -6.094 -43.504  1.00  0.00     0.115 C 
BRANCH  16  17
HETATM   17  C6  UNL     1      -7.668  -4.713 -44.068  1.00  0.00     0.072 A 
HETATM   18  C7  UNL     1      -6.912  -4.463 -45.166  1.00  0.00     0.069 A 
HETATM   19  C8  UNL     1      -6.956  -3.089 -45.349  1.00  0.00     0.104 A 
HETATM   20  O2  UNL     1      -7.704  -2.610 -44.388  1.00  0.00    -0.240 OA
HETATM   21  N3  UNL     1      -8.145  -3.546 -43.608  1.00  0.00    -0.260 N 
ATOM     22  H3  UNL     1      -8.744  -3.419 -42.792  1.00  0.00     0.195 HD
BRANCH  19  23
HETATM   23  C9  UNL     1      -6.266  -2.351 -46.443  1.00  0.00     0.296 C 
BRANCH  23  24
HETATM   24  N2  UNL     1      -7.239  -1.653 -47.267  1.00  0.00    -0.073 N 
ATOM     25  H23 UNL     1      -7.023  -1.730 -48.261  1.00  0.00     0.274 HD
ATOM     26  H22 UNL     1      -8.143  -2.125 -47.274  1.00  0.00     0.274 HD
ATOM     27  H21 UNL     1      -7.319  -0.682 -46.969  1.00  0.00     0.274 HD
ENDBRANCH  23  24
ENDBRANCH  19  23
ENDBRANCH  16  17
ENDBRANCH   1  16
TORSDOF 11
ENDMDL
MODEL 3
REMARK VINA RESULT: -6.079859318      1.969      2.984
REMARK  11 active torsions:
REMARK  status: ('A' for Active; 'I' for Inactive)
REMARK    1  A    between atoms: C2_2  and  C3_3 
REMARK    2  A    between atoms: C3_3  and  O1_4 
REMARK    3  A    between atoms: C3_3  and  C4_6 
REMARK    4  A    between atoms: C4_6  and  N1_7 
REMARK    5  A    between atoms: C4_6  and  C10_21 
REMARK    6  A    between atoms: N1_7  and  C5_9 
REMARK    7  A    between atoms: C5_9  and  C6_10 
REMARK    8  A    between atoms: C8_12  and  C9_13 
REMARK    9  A    between atoms: C9_13  and  N2_14 
REMARK   10  A    between atoms: C10_21  and  N4_22 
REMARK   11  A    between atoms: C10_21  and  O3_26 
ROOT
HETATM    1  N1  UNL     1      -9.354  -6.291 -43.770  1.00  0.00    -0.385 N 
ATOM      2  H1  UNL     1      -9.789  -6.030 -44.655  1.00  0.00     0.159 HD
ENDROOT
BRANCH   1   3
HETATM    3  C4  UNL     1     -10.097  -6.236 -42.566  1.00  0.00     0.169 C 
BRANCH   3   4
HETATM    4  C3  UNL     1     -11.542  -6.422 -42.927  1.00  0.00     0.167 C 
BRANCH   4   5
HETATM    5  C2  UNL     1     -11.692  -5.840 -44.308  1.00  0.00    -0.004 C 
HETATM    6  C1  UNL     1     -12.517  -4.830 -44.552  1.00  0.00     0.009 C 
ENDBRANCH   4   5
BRANCH   4   7
HETATM    7  O1  UNL     1     -12.434  -5.776 -42.087  1.00  0.00    -0.390 OA
ATOM      8  H1  UNL     1     -13.308  -5.891 -42.441  1.00  0.00     0.210 HD
ENDBRANCH   4   7
ENDBRANCH   3   4
BRANCH   3   9
HETATM    9  C10 UNL     1      -9.626  -7.214 -41.515  1.00  0.00     0.341 C 
BRANCH   9  10
HETATM   10  N4  UNL     1     -10.718  -8.018 -41.006  1.00  0.00    -0.051 N 
ATOM     11  H43 UNL     1     -10.592  -8.231 -40.017  1.00  0.00     0.277 HD
ATOM     12  H42 UNL     1     -11.580  -7.478 -40.944  1.00  0.00     0.277 HD
ATOM     13  H41 UNL     1     -10.849  -8.867 -41.556  1.00  0.00     0.277 HD
ENDBRANCH   9  10
BRANCH   9  14
HETATM   14  O3  UNL     1      -9.093  -6.510 -40.441  1.00  0.00    -0.368 OA
ATOM     15  H3  UNL     1      -9.267  -6.987 -39.638  1.00  0.00     0.212 HD
ENDBRANCH   9  14
ENDBRANCH   3   9
ENDBRANCH   1   3
BRANCH   1  16
HETATM   16  C5  UNL     1      -8.016  -6.707 -43.737  1.00  0.00     0.115 C 
BRANCH  16  17
HETATM   17  C6  UNL     1      -7.170  -5.542 -44.196  1.00  0.00     0.072 A 
HETATM   18  C7  UNL     1      -7.576  -4.620 -45.103  1.00  0.00     0.069 A 
HETATM   19  C8  UNL     1      -6.522  -3.730 -45.234  1.00  0.00     0.104 A 
HETATM   20  O2  UNL     1      -5.578  -4.152 -44.432  1.00  0.00    -0.240 OA
HETATM   21  N3  UNL     1      -5.928  -5.226 -43.798  1.00  0.00    -0.260 N 
ATOM     22  H3  UNL     1      -5.362  -5.739 -43.121  1.00  0.00     0.195 HD
BRANCH  19  23
HETATM   23  C9  UNL     1      -6.515  -2.540 -46.130  1.00  0.00     0.296 C 
BRANCH  23  24
HETATM   24  N2  UNL     1      -7.256  -1.449 -45.519  1.00  0.00    -0.073 N 
ATOM     25  H23 UNL     1      -7.740  -1.744 -44.671  1.00  0.00     0.274 HD
ATOM     26  H22 UNL     1      -6.637  -0.753 -45.103  1.00  0.00     0.274 HD
ATOM     27  H21 UNL     1      -7.894  -1.034 -46.198  1.00  0.00     0.274 HD
ENDBRANCH  23  24
ENDBRANCH  19  23
ENDBRANCH  16  17
ENDBRANCH   1  16
TORSDOF 11
ENDMDL
MODEL 4
REMARK VINA RESULT: -6.075040262      3.154      6.071
REMARK  11 active torsions:
REMARK  status: ('A' for Active; 'I' for Inactive)
REMARK    1  A    between atoms: C2_2  and  C3_3 
REMARK    2  A    between atoms: C3_3  and  O1_4 
REMARK    3  A    between atoms: C3_3  and  C4_6 
REMARK    4  A    between atoms: C4_6  and  N1_7 
REMARK    5  A    between atoms: C4_6  and  C10_21 
REMARK    6  A    between atoms: N1_7  and  C5_9 
REMARK    7  A    between atoms: C5_9  and  C6_10 
REMARK    8  A    between atoms: C8_12  and  C9_13 
REMARK    9  A    between atoms: C9_13  and  N2_14 
REMARK   10  A    between atoms: C10_21  and  N4_22 
REMARK   11  A    between atoms: C10_21  and  O3_26 
ROOT
HETATM    1  N1  UNL     1      -8.401  -7.190 -41.162  1.00  0.00    -0.385 N 
ATOM      2  H1  UNL     1      -8.581  -6.811 -40.233  1.00  0.00     0.159 HD
ENDROOT
BRANCH   1   3
HETATM    3  C4  UNL     1      -7.153  -6.970 -41.794  1.00  0.00     0.169 C 
BRANCH   3   4
HETATM    4  C3  UNL     1      -7.420  -6.174 -43.038  1.00  0.00     0.167 C 
BRANCH   4   5
HETATM    5  C2  UNL     1      -6.582  -6.812 -44.114  1.00  0.00    -0.004 C 
HETATM    6  C1  UNL     1      -6.428  -8.129 -44.188  1.00  0.00     0.009 C 
ENDBRANCH   4   5
BRANCH   4   7
HETATM    7  O1  UNL     1      -7.067  -4.837 -42.953  1.00  0.00    -0.390 OA
ATOM      8  H1  UNL     1      -6.243  -4.778 -42.484  1.00  0.00     0.210 HD
ENDBRANCH   4   7
ENDBRANCH   3   4
BRANCH   3   9
HETATM    9  C10 UNL     1      -6.123  -6.326 -40.897  1.00  0.00     0.341 C 
BRANCH   9  10
HETATM   10  N4  UNL     1      -4.919  -7.126 -40.802  1.00  0.00    -0.051 N 
ATOM     11  H43 UNL     1      -5.000  -7.985 -41.347  1.00  0.00     0.277 HD
ATOM     12  H42 UNL     1      -4.144  -6.693 -41.302  1.00  0.00     0.277 HD
ATOM     13  H41 UNL     1      -4.673  -7.323 -39.832  1.00  0.00     0.277 HD
ENDBRANCH   9  10
BRANCH   9  14
HETATM   14  O3  UNL     1      -6.643  -6.206 -39.614  1.00  0.00    -0.368 OA
ATOM     15  H3  UNL     1      -6.615  -7.053 -39.185  1.00  0.00     0.212 HD
ENDBRANCH   9  14
ENDBRANCH   3   9
ENDBRANCH   1   3
BRANCH   1  16
HETATM   16  C5  UNL     1      -9.387  -7.933 -41.824  1.00  0.00     0.115 C 
BRANCH  16  17
HETATM   17  C6  UNL     1     -10.601  -7.044 -41.970  1.00  0.00     0.072 A 
HETATM   18  C7  UNL     1     -11.034  -6.539 -43.151  1.00  0.00     0.069 A 
HETATM   19  C8  UNL     1     -12.165  -5.795 -42.851  1.00  0.00     0.104 A 
HETATM   20  O2  UNL     1     -12.340  -5.891 -41.557  1.00  0.00    -0.240 OA
HETATM   21  N3  UNL     1     -11.429  -6.626 -41.000  1.00  0.00    -0.260 N 
ATOM     22  H3  UNL     1     -11.355  -6.845 -40.007  1.00  0.00     0.195 HD
BRANCH  19  23
HETATM   23  C9  UNL     1     -12.986  -5.051 -43.845  1.00  0.00     0.296 C 
BRANCH  23  24
HETATM   24  N2  UNL     1     -12.133  -4.211 -44.670  1.00  0.00    -0.073 N 
ATOM     25  H23 UNL     1     -11.151  -4.476 -44.598  1.00  0.00     0.274 HD
ATOM     26  H22 UNL     1     -12.265  -4.393 -45.665  1.00  0.00     0.274 HD
ATOM     27  H21 UNL     1     -12.281  -3.228 -44.440  1.00  0.00     0.274 HD
ENDBRANCH  23  24
ENDBRANCH  19  23
ENDBRANCH  16  17
ENDBRANCH   1  16
TORSDOF 11
ENDMDL
MODEL 5
REMARK VINA RESULT: -6.036205936      3.525      4.828
REMARK  11 active torsions:
REMARK  status: ('A' for Active; 'I' for Inactive)
REMARK    1  A    between atoms: C2_2  and  C3_3 
REMARK    2  A    between atoms: C3_3  and  O1_4 
REMARK    3  A    between atoms: C3_3  and  C4_6 
REMARK    4  A    between atoms: C4_6  and  N1_7 
REMARK    5  A    between atoms: C4_6  and  C10_21 
REMARK    6  A    between atoms: N1_7  and  C5_9 
REMARK    7  A    between atoms: C5_9  and  C6_10 
REMARK    8  A    between atoms: C8_12  and  C9_13 
REMARK    9  A    between atoms: C9_13  and  N2_14 
REMARK   10  A    between atoms: C10_21  and  N4_22 
REMARK   11  A    between atoms: C10_21  and  O3_26 
ROOT
HETATM    1  N1  UNL     1      -9.377  -6.849 -43.154  1.00  0.00    -0.385 N 
ATOM      2  H1  UNL     1      -9.209  -7.670 -43.735  1.00  0.00     0.159 HD
ENDROOT
BRANCH   1   3
HETATM    3  C4  UNL     1     -10.601  -6.705 -42.455  1.00  0.00     0.169 C 
BRANCH   3   4
HETATM    4  C3  UNL     1     -11.676  -6.504 -43.483  1.00  0.00     0.167 C 
BRANCH   4   5
HETATM    5  C2  UNL     1     -11.613  -5.047 -43.855  1.00  0.00    -0.004 C 
HETATM    6  C1  UNL     1     -12.240  -4.573 -44.925  1.00  0.00     0.009 C 
ENDBRANCH   4   5
BRANCH   4   7
HETATM    7  O1  UNL     1     -12.958  -6.780 -43.037  1.00  0.00    -0.390 OA
ATOM      8  H1  UNL     1     -13.095  -7.719 -43.094  1.00  0.00     0.210 HD
ENDBRANCH   4   7
ENDBRANCH   3   4
BRANCH   3   9
HETATM    9  C10 UNL     1     -10.900  -7.846 -41.512  1.00  0.00     0.341 C 
BRANCH   9  10
HETATM   10  N4  UNL     1     -11.164  -7.373 -40.168  1.00  0.00    -0.051 N 
ATOM     11  H43 UNL     1     -11.966  -7.851 -39.758  1.00  0.00     0.277 HD
ATOM     12  H42 UNL     1     -10.444  -7.683 -39.517  1.00  0.00     0.277 HD
ATOM     13  H41 UNL     1     -11.280  -6.360 -40.141  1.00  0.00     0.277 HD
ENDBRANCH   9  10
BRANCH   9  14
HETATM   14  O3  UNL     1      -9.795  -8.687 -41.445  1.00  0.00    -0.368 OA
ATOM     15  H3  UNL     1      -9.201  -8.370 -40.775  1.00  0.00     0.212 HD
ENDBRANCH   9  14
ENDBRANCH   3   9
ENDBRANCH   1   3
BRANCH   1  16
HETATM   16  C5  UNL     1      -8.397  -5.853 -43.040  1.00  0.00     0.115 C 
BRANCH  16  17
HETATM   17  C6  UNL     1      -7.369  -6.344 -42.046  1.00  0.00     0.072 A 
HETATM   18  C7  UNL     1      -6.053  -6.501 -42.331  1.00  0.00     0.069 A 
HETATM   19  C8  UNL     1      -5.465  -6.953 -41.159  1.00  0.00     0.104 A 
HETATM   20  O2  UNL     1      -6.423  -7.039 -40.272  1.00  0.00    -0.240 OA
HETATM   21  N3  UNL     1      -7.569  -6.685 -40.763  1.00  0.00    -0.260 N 
ATOM     22  H3  UNL     1      -8.459  -6.669 -40.266  1.00  0.00     0.195 HD
BRANCH  19  23
HETATM   23  C9  UNL     1      -4.018  -7.264 -40.996  1.00  0.00     0.296 C 
BRANCH  23  24
HETATM   24  N2  UNL     1      -3.362  -6.214 -40.235  1.00  0.00    -0.073 N 
ATOM     25  H23 UNL     1      -3.976  -5.413 -40.082  1.00  0.00     0.274 HD
ATOM     26  H22 UNL     1      -3.219  -6.481 -39.261  1.00  0.00     0.274 HD
ATOM     27  H21 UNL     1      -2.490  -5.945 -40.689  1.00  0.00     0.274 HD
ENDBRANCH  23  24
ENDBRANCH  19  23
ENDBRANCH  16  17
ENDBRANCH   1  16
TORSDOF 11
ENDMDL
