MODEL 1
REMARK VINA RESULT: -5.911009914      0.000      0.000
REMARK  15 active torsions:
REMARK  status: ('A' for Active; 'I' for Inactive)
REMARK    1  A    between atoms: C2_2  and  N1_3 
REMARK    2  A    between atoms: C2_2  and  C3_7 
REMARK    3  A    between atoms: C3_7  and  S1_8 
REMARK    4  A    between atoms: S1_8  and  C4_9 
REMARK    5  A    between atoms: C4_9  and  C5_10 
REMARK    6  A    between atoms: C5_10  and  N2_11 
REMARK    7  A    between atoms: C5_10  and  C12_30 
REMARK    8  A    between atoms: N2_11  and  C6_13 
REMARK    9  A    between atoms: C9_17  and  N4_18 
REMARK   10  A    between atoms: N4_18  and  C10_20 
REMARK   11  A    between atoms: C10_20  and  C11_21 
REMARK   12  A    between atoms: C11_21  and  N5_22 
REMARK   13  A    between atoms: N6_26  and  N7_27 
REMARK   14  A    between atoms: C12_30  and  N8_31 
REMARK   15  A    between atoms: C12_30  and  O1_35 
ROOT
HETATM    1  N2  UNL     1     -11.434  26.739 -22.770  1.00  0.00    -0.364 N 
ATOM      2  H2  UNL     1     -11.635  27.447 -22.065  1.00  0.00     0.161 HD
ENDROOT
BRANCH   1   3
HETATM    3  C5  UNL     1     -12.519  25.885 -23.184  1.00  0.00     0.148 C 
BRANCH   3   4
HETATM    4  C4  UNL     1     -13.453  26.455 -24.184  1.00  0.00     0.103 C 
BRANCH   4   5
HETATM    5  S1  UNL     1     -12.901  26.583 -25.866  1.00  0.00    -0.165 SA
BRANCH   5   6
HETATM    6  C3  UNL     1     -11.782  25.316 -26.431  1.00  0.00     0.106 C 
BRANCH   6   7
HETATM    7  C2  UNL     1     -11.761  24.992 -27.872  1.00  0.00     0.188 C 
HETATM    8  C1  UNL     1     -13.177  24.391 -28.163  1.00  0.00     0.040 C 
BRANCH   7   9
HETATM    9  N1  UNL     1     -11.765  26.179 -28.724  1.00  0.00    -0.075 N 
ATOM     10  H13 UNL     1     -12.552  26.813 -28.583  1.00  0.00     0.274 HD
ATOM     11  H12 UNL     1     -11.048  26.871 -28.507  1.00  0.00     0.274 HD
ATOM     12  H11 UNL     1     -11.704  25.765 -29.654  1.00  0.00     0.274 HD
ENDBRANCH   7   9
ENDBRANCH   6   7
ENDBRANCH   5   6
ENDBRANCH   4   5
ENDBRANCH   3   4
BRANCH   3  13
HETATM   13  C12 UNL     1     -13.128  25.171 -22.004  1.00  0.00     0.339 C 
BRANCH  13  14
HETATM   14  N8  UNL     1     -12.878  26.040 -20.849  1.00  0.00    -0.051 N 
ATOM     15  H83 UNL     1     -12.664  25.532 -19.992  1.00  0.00     0.277 HD
ATOM     16  H82 UNL     1     -12.000  26.555 -20.907  1.00  0.00     0.277 HD
ATOM     17  H81 UNL     1     -13.701  26.638 -20.777  1.00  0.00     0.277 HD
ENDBRANCH  13  14
BRANCH  13  18
HETATM   18  O1  UNL     1     -14.494  25.003 -22.083  1.00  0.00    -0.368 OA
ATOM     19  H1  UNL     1     -14.857  24.429 -21.419  1.00  0.00     0.212 HD
ENDBRANCH  13  18
ENDBRANCH   3  13
ENDBRANCH   1   3
BRANCH   1  20
HETATM   20  C6  UNL     1     -10.102  26.668 -23.272  1.00  0.00     0.157 A 
HETATM   21  C7  UNL     1      -9.152  25.701 -23.137  1.00  0.00     0.159 A 
HETATM   22  N3  UNL     1      -7.987  26.040 -23.762  1.00  0.00    -0.192 N 
HETATM   23  C8  UNL     1      -6.832  25.139 -23.817  1.00  0.00     0.175 C 
HETATM   24  C9  UNL     1      -8.203  27.244 -24.298  1.00  0.00     0.702 A 
HETATM   25  N6  UNL     1      -9.501  27.628 -24.001  1.00  0.00    -0.075 N 
BRANCH  24  26
HETATM   26  N4  UNL     1      -7.307  28.102 -24.964  1.00  0.00    -0.223 N 
ATOM     27  H4  UNL     1      -7.561  28.320 -25.928  1.00  0.00     0.177 HD
BRANCH  26  28
HETATM   28  C10 UNL     1      -6.112  28.711 -24.515  1.00  0.00     0.165 C 
BRANCH  28  29
HETATM   29  C11 UNL     1      -4.920  28.414 -25.425  1.00  0.00     0.249 C 
BRANCH  29  30
HETATM   30  N5  UNL     1      -4.190  27.270 -24.912  1.00  0.00    -0.078 N 
ATOM     31  H53 UNL     1      -4.757  26.701 -24.284  1.00  0.00     0.274 HD
ATOM     32  H52 UNL     1      -4.018  26.568 -25.632  1.00  0.00     0.274 HD
ATOM     33  H51 UNL     1      -3.326  27.586 -24.470  1.00  0.00     0.274 HD
ENDBRANCH  29  30
ENDBRANCH  28  29
ENDBRANCH  26  28
ENDBRANCH  24  26
BRANCH  25  34
HETATM   34  N7  UNL     1     -10.090  28.828 -24.390  1.00  0.00    -0.322 N 
ATOM     35  H72 UNL     1     -10.864  28.914 -25.048  1.00  0.00     0.178 HD
ATOM     36  H71 UNL     1      -9.810  29.754 -24.066  1.00  0.00     0.178 HD
ENDBRANCH  25  34
ENDBRANCH   1  20
TORSDOF 15
ENDMDL
MODEL 2
REMARK VINA RESULT: -5.804799570      1.402      2.188
REMARK  15 active torsions:
REMARK  status: ('A' for Active; 'I' for Inactive)
REMARK    1  A    between atoms: C2_2  and  N1_3 
REMARK    2  A    between atoms: C2_2  and  C3_7 
REMARK    3  A    between atoms: C3_7  and  S1_8 
REMARK    4  A    between atoms: S1_8  and  C4_9 
REMARK    5  A    between atoms: C4_9  and  C5_10 
REMARK    6  A    between atoms: C5_10  and  N2_11 
REMARK    7  A    between atoms: C5_10  and  C12_30 
REMARK    8  A    between atoms: N2_11  and  C6_13 
REMARK    9  A    between atoms: C9_17  and  N4_18 
REMARK   10  A    between atoms: N4_18  and  C10_20 
REMARK   11  A    between atoms: C10_20  and  C11_21 
REMARK   12  A    between atoms: C11_21  and  N5_22 
REMARK   13  A    between atoms: N6_26  and  N7_27 
REMARK   14  A    between atoms: C12_30  and  N8_31 
REMARK   15  A    between atoms: C12_30  and  O1_35 
ROOT
HETATM    1  N2  UNL     1     -10.779  26.404 -22.910  1.00  0.00    -0.364 N 
ATOM      2  H2  UNL     1     -10.645  26.316 -21.903  1.00  0.00     0.161 HD
ENDROOT
BRANCH   1   3
HETATM    3  C5  UNL     1     -11.716  25.506 -23.538  1.00  0.00     0.148 C 
BRANCH   3   4
HETATM    4  C4  UNL     1     -11.552  25.309 -24.998  1.00  0.00     0.103 C 
BRANCH   4   5
HETATM    5  S1  UNL     1     -12.690  26.129 -26.085  1.00  0.00    -0.165 SA
BRANCH   5   6
HETATM    6  C3  UNL     1     -12.902  25.408 -27.701  1.00  0.00     0.106 C 
BRANCH   6   7
HETATM    7  C2  UNL     1     -11.789  24.617 -28.267  1.00  0.00     0.188 C 
HETATM    8  C1  UNL     1     -12.392  23.190 -28.491  1.00  0.00     0.040 C 
BRANCH   7   9
HETATM    9  N1  UNL     1     -11.448  25.010 -29.632  1.00  0.00    -0.075 N 
ATOM     10  H13 UNL     1     -10.900  24.328 -30.157  1.00  0.00     0.274 HD
ATOM     11  H12 UNL     1     -12.229  25.026 -30.288  1.00  0.00     0.274 HD
ATOM     12  H11 UNL     1     -10.990  25.909 -29.479  1.00  0.00     0.274 HD
ENDBRANCH   7   9
ENDBRANCH   6   7
ENDBRANCH   5   6
ENDBRANCH   4   5
ENDBRANCH   3   4
BRANCH   3  13
HETATM   13  C12 UNL     1     -13.115  25.739 -23.028  1.00  0.00     0.339 C 
BRANCH  13  14
HETATM   14  N8  UNL     1     -13.246  24.886 -21.842  1.00  0.00    -0.051 N 
ATOM     15  H83 UNL     1     -14.082  24.303 -21.846  1.00  0.00     0.277 HD
ATOM     16  H82 UNL     1     -12.569  24.125 -21.808  1.00  0.00     0.277 HD
ATOM     17  H81 UNL     1     -13.191  25.520 -21.045  1.00  0.00     0.277 HD
ENDBRANCH  13  14
BRANCH  13  18
HETATM   18  O1  UNL     1     -13.362  27.030 -22.614  1.00  0.00    -0.368 OA
ATOM     19  H1  UNL     1     -13.446  27.659 -23.321  1.00  0.00     0.212 HD
ENDBRANCH  13  18
ENDBRANCH   3  13
ENDBRANCH   1   3
BRANCH   1  20
HETATM   20  C6  UNL     1     -10.025  27.404 -23.590  1.00  0.00     0.157 A 
HETATM   21  C7  UNL     1     -10.366  28.665 -23.975  1.00  0.00     0.159 A 
HETATM   22  N3  UNL     1      -9.344  29.292 -24.630  1.00  0.00    -0.192 N 
HETATM   23  C8  UNL     1      -9.439  30.681 -25.088  1.00  0.00     0.175 C 
HETATM   24  C9  UNL     1      -8.342  28.410 -24.662  1.00  0.00     0.702 A 
HETATM   25  N6  UNL     1      -8.757  27.253 -24.022  1.00  0.00    -0.075 N 
BRANCH  24  26
HETATM   26  N4  UNL     1      -7.092  28.498 -25.304  1.00  0.00    -0.223 N 
ATOM     27  H4  UNL     1      -7.120  28.357 -26.314  1.00  0.00     0.177 HD
BRANCH  26  28
HETATM   28  C10 UNL     1      -5.803  28.748 -24.776  1.00  0.00     0.165 C 
BRANCH  28  29
HETATM   29  C11 UNL     1      -4.955  27.481 -24.666  1.00  0.00     0.249 C 
BRANCH  29  30
HETATM   30  N5  UNL     1      -3.724  27.654 -25.414  1.00  0.00    -0.078 N 
ATOM     31  H53 UNL     1      -3.306  28.573 -25.262  1.00  0.00     0.274 HD
ATOM     32  H52 UNL     1      -2.964  27.084 -25.041  1.00  0.00     0.274 HD
ATOM     33  H51 UNL     1      -3.895  27.469 -26.403  1.00  0.00     0.274 HD
ENDBRANCH  29  30
ENDBRANCH  28  29
ENDBRANCH  26  28
ENDBRANCH  24  26
BRANCH  25  34
HETATM   34  N7  UNL     1      -7.984  26.107 -23.857  1.00  0.00    -0.322 N 
ATOM     35  H72 UNL     1      -8.091  25.431 -23.102  1.00  0.00     0.178 HD
ATOM     36  H71 UNL     1      -7.220  25.819 -24.470  1.00  0.00     0.178 HD
ENDBRANCH  25  34
ENDBRANCH   1  20
TORSDOF 15
ENDMDL
MODEL 3
REMARK VINA RESULT: -5.779756810      2.149      4.044
REMARK  15 active torsions:
REMARK  status: ('A' for Active; 'I' for Inactive)
REMARK    1  A    between atoms: C2_2  and  N1_3 
REMARK    2  A    between atoms: C2_2  and  C3_7 
REMARK    3  A    between atoms: C3_7  and  S1_8 
REMARK    4  A    between atoms: S1_8  and  C4_9 
REMARK    5  A    between atoms: C4_9  and  C5_10 
REMARK    6  A    between atoms: C5_10  and  N2_11 
REMARK    7  A    between atoms: C5_10  and  C12_30 
REMARK    8  A    between atoms: N2_11  and  C6_13 
REMARK    9  A    between atoms: C9_17  and  N4_18 
REMARK   10  A    between atoms: N4_18  and  C10_20 
REMARK   11  A    between atoms: C10_20  and  C11_21 
REMARK   12  A    between atoms: C11_21  and  N5_22 
REMARK   13  A    between atoms: N6_26  and  N7_27 
REMARK   14  A    between atoms: C12_30  and  N8_31 
REMARK   15  A    between atoms: C12_30  and  O1_35 
ROOT
HETATM    1  N2  UNL     1     -11.276  27.329 -23.555  1.00  0.00    -0.364 N 
ATOM      2  H2  UNL     1     -11.501  28.059 -22.880  1.00  0.00     0.161 HD
ENDROOT
BRANCH   1   3
HETATM    3  C5  UNL     1     -12.373  26.712 -24.259  1.00  0.00     0.148 C 
BRANCH   3   4
HETATM    4  C4  UNL     1     -13.122  25.672 -23.515  1.00  0.00     0.103 C 
BRANCH   4   5
HETATM    5  S1  UNL     1     -14.744  26.075 -22.919  1.00  0.00    -0.165 SA
BRANCH   5   6
HETATM    6  C3  UNL     1     -15.705  24.726 -22.260  1.00  0.00     0.106 C 
BRANCH   6   7
HETATM    7  C2  UNL     1     -15.210  24.040 -21.048  1.00  0.00     0.188 C 
HETATM    8  C1  UNL     1     -14.881  25.197 -20.046  1.00  0.00     0.040 C 
BRANCH   7   9
HETATM    9  N1  UNL     1     -16.261  23.321 -20.332  1.00  0.00    -0.075 N 
ATOM     10  H13 UNL     1     -16.878  22.757 -20.916  1.00  0.00     0.274 HD
ATOM     11  H12 UNL     1     -15.939  22.541 -19.757  1.00  0.00     0.274 HD
ATOM     12  H11 UNL     1     -16.717  24.077 -19.822  1.00  0.00     0.274 HD
ENDBRANCH   7   9
ENDBRANCH   6   7
ENDBRANCH   5   6
ENDBRANCH   4   5
ENDBRANCH   3   4
BRANCH   3  13
HETATM   13  C12 UNL     1     -11.996  26.402 -25.685  1.00  0.00     0.339 C 
BRANCH  13  14
HETATM   14  N8  UNL     1     -13.151  25.696 -26.249  1.00  0.00    -0.051 N 
ATOM     15  H83 UNL     1     -13.085  24.681 -26.182  1.00  0.00     0.277 HD
ATOM     16  H82 UNL     1     -14.003  25.798 -25.699  1.00  0.00     0.277 HD
ATOM     17  H81 UNL     1     -13.238  26.038 -27.206  1.00  0.00     0.277 HD
ENDBRANCH  13  14
BRANCH  13  18
HETATM   18  O1  UNL     1     -11.790  27.513 -26.474  1.00  0.00    -0.368 OA
ATOM     19  H1  UNL     1     -12.075  27.413 -27.374  1.00  0.00     0.212 HD
ENDBRANCH  13  18
ENDBRANCH   3  13
ENDBRANCH   1   3
BRANCH   1  20
HETATM   20  C6  UNL     1      -9.902  26.995 -23.731  1.00  0.00     0.157 A 
HETATM   21  C7  UNL     1      -9.183  25.927 -23.288  1.00  0.00     0.159 A 
HETATM   22  N3  UNL     1      -7.873  26.003 -23.662  1.00  0.00    -0.192 N 
HETATM   23  C8  UNL     1      -6.906  24.942 -23.364  1.00  0.00     0.175 C 
HETATM   24  C9  UNL     1      -7.760  27.142 -24.352  1.00  0.00     0.702 A 
HETATM   25  N6  UNL     1      -9.005  27.749 -24.397  1.00  0.00    -0.075 N 
BRANCH  24  26
HETATM   26  N4  UNL     1      -6.611  27.760 -24.879  1.00  0.00    -0.223 N 
ATOM     27  H4  UNL     1      -6.378  27.485 -25.834  1.00  0.00     0.177 HD
BRANCH  26  28
HETATM   28  C10 UNL     1      -5.726  28.700 -24.301  1.00  0.00     0.165 C 
BRANCH  28  29
HETATM   29  C11 UNL     1      -4.429  28.853 -25.096  1.00  0.00     0.249 C 
BRANCH  29  30
HETATM   30  N5  UNL     1      -3.870  27.543 -25.372  1.00  0.00    -0.078 N 
ATOM     31  H53 UNL     1      -3.508  27.093 -24.531  1.00  0.00     0.274 HD
ATOM     32  H52 UNL     1      -4.590  26.859 -25.606  1.00  0.00     0.274 HD
ATOM     33  H51 UNL     1      -3.161  27.620 -26.102  1.00  0.00     0.274 HD
ENDBRANCH  29  30
ENDBRANCH  28  29
ENDBRANCH  26  28
ENDBRANCH  24  26
BRANCH  25  34
HETATM   34  N7  UNL     1      -9.284  28.958 -25.029  1.00  0.00    -0.322 N 
ATOM     35  H72 UNL     1     -10.216  29.291 -25.273  1.00  0.00     0.178 HD
ATOM     36  H71 UNL     1      -8.587  29.643 -25.322  1.00  0.00     0.178 HD
ENDBRANCH  25  34
ENDBRANCH   1  20
TORSDOF 15
ENDMDL
MODEL 4
REMARK VINA RESULT: -5.748743359      2.679      3.212
REMARK  15 active torsions:
REMARK  status: ('A' for Active; 'I' for Inactive)
REMARK    1  A    between atoms: C2_2  and  N1_3 
REMARK    2  A    between atoms: C2_2  and  C3_7 
REMARK    3  A    between atoms: C3_7  and  S1_8 
REMARK    4  A    between atoms: S1_8  and  C4_9 
REMARK    5  A    between atoms: C4_9  and  C5_10 
REMARK    6  A    between atoms: C5_10  and  N2_11 
REMARK    7  A    between atoms: C5_10  and  C12_30 
REMARK    8  A    between atoms: N2_11  and  C6_13 
REMARK    9  A    between atoms: C9_17  and  N4_18 
REMARK   10  A    between atoms: N4_18  and  C10_20 
REMARK   11  A    between atoms: C10_20  and  C11_21 
REMARK   12  A    between atoms: C11_21  and  N5_22 
REMARK   13  A    between atoms: N6_26  and  N7_27 
REMARK   14  A    between atoms: C12_30  and  N8_31 
REMARK   15  A    between atoms: C12_30  and  O1_35 
ROOT
HETATM    1  N2  UNL     1     -11.327  29.258 -24.113  1.00  0.00    -0.364 N 
ATOM      2  H2  UNL     1     -11.553  29.721 -23.233  1.00  0.00     0.161 HD
ENDROOT
BRANCH   1   3
HETATM    3  C5  UNL     1     -12.264  29.401 -25.199  1.00  0.00     0.148 C 
BRANCH   3   4
HETATM    4  C4  UNL     1     -12.220  28.348 -26.241  1.00  0.00     0.103 C 
BRANCH   4   5
HETATM    5  S1  UNL     1     -12.946  26.772 -25.869  1.00  0.00    -0.165 SA
BRANCH   5   6
HETATM    6  C3  UNL     1     -12.228  25.357 -26.678  1.00  0.00     0.106 C 
BRANCH   6   7
HETATM    7  C2  UNL     1     -12.878  24.844 -27.902  1.00  0.00     0.188 C 
HETATM    8  C1  UNL     1     -12.112  25.539 -29.078  1.00  0.00     0.040 C 
BRANCH   7   9
HETATM    9  N1  UNL     1     -12.588  23.435 -28.154  1.00  0.00    -0.075 N 
ATOM     10  H13 UNL     1     -13.391  22.808 -28.096  1.00  0.00     0.274 HD
ATOM     11  H12 UNL     1     -12.361  23.205 -29.122  1.00  0.00     0.274 HD
ATOM     12  H11 UNL     1     -11.846  23.254 -27.478  1.00  0.00     0.274 HD
ENDBRANCH   7   9
ENDBRANCH   6   7
ENDBRANCH   5   6
ENDBRANCH   4   5
ENDBRANCH   3   4
BRANCH   3  13
HETATM   13  C12 UNL     1     -12.336  30.832 -25.670  1.00  0.00     0.339 C 
BRANCH  13  14
HETATM   14  N8  UNL     1     -12.028  31.647 -24.490  1.00  0.00    -0.051 N 
ATOM     15  H83 UNL     1     -12.725  31.577 -23.750  1.00  0.00     0.277 HD
ATOM     16  H82 UNL     1     -11.239  31.298 -23.945  1.00  0.00     0.277 HD
ATOM     17  H81 UNL     1     -11.896  32.595 -24.842  1.00  0.00     0.277 HD
ENDBRANCH  13  14
BRANCH  13  18
HETATM   18  O1  UNL     1     -11.404  31.161 -26.630  1.00  0.00    -0.368 OA
ATOM     19  H1  UNL     1     -11.050  32.039 -26.548  1.00  0.00     0.212 HD
ENDBRANCH  13  18
ENDBRANCH   3  13
ENDBRANCH   1   3
BRANCH   1  20
HETATM   20  C6  UNL     1     -10.110  28.520 -24.176  1.00  0.00     0.157 A 
HETATM   21  C7  UNL     1      -9.798  27.279 -23.710  1.00  0.00     0.159 A 
HETATM   22  N3  UNL     1      -8.496  26.952 -23.961  1.00  0.00    -0.192 N 
HETATM   23  C8  UNL     1      -7.933  25.643 -23.616  1.00  0.00     0.175 C 
HETATM   24  C9  UNL     1      -7.975  28.007 -24.592  1.00  0.00     0.702 A 
HETATM   25  N6  UNL     1      -8.965  28.968 -24.727  1.00  0.00    -0.075 N 
BRANCH  24  26
HETATM   26  N4  UNL     1      -6.646  28.247 -24.989  1.00  0.00    -0.223 N 
ATOM     27  H4  UNL     1      -6.432  27.982 -25.950  1.00  0.00     0.177 HD
BRANCH  26  28
HETATM   28  C10 UNL     1      -5.557  28.796 -24.270  1.00  0.00     0.165 C 
BRANCH  28  29
HETATM   29  C11 UNL     1      -4.286  28.898 -25.114  1.00  0.00     0.249 C 
BRANCH  29  30
HETATM   30  N5  UNL     1      -3.795  27.566 -25.414  1.00  0.00    -0.078 N 
ATOM     31  H53 UNL     1      -2.897  27.586 -25.898  1.00  0.00     0.274 HD
ATOM     32  H52 UNL     1      -3.498  27.067 -24.575  1.00  0.00     0.274 HD
ATOM     33  H51 UNL     1      -4.502  27.050 -25.938  1.00  0.00     0.274 HD
ENDBRANCH  29  30
ENDBRANCH  28  29
ENDBRANCH  26  28
ENDBRANCH  24  26
BRANCH  25  34
HETATM   34  N7  UNL     1      -8.798  30.210 -25.334  1.00  0.00    -0.322 N 
ATOM     35  H72 UNL     1      -9.082  31.102 -24.932  1.00  0.00     0.178 HD
ATOM     36  H71 UNL     1      -8.378  30.365 -26.251  1.00  0.00     0.178 HD
ENDBRANCH  25  34
ENDBRANCH   1  20
TORSDOF 15
ENDMDL
MODEL 5
REMARK VINA RESULT: -5.708862183      2.421      4.454
REMARK  15 active torsions:
REMARK  status: ('A' for Active; 'I' for Inactive)
REMARK    1  A    between atoms: C2_2  and  N1_3 
REMARK    2  A    between atoms: C2_2  and  C3_7 
REMARK    3  A    between atoms: C3_7  and  S1_8 
REMARK    4  A    between atoms: S1_8  and  C4_9 
REMARK    5  A    between atoms: C4_9  and  C5_10 
REMARK    6  A    between atoms: C5_10  and  N2_11 
REMARK    7  A    between atoms: C5_10  and  C12_30 
REMARK    8  A    between atoms: N2_11  and  C6_13 
REMARK    9  A    between atoms: C9_17  and  N4_18 
REMARK   10  A    between atoms: N4_18  and  C10_20 
REMARK   11  A    between atoms: C10_20  and  C11_21 
REMARK   12  A    between atoms: C11_21  and  N5_22 
REMARK   13  A    between atoms: N6_26  and  N7_27 
REMARK   14  A    between atoms: C12_30  and  N8_31 
REMARK   15  A    between atoms: C12_30  and  O1_35 
ROOT
HETATM    1  N2  UNL     1     -11.171  26.791 -23.548  1.00  0.00    -0.364 N 
ATOM      2  H2  UNL     1     -11.064  26.500 -22.576  1.00  0.00     0.161 HD
ENDROOT
BRANCH   1   3
HETATM    3  C5  UNL     1     -12.232  26.184 -24.311  1.00  0.00     0.148 C 
BRANCH   3   4
HETATM    4  C4  UNL     1     -13.524  26.008 -23.607  1.00  0.00     0.103 C 
BRANCH   4   5
HETATM    5  S1  UNL     1     -13.487  25.509 -21.904  1.00  0.00    -0.165 SA
BRANCH   5   6
HETATM    6  C3  UNL     1     -14.556  24.158 -21.451  1.00  0.00     0.106 C 
BRANCH   6   7
HETATM    7  C2  UNL     1     -15.833  24.471 -20.775  1.00  0.00     0.188 C 
HETATM    8  C1  UNL     1     -16.880  24.572 -21.935  1.00  0.00     0.040 C 
BRANCH   7   9
HETATM    9  N1  UNL     1     -16.359  23.348 -20.002  1.00  0.00    -0.075 N 
ATOM     10  H13 UNL     1     -17.336  23.432 -19.723  1.00  0.00     0.274 HD
ATOM     11  H12 UNL     1     -16.486  22.482 -20.526  1.00  0.00     0.274 HD
ATOM     12  H11 UNL     1     -15.691  23.298 -19.233  1.00  0.00     0.274 HD
ENDBRANCH   7   9
ENDBRANCH   6   7
ENDBRANCH   5   6
ENDBRANCH   4   5
ENDBRANCH   3   4
BRANCH   3  13
HETATM   13  C12 UNL     1     -11.721  25.015 -25.115  1.00  0.00     0.339 C 
BRANCH  13  14
HETATM   14  N8  UNL     1     -11.359  25.570 -26.424  1.00  0.00    -0.051 N 
ATOM     15  H83 UNL     1     -10.679  26.328 -26.374  1.00  0.00     0.277 HD
ATOM     16  H82 UNL     1     -10.796  24.940 -26.994  1.00  0.00     0.277 HD
ATOM     17  H81 UNL     1     -12.242  25.838 -26.858  1.00  0.00     0.277 HD
ENDBRANCH  13  14
BRANCH  13  18
HETATM   18  O1  UNL     1     -10.582  24.430 -24.606  1.00  0.00    -0.368 OA
ATOM     19  H1  UNL     1     -10.592  23.479 -24.618  1.00  0.00     0.212 HD
ENDBRANCH  13  18
ENDBRANCH   3  13
ENDBRANCH   1   3
BRANCH   1  20
HETATM   20  C6  UNL     1     -10.260  27.768 -24.047  1.00  0.00     0.157 A 
HETATM   21  C7  UNL     1     -10.461  29.064 -24.415  1.00  0.00     0.159 A 
HETATM   22  N3  UNL     1      -9.313  29.649 -24.867  1.00  0.00    -0.192 N 
HETATM   23  C8  UNL     1      -9.252  31.059 -25.262  1.00  0.00     0.175 C 
HETATM   24  C9  UNL     1      -8.371  28.705 -24.785  1.00  0.00     0.702 A 
HETATM   25  N6  UNL     1      -8.951  27.552 -24.280  1.00  0.00    -0.075 N 
BRANCH  24  26
HETATM   26  N4  UNL     1      -7.031  28.738 -25.215  1.00  0.00    -0.223 N 
ATOM     27  H4  UNL     1      -6.908  28.741 -26.228  1.00  0.00     0.177 HD
BRANCH  26  28
HETATM   28  C10 UNL     1      -5.828  28.767 -24.472  1.00  0.00     0.165 C 
BRANCH  28  29
HETATM   29  C11 UNL     1      -5.013  27.482 -24.621  1.00  0.00     0.249 C 
BRANCH  29  30
HETATM   30  N5  UNL     1      -3.844  27.740 -25.441  1.00  0.00    -0.078 N 
ATOM     31  H53 UNL     1      -4.039  28.401 -26.193  1.00  0.00     0.274 HD
ATOM     32  H52 UNL     1      -3.138  28.285 -24.946  1.00  0.00     0.274 HD
ATOM     33  H51 UNL     1      -3.471  26.857 -25.792  1.00  0.00     0.274 HD
ENDBRANCH  29  30
ENDBRANCH  28  29
ENDBRANCH  26  28
ENDBRANCH  24  26
BRANCH  25  34
HETATM   34  N7  UNL     1      -8.282  26.353 -24.054  1.00  0.00    -0.322 N 
ATOM     35  H72 UNL     1      -7.743  25.842 -24.752  1.00  0.00     0.178 HD
ATOM     36  H71 UNL     1      -8.261  25.848 -23.167  1.00  0.00     0.178 HD
ENDBRANCH  25  34
ENDBRANCH   1  20
TORSDOF 15
ENDMDL
