MODEL 1
REMARK VINA RESULT: -7.263242096      0.000      0.000
REMARK  13 active torsions:
REMARK  status: ('A' for Active; 'I' for Inactive)
REMARK    1  A    between atoms: C2_2  and  N1_3 
REMARK    2  A    between atoms: C2_2  and  C13_29 
REMARK    3  A    between atoms: N1_3  and  C3_6 
REMARK    4  A    between atoms: C3_6  and  O1_7 
REMARK    5  A    between atoms: C3_6  and  N2_9 
REMARK    6  A    between atoms: N2_9  and  C4_11 
REMARK    7  A    between atoms: C4_11  and  C5_12 
REMARK    8  A    between atoms: C4_11  and  C6_17 
REMARK    9  A    between atoms: C5_12  and  N3_13 
REMARK   10  A    between atoms: C6_17  and  O2_18 
REMARK   11  A    between atoms: C6_17  and  N4_20 
REMARK   12  A    between atoms: N4_20  and  C7_22 
REMARK   13  A    between atoms: C7_22  and  C9_24 
ROOT
HETATM    1  N2  UNL     1      -9.020  28.079 -24.775  1.00  0.00    -0.365 N 
ATOM      2  H2  UNL     1      -9.351  27.849 -25.713  1.00  0.00     0.158 HD
ENDROOT
BRANCH   1   3
HETATM    3  C3  UNL     1      -7.845  28.819 -24.673  1.00  0.00     0.423 C 
BRANCH   3   4
HETATM    4  N1  UNL     1      -6.737  28.235 -25.476  1.00  0.00    -0.021 N 
ATOM      5  H12 UNL     1      -6.276  28.917 -26.079  1.00  0.00     0.283 HD
ATOM      6  H11 UNL     1      -7.061  27.608 -26.213  1.00  0.00     0.283 HD
BRANCH   4   7
HETATM    7  C2  UNL     1      -5.833  27.599 -24.549  1.00  0.00     0.256 C 
HETATM    8  C1  UNL     1      -4.446  27.445 -25.148  1.00  0.00     0.049 C 
BRANCH   7   9
HETATM    9  C13 UNL     1      -6.253  26.269 -24.123  1.00  0.00     0.141 A 
HETATM   10  N5  UNL     1      -6.790  25.342 -24.937  1.00  0.00    -0.273 N 
HETATM   11  N6  UNL     1      -7.070  24.259 -24.260  1.00  0.00    -0.225 N 
ATOM     12  H5  UNL     1      -6.954  25.465 -25.936  1.00  0.00     0.189 HD
HETATM   13  N7  UNL     1      -6.724  24.452 -22.995  1.00  0.00    -0.005 NA
ATOM     14  H6  UNL     1      -7.485  23.408 -24.640  1.00  0.00     0.205 HD
HETATM   15  N8  UNL     1      -6.227  25.675 -22.916  1.00  0.00    -0.269 N 
ATOM     16  H8  UNL     1      -5.874  26.106 -22.061  1.00  0.00     0.185 HD
ENDBRANCH   7   9
ENDBRANCH   4   7
ENDBRANCH   3   4
BRANCH   3  17
HETATM   17  O1  UNL     1      -8.081  30.035 -25.404  1.00  0.00    -0.355 OA
ATOM     18  H1  UNL     1      -9.027  30.091 -25.341  1.00  0.00     0.213 HD
ENDBRANCH   3  17
ENDBRANCH   1   3
BRANCH   1  19
HETATM   19  C4  UNL     1      -9.778  27.628 -23.697  1.00  0.00     0.154 C 
BRANCH  19  20
HETATM   20  C5  UNL     1     -10.930  28.593 -23.336  1.00  0.00     0.258 C 
BRANCH  20  21
HETATM   21  N3  UNL     1     -11.213  29.457 -24.469  1.00  0.00    -0.077 N 
ATOM     22  H33 UNL     1     -11.369  28.927 -25.327  1.00  0.00     0.274 HD
ATOM     23  H32 UNL     1     -12.130  29.897 -24.399  1.00  0.00     0.274 HD
ATOM     24  H31 UNL     1     -10.464  30.142 -24.570  1.00  0.00     0.274 HD
ENDBRANCH  20  21
ENDBRANCH  19  20
BRANCH  19  25
HETATM   25  C6  UNL     1     -10.344  26.240 -23.856  1.00  0.00     0.238 C 
BRANCH  25  26
HETATM   26  O2  UNL     1      -9.495  25.257 -23.263  1.00  0.00    -0.375 OA
ATOM     27  H2  UNL     1      -8.605  25.576 -23.173  1.00  0.00     0.212 HD
ENDBRANCH  25  26
BRANCH  25  28
HETATM   28  N4  UNL     1     -10.676  25.773 -25.116  1.00  0.00    -0.385 N 
ATOM     29  H4  UNL     1      -9.996  25.170 -25.579  1.00  0.00     0.156 HD
BRANCH  28  30
HETATM   30  C7  UNL     1     -11.845  26.047 -25.810  1.00  0.00     0.132 C 
HETATM   31  C8  UNL     1     -13.133  26.121 -25.068  1.00  0.00     0.039 C 
BRANCH  30  32
HETATM   32  C9  UNL     1     -12.033  25.191 -27.038  1.00  0.00     0.074 A 
HETATM   33  C10 UNL     1     -12.058  25.715 -28.307  1.00  0.00     0.037 A 
HETATM   34  C11 UNL     1     -12.245  24.644 -29.178  1.00  0.00     0.027 A 
HETATM   35  C12 UNL     1     -12.320  23.529 -28.372  1.00  0.00     0.142 A 
HETATM   36  O3  UNL     1     -12.191  23.911 -27.145  1.00  0.00    -0.325 OA
ENDBRANCH  30  32
ENDBRANCH  28  30
ENDBRANCH  25  28
ENDBRANCH  19  25
ENDBRANCH   1  19
TORSDOF 13
ENDMDL
MODEL 2
REMARK VINA RESULT: -6.895882971      1.176      2.131
REMARK  13 active torsions:
REMARK  status: ('A' for Active; 'I' for Inactive)
REMARK    1  A    between atoms: C2_2  and  N1_3 
REMARK    2  A    between atoms: C2_2  and  C13_29 
REMARK    3  A    between atoms: N1_3  and  C3_6 
REMARK    4  A    between atoms: C3_6  and  O1_7 
REMARK    5  A    between atoms: C3_6  and  N2_9 
REMARK    6  A    between atoms: N2_9  and  C4_11 
REMARK    7  A    between atoms: C4_11  and  C5_12 
REMARK    8  A    between atoms: C4_11  and  C6_17 
REMARK    9  A    between atoms: C5_12  and  N3_13 
REMARK   10  A    between atoms: C6_17  and  O2_18 
REMARK   11  A    between atoms: C6_17  and  N4_20 
REMARK   12  A    between atoms: N4_20  and  C7_22 
REMARK   13  A    between atoms: C7_22  and  C9_24 
ROOT
HETATM    1  N2  UNL     1      -9.124  28.189 -24.754  1.00  0.00    -0.365 N 
ATOM      2  H2  UNL     1      -9.556  28.075 -25.671  1.00  0.00     0.158 HD
ENDROOT
BRANCH   1   3
HETATM    3  C3  UNL     1      -7.918  28.881 -24.695  1.00  0.00     0.423 C 
BRANCH   3   4
HETATM    4  N1  UNL     1      -6.846  28.221 -25.491  1.00  0.00    -0.021 N 
ATOM      5  H12 UNL     1      -6.389  28.852 -26.149  1.00  0.00     0.283 HD
ATOM      6  H11 UNL     1      -7.207  27.556 -26.175  1.00  0.00     0.283 HD
BRANCH   4   7
HETATM    7  C2  UNL     1      -5.930  27.624 -24.550  1.00  0.00     0.256 C 
HETATM    8  C1  UNL     1      -4.531  27.525 -25.131  1.00  0.00     0.049 C 
BRANCH   7   9
HETATM    9  C13 UNL     1      -6.301  26.279 -24.125  1.00  0.00     0.141 A 
HETATM   10  N5  UNL     1      -6.849  25.350 -24.930  1.00  0.00    -0.273 N 
HETATM   11  N6  UNL     1      -7.077  24.252 -24.256  1.00  0.00    -0.225 N 
ATOM     12  H5  UNL     1      -7.056  25.482 -25.920  1.00  0.00     0.189 HD
HETATM   13  N7  UNL     1      -6.684  24.438 -23.003  1.00  0.00    -0.005 NA
ATOM     14  H6  UNL     1      -7.487  23.397 -24.631  1.00  0.00     0.205 HD
HETATM   15  N8  UNL     1      -6.214  25.671 -22.928  1.00  0.00    -0.269 N 
ATOM     16  H8  UNL     1      -5.836  26.100 -22.083  1.00  0.00     0.185 HD
ENDBRANCH   7   9
ENDBRANCH   4   7
ENDBRANCH   3   4
BRANCH   3  17
HETATM   17  O1  UNL     1      -8.112  30.078 -25.469  1.00  0.00    -0.355 OA
ATOM     18  H1  UNL     1      -9.060  30.097 -25.518  1.00  0.00     0.213 HD
ENDBRANCH   3  17
ENDBRANCH   1   3
BRANCH   1  19
HETATM   19  C4  UNL     1      -9.786  27.641 -23.658  1.00  0.00     0.154 C 
BRANCH  19  20
HETATM   20  C5  UNL     1     -10.978  28.508 -23.189  1.00  0.00     0.258 C 
BRANCH  20  21
HETATM   21  N3  UNL     1     -11.786  27.750 -22.250  1.00  0.00    -0.077 N 
ATOM     22  H33 UNL     1     -12.554  27.260 -22.711  1.00  0.00     0.274 HD
ATOM     23  H32 UNL     1     -11.292  26.937 -21.884  1.00  0.00     0.274 HD
ATOM     24  H31 UNL     1     -12.115  28.368 -21.508  1.00  0.00     0.274 HD
ENDBRANCH  20  21
ENDBRANCH  19  20
BRANCH  19  25
HETATM   25  C6  UNL     1     -10.266  26.225 -23.850  1.00  0.00     0.238 C 
BRANCH  25  26
HETATM   26  O2  UNL     1      -9.436  25.293 -23.157  1.00  0.00    -0.375 OA
ATOM     27  H2  UNL     1      -9.710  25.187 -22.254  1.00  0.00     0.212 HD
ENDBRANCH  25  26
BRANCH  25  28
HETATM   28  N4  UNL     1     -10.445  25.727 -25.129  1.00  0.00    -0.385 N 
ATOM     29  H4  UNL     1      -9.615  25.658 -25.717  1.00  0.00     0.156 HD
BRANCH  28  30
HETATM   30  C7  UNL     1     -11.645  25.313 -25.687  1.00  0.00     0.132 C 
HETATM   31  C8  UNL     1     -11.731  25.102 -27.158  1.00  0.00     0.039 C 
BRANCH  30  32
HETATM   32  C9  UNL     1     -12.833  26.127 -25.236  1.00  0.00     0.074 A 
HETATM   33  C10 UNL     1     -13.213  27.288 -25.862  1.00  0.00     0.037 A 
HETATM   34  C11 UNL     1     -14.337  27.757 -25.183  1.00  0.00     0.027 A 
HETATM   35  C12 UNL     1     -14.567  26.840 -24.183  1.00  0.00     0.142 A 
HETATM   36  O3  UNL     1     -13.664  25.921 -24.265  1.00  0.00    -0.325 OA
ENDBRANCH  30  32
ENDBRANCH  28  30
ENDBRANCH  25  28
ENDBRANCH  19  25
ENDBRANCH   1  19
TORSDOF 13
ENDMDL
MODEL 3
REMARK VINA RESULT: -6.712835792      2.397      6.265
REMARK  13 active torsions:
REMARK  status: ('A' for Active; 'I' for Inactive)
REMARK    1  A    between atoms: C2_2  and  N1_3 
REMARK    2  A    between atoms: C2_2  and  C13_29 
REMARK    3  A    between atoms: N1_3  and  C3_6 
REMARK    4  A    between atoms: C3_6  and  O1_7 
REMARK    5  A    between atoms: C3_6  and  N2_9 
REMARK    6  A    between atoms: N2_9  and  C4_11 
REMARK    7  A    between atoms: C4_11  and  C5_12 
REMARK    8  A    between atoms: C4_11  and  C6_17 
REMARK    9  A    between atoms: C5_12  and  N3_13 
REMARK   10  A    between atoms: C6_17  and  O2_18 
REMARK   11  A    between atoms: C6_17  and  N4_20 
REMARK   12  A    between atoms: N4_20  and  C7_22 
REMARK   13  A    between atoms: C7_22  and  C9_24 
ROOT
HETATM    1  N2  UNL     1      -8.351  26.396 -24.450  1.00  0.00    -0.365 N 
ATOM      2  H2  UNL     1      -8.538  26.041 -25.388  1.00  0.00     0.158 HD
ENDROOT
BRANCH   1   3
HETATM    3  C3  UNL     1      -9.207  25.994 -23.429  1.00  0.00     0.423 C 
BRANCH   3   4
HETATM    4  N1  UNL     1     -10.276  25.079 -23.913  1.00  0.00    -0.021 N 
ATOM      5  H12 UNL     1     -10.460  24.304 -23.276  1.00  0.00     0.283 HD
ATOM      6  H11 UNL     1      -9.992  24.521 -24.719  1.00  0.00     0.283 HD
BRANCH   4   7
HETATM    7  C2  UNL     1     -11.441  25.890 -24.169  1.00  0.00     0.256 C 
HETATM    8  C1  UNL     1     -12.527  25.635 -23.138  1.00  0.00     0.049 C 
BRANCH   7   9
HETATM    9  C13 UNL     1     -12.047  25.670 -25.477  1.00  0.00     0.141 A 
HETATM   10  N5  UNL     1     -11.360  25.370 -26.595  1.00  0.00    -0.273 N 
HETATM   11  N6  UNL     1     -12.182  25.243 -27.605  1.00  0.00    -0.225 N 
ATOM     12  H5  UNL     1     -10.348  25.258 -26.647  1.00  0.00     0.189 HD
HETATM   13  N7  UNL     1     -13.417  25.455 -27.172  1.00  0.00    -0.005 NA
ATOM     14  H6  UNL     1     -11.917  25.019 -28.564  1.00  0.00     0.205 HD
HETATM   15  N8  UNL     1     -13.331  25.714 -25.879  1.00  0.00    -0.269 N 
ATOM     16  H8  UNL     1     -14.125  25.917 -25.271  1.00  0.00     0.185 HD
ENDBRANCH   7   9
ENDBRANCH   4   7
ENDBRANCH   3   4
BRANCH   3  17
HETATM   17  O1  UNL     1      -8.445  25.089 -22.610  1.00  0.00    -0.355 OA
ATOM     18  H1  UNL     1      -7.777  24.820 -23.230  1.00  0.00     0.213 HD
ENDBRANCH   3  17
ENDBRANCH   1   3
BRANCH   1  19
HETATM   19  C4  UNL     1      -7.260  27.246 -24.290  1.00  0.00     0.154 C 
BRANCH  19  20
HETATM   20  C5  UNL     1      -5.907  26.511 -24.429  1.00  0.00     0.258 C 
BRANCH  20  21
HETATM   21  N3  UNL     1      -6.145  25.123 -24.787  1.00  0.00    -0.077 N 
ATOM     22  H33 UNL     1      -7.054  24.792 -24.462  1.00  0.00     0.274 HD
ATOM     23  H32 UNL     1      -6.294  25.004 -25.788  1.00  0.00     0.274 HD
ATOM     24  H31 UNL     1      -5.379  24.546 -24.440  1.00  0.00     0.274 HD
ENDBRANCH  20  21
ENDBRANCH  19  20
BRANCH  19  25
HETATM   25  C6  UNL     1      -7.251  28.447 -25.204  1.00  0.00     0.238 C 
BRANCH  25  26
HETATM   26  O2  UNL     1      -6.375  29.465 -24.721  1.00  0.00    -0.375 OA
ATOM     27  H2  UNL     1      -6.746  29.916 -23.971  1.00  0.00     0.212 HD
ENDBRANCH  25  26
BRANCH  25  28
HETATM   28  N4  UNL     1      -8.443  29.067 -25.534  1.00  0.00    -0.385 N 
ATOM     29  H4  UNL     1      -8.794  28.917 -26.480  1.00  0.00     0.156 HD
BRANCH  28  30
HETATM   30  C7  UNL     1      -9.204  29.875 -24.703  1.00  0.00     0.132 C 
HETATM   31  C8  UNL     1     -10.394  29.300 -24.018  1.00  0.00     0.039 C 
BRANCH  30  32
HETATM   32  C9  UNL     1      -9.585  31.195 -25.326  1.00  0.00     0.074 A 
HETATM   33  C10 UNL     1     -10.434  32.084 -24.713  1.00  0.00     0.037 A 
HETATM   34  C11 UNL     1     -10.552  33.177 -25.569  1.00  0.00     0.027 A 
HETATM   35  C12 UNL     1      -9.759  32.877 -26.654  1.00  0.00     0.142 A 
HETATM   36  O3  UNL     1      -9.226  31.718 -26.454  1.00  0.00    -0.325 OA
ENDBRANCH  30  32
ENDBRANCH  28  30
ENDBRANCH  25  28
ENDBRANCH  19  25
ENDBRANCH   1  19
TORSDOF 13
ENDMDL
MODEL 4
REMARK VINA RESULT: -6.698507424      1.754      2.765
REMARK  13 active torsions:
REMARK  status: ('A' for Active; 'I' for Inactive)
REMARK    1  A    between atoms: C2_2  and  N1_3 
REMARK    2  A    between atoms: C2_2  and  C13_29 
REMARK    3  A    between atoms: N1_3  and  C3_6 
REMARK    4  A    between atoms: C3_6  and  O1_7 
REMARK    5  A    between atoms: C3_6  and  N2_9 
REMARK    6  A    between atoms: N2_9  and  C4_11 
REMARK    7  A    between atoms: C4_11  and  C5_12 
REMARK    8  A    between atoms: C4_11  and  C6_17 
REMARK    9  A    between atoms: C5_12  and  N3_13 
REMARK   10  A    between atoms: C6_17  and  O2_18 
REMARK   11  A    between atoms: C6_17  and  N4_20 
REMARK   12  A    between atoms: N4_20  and  C7_22 
REMARK   13  A    between atoms: C7_22  and  C9_24 
ROOT
HETATM    1  N2  UNL     1      -9.341  25.642 -23.065  1.00  0.00    -0.365 N 
ATOM      2  H2  UNL     1      -8.816  25.053 -22.417  1.00  0.00     0.158 HD
ENDROOT
BRANCH   1   3
HETATM    3  C3  UNL     1      -8.721  25.993 -24.260  1.00  0.00     0.423 C 
BRANCH   3   4
HETATM    4  N1  UNL     1      -7.245  26.122 -24.116  1.00  0.00    -0.021 N 
ATOM      5  H12 UNL     1      -6.726  25.634 -24.847  1.00  0.00     0.283 HD
ATOM      6  H11 UNL     1      -6.872  25.601 -23.322  1.00  0.00     0.283 HD
BRANCH   4   7
HETATM    7  C2  UNL     1      -6.948  27.532 -24.057  1.00  0.00     0.256 C 
HETATM    8  C1  UNL     1      -7.964  28.342 -24.843  1.00  0.00     0.049 C 
BRANCH   7   9
HETATM    9  C13 UNL     1      -5.635  27.890 -24.580  1.00  0.00     0.141 A 
HETATM   10  N5  UNL     1      -5.311  29.104 -25.061  1.00  0.00    -0.273 N 
HETATM   11  N6  UNL     1      -4.066  29.109 -25.463  1.00  0.00    -0.225 N 
ATOM     12  H5  UNL     1      -5.942  29.903 -25.105  1.00  0.00     0.189 HD
HETATM   13  N7  UNL     1      -3.552  27.905 -25.254  1.00  0.00    -0.005 NA
ATOM     14  H6  UNL     1      -3.574  29.904 -25.869  1.00  0.00     0.205 HD
HETATM   15  N8  UNL     1      -4.508  27.167 -24.717  1.00  0.00    -0.269 N 
ATOM     16  H8  UNL     1      -4.406  26.189 -24.444  1.00  0.00     0.185 HD
ENDBRANCH   7   9
ENDBRANCH   4   7
ENDBRANCH   3   4
BRANCH   3  17
HETATM   17  O1  UNL     1      -8.796  24.828 -25.101  1.00  0.00    -0.355 OA
ATOM     18  H1  UNL     1      -9.720  24.837 -25.321  1.00  0.00     0.213 HD
ENDBRANCH   3  17
ENDBRANCH   1   3
BRANCH   1  19
HETATM   19  C4  UNL     1     -10.623  26.031 -22.685  1.00  0.00     0.154 C 
BRANCH  19  20
HETATM   20  C5  UNL     1     -10.891  27.531 -22.947  1.00  0.00     0.258 C 
BRANCH  20  21
HETATM   21  N3  UNL     1     -12.177  27.899 -22.381  1.00  0.00    -0.077 N 
ATOM     22  H33 UNL     1     -12.176  27.857 -21.362  1.00  0.00     0.274 HD
ATOM     23  H32 UNL     1     -12.374  28.894 -22.486  1.00  0.00     0.274 HD
ATOM     24  H31 UNL     1     -12.908  27.317 -22.789  1.00  0.00     0.274 HD
ENDBRANCH  20  21
ENDBRANCH  19  20
BRANCH  19  25
HETATM   25  C6  UNL     1     -11.740  25.227 -23.303  1.00  0.00     0.238 C 
BRANCH  25  26
HETATM   26  O2  UNL     1     -11.928  23.986 -22.624  1.00  0.00    -0.375 OA
ATOM     27  H2  UNL     1     -11.735  23.247 -23.189  1.00  0.00     0.212 HD
ENDBRANCH  25  26
BRANCH  25  28
HETATM   28  N4  UNL     1     -11.714  24.942 -24.657  1.00  0.00    -0.385 N 
ATOM     29  H4  UNL     1     -11.258  24.073 -24.937  1.00  0.00     0.156 HD
BRANCH  28  30
HETATM   30  C7  UNL     1     -12.248  25.724 -25.669  1.00  0.00     0.132 C 
HETATM   31  C8  UNL     1     -13.582  26.357 -25.476  1.00  0.00     0.039 C 
BRANCH  30  32
HETATM   32  C9  UNL     1     -12.208  25.066 -27.026  1.00  0.00     0.074 A 
HETATM   33  C10 UNL     1     -12.099  25.783 -28.192  1.00  0.00     0.037 A 
HETATM   34  C11 UNL     1     -12.091  24.855 -29.232  1.00  0.00     0.027 A 
HETATM   35  C12 UNL     1     -12.195  23.625 -28.622  1.00  0.00     0.142 A 
HETATM   36  O3  UNL     1     -12.260  23.813 -27.346  1.00  0.00    -0.325 OA
ENDBRANCH  30  32
ENDBRANCH  28  30
ENDBRANCH  25  28
ENDBRANCH  19  25
ENDBRANCH   1  19
TORSDOF 13
ENDMDL
MODEL 5
REMARK VINA RESULT: -6.675236784      2.485      5.994
REMARK  13 active torsions:
REMARK  status: ('A' for Active; 'I' for Inactive)
REMARK    1  A    between atoms: C2_2  and  N1_3 
REMARK    2  A    between atoms: C2_2  and  C13_29 
REMARK    3  A    between atoms: N1_3  and  C3_6 
REMARK    4  A    between atoms: C3_6  and  O1_7 
REMARK    5  A    between atoms: C3_6  and  N2_9 
REMARK    6  A    between atoms: N2_9  and  C4_11 
REMARK    7  A    between atoms: C4_11  and  C5_12 
REMARK    8  A    between atoms: C4_11  and  C6_17 
REMARK    9  A    between atoms: C5_12  and  N3_13 
REMARK   10  A    between atoms: C6_17  and  O2_18 
REMARK   11  A    between atoms: C6_17  and  N4_20 
REMARK   12  A    between atoms: N4_20  and  C7_22 
REMARK   13  A    between atoms: C7_22  and  C9_24 
ROOT
HETATM    1  N2  UNL     1     -10.370  28.375 -23.963  1.00  0.00    -0.365 N 
ATOM      2  H2  UNL     1      -9.803  28.512 -23.125  1.00  0.00     0.158 HD
ENDROOT
BRANCH   1   3
HETATM    3  C3  UNL     1     -11.229  27.281 -23.984  1.00  0.00     0.423 C 
BRANCH   3   4
HETATM    4  N1  UNL     1     -10.994  26.398 -25.159  1.00  0.00    -0.021 N 
ATOM      5  H12 UNL     1     -10.800  25.431 -24.901  1.00  0.00     0.283 HD
ATOM      6  H11 UNL     1     -10.111  26.587 -25.632  1.00  0.00     0.283 HD
BRANCH   4   7
HETATM    7  C2  UNL     1     -12.141  26.533 -26.025  1.00  0.00     0.256 C 
HETATM    8  C1  UNL     1     -13.427  26.200 -25.290  1.00  0.00     0.049 C 
BRANCH   7   9
HETATM    9  C13 UNL     1     -12.101  25.680 -27.206  1.00  0.00     0.141 A 
HETATM   10  N5  UNL     1     -11.750  26.098 -28.437  1.00  0.00    -0.273 N 
HETATM   11  N6  UNL     1     -11.823  25.105 -29.285  1.00  0.00    -0.225 N 
ATOM     12  H5  UNL     1     -11.469  27.050 -28.673  1.00  0.00     0.189 HD
HETATM   13  N7  UNL     1     -12.219  24.022 -28.631  1.00  0.00    -0.005 NA
ATOM     14  H6  UNL     1     -11.610  25.155 -30.281  1.00  0.00     0.205 HD
HETATM   15  N8  UNL     1     -12.387  24.375 -27.369  1.00  0.00    -0.269 N 
ATOM     16  H8  UNL     1     -12.689  23.748 -26.623  1.00  0.00     0.185 HD
ENDBRANCH   7   9
ENDBRANCH   4   7
ENDBRANCH   3   4
BRANCH   3  17
HETATM   17  O1  UNL     1     -10.794  26.416 -22.920  1.00  0.00    -0.355 OA
ATOM     18  H1  UNL     1     -10.778  27.031 -22.197  1.00  0.00     0.213 HD
ENDBRANCH   3  17
ENDBRANCH   1   3
BRANCH   1  19
HETATM   19  C4  UNL     1     -10.222  29.297 -24.996  1.00  0.00     0.154 C 
BRANCH  19  20
HETATM   20  C5  UNL     1     -11.278  30.425 -24.941  1.00  0.00     0.258 C 
BRANCH  20  21
HETATM   21  N3  UNL     1     -12.030  30.446 -26.183  1.00  0.00    -0.077 N 
ATOM     22  H33 UNL     1     -11.702  29.741 -26.844  1.00  0.00     0.274 HD
ATOM     23  H32 UNL     1     -12.982  30.103 -26.063  1.00  0.00     0.274 HD
ATOM     24  H31 UNL     1     -12.006  31.386 -26.580  1.00  0.00     0.274 HD
ENDBRANCH  20  21
ENDBRANCH  19  20
BRANCH  19  25
HETATM   25  C6  UNL     1      -8.854  29.922 -25.099  1.00  0.00     0.238 C 
BRANCH  25  26
HETATM   26  O2  UNL     1      -8.868  31.078 -25.936  1.00  0.00    -0.375 OA
ATOM     27  H2  UNL     1      -8.257  31.737 -25.629  1.00  0.00     0.212 HD
ENDBRANCH  25  26
BRANCH  25  28
HETATM   28  N4  UNL     1      -7.775  29.153 -25.498  1.00  0.00    -0.385 N 
ATOM     29  H4  UNL     1      -7.692  28.959 -26.496  1.00  0.00     0.156 HD
BRANCH  28  30
HETATM   30  C7  UNL     1      -6.797  28.621 -24.672  1.00  0.00     0.132 C 
HETATM   31  C8  UNL     1      -5.367  28.939 -24.935  1.00  0.00     0.039 C 
BRANCH  30  32
HETATM   32  C9  UNL     1      -6.937  27.135 -24.449  1.00  0.00     0.074 A 
HETATM   33  C10 UNL     1      -5.854  26.296 -24.358  1.00  0.00     0.037 A 
HETATM   34  C11 UNL     1      -6.359  25.014 -24.152  1.00  0.00     0.027 A 
HETATM   35  C12 UNL     1      -7.728  25.161 -24.129  1.00  0.00     0.142 A 
HETATM   36  O3  UNL     1      -8.000  26.410 -24.307  1.00  0.00    -0.325 OA
ENDBRANCH  30  32
ENDBRANCH  28  30
ENDBRANCH  25  28
ENDBRANCH  19  25
ENDBRANCH   1  19
TORSDOF 13
ENDMDL
