MODEL 1
REMARK VINA RESULT: -7.286051216      0.000      0.000
REMARK  8 active torsions:
REMARK  status: ('A' for Active; 'I' for Inactive)
REMARK    1  A    between atoms: N1_2  and  C2_4 
REMARK    2  A    between atoms: C2_4  and  C3_5 
REMARK    3  A    between atoms: C3_5  and  C4_6 
REMARK    4  A    between atoms: C3_5  and  C11_13 
REMARK    5  A    between atoms: C4_6  and  C5_7 
REMARK       I    between atoms: C11_13  and  N2_15 
REMARK    6  A    between atoms: N2_15  and  C12_17 
REMARK    7  A    between atoms: C12_17  and  C14_19 
REMARK       I    between atoms: C14_19  and  N3_21 
REMARK    8  A    between atoms: C18_25  and  N4_26 
ROOT
HETATM    1  C11 UNL     1      18.675   4.486  11.376  1.00  0.00     0.227 C 
HETATM    2  O1  UNL     1      17.786   4.629  10.521  1.00  0.00    -0.273 OA
HETATM    3  N2  UNL     1      18.381   3.601  12.431  1.00  0.00    -0.348 N 
ATOM      4  H2  UNL     1      19.083   3.454  13.156  1.00  0.00     0.163 HD
ENDROOT
BRANCH   3   5
HETATM    5  C12 UNL     1      17.111   2.886  12.530  1.00  0.00     0.172 C 
HETATM    6  C13 UNL     1      17.224   1.539  11.832  1.00  0.00     0.042 C 
BRANCH   5   7
HETATM    7  C14 UNL     1      16.779   2.641  13.950  1.00  0.00     0.242 C 
HETATM    8  O2  UNL     1      16.759   1.425  14.334  1.00  0.00    -0.271 OA
HETATM    9  N3  UNL     1      16.486   3.634  14.904  1.00  0.00    -0.348 N 
HETATM   10  C15 UNL     1      16.488   5.049  14.645  1.00  0.00     0.126 C 
HETATM   11  C19 UNL     1      16.138   3.266  16.289  1.00  0.00     0.158 C 
HETATM   12  C16 UNL     1      15.080   5.567  14.820  1.00  0.00     0.022 C 
HETATM   13  C17 UNL     1      14.627   5.274  16.233  1.00  0.00     0.036 C 
HETATM   14  C18 UNL     1      14.775   3.834  16.625  1.00  0.00     0.201 C 
BRANCH  14  15
HETATM   15  N4  UNL     1      14.606   3.755  18.064  1.00  0.00    -0.073 N 
ATOM     16  H43 UNL     1      15.250   3.099  18.505  1.00  0.00     0.274 HD
ATOM     17  H42 UNL     1      14.920   4.596  18.548  1.00  0.00     0.274 HD
ATOM     18  H41 UNL     1      13.627   3.534  18.246  1.00  0.00     0.274 HD
ENDBRANCH  14  15
ENDBRANCH   5   7
ENDBRANCH   3   5
BRANCH   1  19
HETATM   19  C3  UNL     1      19.955   5.184  11.318  1.00  0.00     0.116 C 
BRANCH  19  20
HETATM   20  C2  UNL     1      20.692   4.992  10.030  1.00  0.00     0.069 C 
BRANCH  20  21
HETATM   21  N1  UNL     1      20.211   5.472   8.830  1.00  0.00    -0.406 N 
HETATM   22  C1  UNL     1      20.977   5.515   7.656  1.00  0.00     0.145 C 
ATOM     23  H1  UNL     1      19.250   5.813   8.795  1.00  0.00     0.158 HD
ENDBRANCH  20  21
ENDBRANCH  19  20
BRANCH  19  24
HETATM   24  C4  UNL     1      19.939   6.598  11.739  1.00  0.00     0.024 C 
BRANCH  24  25
HETATM   25  C5  UNL     1      18.769   6.988  12.630  1.00  0.00    -0.013 C 
HETATM   26  C6  UNL     1      18.015   8.059  11.905  1.00  0.00     0.005 C 
HETATM   27  C7  UNL     1      18.271   9.458  12.252  1.00  0.00     0.000 C 
HETATM   28  C8  UNL     1      19.006   9.735  13.519  1.00  0.00     0.000 C 
HETATM   29  C9  UNL     1      18.588   8.646  14.498  1.00  0.00     0.000 C 
HETATM   30  C10 UNL     1      19.298   7.393  13.963  1.00  0.00     0.005 C 
ENDBRANCH  24  25
ENDBRANCH  19  24
ENDBRANCH   1  19
TORSDOF 8
ENDMDL
MODEL 2
REMARK VINA RESULT: -7.278040924      0.666      1.054
REMARK  8 active torsions:
REMARK  status: ('A' for Active; 'I' for Inactive)
REMARK    1  A    between atoms: N1_2  and  C2_4 
REMARK    2  A    between atoms: C2_4  and  C3_5 
REMARK    3  A    between atoms: C3_5  and  C4_6 
REMARK    4  A    between atoms: C3_5  and  C11_13 
REMARK    5  A    between atoms: C4_6  and  C5_7 
REMARK       I    between atoms: C11_13  and  N2_15 
REMARK    6  A    between atoms: N2_15  and  C12_17 
REMARK    7  A    between atoms: C12_17  and  C14_19 
REMARK       I    between atoms: C14_19  and  N3_21 
REMARK    8  A    between atoms: C18_25  and  N4_26 
ROOT
HETATM    1  C11 UNL     1      18.600   4.555  11.359  1.00  0.00     0.227 C 
HETATM    2  O1  UNL     1      17.699   4.660  10.511  1.00  0.00    -0.273 OA
HETATM    3  N2  UNL     1      18.370   3.629  12.395  1.00  0.00    -0.348 N 
ATOM      4  H2  UNL     1      19.084   3.510  13.113  1.00  0.00     0.163 HD
ENDROOT
BRANCH   3   5
HETATM    5  C12 UNL     1      17.149   2.833  12.483  1.00  0.00     0.172 C 
HETATM    6  C13 UNL     1      17.365   1.484  11.812  1.00  0.00     0.042 C 
BRANCH   5   7
HETATM    7  C14 UNL     1      16.805   2.591  13.900  1.00  0.00     0.242 C 
HETATM    8  O2  UNL     1      16.782   1.376  14.286  1.00  0.00    -0.271 OA
HETATM    9  N3  UNL     1      16.504   3.586  14.850  1.00  0.00    -0.348 N 
HETATM   10  C15 UNL     1      16.508   5.001  14.588  1.00  0.00     0.126 C 
HETATM   11  C19 UNL     1      16.145   3.220  16.233  1.00  0.00     0.158 C 
HETATM   12  C16 UNL     1      15.098   5.518  14.750  1.00  0.00     0.022 C 
HETATM   13  C17 UNL     1      14.633   5.228  16.160  1.00  0.00     0.036 C 
HETATM   14  C18 UNL     1      14.779   3.788  16.557  1.00  0.00     0.201 C 
BRANCH  14  15
HETATM   15  N4  UNL     1      14.598   3.713  17.994  1.00  0.00    -0.073 N 
ATOM     16  H43 UNL     1      14.844   2.801  18.379  1.00  0.00     0.274 HD
ATOM     17  H42 UNL     1      15.283   4.264  18.511  1.00  0.00     0.274 HD
ATOM     18  H41 UNL     1      13.635   3.983  18.197  1.00  0.00     0.274 HD
ENDBRANCH  14  15
ENDBRANCH   5   7
ENDBRANCH   3   5
BRANCH   1  19
HETATM   19  C3  UNL     1      19.833   5.334  11.311  1.00  0.00     0.116 C 
BRANCH  19  20
HETATM   20  C2  UNL     1      20.717   5.001  10.150  1.00  0.00     0.069 C 
BRANCH  20  21
HETATM   21  N1  UNL     1      20.266   5.047   8.848  1.00  0.00    -0.406 N 
HETATM   22  C1  UNL     1      21.006   5.610   7.798  1.00  0.00     0.145 C 
ATOM     23  H1  UNL     1      19.349   4.653   8.638  1.00  0.00     0.158 HD
ENDBRANCH  20  21
ENDBRANCH  19  20
BRANCH  19  24
HETATM   24  C4  UNL     1      19.684   6.791  11.489  1.00  0.00     0.024 C 
BRANCH  24  25
HETATM   25  C5  UNL     1      20.381   7.361  12.716  1.00  0.00    -0.013 C 
HETATM   26  C6  UNL     1      19.510   7.044  13.891  1.00  0.00     0.005 C 
HETATM   27  C7  UNL     1      18.593   8.074  14.386  1.00  0.00     0.000 C 
HETATM   28  C8  UNL     1      18.807   9.474  13.921  1.00  0.00     0.000 C 
HETATM   29  C9  UNL     1      20.311   9.640  13.753  1.00  0.00     0.000 C 
HETATM   30  C10 UNL     1      20.624   8.815  12.495  1.00  0.00     0.005 C 
ENDBRANCH  24  25
ENDBRANCH  19  24
ENDBRANCH   1  19
TORSDOF 8
ENDMDL
MODEL 3
REMARK VINA RESULT: -7.148272312      2.560      5.665
REMARK  8 active torsions:
REMARK  status: ('A' for Active; 'I' for Inactive)
REMARK    1  A    between atoms: N1_2  and  C2_4 
REMARK    2  A    between atoms: C2_4  and  C3_5 
REMARK    3  A    between atoms: C3_5  and  C4_6 
REMARK    4  A    between atoms: C3_5  and  C11_13 
REMARK    5  A    between atoms: C4_6  and  C5_7 
REMARK       I    between atoms: C11_13  and  N2_15 
REMARK    6  A    between atoms: N2_15  and  C12_17 
REMARK    7  A    between atoms: C12_17  and  C14_19 
REMARK       I    between atoms: C14_19  and  N3_21 
REMARK    8  A    between atoms: C18_25  and  N4_26 
ROOT
HETATM    1  C11 UNL     1      17.962   6.592  12.786  1.00  0.00     0.227 C 
HETATM    2  O1  UNL     1      17.046   6.809  11.976  1.00  0.00    -0.273 OA
HETATM    3  N2  UNL     1      19.031   5.807  12.315  1.00  0.00    -0.348 N 
ATOM      4  H2  UNL     1      19.806   5.605  12.947  1.00  0.00     0.163 HD
ENDROOT
BRANCH   3   5
HETATM    5  C12 UNL     1      19.076   5.269  10.958  1.00  0.00     0.172 C 
HETATM    6  C13 UNL     1      20.060   6.071  10.119  1.00  0.00     0.042 C 
BRANCH   5   7
HETATM    7  C14 UNL     1      19.536   3.865  10.987  1.00  0.00     0.242 C 
HETATM    8  O2  UNL     1      20.609   3.598  10.350  1.00  0.00    -0.271 OA
HETATM    9  N3  UNL     1      18.892   2.806  11.656  1.00  0.00    -0.348 N 
HETATM   10  C15 UNL     1      17.691   2.939  12.437  1.00  0.00     0.126 C 
HETATM   11  C19 UNL     1      19.431   1.435  11.588  1.00  0.00     0.158 C 
HETATM   12  C16 UNL     1      16.596   2.146  11.763  1.00  0.00     0.022 C 
HETATM   13  C17 UNL     1      17.028   0.699  11.671  1.00  0.00     0.036 C 
HETATM   14  C18 UNL     1      18.369   0.513  11.025  1.00  0.00     0.201 C 
BRANCH  14  15
HETATM   15  N4  UNL     1      18.789  -0.852  11.281  1.00  0.00    -0.073 N 
ATOM     16  H43 UNL     1      18.169  -1.346  11.923  1.00  0.00     0.274 HD
ATOM     17  H42 UNL     1      18.662  -1.465  10.475  1.00  0.00     0.274 HD
ATOM     18  H41 UNL     1      19.755  -0.819  11.607  1.00  0.00     0.274 HD
ENDBRANCH  14  15
ENDBRANCH   5   7
ENDBRANCH   3   5
BRANCH   1  19
HETATM   19  C3  UNL     1      17.955   7.107  14.151  1.00  0.00     0.116 C 
BRANCH  19  20
HETATM   20  C2  UNL     1      18.172   8.585  14.244  1.00  0.00     0.069 C 
BRANCH  20  21
HETATM   21  N1  UNL     1      19.404   9.129  14.536  1.00  0.00    -0.406 N 
HETATM   22  C1  UNL     1      19.569  10.298  15.292  1.00  0.00     0.145 C 
ATOM     23  H1  UNL     1      20.238   8.658  14.185  1.00  0.00     0.158 HD
ENDBRANCH  20  21
ENDBRANCH  19  20
BRANCH  19  24
HETATM   24  C4  UNL     1      16.836   6.660  15.004  1.00  0.00     0.024 C 
BRANCH  24  25
HETATM   25  C5  UNL     1      16.421   5.209  14.806  1.00  0.00    -0.013 C 
HETATM   26  C6  UNL     1      14.958   5.135  15.114  1.00  0.00     0.005 C 
HETATM   27  C7  UNL     1      14.541   4.691  16.446  1.00  0.00     0.000 C 
HETATM   28  C8  UNL     1      15.560   4.023  17.305  1.00  0.00     0.000 C 
HETATM   29  C9  UNL     1      16.467   3.246  16.360  1.00  0.00     0.000 C 
HETATM   30  C10 UNL     1      17.282   4.345  15.663  1.00  0.00     0.005 C 
ENDBRANCH  24  25
ENDBRANCH  19  24
ENDBRANCH   1  19
TORSDOF 8
ENDMDL
MODEL 4
REMARK VINA RESULT: -7.028443335      1.137      1.240
REMARK  8 active torsions:
REMARK  status: ('A' for Active; 'I' for Inactive)
REMARK    1  A    between atoms: N1_2  and  C2_4 
REMARK    2  A    between atoms: C2_4  and  C3_5 
REMARK    3  A    between atoms: C3_5  and  C4_6 
REMARK    4  A    between atoms: C3_5  and  C11_13 
REMARK    5  A    between atoms: C4_6  and  C5_7 
REMARK       I    between atoms: C11_13  and  N2_15 
REMARK    6  A    between atoms: N2_15  and  C12_17 
REMARK    7  A    between atoms: C12_17  and  C14_19 
REMARK       I    between atoms: C14_19  and  N3_21 
REMARK    8  A    between atoms: C18_25  and  N4_26 
ROOT
HETATM    1  C11 UNL     1      18.687   4.970  11.800  1.00  0.00     0.227 C 
HETATM    2  O1  UNL     1      17.836   5.125  10.908  1.00  0.00    -0.273 OA
HETATM    3  N2  UNL     1      18.450   3.917  12.704  1.00  0.00    -0.348 N 
ATOM      4  H2  UNL     1      19.124   3.753  13.452  1.00  0.00     0.163 HD
ENDROOT
BRANCH   3   5
HETATM    5  C12 UNL     1      17.279   3.049  12.615  1.00  0.00     0.172 C 
HETATM    6  C13 UNL     1      17.645   1.763  11.890  1.00  0.00     0.042 C 
BRANCH   5   7
HETATM    7  C14 UNL     1      16.809   2.695  13.971  1.00  0.00     0.242 C 
HETATM    8  O2  UNL     1      16.689   1.452  14.231  1.00  0.00    -0.271 OA
HETATM    9  N3  UNL     1      16.486   3.611  14.990  1.00  0.00    -0.348 N 
HETATM   10  C15 UNL     1      16.587   5.042  14.872  1.00  0.00     0.126 C 
HETATM   11  C19 UNL     1      15.997   3.138  16.298  1.00  0.00     0.158 C 
HETATM   12  C16 UNL     1      15.199   5.627  14.979  1.00  0.00     0.022 C 
HETATM   13  C17 UNL     1      14.606   5.233  16.313  1.00  0.00     0.036 C 
HETATM   14  C18 UNL     1      14.641   3.756  16.574  1.00  0.00     0.201 C 
BRANCH  14  15
HETATM   15  N4  UNL     1      14.341   3.554  17.979  1.00  0.00    -0.073 N 
ATOM     16  H43 UNL     1      14.107   4.420  18.464  1.00  0.00     0.274 HD
ATOM     17  H42 UNL     1      13.456   3.072  18.131  1.00  0.00     0.274 HD
ATOM     18  H41 UNL     1      15.135   3.068  18.395  1.00  0.00     0.274 HD
ENDBRANCH  14  15
ENDBRANCH   5   7
ENDBRANCH   3   5
BRANCH   1  19
HETATM   19  C3  UNL     1      19.869   5.816  11.928  1.00  0.00     0.116 C 
BRANCH  19  20
HETATM   20  C2  UNL     1      21.049   5.332  11.143  1.00  0.00     0.069 C 
BRANCH  20  21
HETATM   21  N1  UNL     1      22.341   5.461  11.606  1.00  0.00    -0.406 N 
HETATM   22  C1  UNL     1      23.333   6.180  10.924  1.00  0.00     0.145 C 
ATOM     23  H1  UNL     1      22.588   5.011  12.488  1.00  0.00     0.158 HD
ENDBRANCH  20  21
ENDBRANCH  19  20
BRANCH  19  24
HETATM   24  C4  UNL     1      19.649   7.264  11.753  1.00  0.00     0.024 C 
BRANCH  24  25
HETATM   25  C5  UNL     1      18.598   7.867  12.675  1.00  0.00    -0.013 C 
HETATM   26  C6  UNL     1      18.226   9.194  12.092  1.00  0.00     0.005 C 
HETATM   27  C7  UNL     1      18.860  10.401  12.627  1.00  0.00     0.000 C 
HETATM   28  C8  UNL     1      19.579  10.288  13.928  1.00  0.00     0.000 C 
HETATM   29  C9  UNL     1      18.813   9.257  14.747  1.00  0.00     0.000 C 
HETATM   30  C10 UNL     1      19.154   7.928  14.057  1.00  0.00     0.005 C 
ENDBRANCH  24  25
ENDBRANCH  19  24
ENDBRANCH   1  19
TORSDOF 8
ENDMDL
MODEL 5
REMARK VINA RESULT: -6.995504179      1.518      3.275
REMARK  8 active torsions:
REMARK  status: ('A' for Active; 'I' for Inactive)
REMARK    1  A    between atoms: N1_2  and  C2_4 
REMARK    2  A    between atoms: C2_4  and  C3_5 
REMARK    3  A    between atoms: C3_5  and  C4_6 
REMARK    4  A    between atoms: C3_5  and  C11_13 
REMARK    5  A    between atoms: C4_6  and  C5_7 
REMARK       I    between atoms: C11_13  and  N2_15 
REMARK    6  A    between atoms: N2_15  and  C12_17 
REMARK    7  A    between atoms: C12_17  and  C14_19 
REMARK       I    between atoms: C14_19  and  N3_21 
REMARK    8  A    between atoms: C18_25  and  N4_26 
ROOT
HETATM    1  C11 UNL     1      18.180   4.336  11.152  1.00  0.00     0.227 C 
HETATM    2  O1  UNL     1      17.174   4.349  10.424  1.00  0.00    -0.273 OA
HETATM    3  N2  UNL     1      18.137   3.457  12.251  1.00  0.00    -0.348 N 
ATOM      4  H2  UNL     1      18.943   3.413  12.875  1.00  0.00     0.163 HD
ENDROOT
BRANCH   3   5
HETATM    5  C12 UNL     1      16.985   2.606  12.535  1.00  0.00     0.172 C 
HETATM    6  C13 UNL     1      17.237   1.204  12.001  1.00  0.00     0.042 C 
BRANCH   5   7
HETATM    7  C14 UNL     1      16.776   2.510  13.995  1.00  0.00     0.242 C 
HETATM    8  O2  UNL     1      16.841   1.345  14.510  1.00  0.00    -0.271 OA
HETATM    9  N3  UNL     1      16.514   3.593  14.857  1.00  0.00    -0.348 N 
HETATM   10  C15 UNL     1      16.433   4.969  14.446  1.00  0.00     0.126 C 
HETATM   11  C19 UNL     1      16.293   3.370  16.298  1.00  0.00     0.158 C 
HETATM   12  C16 UNL     1      15.021   5.452  14.679  1.00  0.00     0.022 C 
HETATM   13  C17 UNL     1      14.693   5.304  16.148  1.00  0.00     0.036 C 
HETATM   14  C18 UNL     1      14.935   3.922  16.682  1.00  0.00     0.201 C 
BRANCH  14  15
HETATM   15  N4  UNL     1      14.883   4.000  18.130  1.00  0.00    -0.073 N 
ATOM     16  H43 UNL     1      14.564   3.133  18.563  1.00  0.00     0.274 HD
ATOM     17  H42 UNL     1      15.807   4.032  18.560  1.00  0.00     0.274 HD
ATOM     18  H41 UNL     1      14.303   4.803  18.373  1.00  0.00     0.274 HD
ENDBRANCH  14  15
ENDBRANCH   5   7
ENDBRANCH   3   5
BRANCH   1  19
HETATM   19  C3  UNL     1      19.351   5.172  10.907  1.00  0.00     0.116 C 
BRANCH  19  20
HETATM   20  C2  UNL     1      20.420   5.038  11.946  1.00  0.00     0.069 C 
BRANCH  20  21
HETATM   21  N1  UNL     1      20.487   5.873  13.041  1.00  0.00    -0.406 N 
HETATM   22  C1  UNL     1      19.763   7.070  13.142  1.00  0.00     0.145 C 
ATOM     23  H1  UNL     1      21.093   5.606  13.817  1.00  0.00     0.158 HD
ENDBRANCH  20  21
ENDBRANCH  19  20
BRANCH  19  24
HETATM   24  C4  UNL     1      19.903   5.125   9.539  1.00  0.00     0.024 C 
BRANCH  24  25
HETATM   25  C5  UNL     1      20.101   6.483   8.882  1.00  0.00    -0.013 C 
HETATM   26  C6  UNL     1      18.949   7.338   9.308  1.00  0.00     0.005 C 
HETATM   27  C7  UNL     1      17.803   7.478   8.407  1.00  0.00     0.000 C 
HETATM   28  C8  UNL     1      17.978   7.044   6.991  1.00  0.00     0.000 C 
HETATM   29  C9  UNL     1      19.426   7.349   6.631  1.00  0.00     0.000 C 
HETATM   30  C10 UNL     1      20.219   6.288   7.408  1.00  0.00     0.005 C 
ENDBRANCH  24  25
ENDBRANCH  19  24
ENDBRANCH   1  19
TORSDOF 8
ENDMDL
