MODEL 1
REMARK VINA RESULT: -7.592273403      0.000      0.000
REMARK  8 active torsions:
REMARK  status: ('A' for Active; 'I' for Inactive)
REMARK    1  A    between atoms: O1_2  and  C2_3 
REMARK    2  A    between atoms: C2_3  and  C3_4 
REMARK    3  A    between atoms: C3_4  and  N1_5 
REMARK    4  A    between atoms: C3_4  and  C17_25 
REMARK    5  A    between atoms: N1_5  and  C4_7 
REMARK    6  A    between atoms: C6_11  and  C7_12 
REMARK    7  A    between atoms: C17_25  and  C20_28 
REMARK    8  A    between atoms: C20_28  and  O2_29 
ROOT
HETATM    1  C4  UNL     1      17.263   3.992  13.929  1.00  0.00     0.108 A 
HETATM    2  N2  UNL     1      17.978   5.159  13.831  1.00  0.00    -0.352 N 
ATOM      3  H2  UNL     1      17.821   5.885  14.529  1.00  0.00     0.166 HD
HETATM    4  C5  UNL     1      18.867   5.387  12.867  1.00  0.00     0.097 A 
HETATM    5  C6  UNL     1      19.146   4.455  11.873  1.00  0.00    -0.029 A 
HETATM    6  C12 UNL     1      18.452   3.269  11.933  1.00  0.00    -0.040 A 
HETATM    7  C13 UNL     1      17.518   3.049  12.959  1.00  0.00    -0.007 A 
HETATM    8  C14 UNL     1      16.945   1.708  12.721  1.00  0.00     0.043 C 
HETATM    9  C15 UNL     1      17.205   1.445  11.226  1.00  0.00     0.009 C 
HETATM   10  C16 UNL     1      18.551   2.072  11.065  1.00  0.00     0.040 C 
ENDROOT
BRANCH   1  11
HETATM   11  N1  UNL     1      16.482   3.898  14.871  1.00  0.00    -0.368 N 
ATOM     12  H1  UNL     1      16.905   3.297  15.578  1.00  0.00     0.161 HD
BRANCH  11  13
HETATM   13  C3  UNL     1      15.243   4.304  15.333  1.00  0.00     0.116 C 
BRANCH  13  14
HETATM   14  C2  UNL     1      14.984   5.783  15.328  1.00  0.00     0.193 C 
BRANCH  14  15
HETATM   15  O1  UNL     1      14.602   6.195  14.044  1.00  0.00    -0.394 OA
HETATM   16  C1  UNL     1      15.318   7.380  13.787  1.00  0.00     0.201 C 
ENDBRANCH  14  15
ENDBRANCH  13  14
BRANCH  13  17
HETATM   17  C17 UNL     1      14.999   3.673  16.674  1.00  0.00    -0.004 C 
HETATM   18  C18 UNL     1      13.604   3.016  16.697  1.00  0.00     0.019 C 
HETATM   19  C19 UNL     1      14.928   4.734  17.782  1.00  0.00     0.019 C 
BRANCH  17  20
HETATM   20  C20 UNL     1      15.947   2.636  17.125  1.00  0.00     0.175 C 
BRANCH  20  21
HETATM   21  O2  UNL     1      15.382   1.395  17.164  1.00  0.00    -0.400 OA
ATOM     22  H2  UNL     1      15.957   0.748  17.554  1.00  0.00     0.209 HD
ENDBRANCH  20  21
ENDBRANCH  17  20
ENDBRANCH  13  17
ENDBRANCH  11  13
ENDBRANCH   1  11
BRANCH   5  23
HETATM   23  C7  UNL     1      20.111   4.723  10.796  1.00  0.00     0.058 C 
HETATM   24  C8  UNL     1      21.282   5.567  11.280  1.00  0.00     0.031 C 
HETATM   25  C9  UNL     1      22.297   5.520  10.152  1.00  0.00     0.114 C 
HETATM   26  N3  UNL     1      21.803   5.958   8.892  1.00  0.00    -0.418 N 
HETATM   27  C10 UNL     1      20.501   5.439   8.524  1.00  0.00     0.151 C 
ATOM     28  H3  UNL     1      22.328   6.592   8.290  1.00  0.00     0.153 HD
HETATM   29  C11 UNL     1      19.511   5.560   9.659  1.00  0.00     0.196 C 
HETATM   30  F1  UNL     1      19.494   6.886  10.079  1.00  0.00    -0.247 F 
ENDBRANCH   5  23
TORSDOF 8
ENDMDL
MODEL 2
REMARK VINA RESULT: -7.268943621      3.060      7.249
REMARK  8 active torsions:
REMARK  status: ('A' for Active; 'I' for Inactive)
REMARK    1  A    between atoms: O1_2  and  C2_3 
REMARK    2  A    between atoms: C2_3  and  C3_4 
REMARK    3  A    between atoms: C3_4  and  N1_5 
REMARK    4  A    between atoms: C3_4  and  C17_25 
REMARK    5  A    between atoms: N1_5  and  C4_7 
REMARK    6  A    between atoms: C6_11  and  C7_12 
REMARK    7  A    between atoms: C17_25  and  C20_28 
REMARK    8  A    between atoms: C20_28  and  O2_29 
ROOT
HETATM    1  C4  UNL     1      19.273   4.721  11.400  1.00  0.00     0.108 A 
HETATM    2  N2  UNL     1      18.959   5.611  12.396  1.00  0.00    -0.352 N 
ATOM      3  H2  UNL     1      19.423   6.519  12.401  1.00  0.00     0.166 HD
HETATM    4  C5  UNL     1      18.077   5.344  13.357  1.00  0.00     0.097 A 
HETATM    5  C6  UNL     1      17.397   4.133  13.431  1.00  0.00    -0.029 A 
HETATM    6  C12 UNL     1      17.680   3.211  12.451  1.00  0.00    -0.040 A 
HETATM    7  C13 UNL     1      18.615   3.512  11.446  1.00  0.00    -0.007 A 
HETATM    8  C14 UNL     1      18.700   2.317  10.582  1.00  0.00     0.043 C 
HETATM    9  C15 UNL     1      18.188   1.170  11.473  1.00  0.00     0.009 C 
HETATM   10  C16 UNL     1      17.102   1.865  12.225  1.00  0.00     0.040 C 
ENDROOT
BRANCH   1  11
HETATM   11  N1  UNL     1      20.093   5.090  10.566  1.00  0.00    -0.368 N 
ATOM     12  H1  UNL     1      20.807   4.368  10.479  1.00  0.00     0.161 HD
BRANCH  11  13
HETATM   13  C3  UNL     1      20.411   6.122   9.699  1.00  0.00     0.116 C 
BRANCH  13  14
HETATM   14  C2  UNL     1      20.276   5.822   8.235  1.00  0.00     0.193 C 
BRANCH  14  15
HETATM   15  O1  UNL     1      18.990   6.167   7.795  1.00  0.00    -0.394 OA
HETATM   16  C1  UNL     1      19.164   7.209   6.864  1.00  0.00     0.201 C 
ENDBRANCH  14  15
ENDBRANCH  13  14
BRANCH  13  17
HETATM   17  C17 UNL     1      21.767   6.656  10.064  1.00  0.00    -0.004 C 
HETATM   18  C18 UNL     1      22.383   7.388   8.856  1.00  0.00     0.019 C 
HETATM   19  C19 UNL     1      22.753   5.514  10.350  1.00  0.00     0.019 C 
BRANCH  17  20
HETATM   20  C20 UNL     1      21.849   7.596  11.198  1.00  0.00     0.175 C 
BRANCH  20  21
HETATM   21  O2  UNL     1      21.667   6.979  12.401  1.00  0.00    -0.400 OA
ATOM     22  H2  UNL     1      22.381   6.393  12.620  1.00  0.00     0.209 HD
ENDBRANCH  20  21
ENDBRANCH  17  20
ENDBRANCH  13  17
ENDBRANCH  11  13
ENDBRANCH   1  11
BRANCH   5  23
HETATM   23  C7  UNL     1      16.443   3.835  14.510  1.00  0.00     0.058 C 
HETATM   24  C8  UNL     1      15.952   5.100  15.200  1.00  0.00     0.031 C 
HETATM   25  C9  UNL     1      14.796   4.651  16.076  1.00  0.00     0.114 C 
HETATM   26  N3  UNL     1      15.121   3.623  17.004  1.00  0.00    -0.418 N 
HETATM   27  C10 UNL     1      15.902   2.527  16.465  1.00  0.00     0.151 C 
ATOM     28  H3  UNL     1      14.825   3.655  17.980  1.00  0.00     0.153 HD
HETATM   29  C11 UNL     1      17.072   3.025  15.649  1.00  0.00     0.196 C 
HETATM   30  F1  UNL     1      17.804   3.909  16.437  1.00  0.00    -0.247 F 
ENDBRANCH   5  23
TORSDOF 8
ENDMDL
MODEL 3
REMARK VINA RESULT: -7.266388506      3.242      7.308
REMARK  8 active torsions:
REMARK  status: ('A' for Active; 'I' for Inactive)
REMARK    1  A    between atoms: O1_2  and  C2_3 
REMARK    2  A    between atoms: C2_3  and  C3_4 
REMARK    3  A    between atoms: C3_4  and  N1_5 
REMARK    4  A    between atoms: C3_4  and  C17_25 
REMARK    5  A    between atoms: N1_5  and  C4_7 
REMARK    6  A    between atoms: C6_11  and  C7_12 
REMARK    7  A    between atoms: C17_25  and  C20_28 
REMARK    8  A    between atoms: C20_28  and  O2_29 
ROOT
HETATM    1  C4  UNL     1      19.502   4.867  11.765  1.00  0.00     0.108 A 
HETATM    2  N2  UNL     1      19.189   5.673  12.830  1.00  0.00    -0.352 N 
ATOM      3  H2  UNL     1      19.720   6.534  12.961  1.00  0.00     0.166 HD
HETATM    4  C5  UNL     1      18.224   5.384  13.701  1.00  0.00     0.097 A 
HETATM    5  C6  UNL     1      17.450   4.233  13.602  1.00  0.00    -0.029 A 
HETATM    6  C12 UNL     1      17.729   3.396  12.548  1.00  0.00    -0.040 A 
HETATM    7  C13 UNL     1      18.752   3.719  11.640  1.00  0.00    -0.007 A 
HETATM    8  C14 UNL     1      18.804   2.616  10.659  1.00  0.00     0.043 C 
HETATM    9  C15 UNL     1      18.145   1.430  11.388  1.00  0.00     0.009 C 
HETATM   10  C16 UNL     1      17.066   2.134  12.142  1.00  0.00     0.040 C 
ENDROOT
BRANCH   1  11
HETATM   11  N1  UNL     1      20.404   5.250  11.027  1.00  0.00    -0.368 N 
ATOM     12  H1  UNL     1      21.245   4.716  11.247  1.00  0.00     0.161 HD
BRANCH  11  13
HETATM   13  C3  UNL     1      20.707   6.136  10.008  1.00  0.00     0.116 C 
BRANCH  13  14
HETATM   14  C2  UNL     1      20.543   5.619   8.609  1.00  0.00     0.193 C 
BRANCH  14  15
HETATM   15  O1  UNL     1      19.222   5.814   8.181  1.00  0.00    -0.394 OA
HETATM   16  C1  UNL     1      19.255   6.919   7.309  1.00  0.00     0.201 C 
ENDBRANCH  14  15
ENDBRANCH  13  14
BRANCH  13  17
HETATM   17  C17 UNL     1      22.071   6.712  10.262  1.00  0.00    -0.004 C 
HETATM   18  C18 UNL     1      22.038   7.600  11.522  1.00  0.00     0.019 C 
HETATM   19  C19 UNL     1      22.484   7.676   9.140  1.00  0.00     0.019 C 
BRANCH  17  20
HETATM   20  C20 UNL     1      23.188   5.767  10.456  1.00  0.00     0.175 C 
BRANCH  20  21
HETATM   21  O2  UNL     1      23.595   5.703  11.757  1.00  0.00    -0.400 OA
ATOM     22  H2  UNL     1      24.481   5.371  11.843  1.00  0.00     0.209 HD
ENDBRANCH  20  21
ENDBRANCH  17  20
ENDBRANCH  13  17
ENDBRANCH  11  13
ENDBRANCH   1  11
BRANCH   5  23
HETATM   23  C7  UNL     1      16.403   3.907  14.582  1.00  0.00     0.058 C 
HETATM   24  C8  UNL     1      15.889   5.148  15.299  1.00  0.00     0.031 C 
HETATM   25  C9  UNL     1      14.654   4.688  16.052  1.00  0.00     0.114 C 
HETATM   26  N3  UNL     1      14.875   3.603  16.946  1.00  0.00    -0.418 N 
HETATM   27  C10 UNL     1      15.669   2.515  16.412  1.00  0.00     0.151 C 
ATOM     28  H3  UNL     1      14.500   3.592  17.894  1.00  0.00     0.153 HD
HETATM   29  C11 UNL     1      16.915   3.019  15.723  1.00  0.00     0.196 C 
HETATM   30  F1  UNL     1      17.602   3.839  16.614  1.00  0.00    -0.247 F 
ENDBRANCH   5  23
TORSDOF 8
ENDMDL
MODEL 4
REMARK VINA RESULT: -7.163528155      3.331      5.492
REMARK  8 active torsions:
REMARK  status: ('A' for Active; 'I' for Inactive)
REMARK    1  A    between atoms: O1_2  and  C2_3 
REMARK    2  A    between atoms: C2_3  and  C3_4 
REMARK    3  A    between atoms: C3_4  and  N1_5 
REMARK    4  A    between atoms: C3_4  and  C17_25 
REMARK    5  A    between atoms: N1_5  and  C4_7 
REMARK    6  A    between atoms: C6_11  and  C7_12 
REMARK    7  A    between atoms: C17_25  and  C20_28 
REMARK    8  A    between atoms: C20_28  and  O2_29 
ROOT
HETATM    1  C4  UNL     1      18.892   5.334  12.895  1.00  0.00     0.108 A 
HETATM    2  N2  UNL     1      18.161   6.162  13.708  1.00  0.00    -0.352 N 
ATOM      3  H2  UNL     1      17.300   5.803  14.120  1.00  0.00     0.166 HD
HETATM    4  C5  UNL     1      18.523   7.413  13.985  1.00  0.00     0.097 A 
HETATM    5  C6  UNL     1      19.679   7.987  13.469  1.00  0.00    -0.029 A 
HETATM    6  C12 UNL     1      20.445   7.191  12.649  1.00  0.00    -0.040 A 
HETATM    7  C13 UNL     1      20.044   5.874  12.369  1.00  0.00    -0.007 A 
HETATM    8  C14 UNL     1      21.060   5.314  11.454  1.00  0.00     0.043 C 
HETATM    9  C15 UNL     1      21.722   6.552  10.821  1.00  0.00     0.009 C 
HETATM   10  C16 UNL     1      21.738   7.484  11.987  1.00  0.00     0.040 C 
ENDROOT
BRANCH   1  11
HETATM   11  N1  UNL     1      18.459   4.199  12.728  1.00  0.00    -0.368 N 
ATOM     12  H1  UNL     1      19.233   3.601  12.437  1.00  0.00     0.161 HD
BRANCH  11  13
HETATM   13  C3  UNL     1      17.312   3.426  12.786  1.00  0.00     0.116 C 
BRANCH  13  14
HETATM   14  C2  UNL     1      17.030   2.756  14.099  1.00  0.00     0.193 C 
BRANCH  14  15
HETATM   15  O1  UNL     1      16.525   3.692  15.012  1.00  0.00    -0.394 OA
HETATM   16  C1  UNL     1      17.335   3.590  16.160  1.00  0.00     0.201 C 
ENDBRANCH  14  15
ENDBRANCH  13  14
BRANCH  13  17
HETATM   17  C17 UNL     1      17.320   2.466  11.630  1.00  0.00    -0.004 C 
HETATM   18  C18 UNL     1      17.283   1.016  12.153  1.00  0.00     0.019 C 
HETATM   19  C19 UNL     1      18.641   2.547  10.851  1.00  0.00     0.019 C 
BRANCH  17  20
HETATM   20  C20 UNL     1      16.227   2.573  10.644  1.00  0.00     0.175 C 
BRANCH  20  21
HETATM   21  O2  UNL     1      15.351   3.574  10.945  1.00  0.00    -0.400 OA
ATOM     22  H2  UNL     1      15.591   4.399  10.541  1.00  0.00     0.209 HD
ENDBRANCH  20  21
ENDBRANCH  17  20
ENDBRANCH  13  17
ENDBRANCH  11  13
ENDBRANCH   1  11
BRANCH   5  23
HETATM   23  C7  UNL     1      20.061   9.378  13.758  1.00  0.00     0.058 C 
HETATM   24  C8  UNL     1      19.250   9.962  14.907  1.00  0.00     0.031 C 
HETATM   25  C9  UNL     1      19.938  11.269  15.253  1.00  0.00     0.114 C 
HETATM   26  N3  UNL     1      20.064  12.179  14.166  1.00  0.00    -0.418 N 
HETATM   27  C10 UNL     1      20.519  11.594  12.921  1.00  0.00     0.151 C 
ATOM     28  H3  UNL     1      19.849  13.172  14.257  1.00  0.00     0.153 HD
HETATM   29  C11 UNL     1      19.765  10.327  12.591  1.00  0.00     0.196 C 
HETATM   30  F1  UNL     1      18.404  10.613  12.618  1.00  0.00    -0.247 F 
ENDBRANCH   5  23
TORSDOF 8
ENDMDL
MODEL 5
REMARK VINA RESULT: -7.147959032      3.087      5.526
REMARK  8 active torsions:
REMARK  status: ('A' for Active; 'I' for Inactive)
REMARK    1  A    between atoms: O1_2  and  C2_3 
REMARK    2  A    between atoms: C2_3  and  C3_4 
REMARK    3  A    between atoms: C3_4  and  N1_5 
REMARK    4  A    between atoms: C3_4  and  C17_25 
REMARK    5  A    between atoms: N1_5  and  C4_7 
REMARK    6  A    between atoms: C6_11  and  C7_12 
REMARK    7  A    between atoms: C17_25  and  C20_28 
REMARK    8  A    between atoms: C20_28  and  O2_29 
ROOT
HETATM    1  C4  UNL     1      18.001   5.022  13.221  1.00  0.00     0.108 A 
HETATM    2  N2  UNL     1      19.172   5.659  12.899  1.00  0.00    -0.352 N 
ATOM      3  H2  UNL     1      19.951   5.100  12.551  1.00  0.00     0.166 HD
HETATM    4  C5  UNL     1      19.340   6.975  13.018  1.00  0.00     0.097 A 
HETATM    5  C6  UNL     1      18.335   7.816  13.483  1.00  0.00    -0.029 A 
HETATM    6  C12 UNL     1      17.142   7.219  13.817  1.00  0.00    -0.040 A 
HETATM    7  C13 UNL     1      16.986   5.829  13.684  1.00  0.00    -0.007 A 
HETATM    8  C14 UNL     1      15.618   5.516  14.143  1.00  0.00     0.043 C 
HETATM    9  C15 UNL     1      15.237   6.709  15.038  1.00  0.00     0.009 C 
HETATM   10  C16 UNL     1      15.879   7.832  14.292  1.00  0.00     0.040 C 
ENDROOT
BRANCH   1  11
HETATM   11  N1  UNL     1      17.969   3.807  13.055  1.00  0.00    -0.368 N 
ATOM     12  H1  UNL     1      18.924   3.478  12.915  1.00  0.00     0.161 HD
BRANCH  11  13
HETATM   13  C3  UNL     1      17.120   2.715  12.987  1.00  0.00     0.116 C 
BRANCH  13  14
HETATM   14  C2  UNL     1      17.203   1.739  14.124  1.00  0.00     0.193 C 
BRANCH  14  15
HETATM   15  O1  UNL     1      16.231   2.047  15.087  1.00  0.00    -0.394 OA
HETATM   16  C1  UNL     1      16.909   2.721  16.121  1.00  0.00     0.201 C 
ENDBRANCH  14  15
ENDBRANCH  13  14
BRANCH  13  17
HETATM   17  C17 UNL     1      17.284   2.062  11.644  1.00  0.00    -0.004 C 
HETATM   18  C18 UNL     1      17.231   0.530  11.797  1.00  0.00     0.019 C 
HETATM   19  C19 UNL     1      18.680   2.330  11.063  1.00  0.00     0.019 C 
BRANCH  17  20
HETATM   20  C20 UNL     1      16.304   2.403  10.594  1.00  0.00     0.175 C 
BRANCH  20  21
HETATM   21  O2  UNL     1      15.506   3.452  10.946  1.00  0.00    -0.400 OA
ATOM     22  H2  UNL     1      14.842   3.205  11.578  1.00  0.00     0.209 HD
ENDBRANCH  20  21
ENDBRANCH  17  20
ENDBRANCH  13  17
ENDBRANCH  11  13
ENDBRANCH   1  11
BRANCH   5  23
HETATM   23  C7  UNL     1      18.535   9.265  13.636  1.00  0.00     0.058 C 
HETATM   24  C8  UNL     1      18.992   9.916  12.338  1.00  0.00     0.031 C 
HETATM   25  C9  UNL     1      18.885  11.410  12.585  1.00  0.00     0.114 C 
HETATM   26  N3  UNL     1      19.620  11.879  13.709  1.00  0.00    -0.418 N 
HETATM   27  C10 UNL     1      19.486  11.080  14.912  1.00  0.00     0.151 C 
ATOM     28  H3  UNL     1      20.199  12.717  13.673  1.00  0.00     0.153 HD
HETATM   29  C11 UNL     1      19.657   9.606  14.624  1.00  0.00     0.196 C 
HETATM   30  F1  UNL     1      20.867   9.432  13.959  1.00  0.00    -0.247 F 
ENDBRANCH   5  23
TORSDOF 8
ENDMDL
