MODEL 1
REMARK VINA RESULT: -7.394602091      0.000      0.000
REMARK  8 active torsions:
REMARK  status: ('A' for Active; 'I' for Inactive)
REMARK    1  A    between atoms: C4_4  and  C5_5 
REMARK    2  A    between atoms: N1_7  and  C7_8 
REMARK    3  A    between atoms: C7_8  and  C8_9 
REMARK    4  A    between atoms: C8_9  and  O1_10 
REMARK    5  A    between atoms: C8_9  and  C9_12 
REMARK    6  A    between atoms: C9_12  and  O2_13 
REMARK    7  A    between atoms: C10_15  and  C11_16 
REMARK    8  A    between atoms: C16_21  and  C17_22 
ROOT
HETATM    1  C5  UNL     1     -23.038   0.653  -4.866  1.00  0.00    -0.029 A 
HETATM    2  C6  UNL     1     -23.533   1.260  -5.970  1.00  0.00     0.099 A 
HETATM    3  N1  UNL     1     -23.029   0.670  -7.108  1.00  0.00    -0.353 N 
HETATM    4  C10 UNL     1     -22.183  -0.347  -6.709  1.00  0.00     0.044 A 
HETATM    5  C16 UNL     1     -22.177  -0.360  -5.292  1.00  0.00    -0.019 A 
ENDROOT
BRANCH   3   6
HETATM    6  C7  UNL     1     -23.419   1.141  -8.408  1.00  0.00     0.162 C 
BRANCH   6   7
HETATM    7  C8  UNL     1     -22.367   1.390  -9.412  1.00  0.00     0.160 C 
BRANCH   7   8
HETATM    8  O1  UNL     1     -22.701   1.288 -10.741  1.00  0.00    -0.392 OA
ATOM      9  H1  UNL     1     -23.591   1.044 -10.962  1.00  0.00     0.210 HD
ENDBRANCH   7   8
BRANCH   7  10
HETATM   10  C9  UNL     1     -21.576   2.688  -9.164  1.00  0.00     0.197 C 
BRANCH  10  11
HETATM   11  O2  UNL     1     -21.484   3.503 -10.250  1.00  0.00    -0.398 OA
ATOM     12  H2  UNL     1     -21.312   4.414 -10.041  1.00  0.00     0.209 HD
ENDBRANCH  10  11
ENDBRANCH   7  10
ENDBRANCH   6   7
ENDBRANCH   3   6
BRANCH   4  13
HETATM   13  C11 UNL     1     -21.617  -1.302  -7.658  1.00  0.00    -0.052 C 
HETATM   14  C12 UNL     1     -22.512  -2.240  -8.376  1.00  0.00     0.036 C 
HETATM   15  C13 UNL     1     -21.667  -2.646  -9.605  1.00  0.00     0.005 C 
HETATM   16  C14 UNL     1     -20.647  -1.571  -9.817  1.00  0.00     0.005 C 
HETATM   17  C15 UNL     1     -20.348  -1.102  -8.364  1.00  0.00     0.036 C 
ENDBRANCH   4  13
BRANCH   1  18
HETATM   18  C4  UNL     1     -23.403   0.894  -3.443  1.00  0.00     0.025 A 
HETATM   19  C2  UNL     1     -22.999   2.333  -2.957  1.00  0.00    -0.009 A 
HETATM   20  C1  UNL     1     -22.512   2.420  -1.527  1.00  0.00     0.010 C 
HETATM   21  C3  UNL     1     -24.425   1.982  -3.195  1.00  0.00     0.014 A 
ENDBRANCH   1  18
BRANCH   5  22
HETATM   22  C17 UNL     1     -21.225  -1.043  -4.474  1.00  0.00     0.021 C 
HETATM   23  C18 UNL     1     -21.425  -1.981  -3.415  1.00  0.00     0.009 C 
HETATM   24  C19 UNL     1     -20.619  -1.066  -2.463  1.00  0.00     0.001 C 
HETATM   25  C20 UNL     1     -20.179  -0.327  -3.682  1.00  0.00     0.009 C 
ENDBRANCH   5  22
TORSDOF 8
ENDMDL
MODEL 2
REMARK VINA RESULT: -7.386715165      1.699      4.117
REMARK  8 active torsions:
REMARK  status: ('A' for Active; 'I' for Inactive)
REMARK    1  A    between atoms: C4_4  and  C5_5 
REMARK    2  A    between atoms: N1_7  and  C7_8 
REMARK    3  A    between atoms: C7_8  and  C8_9 
REMARK    4  A    between atoms: C8_9  and  O1_10 
REMARK    5  A    between atoms: C8_9  and  C9_12 
REMARK    6  A    between atoms: C9_12  and  O2_13 
REMARK    7  A    between atoms: C10_15  and  C11_16 
REMARK    8  A    between atoms: C16_21  and  C17_22 
ROOT
HETATM    1  C5  UNL     1     -20.489  -0.655  -4.813  1.00  0.00    -0.029 A 
HETATM    2  C6  UNL     1     -19.996  -1.263  -5.917  1.00  0.00     0.099 A 
HETATM    3  N1  UNL     1     -20.495  -0.669  -7.055  1.00  0.00    -0.353 N 
HETATM    4  C10 UNL     1     -21.335   0.352  -6.656  1.00  0.00     0.044 A 
HETATM    5  C16 UNL     1     -21.343   0.364  -5.238  1.00  0.00    -0.019 A 
ENDROOT
BRANCH   3   6
HETATM    6  C7  UNL     1     -20.107  -1.141  -8.355  1.00  0.00     0.162 C 
BRANCH   6   7
HETATM    7  C8  UNL     1     -21.159  -1.379  -9.362  1.00  0.00     0.160 C 
BRANCH   7   8
HETATM    8  O1  UNL     1     -20.824  -1.266 -10.690  1.00  0.00    -0.392 OA
ATOM      9  H1  UNL     1     -19.970  -1.576 -10.965  1.00  0.00     0.210 HD
ENDBRANCH   7   8
BRANCH   7  10
HETATM   10  C9  UNL     1     -21.952  -2.677  -9.127  1.00  0.00     0.197 C 
BRANCH  10  11
HETATM   11  O2  UNL     1     -22.036  -3.488 -10.217  1.00  0.00    -0.398 OA
ATOM     12  H2  UNL     1     -22.896  -3.512 -10.620  1.00  0.00     0.209 HD
ENDBRANCH  10  11
ENDBRANCH   7  10
ENDBRANCH   6   7
ENDBRANCH   3   6
BRANCH   4  13
HETATM   13  C11 UNL     1     -21.895   1.311  -7.604  1.00  0.00    -0.052 C 
HETATM   14  C12 UNL     1     -20.994   2.248  -8.317  1.00  0.00     0.036 C 
HETATM   15  C13 UNL     1     -21.833   2.660  -9.548  1.00  0.00     0.005 C 
HETATM   16  C14 UNL     1     -22.857   1.590  -9.766  1.00  0.00     0.005 C 
HETATM   17  C15 UNL     1     -23.163   1.119  -8.315  1.00  0.00     0.036 C 
ENDBRANCH   4  13
BRANCH   1  18
HETATM   18  C4  UNL     1     -20.126  -0.900  -3.389  1.00  0.00     0.025 A 
HETATM   19  C2  UNL     1     -20.548  -2.334  -2.904  1.00  0.00    -0.009 A 
HETATM   20  C1  UNL     1     -21.036  -2.416  -1.474  1.00  0.00     0.010 C 
HETATM   21  C3  UNL     1     -19.117  -2.000  -3.141  1.00  0.00     0.014 A 
ENDBRANCH   1  18
BRANCH   5  22
HETATM   22  C17 UNL     1     -22.292   1.051  -4.421  1.00  0.00     0.021 C 
HETATM   23  C18 UNL     1     -22.088   1.999  -3.372  1.00  0.00     0.009 C 
HETATM   24  C19 UNL     1     -22.886   1.090  -2.406  1.00  0.00     0.001 C 
HETATM   25  C20 UNL     1     -23.331   0.340  -3.616  1.00  0.00     0.009 C 
ENDBRANCH   5  22
TORSDOF 8
ENDMDL
MODEL 3
REMARK VINA RESULT: -6.929653470      4.121      6.436
REMARK  8 active torsions:
REMARK  status: ('A' for Active; 'I' for Inactive)
REMARK    1  A    between atoms: C4_4  and  C5_5 
REMARK    2  A    between atoms: N1_7  and  C7_8 
REMARK    3  A    between atoms: C7_8  and  C8_9 
REMARK    4  A    between atoms: C8_9  and  O1_10 
REMARK    5  A    between atoms: C8_9  and  C9_12 
REMARK    6  A    between atoms: C9_12  and  O2_13 
REMARK    7  A    between atoms: C10_15  and  C11_16 
REMARK    8  A    between atoms: C16_21  and  C17_22 
ROOT
HETATM    1  C5  UNL     1     -21.617   0.601   0.007  1.00  0.00    -0.029 A 
HETATM    2  C6  UNL     1     -20.810  -0.485   0.043  1.00  0.00     0.099 A 
HETATM    3  N1  UNL     1     -20.724  -1.059  -1.206  1.00  0.00    -0.353 N 
HETATM    4  C10 UNL     1     -21.506  -0.310  -2.063  1.00  0.00     0.044 A 
HETATM    5  C16 UNL     1     -22.082   0.739  -1.302  1.00  0.00    -0.019 A 
ENDROOT
BRANCH   3   6
HETATM    6  C7  UNL     1     -19.914  -2.226  -1.418  1.00  0.00     0.162 C 
BRANCH   6   7
HETATM    7  C8  UNL     1     -18.493  -2.043  -1.773  1.00  0.00     0.160 C 
BRANCH   7   8
HETATM    8  O1  UNL     1     -18.137  -0.908  -2.460  1.00  0.00    -0.392 OA
ATOM      9  H1  UNL     1     -18.822  -0.409  -2.888  1.00  0.00     0.210 HD
ENDBRANCH   7   8
BRANCH   7  10
HETATM   10  C9  UNL     1     -17.531  -2.270  -0.593  1.00  0.00     0.197 C 
BRANCH  10  11
HETATM   11  O2  UNL     1     -17.235  -1.144   0.113  1.00  0.00    -0.398 OA
ATOM     12  H2  UNL     1     -16.337  -0.850   0.020  1.00  0.00     0.209 HD
ENDBRANCH  10  11
ENDBRANCH   7  10
ENDBRANCH   6   7
ENDBRANCH   3   6
BRANCH   4  13
HETATM   13  C11 UNL     1     -21.502  -0.526  -3.507  1.00  0.00    -0.052 C 
HETATM   14  C12 UNL     1     -22.609  -1.283  -4.138  1.00  0.00     0.036 C 
HETATM   15  C13 UNL     1     -22.539  -0.827  -5.614  1.00  0.00     0.005 C 
HETATM   16  C14 UNL     1     -21.828   0.491  -5.637  1.00  0.00     0.005 C 
HETATM   17  C15 UNL     1     -20.815   0.345  -4.465  1.00  0.00     0.036 C 
ENDBRANCH   4  13
BRANCH   1  18
HETATM   18  C4  UNL     1     -21.895   1.577   1.097  1.00  0.00     0.025 A 
HETATM   19  C2  UNL     1     -23.149   1.174   1.955  1.00  0.00    -0.009 A 
HETATM   20  C1  UNL     1     -24.007   2.327   2.428  1.00  0.00     0.010 C 
HETATM   21  C3  UNL     1     -21.773   1.046   2.509  1.00  0.00     0.014 A 
ENDBRANCH   1  18
BRANCH   5  22
HETATM   22  C17 UNL     1     -23.176   1.558  -1.716  1.00  0.00     0.021 C 
HETATM   23  C18 UNL     1     -24.463   1.191  -2.220  1.00  0.00     0.009 C 
HETATM   24  C19 UNL     1     -24.195   2.030  -3.492  1.00  0.00     0.001 C 
HETATM   25  C20 UNL     1     -23.041   2.623  -2.756  1.00  0.00     0.009 C 
ENDBRANCH   5  22
TORSDOF 8
ENDMDL
MODEL 4
REMARK VINA RESULT: -6.919391337      4.427      6.628
REMARK  8 active torsions:
REMARK  status: ('A' for Active; 'I' for Inactive)
REMARK    1  A    between atoms: C4_4  and  C5_5 
REMARK    2  A    between atoms: N1_7  and  C7_8 
REMARK    3  A    between atoms: C7_8  and  C8_9 
REMARK    4  A    between atoms: C8_9  and  O1_10 
REMARK    5  A    between atoms: C8_9  and  C9_12 
REMARK    6  A    between atoms: C9_12  and  O2_13 
REMARK    7  A    between atoms: C10_15  and  C11_16 
REMARK    8  A    between atoms: C16_21  and  C17_22 
ROOT
HETATM    1  C5  UNL     1     -21.778  -0.756   0.275  1.00  0.00    -0.029 A 
HETATM    2  C6  UNL     1     -22.582   0.324   0.411  1.00  0.00     0.099 A 
HETATM    3  N1  UNL     1     -22.759   0.945  -0.806  1.00  0.00    -0.353 N 
HETATM    4  C10 UNL     1     -22.041   0.232  -1.746  1.00  0.00     0.044 A 
HETATM    5  C16 UNL     1     -21.410  -0.843  -1.070  1.00  0.00    -0.019 A 
ENDROOT
BRANCH   3   6
HETATM    6  C7  UNL     1     -23.584   2.116  -0.913  1.00  0.00     0.162 C 
BRANCH   6   7
HETATM    7  C8  UNL     1     -24.884   2.129  -0.213  1.00  0.00     0.160 C 
BRANCH   7   8
HETATM    8  O1  UNL     1     -25.184   3.212   0.578  1.00  0.00    -0.392 OA
ATOM      9  H1  UNL     1     -25.992   3.681   0.409  1.00  0.00     0.210 HD
ENDBRANCH   7   8
BRANCH   7  10
HETATM   10  C9  UNL     1     -26.077   1.796  -1.127  1.00  0.00     0.197 C 
BRANCH  10  11
HETATM   11  O2  UNL     1     -27.021   1.004  -0.549  1.00  0.00    -0.398 OA
ATOM     12  H2  UNL     1     -27.755   0.795  -1.114  1.00  0.00     0.209 HD
ENDBRANCH  10  11
ENDBRANCH   7  10
ENDBRANCH   6   7
ENDBRANCH   3   6
BRANCH   4  13
HETATM   13  C11 UNL     1     -22.152   0.502  -3.176  1.00  0.00    -0.052 C 
HETATM   14  C12 UNL     1     -21.072   1.246  -3.867  1.00  0.00     0.036 C 
HETATM   15  C13 UNL     1     -21.275   0.848  -5.347  1.00  0.00     0.005 C 
HETATM   16  C14 UNL     1     -22.033  -0.443  -5.360  1.00  0.00     0.005 C 
HETATM   17  C15 UNL     1     -22.944  -0.309  -4.106  1.00  0.00     0.036 C 
ENDBRANCH   4  13
BRANCH   1  18
HETATM   18  C4  UNL     1     -21.420  -1.772   1.304  1.00  0.00     0.025 A 
HETATM   19  C2  UNL     1     -20.155  -1.356   2.139  1.00  0.00    -0.009 A 
HETATM   20  C1  UNL     1     -19.231  -2.491   2.523  1.00  0.00     0.010 C 
HETATM   21  C3  UNL     1     -21.514  -1.318   2.744  1.00  0.00     0.014 A 
ENDBRANCH   1  18
BRANCH   5  22
HETATM   22  C17 UNL     1     -20.348  -1.642  -1.594  1.00  0.00     0.021 C 
HETATM   23  C18 UNL     1     -19.088  -1.252  -2.143  1.00  0.00     0.009 C 
HETATM   24  C19 UNL     1     -19.432  -2.006  -3.449  1.00  0.00     0.001 C 
HETATM   25  C20 UNL     1     -20.551  -2.637  -2.690  1.00  0.00     0.009 C 
ENDBRANCH   5  22
TORSDOF 8
ENDMDL
MODEL 5
REMARK VINA RESULT: -6.890277534      2.762      5.922
REMARK  8 active torsions:
REMARK  status: ('A' for Active; 'I' for Inactive)
REMARK    1  A    between atoms: C4_4  and  C5_5 
REMARK    2  A    between atoms: N1_7  and  C7_8 
REMARK    3  A    between atoms: C7_8  and  C8_9 
REMARK    4  A    between atoms: C8_9  and  O1_10 
REMARK    5  A    between atoms: C8_9  and  C9_12 
REMARK    6  A    between atoms: C9_12  and  O2_13 
REMARK    7  A    between atoms: C10_15  and  C11_16 
REMARK    8  A    between atoms: C16_21  and  C17_22 
ROOT
HETATM    1  C5  UNL     1     -21.080   0.918  -7.341  1.00  0.00    -0.029 A 
HETATM    2  C6  UNL     1     -21.109   1.793  -6.309  1.00  0.00     0.099 A 
HETATM    3  N1  UNL     1     -21.138   1.119  -5.109  1.00  0.00    -0.353 N 
HETATM    4  C10 UNL     1     -21.127  -0.233  -5.392  1.00  0.00     0.044 A 
HETATM    5  C16 UNL     1     -21.098  -0.370  -6.803  1.00  0.00    -0.019 A 
ENDROOT
BRANCH   3   6
HETATM    6  C7  UNL     1     -21.164   1.840  -3.868  1.00  0.00     0.162 C 
BRANCH   6   7
HETATM    7  C8  UNL     1     -22.469   2.090  -3.225  1.00  0.00     0.160 C 
BRANCH   7   8
HETATM    8  O1  UNL     1     -23.597   1.592  -3.830  1.00  0.00    -0.392 OA
ATOM      9  H1  UNL     1     -23.488   0.951  -4.522  1.00  0.00     0.210 HD
ENDBRANCH   7   8
BRANCH   7  10
HETATM   10  C9  UNL     1     -22.487   1.760  -1.721  1.00  0.00     0.197 C 
BRANCH  10  11
HETATM   11  O2  UNL     1     -22.782   2.819  -0.919  1.00  0.00    -0.398 OA
ATOM     12  H2  UNL     1     -23.303   2.598  -0.157  1.00  0.00     0.209 HD
ENDBRANCH  10  11
ENDBRANCH   7  10
ENDBRANCH   6   7
ENDBRANCH   3   6
BRANCH   4  13
HETATM   13  C11 UNL     1     -20.966  -1.243  -4.349  1.00  0.00    -0.052 C 
HETATM   14  C12 UNL     1     -19.611  -1.556  -3.835  1.00  0.00     0.036 C 
HETATM   15  C13 UNL     1     -19.906  -2.194  -2.458  1.00  0.00     0.005 C 
HETATM   16  C14 UNL     1     -21.265  -1.729  -2.036  1.00  0.00     0.005 C 
HETATM   17  C15 UNL     1     -22.015  -1.611  -3.394  1.00  0.00     0.036 C 
ENDBRANCH   4  13
BRANCH   1  18
HETATM   18  C4  UNL     1     -20.928   1.212  -8.793  1.00  0.00     0.025 A 
HETATM   19  C2  UNL     1     -22.312   1.420  -9.508  1.00  0.00    -0.009 A 
HETATM   20  C1  UNL     1     -22.399   0.883 -10.920  1.00  0.00     0.010 C 
HETATM   21  C3  UNL     1     -21.408   2.573  -9.248  1.00  0.00     0.014 A 
ENDBRANCH   1  18
BRANCH   5  22
HETATM   22  C17 UNL     1     -21.375  -1.572  -7.524  1.00  0.00     0.021 C 
HETATM   23  C18 UNL     1     -20.906  -2.008  -8.801  1.00  0.00     0.009 C 
HETATM   24  C19 UNL     1     -22.370  -2.148  -9.283  1.00  0.00     0.001 C 
HETATM   25  C20 UNL     1     -22.764  -2.016  -7.850  1.00  0.00     0.009 C 
ENDBRANCH   5  22
TORSDOF 8
ENDMDL
