MODEL 1
REMARK VINA RESULT: -6.930843971      0.000      0.000
REMARK  8 active torsions:
REMARK  status: ('A' for Active; 'I' for Inactive)
REMARK    1  A    between atoms: C10_10  and  O1_11 
REMARK    2  A    between atoms: C10_10  and  C11_13 
REMARK    3  A    between atoms: C11_13  and  O2_14 
REMARK    4  A    between atoms: C14_17  and  C15_18 
REMARK    5  A    between atoms: C15_18  and  C16_19 
REMARK    6  A    between atoms: C16_19  and  C17_20 
REMARK    7  A    between atoms: C19_22  and  C20_23 
REMARK    8  A    between atoms: C20_23  and  O3_24 
ROOT
HETATM    1  C1  UNL     1     -23.606  -2.428  -5.276  1.00  0.00     0.015 C 
HETATM    2  C2  UNL     1     -22.658  -1.608  -4.946  1.00  0.00    -0.081 C 
HETATM    3  C3  UNL     1     -21.962  -0.847  -6.048  1.00  0.00     0.010 C 
HETATM    4  C4  UNL     1     -22.516  -1.265  -7.402  1.00  0.00     0.015 C 
HETATM    5  C5  UNL     1     -22.336   0.600  -5.828  1.00  0.00     0.009 C 
HETATM    6  C6  UNL     1     -21.893   1.027  -4.473  1.00  0.00     0.011 C 
HETATM    7  C7  UNL     1     -22.473   0.212  -3.333  1.00  0.00    -0.030 C 
HETATM    8  C8  UNL     1     -22.011   0.748  -2.043  1.00  0.00     0.013 C 
HETATM    9  C9  UNL     1     -23.257   1.021  -1.191  1.00  0.00     0.041 C 
HETATM   10  C10 UNL     1     -24.252   1.425  -2.256  1.00  0.00     0.080 C 
HETATM   11  C13 UNL     1     -23.993   0.364  -3.317  1.00  0.00     0.050 C 
HETATM   12  C14 UNL     1     -22.165  -1.273  -3.568  1.00  0.00     0.023 C 
ENDROOT
BRANCH  12  13
HETATM   13  C15 UNL     1     -20.736  -1.580  -3.449  1.00  0.00     0.014 C 
BRANCH  13  14
HETATM   14  C16 UNL     1     -20.240  -2.596  -2.500  1.00  0.00     0.034 C 
BRANCH  14  15
HETATM   15  C17 UNL     1     -19.975  -2.171  -1.123  1.00  0.00    -0.086 C 
HETATM   16  C18 UNL     1     -21.041  -2.181  -0.091  1.00  0.00     0.043 C 
HETATM   17  C19 UNL     1     -18.777  -1.754  -0.664  1.00  0.00     0.001 C 
BRANCH  17  18
HETATM   18  C20 UNL     1     -17.589  -1.672  -1.503  1.00  0.00     0.191 C 
BRANCH  18  19
HETATM   19  O3  UNL     1     -16.596  -0.970  -0.757  1.00  0.00    -0.397 OA
ATOM     20  H3  UNL     1     -16.943  -0.105  -0.574  1.00  0.00     0.209 HD
ENDBRANCH  18  19
ENDBRANCH  17  18
ENDBRANCH  14  15
ENDBRANCH  13  14
ENDBRANCH  12  13
BRANCH  10  21
HETATM   21  O1  UNL     1     -23.923   2.683  -2.683  1.00  0.00    -0.388 OA
ATOM     22  H1  UNL     1     -24.078   2.724  -3.620  1.00  0.00     0.210 HD
ENDBRANCH  10  21
BRANCH  10  23
HETATM   23  C11 UNL     1     -25.660   1.376  -1.763  1.00  0.00     0.204 C 
BRANCH  23  24
HETATM   24  O2  UNL     1     -26.059   2.499  -1.125  1.00  0.00    -0.393 OA
HETATM   25  C12 UNL     1     -26.928   2.448  -0.096  1.00  0.00     0.201 C 
ENDBRANCH  23  24
ENDBRANCH  10  23
TORSDOF 8
ENDMDL
MODEL 2
REMARK VINA RESULT: -6.832321333      2.533      5.260
REMARK  8 active torsions:
REMARK  status: ('A' for Active; 'I' for Inactive)
REMARK    1  A    between atoms: C10_10  and  O1_11 
REMARK    2  A    between atoms: C10_10  and  C11_13 
REMARK    3  A    between atoms: C11_13  and  O2_14 
REMARK    4  A    between atoms: C14_17  and  C15_18 
REMARK    5  A    between atoms: C15_18  and  C16_19 
REMARK    6  A    between atoms: C16_19  and  C17_20 
REMARK    7  A    between atoms: C19_22  and  C20_23 
REMARK    8  A    between atoms: C20_23  and  O3_24 
ROOT
HETATM    1  C1  UNL     1     -19.175   0.303  -3.208  1.00  0.00     0.015 C 
HETATM    2  C2  UNL     1     -20.279  -0.006  -3.813  1.00  0.00    -0.081 C 
HETATM    3  C3  UNL     1     -20.600  -1.469  -4.002  1.00  0.00     0.010 C 
HETATM    4  C4  UNL     1     -19.467  -2.326  -3.456  1.00  0.00     0.015 C 
HETATM    5  C5  UNL     1     -21.817  -1.721  -3.145  1.00  0.00     0.009 C 
HETATM    6  C6  UNL     1     -22.927  -0.833  -3.586  1.00  0.00     0.011 C 
HETATM    7  C7  UNL     1     -22.610   0.649  -3.529  1.00  0.00    -0.030 C 
HETATM    8  C8  UNL     1     -23.787   1.433  -3.938  1.00  0.00     0.013 C 
HETATM    9  C9  UNL     1     -24.070   2.444  -2.820  1.00  0.00     0.041 C 
HETATM   10  C10 UNL     1     -23.644   1.654  -1.602  1.00  0.00     0.080 C 
HETATM   11  C13 UNL     1     -22.329   1.058  -2.085  1.00  0.00     0.050 C 
HETATM   12  C14 UNL     1     -21.336   0.922  -4.339  1.00  0.00     0.023 C 
ENDROOT
BRANCH  12  13
HETATM   13  C15 UNL     1     -21.524   0.718  -5.778  1.00  0.00     0.014 C 
BRANCH  13  14
HETATM   14  C16 UNL     1     -20.660   1.383  -6.773  1.00  0.00     0.034 C 
BRANCH  14  15
HETATM   15  C17 UNL     1     -20.597   0.805  -8.118  1.00  0.00    -0.086 C 
HETATM   16  C18 UNL     1     -19.823  -0.431  -8.394  1.00  0.00     0.043 C 
HETATM   17  C19 UNL     1     -21.219   1.312  -9.202  1.00  0.00     0.001 C 
BRANCH  17  18
HETATM   18  C20 UNL     1     -22.038   2.515  -9.159  1.00  0.00     0.191 C 
BRANCH  18  19
HETATM   19  O3  UNL     1     -21.594   3.364 -10.217  1.00  0.00    -0.397 OA
ATOM     20  H3  UNL     1     -22.263   3.345 -10.890  1.00  0.00     0.209 HD
ENDBRANCH  18  19
ENDBRANCH  17  18
ENDBRANCH  14  15
ENDBRANCH  13  14
ENDBRANCH  12  13
BRANCH  10  21
HETATM   21  O1  UNL     1     -24.596   0.700  -1.364  1.00  0.00    -0.388 OA
ATOM     22  H1  UNL     1     -24.177  -0.024  -0.915  1.00  0.00     0.210 HD
ENDBRANCH  10  21
BRANCH  10  23
HETATM   23  C11 UNL     1     -23.445   2.525  -0.405  1.00  0.00     0.204 C 
BRANCH  23  24
HETATM   24  O2  UNL     1     -24.589   2.843   0.240  1.00  0.00    -0.393 OA
HETATM   25  C12 UNL     1     -24.778   2.514   1.534  1.00  0.00     0.201 C 
ENDBRANCH  23  24
ENDBRANCH  10  23
TORSDOF 8
ENDMDL
MODEL 3
REMARK VINA RESULT: -6.826106804      1.634      5.975
REMARK  8 active torsions:
REMARK  status: ('A' for Active; 'I' for Inactive)
REMARK    1  A    between atoms: C10_10  and  O1_11 
REMARK    2  A    between atoms: C10_10  and  C11_13 
REMARK    3  A    between atoms: C11_13  and  O2_14 
REMARK    4  A    between atoms: C14_17  and  C15_18 
REMARK    5  A    between atoms: C15_18  and  C16_19 
REMARK    6  A    between atoms: C16_19  and  C17_20 
REMARK    7  A    between atoms: C19_22  and  C20_23 
REMARK    8  A    between atoms: C20_23  and  O3_24 
ROOT
HETATM    1  C1  UNL     1     -20.141   2.230  -5.255  1.00  0.00     0.015 C 
HETATM    2  C2  UNL     1     -21.104   1.472  -4.834  1.00  0.00    -0.081 C 
HETATM    3  C3  UNL     1     -21.907   0.709  -5.860  1.00  0.00     0.010 C 
HETATM    4  C4  UNL     1     -21.421   1.050  -7.261  1.00  0.00     0.015 C 
HETATM    5  C5  UNL     1     -21.591  -0.746  -5.608  1.00  0.00     0.009 C 
HETATM    6  C6  UNL     1     -21.966  -1.101  -4.212  1.00  0.00     0.011 C 
HETATM    7  C7  UNL     1     -21.274  -0.276  -3.143  1.00  0.00    -0.030 C 
HETATM    8  C8  UNL     1     -21.678  -0.742  -1.807  1.00  0.00     0.013 C 
HETATM    9  C9  UNL     1     -20.395  -1.047  -1.024  1.00  0.00     0.041 C 
HETATM   10  C10 UNL     1     -19.492  -1.540  -2.133  1.00  0.00     0.080 C 
HETATM   11  C13 UNL     1     -19.766  -0.505  -3.216  1.00  0.00     0.050 C 
HETATM   12  C14 UNL     1     -21.524   1.213  -3.415  1.00  0.00     0.023 C 
ENDROOT
BRANCH  12  13
HETATM   13  C15 UNL     1     -22.926   1.597  -3.220  1.00  0.00     0.014 C 
BRANCH  13  14
HETATM   14  C16 UNL     1     -23.315   2.622  -2.232  1.00  0.00     0.034 C 
BRANCH  14  15
HETATM   15  C17 UNL     1     -23.609   2.178  -0.867  1.00  0.00    -0.086 C 
HETATM   16  C18 UNL     1     -22.551   2.121   0.173  1.00  0.00     0.043 C 
HETATM   17  C19 UNL     1     -24.826   1.799  -0.427  1.00  0.00     0.001 C 
BRANCH  17  18
HETATM   18  C20 UNL     1     -26.009   1.785  -1.275  1.00  0.00     0.191 C 
BRANCH  18  19
HETATM   19  O3  UNL     1     -27.000   1.009  -0.602  1.00  0.00    -0.397 OA
ATOM     20  H3  UNL     1     -27.816   1.128  -1.073  1.00  0.00     0.209 HD
ENDBRANCH  18  19
ENDBRANCH  17  18
ENDBRANCH  14  15
ENDBRANCH  13  14
ENDBRANCH  12  13
BRANCH  10  21
HETATM   21  O1  UNL     1     -19.908  -2.794  -2.489  1.00  0.00    -0.388 OA
ATOM     22  H1  UNL     1     -19.776  -2.891  -3.425  1.00  0.00     0.210 HD
ENDBRANCH  10  21
BRANCH  10  23
HETATM   23  C11 UNL     1     -18.054  -1.545  -1.730  1.00  0.00     0.204 C 
BRANCH  23  24
HETATM   24  O2  UNL     1     -17.772  -2.382  -0.707  1.00  0.00    -0.393 OA
HETATM   25  C12 UNL     1     -16.539  -2.433  -0.164  1.00  0.00     0.201 C 
ENDBRANCH  23  24
ENDBRANCH  10  23
TORSDOF 8
ENDMDL
MODEL 4
REMARK VINA RESULT: -6.795366589      2.669      6.169
REMARK  8 active torsions:
REMARK  status: ('A' for Active; 'I' for Inactive)
REMARK    1  A    between atoms: C10_10  and  O1_11 
REMARK    2  A    between atoms: C10_10  and  C11_13 
REMARK    3  A    between atoms: C11_13  and  O2_14 
REMARK    4  A    between atoms: C14_17  and  C15_18 
REMARK    5  A    between atoms: C15_18  and  C16_19 
REMARK    6  A    between atoms: C16_19  and  C17_20 
REMARK    7  A    between atoms: C19_22  and  C20_23 
REMARK    8  A    between atoms: C20_23  and  O3_24 
ROOT
HETATM    1  C1  UNL     1     -24.341  -0.379  -3.220  1.00  0.00     0.015 C 
HETATM    2  C2  UNL     1     -23.254  -0.025  -3.830  1.00  0.00    -0.081 C 
HETATM    3  C3  UNL     1     -22.970   1.451  -3.974  1.00  0.00     0.010 C 
HETATM    4  C4  UNL     1     -24.114   2.263  -3.383  1.00  0.00     0.015 C 
HETATM    5  C5  UNL     1     -21.745   1.704  -3.127  1.00  0.00     0.009 C 
HETATM    6  C6  UNL     1     -20.622   0.857  -3.614  1.00  0.00     0.011 C 
HETATM    7  C7  UNL     1     -20.904  -0.634  -3.603  1.00  0.00    -0.030 C 
HETATM    8  C8  UNL     1     -19.715  -1.375  -4.054  1.00  0.00     0.013 C 
HETATM    9  C9  UNL     1     -19.392  -2.416  -2.975  1.00  0.00     0.041 C 
HETATM   10  C10 UNL     1     -19.818  -1.678  -1.725  1.00  0.00     0.080 C 
HETATM   11  C13 UNL     1     -21.153  -1.097  -2.169  1.00  0.00     0.050 C 
HETATM   12  C14 UNL     1     -22.184  -0.910  -4.402  1.00  0.00     0.023 C 
ENDROOT
BRANCH  12  13
HETATM   13  C15 UNL     1     -22.022  -0.653  -5.837  1.00  0.00     0.014 C 
BRANCH  13  14
HETATM   14  C16 UNL     1     -22.853  -1.343  -6.843  1.00  0.00     0.034 C 
BRANCH  14  15
HETATM   15  C17 UNL     1     -22.891  -0.782  -8.197  1.00  0.00    -0.086 C 
HETATM   16  C18 UNL     1     -23.647   0.459  -8.499  1.00  0.00     0.043 C 
HETATM   17  C19 UNL     1     -22.261  -1.310  -9.265  1.00  0.00     0.001 C 
BRANCH  17  18
HETATM   18  C20 UNL     1     -21.456  -2.522  -9.195  1.00  0.00     0.191 C 
BRANCH  18  19
HETATM   19  O3  UNL     1     -21.903  -3.384 -10.242  1.00  0.00    -0.397 OA
ATOM     20  H3  UNL     1     -21.129  -3.707 -10.687  1.00  0.00     0.209 HD
ENDBRANCH  18  19
ENDBRANCH  17  18
ENDBRANCH  14  15
ENDBRANCH  13  14
ENDBRANCH  12  13
BRANCH  10  21
HETATM   21  O1  UNL     1     -18.885  -0.710  -1.470  1.00  0.00    -0.388 OA
ATOM     22  H1  UNL     1     -19.135  -0.267  -0.667  1.00  0.00     0.210 HD
ENDBRANCH  10  21
BRANCH  10  23
HETATM   23  C11 UNL     1     -19.978  -2.592  -0.555  1.00  0.00     0.204 C 
BRANCH  23  24
HETATM   24  O2  UNL     1     -18.912  -2.614   0.275  1.00  0.00    -0.393 OA
HETATM   25  C12 UNL     1     -19.040  -2.328   1.586  1.00  0.00     0.201 C 
ENDBRANCH  23  24
ENDBRANCH  10  23
TORSDOF 8
ENDMDL
MODEL 5
REMARK VINA RESULT: -6.760322146      2.568      4.866
REMARK  8 active torsions:
REMARK  status: ('A' for Active; 'I' for Inactive)
REMARK    1  A    between atoms: C10_10  and  O1_11 
REMARK    2  A    between atoms: C10_10  and  C11_13 
REMARK    3  A    between atoms: C11_13  and  O2_14 
REMARK    4  A    between atoms: C14_17  and  C15_18 
REMARK    5  A    between atoms: C15_18  and  C16_19 
REMARK    6  A    between atoms: C16_19  and  C17_20 
REMARK    7  A    between atoms: C19_22  and  C20_23 
REMARK    8  A    between atoms: C20_23  and  O3_24 
ROOT
HETATM    1  C1  UNL     1     -21.809   2.012  -3.464  1.00  0.00     0.015 C 
HETATM    2  C2  UNL     1     -21.735   0.741  -3.708  1.00  0.00    -0.081 C 
HETATM    3  C3  UNL     1     -22.633  -0.185  -2.924  1.00  0.00     0.010 C 
HETATM    4  C4  UNL     1     -23.448   0.609  -1.914  1.00  0.00     0.015 C 
HETATM    5  C5  UNL     1     -23.594  -0.759  -3.938  1.00  0.00     0.009 C 
HETATM    6  C6  UNL     1     -22.830  -1.469  -5.000  1.00  0.00     0.011 C 
HETATM    7  C7  UNL     1     -21.824  -0.606  -5.738  1.00  0.00    -0.030 C 
HETATM    8  C8  UNL     1     -21.164  -1.392  -6.793  1.00  0.00     0.013 C 
HETATM    9  C9  UNL     1     -21.329  -0.618  -8.107  1.00  0.00     0.041 C 
HETATM   10  C10 UNL     1     -22.684   0.021  -7.897  1.00  0.00     0.080 C 
HETATM   11  C13 UNL     1     -22.554   0.522  -6.465  1.00  0.00     0.050 C 
HETATM   12  C14 UNL     1     -20.875   0.043  -4.722  1.00  0.00     0.023 C 
ENDROOT
BRANCH  12  13
HETATM   13  C15 UNL     1     -19.998  -0.930  -4.064  1.00  0.00     0.014 C 
BRANCH  13  14
HETATM   14  C16 UNL     1     -19.320  -0.621  -2.790  1.00  0.00     0.034 C 
BRANCH  14  15
HETATM   15  C17 UNL     1     -19.316  -1.655  -1.751  1.00  0.00    -0.086 C 
HETATM   16  C18 UNL     1     -20.536  -2.436  -1.431  1.00  0.00     0.043 C 
HETATM   17  C19 UNL     1     -18.241  -1.997  -1.012  1.00  0.00     0.001 C 
BRANCH  17  18
HETATM   18  C20 UNL     1     -16.937  -1.365  -1.164  1.00  0.00     0.191 C 
BRANCH  18  19
HETATM   19  O3  UNL     1     -16.493  -1.000   0.142  1.00  0.00    -0.397 OA
ATOM     20  H3  UNL     1     -17.207  -0.535   0.560  1.00  0.00     0.209 HD
ENDBRANCH  18  19
ENDBRANCH  17  18
ENDBRANCH  14  15
ENDBRANCH  13  14
ENDBRANCH  12  13
BRANCH  10  21
HETATM   21  O1  UNL     1     -23.634  -0.955  -8.026  1.00  0.00    -0.388 OA
ATOM     22  H1  UNL     1     -24.307  -0.632  -8.614  1.00  0.00     0.210 HD
ENDBRANCH  10  21
BRANCH  10  23
HETATM   23  C11 UNL     1     -22.934   1.143  -8.850  1.00  0.00     0.204 C 
BRANCH  23  24
HETATM   24  O2  UNL     1     -21.991   2.110  -8.821  1.00  0.00    -0.393 OA
HETATM   25  C12 UNL     1     -21.794   2.928  -9.875  1.00  0.00     0.201 C 
ENDBRANCH  23  24
ENDBRANCH  10  23
TORSDOF 8
ENDMDL
