MODEL 1
REMARK VINA RESULT: -5.927374641      0.000      0.000
REMARK  8 active torsions:
REMARK  status: ('A' for Active; 'I' for Inactive)
REMARK    1  A    between atoms: C5_5  and  C6_6 
REMARK    2  A    between atoms: C6_6  and  O1_9 
REMARK    3  A    between atoms: C14_16  and  C15_17 
REMARK    4  A    between atoms: C15_17  and  C16_19 
REMARK    5  A    between atoms: C16_19  and  N1_20 
REMARK    6  A    between atoms: N1_20  and  C17_22 
REMARK    7  A    between atoms: C17_22  and  C18_23 
REMARK    8  A    between atoms: C18_23  and  C19_24 
ROOT
HETATM    1  C1  UNL     1     -20.421   1.615  -6.491  1.00  0.00     0.019 C 
HETATM    2  C2  UNL     1     -20.854   1.018  -5.424  1.00  0.00    -0.064 C 
HETATM    3  C3  UNL     1     -20.200   1.345  -4.128  1.00  0.00     0.038 C 
HETATM    4  C4  UNL     1     -20.585   0.349  -3.094  1.00  0.00     0.013 C 
HETATM    5  C5  UNL     1     -22.067   0.106  -2.980  1.00  0.00     0.032 C 
HETATM    6  C9  UNL     1     -22.792  -0.135  -4.245  1.00  0.00    -0.013 C 
HETATM    7  C10 UNL     1     -24.157   0.510  -4.302  1.00  0.00     0.021 C 
HETATM    8  C11 UNL     1     -23.186  -1.644  -4.283  1.00  0.00     0.014 C 
HETATM    9  C12 UNL     1     -22.981  -2.291  -5.585  1.00  0.00     0.002 C 
HETATM   10  C13 UNL     1     -23.317  -1.513  -6.785  1.00  0.00     0.017 C 
HETATM   11  C14 UNL     1     -22.507  -0.204  -6.790  1.00  0.00     0.087 C 
HETATM   12  C21 UNL     1     -21.929   0.027  -5.454  1.00  0.00    -0.054 C 
ENDROOT
BRANCH  11  13
HETATM   13  C15 UNL     1     -23.303   0.803  -7.477  1.00  0.00     0.152 C 
HETATM   14  O2  UNL     1     -23.769   1.846  -7.166  1.00  0.00    -0.295 OA
BRANCH  13  15
HETATM   15  C16 UNL     1     -23.610   0.424  -8.941  1.00  0.00     0.197 C 
BRANCH  15  16
HETATM   16  N1  UNL     1     -22.921   1.270  -9.820  1.00  0.00    -0.395 N 
ATOM     17  H1  UNL     1     -23.301   2.181 -10.079  1.00  0.00     0.159 HD
BRANCH  16  18
HETATM   18  C17 UNL     1     -21.697   0.827 -10.330  1.00  0.00     0.056 C 
BRANCH  18  19
HETATM   19  C18 UNL     1     -21.408  -0.558 -10.698  1.00  0.00     0.044 C 
BRANCH  19  20
HETATM   20  C19 UNL     1     -20.830  -1.486  -9.682  1.00  0.00     0.001 C 
HETATM   21  C20 UNL     1     -21.632  -2.795  -9.760  1.00  0.00     0.005 C 
ENDBRANCH  19  20
ENDBRANCH  18  19
ENDBRANCH  16  18
ENDBRANCH  15  16
ENDBRANCH  13  15
ENDBRANCH  11  13
BRANCH   5  22
HETATM   22  C6  UNL     1     -22.610   1.029  -1.943  1.00  0.00     0.055 C 
HETATM   23  C7  UNL     1     -21.632   0.930  -0.739  1.00  0.00     0.045 C 
HETATM   24  C8  UNL     1     -22.607   2.483  -2.271  1.00  0.00     0.045 C 
BRANCH  22  25
HETATM   25  O1  UNL     1     -23.825   0.709  -1.399  1.00  0.00    -0.390 OA
ATOM     26  H1  UNL     1     -24.512   0.443  -1.999  1.00  0.00     0.210 HD
ENDBRANCH  22  25
ENDBRANCH   5  22
TORSDOF 8
ENDMDL
MODEL 2
REMARK VINA RESULT: -5.919149803      2.115      3.590
REMARK  8 active torsions:
REMARK  status: ('A' for Active; 'I' for Inactive)
REMARK    1  A    between atoms: C5_5  and  C6_6 
REMARK    2  A    between atoms: C6_6  and  O1_9 
REMARK    3  A    between atoms: C14_16  and  C15_17 
REMARK    4  A    between atoms: C15_17  and  C16_19 
REMARK    5  A    between atoms: C16_19  and  N1_20 
REMARK    6  A    between atoms: N1_20  and  C17_22 
REMARK    7  A    between atoms: C17_22  and  C18_23 
REMARK    8  A    between atoms: C18_23  and  C19_24 
ROOT
HETATM    1  C1  UNL     1     -24.440   0.091  -3.115  1.00  0.00     0.019 C 
HETATM    2  C2  UNL     1     -23.224   0.217  -2.683  1.00  0.00    -0.064 C 
HETATM    3  C3  UNL     1     -23.007   0.257  -1.211  1.00  0.00     0.038 C 
HETATM    4  C4  UNL     1     -21.630   0.729  -0.909  1.00  0.00     0.013 C 
HETATM    5  C5  UNL     1     -20.542   0.009  -1.661  1.00  0.00     0.032 C 
HETATM    6  C9  UNL     1     -20.742  -0.145  -3.118  1.00  0.00    -0.013 C 
HETATM    7  C10 UNL     1     -20.292  -1.481  -3.660  1.00  0.00     0.021 C 
HETATM    8  C11 UNL     1     -19.739   0.809  -3.836  1.00  0.00     0.014 C 
HETATM    9  C12 UNL     1     -20.308   1.545  -4.971  1.00  0.00     0.002 C 
HETATM   10  C13 UNL     1     -21.237   0.819  -5.848  1.00  0.00     0.017 C 
HETATM   11  C14 UNL     1     -22.413   0.279  -5.013  1.00  0.00     0.087 C 
HETATM   12  C21 UNL     1     -22.076   0.346  -3.580  1.00  0.00    -0.054 C 
ENDROOT
BRANCH  11  13
HETATM   13  C15 UNL     1     -22.875  -0.947  -5.646  1.00  0.00     0.152 C 
HETATM   14  O2  UNL     1     -23.211  -2.011  -5.249  1.00  0.00    -0.295 OA
BRANCH  13  15
HETATM   15  C16 UNL     1     -22.940  -0.837  -7.184  1.00  0.00     0.197 C 
BRANCH  15  16
HETATM   16  N1  UNL     1     -22.973  -2.112  -7.765  1.00  0.00    -0.395 N 
ATOM     17  H1  UNL     1     -23.548  -2.855  -7.369  1.00  0.00     0.159 HD
BRANCH  16  18
HETATM   18  C17 UNL     1     -22.191  -2.333  -8.904  1.00  0.00     0.056 C 
BRANCH  18  19
HETATM   19  C18 UNL     1     -21.200  -1.391  -9.421  1.00  0.00     0.044 C 
BRANCH  19  20
HETATM   20  C19 UNL     1     -21.557  -0.497 -10.562  1.00  0.00     0.001 C 
HETATM   21  C20 UNL     1     -21.584   0.940 -10.017  1.00  0.00     0.005 C 
ENDBRANCH  19  20
ENDBRANCH  18  19
ENDBRANCH  16  18
ENDBRANCH  15  16
ENDBRANCH  13  15
ENDBRANCH  11  13
BRANCH   5  22
HETATM   22  C6  UNL     1     -20.073  -1.130  -0.823  1.00  0.00     0.055 C 
HETATM   23  C7  UNL     1     -20.193  -0.645   0.649  1.00  0.00     0.045 C 
HETATM   24  C8  UNL     1     -20.903  -2.368  -0.847  1.00  0.00     0.045 C 
BRANCH  22  25
HETATM   25  O1  UNL     1     -18.756  -1.488  -0.938  1.00  0.00    -0.390 OA
ATOM     26  H1  UNL     1     -18.153  -1.129  -0.298  1.00  0.00     0.210 HD
ENDBRANCH  22  25
ENDBRANCH   5  22
TORSDOF 8
ENDMDL
MODEL 3
REMARK VINA RESULT: -5.884406498      2.055      3.568
REMARK  8 active torsions:
REMARK  status: ('A' for Active; 'I' for Inactive)
REMARK    1  A    between atoms: C5_5  and  C6_6 
REMARK    2  A    between atoms: C6_6  and  O1_9 
REMARK    3  A    between atoms: C14_16  and  C15_17 
REMARK    4  A    between atoms: C15_17  and  C16_19 
REMARK    5  A    between atoms: C16_19  and  N1_20 
REMARK    6  A    between atoms: N1_20  and  C17_22 
REMARK    7  A    between atoms: C17_22  and  C18_23 
REMARK    8  A    between atoms: C18_23  and  C19_24 
ROOT
HETATM    1  C1  UNL     1     -23.071  -1.722  -6.435  1.00  0.00     0.019 C 
HETATM    2  C2  UNL     1     -22.643  -1.107  -5.376  1.00  0.00    -0.064 C 
HETATM    3  C3  UNL     1     -23.286  -1.432  -4.074  1.00  0.00     0.038 C 
HETATM    4  C4  UNL     1     -22.912  -0.419  -3.052  1.00  0.00     0.013 C 
HETATM    5  C5  UNL     1     -21.433  -0.153  -2.946  1.00  0.00     0.032 C 
HETATM    6  C9  UNL     1     -20.718   0.087  -4.218  1.00  0.00    -0.013 C 
HETATM    7  C10 UNL     1     -19.344  -0.537  -4.274  1.00  0.00     0.021 C 
HETATM    8  C11 UNL     1     -20.348   1.602  -4.273  1.00  0.00     0.014 C 
HETATM    9  C12 UNL     1     -20.569   2.232  -5.579  1.00  0.00     0.002 C 
HETATM   10  C13 UNL     1     -20.225   1.448  -6.773  1.00  0.00     0.017 C 
HETATM   11  C14 UNL     1     -21.015   0.126  -6.761  1.00  0.00     0.087 C 
HETATM   12  C21 UNL     1     -21.583  -0.101  -5.421  1.00  0.00    -0.054 C 
ENDROOT
BRANCH  11  13
HETATM   13  C15 UNL     1     -20.206  -0.875  -7.442  1.00  0.00     0.152 C 
HETATM   14  O2  UNL     1     -19.763  -1.931  -7.138  1.00  0.00    -0.295 OA
BRANCH  13  15
HETATM   15  C16 UNL     1     -19.843  -0.469  -8.886  1.00  0.00     0.197 C 
BRANCH  15  16
HETATM   16  N1  UNL     1     -20.547  -1.256  -9.807  1.00  0.00    -0.395 N 
ATOM     17  H1  UNL     1     -20.176  -2.151 -10.125  1.00  0.00     0.159 HD
BRANCH  16  18
HETATM   18  C17 UNL     1     -21.773  -0.774 -10.276  1.00  0.00     0.056 C 
BRANCH  18  19
HETATM   19  C18 UNL     1     -22.053   0.631 -10.566  1.00  0.00     0.044 C 
BRANCH  19  20
HETATM   20  C19 UNL     1     -22.759   1.467  -9.551  1.00  0.00     0.001 C 
HETATM   21  C20 UNL     1     -23.783   0.558  -8.852  1.00  0.00     0.005 C 
ENDBRANCH  19  20
ENDBRANCH  18  19
ENDBRANCH  16  18
ENDBRANCH  15  16
ENDBRANCH  13  15
ENDBRANCH  11  13
BRANCH   5  22
HETATM   22  C6  UNL     1     -20.872  -1.056  -1.903  1.00  0.00     0.055 C 
HETATM   23  C7  UNL     1     -21.826  -0.932  -0.682  1.00  0.00     0.045 C 
HETATM   24  C8  UNL     1     -20.884  -2.516  -2.203  1.00  0.00     0.045 C 
BRANCH  22  25
HETATM   25  O1  UNL     1     -19.645  -0.729  -1.389  1.00  0.00    -0.390 OA
ATOM     26  H1  UNL     1     -18.884  -1.108  -1.812  1.00  0.00     0.210 HD
ENDBRANCH  22  25
ENDBRANCH   5  22
TORSDOF 8
ENDMDL
MODEL 4
REMARK VINA RESULT: -5.881522853      1.613      2.451
REMARK  8 active torsions:
REMARK  status: ('A' for Active; 'I' for Inactive)
REMARK    1  A    between atoms: C5_5  and  C6_6 
REMARK    2  A    between atoms: C6_6  and  O1_9 
REMARK    3  A    between atoms: C14_16  and  C15_17 
REMARK    4  A    between atoms: C15_17  and  C16_19 
REMARK    5  A    between atoms: C16_19  and  N1_20 
REMARK    6  A    between atoms: N1_20  and  C17_22 
REMARK    7  A    between atoms: C17_22  and  C18_23 
REMARK    8  A    between atoms: C18_23  and  C19_24 
ROOT
HETATM    1  C1  UNL     1     -19.084  -0.050  -3.084  1.00  0.00     0.019 C 
HETATM    2  C2  UNL     1     -20.303  -0.179  -2.659  1.00  0.00    -0.064 C 
HETATM    3  C3  UNL     1     -20.529  -0.197  -1.188  1.00  0.00     0.038 C 
HETATM    4  C4  UNL     1     -21.904  -0.676  -0.888  1.00  0.00     0.013 C 
HETATM    5  C5  UNL     1     -22.993   0.023  -1.659  1.00  0.00     0.032 C 
HETATM    6  C9  UNL     1     -22.784   0.155  -3.116  1.00  0.00    -0.013 C 
HETATM    7  C10 UNL     1     -23.241   1.478  -3.683  1.00  0.00     0.021 C 
HETATM    8  C11 UNL     1     -23.774  -0.819  -3.826  1.00  0.00     0.014 C 
HETATM    9  C12 UNL     1     -23.191  -1.568  -4.945  1.00  0.00     0.002 C 
HETATM   10  C13 UNL     1     -22.263  -0.848  -5.827  1.00  0.00     0.017 C 
HETATM   11  C14 UNL     1     -21.097  -0.285  -4.993  1.00  0.00     0.087 C 
HETATM   12  C21 UNL     1     -21.443  -0.332  -3.562  1.00  0.00    -0.054 C 
ENDROOT
BRANCH  11  13
HETATM   13  C15 UNL     1     -20.641   0.935  -5.643  1.00  0.00     0.152 C 
HETATM   14  O2  UNL     1     -20.290   1.999  -5.258  1.00  0.00    -0.295 OA
BRANCH  13  15
HETATM   15  C16 UNL     1     -20.608   0.816  -7.181  1.00  0.00     0.197 C 
BRANCH  15  16
HETATM   16  N1  UNL     1     -20.568   2.087  -7.769  1.00  0.00    -0.395 N 
ATOM     17  H1  UNL     1     -19.995   2.832  -7.374  1.00  0.00     0.159 HD
BRANCH  16  18
HETATM   18  C17 UNL     1     -21.341   2.303  -8.915  1.00  0.00     0.056 C 
BRANCH  18  19
HETATM   19  C18 UNL     1     -22.323   1.355  -9.439  1.00  0.00     0.044 C 
BRANCH  19  20
HETATM   20  C19 UNL     1     -21.971   0.501 -10.612  1.00  0.00     0.001 C 
HETATM   21  C20 UNL     1     -21.783  -0.931 -10.086  1.00  0.00     0.005 C 
ENDBRANCH  19  20
ENDBRANCH  18  19
ENDBRANCH  16  18
ENDBRANCH  15  16
ENDBRANCH  13  15
ENDBRANCH  11  13
BRANCH   5  22
HETATM   22  C6  UNL     1     -23.477   1.171  -0.842  1.00  0.00     0.055 C 
HETATM   23  C7  UNL     1     -23.388   0.701   0.638  1.00  0.00     0.045 C 
HETATM   24  C8  UNL     1     -22.644   2.407  -0.861  1.00  0.00     0.045 C 
BRANCH  22  25
HETATM   25  O1  UNL     1     -24.791   1.530  -0.988  1.00  0.00    -0.390 OA
ATOM     26  H1  UNL     1     -25.025   2.420  -0.750  1.00  0.00     0.210 HD
ENDBRANCH  22  25
ENDBRANCH   5  22
TORSDOF 8
ENDMDL
MODEL 5
REMARK VINA RESULT: -5.834284886      1.783      2.454
REMARK  8 active torsions:
REMARK  status: ('A' for Active; 'I' for Inactive)
REMARK    1  A    between atoms: C5_5  and  C6_6 
REMARK    2  A    between atoms: C6_6  and  O1_9 
REMARK    3  A    between atoms: C14_16  and  C15_17 
REMARK    4  A    between atoms: C15_17  and  C16_19 
REMARK    5  A    between atoms: C16_19  and  N1_20 
REMARK    6  A    between atoms: N1_20  and  C17_22 
REMARK    7  A    between atoms: C17_22  and  C18_23 
REMARK    8  A    between atoms: C18_23  and  C19_24 
ROOT
HETATM    1  C1  UNL     1     -19.147  -0.034  -3.042  1.00  0.00     0.019 C 
HETATM    2  C2  UNL     1     -20.351  -0.159  -2.576  1.00  0.00    -0.064 C 
HETATM    3  C3  UNL     1     -20.524  -0.208  -1.098  1.00  0.00     0.038 C 
HETATM    4  C4  UNL     1     -21.893  -0.677  -0.759  1.00  0.00     0.013 C 
HETATM    5  C5  UNL     1     -23.001   0.052  -1.474  1.00  0.00     0.032 C 
HETATM    6  C9  UNL     1     -22.843   0.215  -2.935  1.00  0.00    -0.013 C 
HETATM    7  C10 UNL     1     -23.303   1.556  -3.455  1.00  0.00     0.021 C 
HETATM    8  C11 UNL     1     -23.871  -0.731  -3.629  1.00  0.00     0.014 C 
HETATM    9  C12 UNL     1     -23.337  -1.461  -4.785  1.00  0.00     0.002 C 
HETATM   10  C13 UNL     1     -22.433  -0.732  -5.684  1.00  0.00     0.017 C 
HETATM   11  C14 UNL     1     -21.230  -0.203  -4.881  1.00  0.00     0.087 C 
HETATM   12  C21 UNL     1     -21.525  -0.277  -3.439  1.00  0.00    -0.054 C 
ENDROOT
BRANCH  11  13
HETATM   13  C15 UNL     1     -20.783   1.027  -5.519  1.00  0.00     0.152 C 
HETATM   14  O2  UNL     1     -20.138   1.956  -5.170  1.00  0.00    -0.295 OA
BRANCH  13  15
HETATM   15  C16 UNL     1     -21.257   1.146  -6.983  1.00  0.00     0.197 C 
BRANCH  15  16
HETATM   16  N1  UNL     1     -20.168   1.385  -7.832  1.00  0.00    -0.395 N 
ATOM     17  H1  UNL     1     -19.705   2.294  -7.851  1.00  0.00     0.159 HD
BRANCH  16  18
HETATM   18  C17 UNL     1     -19.735   0.338  -8.652  1.00  0.00     0.056 C 
BRANCH  18  19
HETATM   19  C18 UNL     1     -20.269  -1.022  -8.606  1.00  0.00     0.044 C 
BRANCH  19  20
HETATM   20  C19 UNL     1     -21.221  -1.476  -9.662  1.00  0.00     0.001 C 
HETATM   21  C20 UNL     1     -22.271  -2.362  -8.971  1.00  0.00     0.005 C 
ENDBRANCH  19  20
ENDBRANCH  18  19
ENDBRANCH  16  18
ENDBRANCH  15  16
ENDBRANCH  13  15
ENDBRANCH  11  13
BRANCH   5  22
HETATM   22  C6  UNL     1     -23.441   1.187  -0.614  1.00  0.00     0.055 C 
HETATM   23  C7  UNL     1     -23.309   0.681   0.850  1.00  0.00     0.045 C 
HETATM   24  C8  UNL     1     -22.590   2.412  -0.633  1.00  0.00     0.045 C 
BRANCH  22  25
HETATM   25  O1  UNL     1     -24.753   1.568  -0.707  1.00  0.00    -0.390 OA
ATOM     26  H1  UNL     1     -25.117   2.048   0.027  1.00  0.00     0.210 HD
ENDBRANCH  22  25
ENDBRANCH   5  22
TORSDOF 8
ENDMDL
