MODEL 1
REMARK VINA RESULT: -6.465394417      0.000      0.000
REMARK  8 active torsions:
REMARK  status: ('A' for Active; 'I' for Inactive)
REMARK    1  A    between atoms: C2_2  and  C3_3 
REMARK    2  A    between atoms: C8_8  and  C9_9 
REMARK    3  A    between atoms: C9_9  and  O1_12 
REMARK    4  A    between atoms: C12_14  and  C13_15 
REMARK    5  A    between atoms: C14_16  and  C15_17 
REMARK    6  A    between atoms: C15_17  and  O2_19 
REMARK    7  A    between atoms: C15_17  and  C17_21 
REMARK    8  A    between atoms: C17_21  and  C18_22 
ROOT
HETATM    1  C3  UNL     1     -20.671  -1.001  -2.052  1.00  0.00     0.043 C 
HETATM    2  C4  UNL     1     -20.821  -1.277  -0.606  1.00  0.00    -0.079 C 
HETATM    3  C5  UNL     1     -20.388  -2.602  -0.047  1.00  0.00     0.044 C 
HETATM    4  C6  UNL     1     -21.343  -0.327   0.156  1.00  0.00    -0.023 C 
HETATM    5  C7  UNL     1     -21.717   0.933  -0.594  1.00  0.00     0.035 C 
HETATM    6  C8  UNL     1     -22.707   0.397  -1.653  1.00  0.00     0.031 C 
HETATM    7  C12 UNL     1     -21.939  -0.410  -2.639  1.00  0.00     0.027 C 
ENDROOT
BRANCH   7   8
HETATM    8  C13 UNL     1     -21.574   0.291  -3.888  1.00  0.00    -0.022 C 
HETATM    9  C14 UNL     1     -21.868  -0.196  -5.070  1.00  0.00     0.007 C 
BRANCH   9  10
HETATM   10  C15 UNL     1     -21.552   0.420  -6.364  1.00  0.00     0.076 C 
HETATM   11  C16 UNL     1     -20.642   1.584  -6.154  1.00  0.00     0.050 C 
BRANCH  10  12
HETATM   12  O2  UNL     1     -22.769   0.941  -6.872  1.00  0.00    -0.386 OA
ATOM     13  H2  UNL     1     -22.597   1.205  -7.768  1.00  0.00     0.211 HD
ENDBRANCH  10  12
BRANCH  10  14
HETATM   14  C17 UNL     1     -21.052  -0.549  -7.402  1.00  0.00     0.087 C 
BRANCH  14  15
HETATM   15  C18 UNL     1     -22.116  -0.921  -8.373  1.00  0.00    -0.014 C 
HETATM   16  C19 UNL     1     -23.121  -1.938  -7.965  1.00  0.00     0.056 C 
HETATM   17  S1  UNL     1     -22.240  -0.358  -9.684  1.00  0.00    -0.090 SA
ENDBRANCH  14  15
ENDBRANCH  10  14
ENDBRANCH   9  10
ENDBRANCH   7   8
BRANCH   1  18
HETATM   18  C2  UNL     1     -20.347  -2.269  -2.794  1.00  0.00    -0.027 C 
HETATM   19  C1  UNL     1     -19.183  -2.372  -3.409  1.00  0.00     0.007 C 
ENDBRANCH   1  18
BRANCH   6  20
HETATM   20  C9  UNL     1     -23.577   1.479  -2.172  1.00  0.00     0.055 C 
HETATM   21  C10 UNL     1     -24.707   0.919  -2.959  1.00  0.00     0.045 C 
HETATM   22  C11 UNL     1     -24.168   2.170  -0.933  1.00  0.00     0.045 C 
BRANCH  20  23
HETATM   23  O1  UNL     1     -22.887   2.488  -2.836  1.00  0.00    -0.390 OA
ATOM     24  H1  UNL     1     -23.032   3.355  -2.476  1.00  0.00     0.210 HD
ENDBRANCH  20  23
ENDBRANCH   6  20
TORSDOF 8
ENDMDL
MODEL 2
REMARK VINA RESULT: -6.446106676      1.769      3.861
REMARK  8 active torsions:
REMARK  status: ('A' for Active; 'I' for Inactive)
REMARK    1  A    between atoms: C2_2  and  C3_3 
REMARK    2  A    between atoms: C8_8  and  C9_9 
REMARK    3  A    between atoms: C9_9  and  O1_12 
REMARK    4  A    between atoms: C12_14  and  C13_15 
REMARK    5  A    between atoms: C14_16  and  C15_17 
REMARK    6  A    between atoms: C15_17  and  O2_19 
REMARK    7  A    between atoms: C15_17  and  C17_21 
REMARK    8  A    between atoms: C17_21  and  C18_22 
ROOT
HETATM    1  C3  UNL     1     -22.853   0.953  -2.101  1.00  0.00     0.043 C 
HETATM    2  C4  UNL     1     -22.710   1.224  -0.654  1.00  0.00    -0.079 C 
HETATM    3  C5  UNL     1     -23.153   2.543  -0.090  1.00  0.00     0.044 C 
HETATM    4  C6  UNL     1     -22.183   0.275   0.107  1.00  0.00    -0.023 C 
HETATM    5  C7  UNL     1     -21.798  -0.980  -0.647  1.00  0.00     0.035 C 
HETATM    6  C8  UNL     1     -20.809  -0.433  -1.702  1.00  0.00     0.031 C 
HETATM    7  C12 UNL     1     -21.580   0.373  -2.687  1.00  0.00     0.027 C 
ENDROOT
BRANCH   7   8
HETATM    8  C13 UNL     1     -21.936  -0.326  -3.939  1.00  0.00    -0.022 C 
HETATM    9  C14 UNL     1     -21.677   0.187  -5.119  1.00  0.00     0.007 C 
BRANCH   9  10
HETATM   10  C15 UNL     1     -21.989  -0.425  -6.416  1.00  0.00     0.076 C 
HETATM   11  C16 UNL     1     -22.873  -1.609  -6.211  1.00  0.00     0.050 C 
BRANCH  10  12
HETATM   12  O2  UNL     1     -20.764  -0.917  -6.935  1.00  0.00    -0.386 OA
ATOM     13  H2  UNL     1     -20.907  -1.074  -7.861  1.00  0.00     0.211 HD
ENDBRANCH  10  12
BRANCH  10  14
HETATM   14  C17 UNL     1     -22.514   0.543  -7.443  1.00  0.00     0.087 C 
BRANCH  14  15
HETATM   15  C18 UNL     1     -21.455   0.967  -8.399  1.00  0.00    -0.014 C 
HETATM   16  C19 UNL     1     -20.493   2.016  -7.968  1.00  0.00     0.056 C 
HETATM   17  S1  UNL     1     -21.298   0.426  -9.715  1.00  0.00    -0.090 SA
ENDBRANCH  14  15
ENDBRANCH  10  14
ENDBRANCH   9  10
ENDBRANCH   7   8
BRANCH   1  18
HETATM   18  C2  UNL     1     -23.183   2.222  -2.839  1.00  0.00    -0.027 C 
HETATM   19  C1  UNL     1     -24.339   2.313  -3.470  1.00  0.00     0.007 C 
ENDBRANCH   1  18
BRANCH   6  20
HETATM   20  C9  UNL     1     -19.930  -1.507  -2.222  1.00  0.00     0.055 C 
HETATM   21  C10 UNL     1     -18.808  -0.937  -3.013  1.00  0.00     0.045 C 
HETATM   22  C11 UNL     1     -19.329  -2.192  -0.984  1.00  0.00     0.045 C 
BRANCH  20  23
HETATM   23  O1  UNL     1     -20.613  -2.523  -2.884  1.00  0.00    -0.390 OA
ATOM     24  H1  UNL     1     -20.976  -3.183  -2.305  1.00  0.00     0.210 HD
ENDBRANCH  20  23
ENDBRANCH   6  20
TORSDOF 8
ENDMDL
MODEL 3
REMARK VINA RESULT: -6.345448762      1.728      3.745
REMARK  8 active torsions:
REMARK  status: ('A' for Active; 'I' for Inactive)
REMARK    1  A    between atoms: C2_2  and  C3_3 
REMARK    2  A    between atoms: C8_8  and  C9_9 
REMARK    3  A    between atoms: C9_9  and  O1_12 
REMARK    4  A    between atoms: C12_14  and  C13_15 
REMARK    5  A    between atoms: C14_16  and  C15_17 
REMARK    6  A    between atoms: C15_17  and  O2_19 
REMARK    7  A    between atoms: C15_17  and  C17_21 
REMARK    8  A    between atoms: C17_21  and  C18_22 
ROOT
HETATM    1  C3  UNL     1     -22.705   0.924  -2.415  1.00  0.00     0.043 C 
HETATM    2  C4  UNL     1     -22.457   1.173  -0.977  1.00  0.00    -0.079 C 
HETATM    3  C5  UNL     1     -22.899   2.465  -0.353  1.00  0.00     0.044 C 
HETATM    4  C6  UNL     1     -21.842   0.229  -0.280  1.00  0.00    -0.023 C 
HETATM    5  C7  UNL     1     -21.476  -0.998  -1.088  1.00  0.00     0.035 C 
HETATM    6  C8  UNL     1     -20.591  -0.398  -2.204  1.00  0.00     0.031 C 
HETATM    7  C12 UNL     1     -21.463   0.399  -3.109  1.00  0.00     0.027 C 
ENDROOT
BRANCH   7   8
HETATM    8  C13 UNL     1     -21.893  -0.288  -4.345  1.00  0.00    -0.022 C 
HETATM    9  C14 UNL     1     -21.722   0.244  -5.531  1.00  0.00     0.007 C 
BRANCH   9  10
HETATM   10  C15 UNL     1     -22.112  -0.355  -6.813  1.00  0.00     0.076 C 
HETATM   11  C16 UNL     1     -22.980   0.596  -7.567  1.00  0.00     0.050 C 
BRANCH  10  12
HETATM   12  O2  UNL     1     -22.915  -1.482  -6.505  1.00  0.00    -0.386 OA
ATOM     13  H2  UNL     1     -23.624  -1.491  -7.137  1.00  0.00     0.211 HD
ENDBRANCH  10  12
BRANCH  10  14
HETATM   14  C17 UNL     1     -20.957  -0.881  -7.624  1.00  0.00     0.087 C 
BRANCH  14  15
HETATM   15  C18 UNL     1     -21.362  -1.214  -9.016  1.00  0.00    -0.014 C 
HETATM   16  C19 UNL     1     -21.246  -0.159 -10.058  1.00  0.00     0.056 C 
HETATM   17  S1  UNL     1     -21.857  -2.494  -9.424  1.00  0.00    -0.090 SA
ENDBRANCH  14  15
ENDBRANCH  10  14
ENDBRANCH   9  10
ENDBRANCH   7   8
BRANCH   1  18
HETATM   18  C2  UNL     1     -23.134   2.194  -3.098  1.00  0.00    -0.027 C 
HETATM   19  C1  UNL     1     -24.382   2.307  -3.512  1.00  0.00     0.007 C 
ENDBRANCH   1  18
BRANCH   6  20
HETATM   20  C9  UNL     1     -19.720  -1.430  -2.814  1.00  0.00     0.055 C 
HETATM   21  C10 UNL     1     -18.463  -1.589  -2.038  1.00  0.00     0.045 C 
HETATM   22  C11 UNL     1     -20.502  -2.750  -2.713  1.00  0.00     0.045 C 
BRANCH  20  23
HETATM   23  O1  UNL     1     -19.510  -1.256  -4.179  1.00  0.00    -0.390 OA
ATOM     24  H1  UNL     1     -20.175  -0.730  -4.606  1.00  0.00     0.210 HD
ENDBRANCH  20  23
ENDBRANCH   6  20
TORSDOF 8
ENDMDL
MODEL 4
REMARK VINA RESULT: -6.340061901      1.324      1.545
REMARK  8 active torsions:
REMARK  status: ('A' for Active; 'I' for Inactive)
REMARK    1  A    between atoms: C2_2  and  C3_3 
REMARK    2  A    between atoms: C8_8  and  C9_9 
REMARK    3  A    between atoms: C9_9  and  O1_12 
REMARK    4  A    between atoms: C12_14  and  C13_15 
REMARK    5  A    between atoms: C14_16  and  C15_17 
REMARK    6  A    between atoms: C15_17  and  O2_19 
REMARK    7  A    between atoms: C15_17  and  C17_21 
REMARK    8  A    between atoms: C17_21  and  C18_22 
ROOT
HETATM    1  C3  UNL     1     -20.792  -0.959  -2.424  1.00  0.00     0.043 C 
HETATM    2  C4  UNL     1     -21.034  -1.196  -0.983  1.00  0.00    -0.079 C 
HETATM    3  C5  UNL     1     -20.605  -2.490  -0.354  1.00  0.00     0.044 C 
HETATM    4  C6  UNL     1     -21.634  -0.240  -0.289  1.00  0.00    -0.023 C 
HETATM    5  C7  UNL     1     -21.990   0.985  -1.102  1.00  0.00     0.035 C 
HETATM    6  C8  UNL     1     -22.888   0.389  -2.210  1.00  0.00     0.031 C 
HETATM    7  C12 UNL     1     -22.032  -0.424  -3.115  1.00  0.00     0.027 C 
ENDROOT
BRANCH   7   8
HETATM    8  C13 UNL     1     -21.600   0.251  -4.357  1.00  0.00    -0.022 C 
HETATM    9  C14 UNL     1     -21.789  -0.285  -5.539  1.00  0.00     0.007 C 
BRANCH   9  10
HETATM   10  C15 UNL     1     -21.400   0.302  -6.827  1.00  0.00     0.076 C 
HETATM   11  C16 UNL     1     -20.505  -0.644  -7.557  1.00  0.00     0.050 C 
BRANCH  10  12
HETATM   12  O2  UNL     1     -20.623   1.450  -6.530  1.00  0.00    -0.386 OA
ATOM     13  H2  UNL     1     -21.144   2.202  -6.785  1.00  0.00     0.211 HD
ENDBRANCH  10  12
BRANCH  10  14
HETATM   14  C17 UNL     1     -22.558   0.790  -7.657  1.00  0.00     0.087 C 
BRANCH  14  15
HETATM   15  C18 UNL     1     -22.135   1.169  -9.032  1.00  0.00    -0.014 C 
HETATM   16  C19 UNL     1     -22.218   0.144 -10.105  1.00  0.00     0.056 C 
HETATM   17  S1  UNL     1     -21.651   2.468  -9.394  1.00  0.00    -0.090 SA
ENDBRANCH  14  15
ENDBRANCH  10  14
ENDBRANCH   9  10
ENDBRANCH   7   8
BRANCH   1  18
HETATM   18  C2  UNL     1     -20.383  -2.239  -3.101  1.00  0.00    -0.027 C 
HETATM   19  C1  UNL     1     -19.148  -2.356  -3.554  1.00  0.00     0.007 C 
ENDBRANCH   1  18
BRANCH   6  20
HETATM   20  C9  UNL     1     -23.750   1.429  -2.821  1.00  0.00     0.055 C 
HETATM   21  C10 UNL     1     -25.026   1.568  -2.071  1.00  0.00     0.045 C 
HETATM   22  C11 UNL     1     -22.977   2.750  -2.679  1.00  0.00     0.045 C 
BRANCH  20  23
HETATM   23  O1  UNL     1     -23.929   1.277  -4.193  1.00  0.00    -0.390 OA
ATOM     24  H1  UNL     1     -24.503   1.926  -4.581  1.00  0.00     0.210 HD
ENDBRANCH  20  23
ENDBRANCH   6  20
TORSDOF 8
ENDMDL
MODEL 5
REMARK VINA RESULT: -6.146762930      1.181      1.900
REMARK  8 active torsions:
REMARK  status: ('A' for Active; 'I' for Inactive)
REMARK    1  A    between atoms: C2_2  and  C3_3 
REMARK    2  A    between atoms: C8_8  and  C9_9 
REMARK    3  A    between atoms: C9_9  and  O1_12 
REMARK    4  A    between atoms: C12_14  and  C13_15 
REMARK    5  A    between atoms: C14_16  and  C15_17 
REMARK    6  A    between atoms: C15_17  and  O2_19 
REMARK    7  A    between atoms: C15_17  and  C17_21 
REMARK    8  A    between atoms: C17_21  and  C18_22 
ROOT
HETATM    1  C3  UNL     1     -20.711  -0.979  -2.148  1.00  0.00     0.043 C 
HETATM    2  C4  UNL     1     -20.661  -0.962  -0.669  1.00  0.00    -0.079 C 
HETATM    3  C5  UNL     1     -20.002  -2.089   0.072  1.00  0.00     0.044 C 
HETATM    4  C6  UNL     1     -21.212   0.068  -0.041  1.00  0.00    -0.023 C 
HETATM    5  C7  UNL     1     -21.826   1.099  -0.963  1.00  0.00     0.035 C 
HETATM    6  C8  UNL     1     -22.851   0.256  -1.755  1.00  0.00     0.031 C 
HETATM    7  C12 UNL     1     -22.102  -0.656  -2.661  1.00  0.00     0.027 C 
ENDROOT
BRANCH   7   8
HETATM    8  C13 UNL     1     -21.972  -0.197  -4.059  1.00  0.00    -0.022 C 
HETATM    9  C14 UNL     1     -22.232  -0.984  -5.076  1.00  0.00     0.007 C 
BRANCH   9  10
HETATM   10  C15 UNL     1     -22.135  -0.625  -6.496  1.00  0.00     0.076 C 
HETATM   11  C16 UNL     1     -22.966  -1.562  -7.307  1.00  0.00     0.050 C 
BRANCH  10  12
HETATM   12  O2  UNL     1     -20.787  -0.842  -6.876  1.00  0.00    -0.386 OA
ATOM     13  H2  UNL     1     -20.252  -0.333  -6.279  1.00  0.00     0.211 HD
ENDBRANCH  10  12
BRANCH  10  14
HETATM   14  C17 UNL     1     -22.417   0.826  -6.784  1.00  0.00     0.087 C 
BRANCH  14  15
HETATM   15  C18 UNL     1     -21.593   1.338  -7.912  1.00  0.00    -0.014 C 
HETATM   16  C19 UNL     1     -20.288   1.980  -7.600  1.00  0.00     0.056 C 
HETATM   17  S1  UNL     1     -21.973   1.250  -9.290  1.00  0.00    -0.090 SA
ENDBRANCH  14  15
ENDBRANCH  10  14
ENDBRANCH   9  10
ENDBRANCH   7   8
BRANCH   1  18
HETATM   18  C2  UNL     1     -20.313  -2.334  -2.667  1.00  0.00    -0.027 C 
HETATM   19  C1  UNL     1     -19.202  -2.448  -3.372  1.00  0.00     0.007 C 
ENDBRANCH   1  18
BRANCH   6  20
HETATM   20  C9  UNL     1     -23.906   1.110  -2.350  1.00  0.00     0.055 C 
HETATM   21  C10 UNL     1     -24.811   1.645  -1.299  1.00  0.00     0.045 C 
HETATM   22  C11 UNL     1     -23.170   2.302  -2.984  1.00  0.00     0.045 C 
BRANCH  20  23
HETATM   23  O1  UNL     1     -24.580   0.515  -3.412  1.00  0.00    -0.390 OA
ATOM     24  H1  UNL     1     -25.479   0.280  -3.213  1.00  0.00     0.210 HD
ENDBRANCH  20  23
ENDBRANCH   6  20
TORSDOF 8
ENDMDL
