MODEL 1
REMARK VINA RESULT: -7.582261254      0.000      0.000
REMARK  9 active torsions:
REMARK  status: ('A' for Active; 'I' for Inactive)
REMARK    1  A    between atoms: C2_2  and  C3_3 
REMARK    2  A    between atoms: C3_3  and  C4_4 
REMARK    3  A    between atoms: C3_3  and  C6_6 
REMARK    4  A    between atoms: C6_6  and  C7_7 
REMARK    5  A    between atoms: C6_6  and  C9_11 
REMARK    6  A    between atoms: C7_7  and  C8_8 
REMARK    7  A    between atoms: C8_8  and  O1_9 
REMARK    8  A    between atoms: C22_25  and  C24_27 
REMARK    9  A    between atoms: C24_27  and  O3_28 
ROOT
HETATM    1  C9  UNL     1      21.900  -0.837 -27.585  1.00  0.00    -0.006 C 
HETATM    2  C10 UNL     1      22.844  -1.987 -27.614  1.00  0.00     0.006 C 
HETATM    3  C11 UNL     1      22.945  -2.457 -26.143  1.00  0.00     0.006 C 
HETATM    4  C12 UNL     1      22.775  -1.111 -25.472  1.00  0.00    -0.005 C 
HETATM    5  C13 UNL     1      21.484  -0.656 -26.184  1.00  0.00    -0.006 C 
HETATM    6  C14 UNL     1      21.333   0.798 -25.776  1.00  0.00     0.006 C 
HETATM    7  C15 UNL     1      21.938   1.185 -24.499  1.00  0.00     0.011 C 
HETATM    8  C16 UNL     1      22.183   0.152 -23.445  1.00  0.00    -0.024 C 
HETATM    9  C17 UNL     1      23.498   0.678 -22.781  1.00  0.00     0.017 C 
HETATM   10  C18 UNL     1      22.584  -1.190 -23.984  1.00  0.00    -0.000 C 
HETATM   11  C19 UNL     1      21.698  -2.322 -23.650  1.00  0.00     0.013 C 
HETATM   12  C20 UNL     1      21.637  -2.438 -22.126  1.00  0.00     0.079 C 
HETATM   13  C21 UNL     1      21.059  -1.185 -21.655  1.00  0.00     0.138 C 
HETATM   14  O2  UNL     1      20.380  -1.186 -20.633  1.00  0.00    -0.297 OA
HETATM   15  C22 UNL     1      21.216   0.151 -22.319  1.00  0.00     0.045 C 
HETATM   16  C23 UNL     1      21.682   1.049 -21.146  1.00  0.00     0.026 C 
ENDROOT
BRANCH   1  17
HETATM   17  C6  UNL     1      20.965  -0.665 -28.691  1.00  0.00    -0.004 C 
BRANCH  17  18
HETATM   18  C3  UNL     1      21.443   0.283 -29.775  1.00  0.00    -0.011 C 
BRANCH  18  19
HETATM   19  C2  UNL     1      21.652  -0.434 -31.092  1.00  0.00     0.000 C 
HETATM   20  C1  UNL     1      21.026   0.397 -32.236  1.00  0.00     0.005 C 
ENDBRANCH  18  19
BRANCH  18  21
HETATM   21  C4  UNL     1      22.739   0.915 -29.314  1.00  0.00     0.000 C 
HETATM   22  C5  UNL     1      22.720   2.407 -29.346  1.00  0.00     0.005 C 
ENDBRANCH  18  21
ENDBRANCH  17  18
BRANCH  17  23
HETATM   23  C7  UNL     1      20.392  -1.847 -29.385  1.00  0.00     0.031 C 
BRANCH  23  24
HETATM   24  C8  UNL     1      18.952  -2.184 -29.087  1.00  0.00     0.164 C 
BRANCH  24  25
HETATM   25  O1  UNL     1      18.088  -1.436 -29.914  1.00  0.00    -0.401 OA
ATOM     26  H1  UNL     1      17.514  -2.014 -30.404  1.00  0.00     0.209 HD
ENDBRANCH  24  25
ENDBRANCH  23  24
ENDBRANCH  17  23
ENDBRANCH   1  17
BRANCH  15  27
HETATM   27  C24 UNL     1      19.829   0.630 -22.574  1.00  0.00     0.181 C 
BRANCH  27  28
HETATM   28  O3  UNL     1      19.025  -0.200 -23.332  1.00  0.00    -0.400 OA
ATOM     29  H3  UNL     1      18.519   0.218 -24.019  1.00  0.00     0.209 HD
ENDBRANCH  27  28
ENDBRANCH  15  27
TORSDOF 9
ENDMDL
MODEL 2
REMARK VINA RESULT: -7.570768138      2.123      3.735
REMARK  9 active torsions:
REMARK  status: ('A' for Active; 'I' for Inactive)
REMARK    1  A    between atoms: C2_2  and  C3_3 
REMARK    2  A    between atoms: C3_3  and  C4_4 
REMARK    3  A    between atoms: C3_3  and  C6_6 
REMARK    4  A    between atoms: C6_6  and  C7_7 
REMARK    5  A    between atoms: C6_6  and  C9_11 
REMARK    6  A    between atoms: C7_7  and  C8_8 
REMARK    7  A    between atoms: C8_8  and  O1_9 
REMARK    8  A    between atoms: C22_25  and  C24_27 
REMARK    9  A    between atoms: C24_27  and  O3_28 
ROOT
HETATM    1  C9  UNL     1      20.801   0.893 -27.566  1.00  0.00    -0.006 C 
HETATM    2  C10 UNL     1      19.870   2.054 -27.573  1.00  0.00     0.006 C 
HETATM    3  C11 UNL     1      19.796   2.515 -26.097  1.00  0.00     0.006 C 
HETATM    4  C12 UNL     1      19.961   1.162 -25.437  1.00  0.00    -0.005 C 
HETATM    5  C13 UNL     1      21.236   0.697 -26.171  1.00  0.00    -0.006 C 
HETATM    6  C14 UNL     1      21.376  -0.760 -25.775  1.00  0.00     0.006 C 
HETATM    7  C15 UNL     1      20.786  -1.149 -24.492  1.00  0.00     0.011 C 
HETATM    8  C16 UNL     1      20.568  -0.120 -23.428  1.00  0.00    -0.024 C 
HETATM    9  C17 UNL     1      19.258  -0.635 -22.747  1.00  0.00     0.017 C 
HETATM   10  C18 UNL     1      20.175   1.230 -23.952  1.00  0.00    -0.000 C 
HETATM   11  C19 UNL     1      21.079   2.350 -23.625  1.00  0.00     0.013 C 
HETATM   12  C20 UNL     1      21.164   2.455 -22.101  1.00  0.00     0.079 C 
HETATM   13  C21 UNL     1      21.734   1.193 -21.647  1.00  0.00     0.138 C 
HETATM   14  O2  UNL     1      22.428   1.180 -20.634  1.00  0.00    -0.297 OA
HETATM   15  C22 UNL     1      21.552  -0.137 -22.316  1.00  0.00     0.045 C 
HETATM   16  C23 UNL     1      21.093  -1.037 -21.143  1.00  0.00     0.026 C 
ENDROOT
BRANCH   1  17
HETATM   17  C6  UNL     1      21.717   0.716 -28.686  1.00  0.00    -0.004 C 
BRANCH  17  18
HETATM   18  C3  UNL     1      21.271  -0.315 -29.706  1.00  0.00    -0.011 C 
BRANCH  18  19
HETATM   19  C2  UNL     1      21.060   0.305 -31.071  1.00  0.00     0.000 C 
HETATM   20  C1  UNL     1      21.713  -0.590 -32.149  1.00  0.00     0.005 C 
ENDBRANCH  18  19
BRANCH  18  21
HETATM   21  C4  UNL     1      19.985  -0.942 -29.213  1.00  0.00     0.000 C 
HETATM   22  C5  UNL     1      19.943  -2.425 -29.378  1.00  0.00     0.005 C 
ENDBRANCH  18  21
ENDBRANCH  17  18
BRANCH  17  23
HETATM   23  C7  UNL     1      22.201   1.892 -29.456  1.00  0.00     0.031 C 
BRANCH  23  24
HETATM   24  C8  UNL     1      23.660   2.250 -29.314  1.00  0.00     0.164 C 
BRANCH  24  25
HETATM   25  O1  UNL     1      24.465   1.095 -29.414  1.00  0.00    -0.401 OA
ATOM     26  H1  UNL     1      24.398   0.717 -30.283  1.00  0.00     0.209 HD
ENDBRANCH  24  25
ENDBRANCH  23  24
ENDBRANCH  17  23
ENDBRANCH   1  17
BRANCH  15  27
HETATM   27  C24 UNL     1      22.930  -0.630 -22.595  1.00  0.00     0.181 C 
BRANCH  27  28
HETATM   28  O3  UNL     1      23.730   0.193 -23.364  1.00  0.00    -0.400 OA
ATOM     29  H3  UNL     1      24.510  -0.205 -23.734  1.00  0.00     0.209 HD
ENDBRANCH  27  28
ENDBRANCH  15  27
TORSDOF 9
ENDMDL
MODEL 3
REMARK VINA RESULT: -7.561491595      1.838      3.195
REMARK  9 active torsions:
REMARK  status: ('A' for Active; 'I' for Inactive)
REMARK    1  A    between atoms: C2_2  and  C3_3 
REMARK    2  A    between atoms: C3_3  and  C4_4 
REMARK    3  A    between atoms: C3_3  and  C6_6 
REMARK    4  A    between atoms: C6_6  and  C7_7 
REMARK    5  A    between atoms: C6_6  and  C9_11 
REMARK    6  A    between atoms: C7_7  and  C8_8 
REMARK    7  A    between atoms: C8_8  and  O1_9 
REMARK    8  A    between atoms: C22_25  and  C24_27 
REMARK    9  A    between atoms: C24_27  and  O3_28 
ROOT
HETATM    1  C9  UNL     1      20.595   0.889 -27.628  1.00  0.00    -0.006 C 
HETATM    2  C10 UNL     1      19.673   2.056 -27.583  1.00  0.00     0.006 C 
HETATM    3  C11 UNL     1      19.695   2.525 -26.108  1.00  0.00     0.006 C 
HETATM    4  C12 UNL     1      19.891   1.174 -25.452  1.00  0.00    -0.005 C 
HETATM    5  C13 UNL     1      21.114   0.697 -26.262  1.00  0.00    -0.006 C 
HETATM    6  C14 UNL     1      21.269  -0.759 -25.868  1.00  0.00     0.006 C 
HETATM    7  C15 UNL     1      20.758  -1.139 -24.548  1.00  0.00     0.011 C 
HETATM    8  C16 UNL     1      20.614  -0.103 -23.478  1.00  0.00    -0.024 C 
HETATM    9  C17 UNL     1      19.345  -0.606 -22.715  1.00  0.00     0.017 C 
HETATM   10  C18 UNL     1      20.198   1.247 -23.984  1.00  0.00    -0.000 C 
HETATM   11  C19 UNL     1      21.128   2.362 -23.719  1.00  0.00     0.013 C 
HETATM   12  C20 UNL     1      21.308   2.474 -22.204  1.00  0.00     0.079 C 
HETATM   13  C21 UNL     1      21.897   1.210 -21.780  1.00  0.00     0.138 C 
HETATM   14  O2  UNL     1      22.653   1.197 -20.813  1.00  0.00    -0.297 OA
HETATM   15  C22 UNL     1      21.665  -0.122 -22.430  1.00  0.00     0.045 C 
HETATM   16  C23 UNL     1      21.274  -1.013 -21.226  1.00  0.00     0.026 C 
ENDROOT
BRANCH   1  17
HETATM   17  C6  UNL     1      21.438   0.701 -28.802  1.00  0.00    -0.004 C 
BRANCH  17  18
HETATM   18  C3  UNL     1      22.729   1.500 -28.783  1.00  0.00    -0.011 C 
BRANCH  18  19
HETATM   19  C2  UNL     1      22.638   2.729 -29.662  1.00  0.00     0.000 C 
HETATM   20  C1  UNL     1      22.204   2.313 -31.086  1.00  0.00     0.005 C 
ENDBRANCH  18  19
BRANCH  18  21
HETATM   21  C4  UNL     1      23.849   0.600 -29.259  1.00  0.00     0.000 C 
HETATM   22  C5  UNL     1      25.087   1.340 -29.641  1.00  0.00     0.005 C 
ENDBRANCH  18  21
ENDBRANCH  17  18
BRANCH  17  23
HETATM   23  C7  UNL     1      21.794  -0.666 -29.264  1.00  0.00     0.031 C 
BRANCH  23  24
HETATM   24  C8  UNL     1      20.737  -1.428 -30.024  1.00  0.00     0.164 C 
BRANCH  24  25
HETATM   25  O1  UNL     1      20.247  -2.502 -29.250  1.00  0.00    -0.401 OA
ATOM     26  H1  UNL     1      20.958  -2.926 -28.783  1.00  0.00     0.209 HD
ENDBRANCH  24  25
ENDBRANCH  23  24
ENDBRANCH  17  23
ENDBRANCH   1  17
BRANCH  15  27
HETATM   27  C24 UNL     1      23.019  -0.626 -22.792  1.00  0.00     0.181 C 
BRANCH  27  28
HETATM   28  O3  UNL     1      23.791   0.205 -23.582  1.00  0.00    -0.400 OA
ATOM     29  H3  UNL     1      24.282  -0.214 -24.279  1.00  0.00     0.209 HD
ENDBRANCH  27  28
ENDBRANCH  15  27
TORSDOF 9
ENDMDL
MODEL 4
REMARK VINA RESULT: -7.555274083      2.134      3.759
REMARK  9 active torsions:
REMARK  status: ('A' for Active; 'I' for Inactive)
REMARK    1  A    between atoms: C2_2  and  C3_3 
REMARK    2  A    between atoms: C3_3  and  C4_4 
REMARK    3  A    between atoms: C3_3  and  C6_6 
REMARK    4  A    between atoms: C6_6  and  C7_7 
REMARK    5  A    between atoms: C6_6  and  C9_11 
REMARK    6  A    between atoms: C7_7  and  C8_8 
REMARK    7  A    between atoms: C8_8  and  O1_9 
REMARK    8  A    between atoms: C22_25  and  C24_27 
REMARK    9  A    between atoms: C24_27  and  O3_28 
ROOT
HETATM    1  C9  UNL     1      20.604   0.797 -27.572  1.00  0.00    -0.006 C 
HETATM    2  C10 UNL     1      19.701   1.980 -27.552  1.00  0.00     0.006 C 
HETATM    3  C11 UNL     1      19.732   2.480 -26.088  1.00  0.00     0.006 C 
HETATM    4  C12 UNL     1      19.907   1.142 -25.403  1.00  0.00    -0.005 C 
HETATM    5  C13 UNL     1      21.122   0.627 -26.203  1.00  0.00    -0.006 C 
HETATM    6  C14 UNL     1      21.254  -0.823 -25.777  1.00  0.00     0.006 C 
HETATM    7  C15 UNL     1      20.738  -1.164 -24.449  1.00  0.00     0.011 C 
HETATM    8  C16 UNL     1      20.613  -0.103 -23.402  1.00  0.00    -0.024 C 
HETATM    9  C17 UNL     1      19.337  -0.568 -22.626  1.00  0.00     0.017 C 
HETATM   10  C18 UNL     1      20.218   1.242 -23.937  1.00  0.00    -0.000 C 
HETATM   11  C19 UNL     1      21.166   2.348 -23.698  1.00  0.00     0.013 C 
HETATM   12  C20 UNL     1      21.350   2.490 -22.186  1.00  0.00     0.079 C 
HETATM   13  C21 UNL     1      21.920   1.226 -21.735  1.00  0.00     0.138 C 
HETATM   14  O2  UNL     1      22.676   1.223 -20.768  1.00  0.00    -0.297 OA
HETATM   15  C22 UNL     1      21.664  -0.115 -22.355  1.00  0.00     0.045 C 
HETATM   16  C23 UNL     1      21.261  -0.974 -21.130  1.00  0.00     0.026 C 
ENDROOT
BRANCH   1  17
HETATM   17  C6  UNL     1      21.442   0.570 -28.743  1.00  0.00    -0.004 C 
BRANCH  17  18
HETATM   18  C3  UNL     1      20.782  -0.245 -29.840  1.00  0.00    -0.011 C 
BRANCH  18  19
HETATM   19  C2  UNL     1      20.529  -1.672 -29.401  1.00  0.00     0.000 C 
HETATM   20  C1  UNL     1      19.009  -1.897 -29.234  1.00  0.00     0.005 C 
ENDBRANCH  18  19
BRANCH  18  21
HETATM   21  C4  UNL     1      21.687  -0.225 -31.054  1.00  0.00     0.000 C 
HETATM   22  C5  UNL     1      21.304  -1.218 -32.100  1.00  0.00     0.005 C 
ENDBRANCH  18  21
ENDBRANCH  17  18
BRANCH  17  23
HETATM   23  C7  UNL     1      22.125   1.707 -29.413  1.00  0.00     0.031 C 
BRANCH  23  24
HETATM   24  C8  UNL     1      23.516   2.046 -28.938  1.00  0.00     0.164 C 
BRANCH  24  25
HETATM   25  O1  UNL     1      24.435   1.058 -29.351  1.00  0.00    -0.401 OA
ATOM     26  H1  UNL     1      24.515   1.053 -30.298  1.00  0.00     0.209 HD
ENDBRANCH  24  25
ENDBRANCH  23  24
ENDBRANCH  17  23
ENDBRANCH   1  17
BRANCH  15  27
HETATM   27  C24 UNL     1      23.010  -0.649 -22.706  1.00  0.00     0.181 C 
BRANCH  27  28
HETATM   28  O3  UNL     1      23.794   0.152 -23.515  1.00  0.00    -0.400 OA
ATOM     29  H3  UNL     1      24.473  -0.289 -24.012  1.00  0.00     0.209 HD
ENDBRANCH  27  28
ENDBRANCH  15  27
TORSDOF 9
ENDMDL
MODEL 5
REMARK VINA RESULT: -7.553264029      1.413      2.341
REMARK  9 active torsions:
REMARK  status: ('A' for Active; 'I' for Inactive)
REMARK    1  A    between atoms: C2_2  and  C3_3 
REMARK    2  A    between atoms: C3_3  and  C4_4 
REMARK    3  A    between atoms: C3_3  and  C6_6 
REMARK    4  A    between atoms: C6_6  and  C7_7 
REMARK    5  A    between atoms: C6_6  and  C9_11 
REMARK    6  A    between atoms: C7_7  and  C8_8 
REMARK    7  A    between atoms: C8_8  and  O1_9 
REMARK    8  A    between atoms: C22_25  and  C24_27 
REMARK    9  A    between atoms: C24_27  and  O3_28 
ROOT
HETATM    1  C9  UNL     1      22.170  -0.908 -27.625  1.00  0.00    -0.006 C 
HETATM    2  C10 UNL     1      23.085  -2.080 -27.579  1.00  0.00     0.006 C 
HETATM    3  C11 UNL     1      23.065  -2.544 -26.103  1.00  0.00     0.006 C 
HETATM    4  C12 UNL     1      22.878  -1.190 -25.451  1.00  0.00    -0.005 C 
HETATM    5  C13 UNL     1      21.655  -0.709 -26.259  1.00  0.00    -0.006 C 
HETATM    6  C14 UNL     1      21.510   0.750 -25.869  1.00  0.00     0.006 C 
HETATM    7  C15 UNL     1      22.027   1.130 -24.552  1.00  0.00     0.011 C 
HETATM    8  C16 UNL     1      22.167   0.097 -23.479  1.00  0.00    -0.024 C 
HETATM    9  C17 UNL     1      23.441   0.595 -22.720  1.00  0.00     0.017 C 
HETATM   10  C18 UNL     1      22.574  -1.257 -23.982  1.00  0.00    -0.000 C 
HETATM   11  C19 UNL     1      21.639  -2.366 -23.711  1.00  0.00     0.013 C 
HETATM   12  C20 UNL     1      21.462  -2.472 -22.195  1.00  0.00     0.079 C 
HETATM   13  C21 UNL     1      20.881  -1.203 -21.773  1.00  0.00     0.138 C 
HETATM   14  O2  UNL     1      20.128  -1.183 -20.804  1.00  0.00    -0.297 OA
HETATM   15  C22 UNL     1      21.120   0.125 -22.428  1.00  0.00     0.045 C 
HETATM   16  C23 UNL     1      21.519   1.018 -21.227  1.00  0.00     0.026 C 
ENDROOT
BRANCH   1  17
HETATM   17  C6  UNL     1      21.325  -0.719 -28.798  1.00  0.00    -0.004 C 
BRANCH  17  18
HETATM   18  C3  UNL     1      20.026  -1.503 -28.769  1.00  0.00    -0.011 C 
BRANCH  18  19
HETATM   19  C2  UNL     1      20.107  -2.750 -29.623  1.00  0.00     0.000 C 
HETATM   20  C1  UNL     1      20.551  -2.367 -31.054  1.00  0.00     0.005 C 
ENDBRANCH  18  19
BRANCH  18  21
HETATM   21  C4  UNL     1      18.917  -0.600 -29.268  1.00  0.00     0.000 C 
HETATM   22  C5  UNL     1      17.673  -1.334 -29.642  1.00  0.00     0.005 C 
ENDBRANCH  18  21
ENDBRANCH  17  18
BRANCH  17  23
HETATM   23  C7  UNL     1      20.982   0.649 -29.268  1.00  0.00     0.031 C 
BRANCH  23  24
HETATM   24  C8  UNL     1      22.052   1.402 -30.020  1.00  0.00     0.164 C 
BRANCH  24  25
HETATM   25  O1  UNL     1      22.471   2.532 -29.285  1.00  0.00    -0.401 OA
ATOM     26  H1  UNL     1      22.170   3.331 -29.702  1.00  0.00     0.209 HD
ENDBRANCH  24  25
ENDBRANCH  23  24
ENDBRANCH  17  23
ENDBRANCH   1  17
BRANCH  15  27
HETATM   27  C24 UNL     1      19.767   0.635 -22.788  1.00  0.00     0.181 C 
BRANCH  27  28
HETATM   28  O3  UNL     1      18.984  -0.199 -23.562  1.00  0.00    -0.400 OA
ATOM     29  H3  UNL     1      18.185  -0.519 -23.160  1.00  0.00     0.209 HD
ENDBRANCH  27  28
ENDBRANCH  15  27
TORSDOF 9
ENDMDL
