MODEL 1
REMARK VINA RESULT: -7.930235094      0.000      0.000
REMARK  9 active torsions:
REMARK  status: ('A' for Active; 'I' for Inactive)
REMARK    1  A    between atoms: C2_2  and  N1_3 
REMARK    2  A    between atoms: N1_3  and  C3_5 
REMARK    3  A    between atoms: C3_5  and  C4_6 
REMARK    4  A    between atoms: C4_6  and  C5_7 
REMARK    5  A    between atoms: C5_7  and  C6_8 
REMARK       I    between atoms: C6_8  and  N2_10 
REMARK    6  A    between atoms: N2_10  and  C7_12 
REMARK    7  A    between atoms: C15_20  and  O2_21 
REMARK    8  A    between atoms: O2_21  and  C16_22 
REMARK    9  A    between atoms: C16_22  and  C17_24 
ROOT
HETATM    1  N1  UNL     1      23.075   0.163 -29.033  1.00  0.00    -0.413 N 
ATOM      2  H1  UNL     1      23.682  -0.180 -28.288  1.00  0.00     0.154 HD
ENDROOT
BRANCH   1   3
HETATM    3  C2  UNL     1      23.333   1.408 -29.707  1.00  0.00     0.022 C 
HETATM    4  C1  UNL     1      22.370   2.476 -29.174  1.00  0.00     0.038 C 
HETATM    5  C13 UNL     1      23.033   1.147 -31.170  1.00  0.00     0.033 C 
HETATM    6  C14 UNL     1      23.739   2.093 -32.091  1.00  0.00     0.035 C 
HETATM    7  C15 UNL     1      25.196   2.274 -31.818  1.00  0.00     0.132 C 
HETATM    8  C21 UNL     1      25.570   1.380 -30.663  1.00  0.00     0.035 C 
HETATM    9  C22 UNL     1      24.726   1.853 -29.469  1.00  0.00     0.033 C 
BRANCH   7  10
HETATM   10  O2  UNL     1      26.015   2.135 -32.934  1.00  0.00    -0.315 OA
BRANCH  10  11
HETATM   11  C16 UNL     1      27.381   2.250 -32.948  1.00  0.00     0.267 C 
HETATM   12  O3  UNL     1      27.898   3.309 -32.522  1.00  0.00    -0.264 OA
BRANCH  11  13
HETATM   13  C17 UNL     1      28.246   1.151 -33.456  1.00  0.00     0.037 C 
HETATM   14  C18 UNL     1      29.515   1.720 -34.055  1.00  0.00     0.025 C 
HETATM   15  C19 UNL     1      27.558   0.359 -34.545  1.00  0.00     0.025 C 
HETATM   16  C20 UNL     1      28.606   0.223 -32.316  1.00  0.00     0.025 C 
ENDBRANCH  11  13
ENDBRANCH  10  11
ENDBRANCH   7  10
ENDBRANCH   1   3
BRANCH   1  17
HETATM   17  C3  UNL     1      21.930  -0.564 -29.459  1.00  0.00     0.115 C 
BRANCH  17  18
HETATM   18  C4  UNL     1      21.421  -1.334 -28.234  1.00  0.00     0.028 C 
BRANCH  18  19
HETATM   19  C5  UNL     1      22.361  -1.337 -27.088  1.00  0.00     0.104 C 
BRANCH  19  20
HETATM   20  C6  UNL     1      22.023  -0.456 -25.961  1.00  0.00     0.217 C 
HETATM   21  O1  UNL     1      21.835   0.800 -26.077  1.00  0.00    -0.274 OA
HETATM   22  N2  UNL     1      21.892  -1.007 -24.652  1.00  0.00    -0.356 N 
ATOM     23  H2  UNL     1      22.032  -2.006 -24.504  1.00  0.00     0.162 HD
BRANCH  22  24
HETATM   24  C7  UNL     1      21.565  -0.159 -23.547  1.00  0.00     0.084 C 
HETATM   25  C8  UNL     1      20.632  -0.880 -22.609  1.00  0.00     0.025 C 
HETATM   26  C9  UNL     1      20.996  -0.737 -21.169  1.00  0.00     0.002 C 
HETATM   27  C10 UNL     1      21.367   0.678 -20.774  1.00  0.00     0.000 C 
HETATM   28  C11 UNL     1      22.387   1.260 -21.732  1.00  0.00     0.002 C 
HETATM   29  C12 UNL     1      22.802   0.230 -22.766  1.00  0.00     0.025 C 
ENDBRANCH  22  24
ENDBRANCH  19  20
ENDBRANCH  18  19
ENDBRANCH  17  18
ENDBRANCH   1  17
TORSDOF 9
ENDMDL
MODEL 2
REMARK VINA RESULT: -7.927658336      1.727      9.855
REMARK  9 active torsions:
REMARK  status: ('A' for Active; 'I' for Inactive)
REMARK    1  A    between atoms: C2_2  and  N1_3 
REMARK    2  A    between atoms: N1_3  and  C3_5 
REMARK    3  A    between atoms: C3_5  and  C4_6 
REMARK    4  A    between atoms: C4_6  and  C5_7 
REMARK    5  A    between atoms: C5_7  and  C6_8 
REMARK       I    between atoms: C6_8  and  N2_10 
REMARK    6  A    between atoms: N2_10  and  C7_12 
REMARK    7  A    between atoms: C15_20  and  O2_21 
REMARK    8  A    between atoms: O2_21  and  C16_22 
REMARK    9  A    between atoms: C16_22  and  C17_24 
ROOT
HETATM    1  N1  UNL     1      22.347   0.276 -29.256  1.00  0.00    -0.413 N 
ATOM      2  H1  UNL     1      23.254  -0.173 -29.384  1.00  0.00     0.154 HD
ENDROOT
BRANCH   1   3
HETATM    3  C2  UNL     1      21.495  -0.046 -28.143  1.00  0.00     0.022 C 
HETATM    4  C1  UNL     1      20.036   0.218 -28.536  1.00  0.00     0.038 C 
HETATM    5  C13 UNL     1      21.896   0.908 -27.034  1.00  0.00     0.033 C 
HETATM    6  C14 UNL     1      21.546   0.401 -25.670  1.00  0.00     0.035 C 
HETATM    7  C15 UNL     1      21.946  -1.011 -25.397  1.00  0.00     0.132 C 
HETATM    8  C21 UNL     1      22.660  -1.540 -26.615  1.00  0.00     0.035 C 
HETATM    9  C22 UNL     1      21.642  -1.471 -27.765  1.00  0.00     0.033 C 
BRANCH   7  10
HETATM   10  O2  UNL     1      22.643  -1.195 -24.206  1.00  0.00    -0.315 OA
BRANCH  10  11
HETATM   11  C16 UNL     1      22.377  -0.569 -23.014  1.00  0.00     0.267 C 
HETATM   12  O3  UNL     1      23.071   0.422 -22.689  1.00  0.00    -0.264 OA
BRANCH  11  13
HETATM   13  C17 UNL     1      21.292  -1.046 -22.116  1.00  0.00     0.037 C 
HETATM   14  C18 UNL     1      21.218  -2.559 -22.144  1.00  0.00     0.025 C 
HETATM   15  C19 UNL     1      19.940  -0.529 -22.553  1.00  0.00     0.025 C 
HETATM   16  C20 UNL     1      21.568  -0.587 -20.701  1.00  0.00     0.025 C 
ENDBRANCH  11  13
ENDBRANCH  10  11
ENDBRANCH   7  10
ENDBRANCH   1   3
BRANCH   1  17
HETATM   17  C3  UNL     1      21.860   1.252 -30.167  1.00  0.00     0.115 C 
BRANCH  17  18
HETATM   18  C4  UNL     1      22.912   2.368 -30.214  1.00  0.00     0.028 C 
BRANCH  18  19
HETATM   19  C5  UNL     1      24.303   1.896 -30.017  1.00  0.00     0.104 C 
BRANCH  19  20
HETATM   20  C6  UNL     1      25.060   1.564 -31.232  1.00  0.00     0.217 C 
HETATM   21  O1  UNL     1      24.515   1.255 -32.342  1.00  0.00    -0.274 OA
HETATM   22  N2  UNL     1      26.486   1.579 -31.198  1.00  0.00    -0.356 N 
ATOM     23  H2  UNL     1      26.972   1.821 -30.335  1.00  0.00     0.162 HD
BRANCH  22  24
HETATM   24  C7  UNL     1      27.234   1.256 -32.374  1.00  0.00     0.084 C 
HETATM   25  C8  UNL     1      27.776   2.517 -32.998  1.00  0.00     0.025 C 
HETATM   26  C9  UNL     1      29.204   2.416 -33.416  1.00  0.00     0.002 C 
HETATM   27  C10 UNL     1      29.536   1.126 -34.138  1.00  0.00     0.000 C 
HETATM   28  C11 UNL     1      29.032  -0.075 -33.365  1.00  0.00     0.002 C 
HETATM   29  C12 UNL     1      28.407   0.356 -32.050  1.00  0.00     0.025 C 
ENDBRANCH  22  24
ENDBRANCH  19  20
ENDBRANCH  18  19
ENDBRANCH  17  18
ENDBRANCH   1  17
TORSDOF 9
ENDMDL
MODEL 3
REMARK VINA RESULT: -7.892774860      5.054      7.886
REMARK  9 active torsions:
REMARK  status: ('A' for Active; 'I' for Inactive)
REMARK    1  A    between atoms: C2_2  and  N1_3 
REMARK    2  A    between atoms: N1_3  and  C3_5 
REMARK    3  A    between atoms: C3_5  and  C4_6 
REMARK    4  A    between atoms: C4_6  and  C5_7 
REMARK    5  A    between atoms: C5_7  and  C6_8 
REMARK       I    between atoms: C6_8  and  N2_10 
REMARK    6  A    between atoms: N2_10  and  C7_12 
REMARK    7  A    between atoms: C15_20  and  O2_21 
REMARK    8  A    between atoms: O2_21  and  C16_22 
REMARK    9  A    between atoms: C16_22  and  C17_24 
ROOT
HETATM    1  N1  UNL     1      19.728  -0.114 -29.008  1.00  0.00    -0.413 N 
ATOM      2  H1  UNL     1      19.105   0.230 -28.277  1.00  0.00     0.154 HD
ENDROOT
BRANCH   1   3
HETATM    3  C2  UNL     1      19.496  -1.369 -29.672  1.00  0.00     0.022 C 
HETATM    4  C1  UNL     1      20.470  -2.417 -29.119  1.00  0.00     0.038 C 
HETATM    5  C13 UNL     1      19.807  -1.118 -31.135  1.00  0.00     0.033 C 
HETATM    6  C14 UNL     1      19.125  -2.084 -32.053  1.00  0.00     0.035 C 
HETATM    7  C15 UNL     1      17.668  -2.286 -31.792  1.00  0.00     0.132 C 
HETATM    8  C21 UNL     1      17.268  -1.385 -30.650  1.00  0.00     0.035 C 
HETATM    9  C22 UNL     1      18.108  -1.833 -29.443  1.00  0.00     0.033 C 
BRANCH   7  10
HETATM   10  O2  UNL     1      16.858  -2.170 -32.918  1.00  0.00    -0.315 OA
BRANCH  10  11
HETATM   11  C16 UNL     1      15.491  -2.284 -32.940  1.00  0.00     0.267 C 
HETATM   12  O3  UNL     1      14.970  -3.331 -32.492  1.00  0.00    -0.264 OA
BRANCH  11  13
HETATM   13  C17 UNL     1      14.633  -1.196 -33.481  1.00  0.00     0.037 C 
HETATM   14  C18 UNL     1      15.409  -0.371 -34.487  1.00  0.00     0.025 C 
HETATM   15  C19 UNL     1      14.177  -0.252 -32.392  1.00  0.00     0.025 C 
HETATM   16  C20 UNL     1      13.422  -1.797 -34.159  1.00  0.00     0.025 C 
ENDBRANCH  11  13
ENDBRANCH  10  11
ENDBRANCH   7  10
ENDBRANCH   1   3
BRANCH   1  17
HETATM   17  C3  UNL     1      20.872   0.622 -29.424  1.00  0.00     0.115 C 
BRANCH  17  18
HETATM   18  C4  UNL     1      21.386   1.365 -28.184  1.00  0.00     0.028 C 
BRANCH  18  19
HETATM   19  C5  UNL     1      20.444   1.360 -27.041  1.00  0.00     0.104 C 
BRANCH  19  20
HETATM   20  C6  UNL     1      20.792   0.490 -25.908  1.00  0.00     0.217 C 
HETATM   21  O1  UNL     1      21.009  -0.761 -26.018  1.00  0.00    -0.274 OA
HETATM   22  N2  UNL     1      20.901   1.049 -24.601  1.00  0.00    -0.356 N 
ATOM     23  H2  UNL     1      20.739   2.046 -24.457  1.00  0.00     0.162 HD
BRANCH  22  24
HETATM   24  C7  UNL     1      21.239   0.213 -23.490  1.00  0.00     0.084 C 
HETATM   25  C8  UNL     1      22.125   0.968 -22.533  1.00  0.00     0.025 C 
HETATM   26  C9  UNL     1      21.738   0.809 -21.101  1.00  0.00     0.002 C 
HETATM   27  C10 UNL     1      21.414  -0.620 -20.714  1.00  0.00     0.000 C 
HETATM   28  C11 UNL     1      20.436  -1.238 -21.691  1.00  0.00     0.002 C 
HETATM   29  C12 UNL     1      20.002  -0.223 -22.734  1.00  0.00     0.025 C 
ENDBRANCH  22  24
ENDBRANCH  19  20
ENDBRANCH  18  19
ENDBRANCH  17  18
ENDBRANCH   1  17
TORSDOF 9
ENDMDL
MODEL 4
REMARK VINA RESULT: -7.890679905      0.622      1.065
REMARK  9 active torsions:
REMARK  status: ('A' for Active; 'I' for Inactive)
REMARK    1  A    between atoms: C2_2  and  N1_3 
REMARK    2  A    between atoms: N1_3  and  C3_5 
REMARK    3  A    between atoms: C3_5  and  C4_6 
REMARK    4  A    between atoms: C4_6  and  C5_7 
REMARK    5  A    between atoms: C5_7  and  C6_8 
REMARK       I    between atoms: C6_8  and  N2_10 
REMARK    6  A    between atoms: N2_10  and  C7_12 
REMARK    7  A    between atoms: C15_20  and  O2_21 
REMARK    8  A    between atoms: O2_21  and  C16_22 
REMARK    9  A    between atoms: C16_22  and  C17_24 
ROOT
HETATM    1  N1  UNL     1      23.274   0.181 -28.957  1.00  0.00    -0.413 N 
ATOM      2  H1  UNL     1      23.984  -0.150 -28.305  1.00  0.00     0.154 HD
ENDROOT
BRANCH   1   3
HETATM    3  C2  UNL     1      23.443   1.398 -29.706  1.00  0.00     0.022 C 
HETATM    4  C1  UNL     1      22.418   2.431 -29.223  1.00  0.00     0.038 C 
HETATM    5  C13 UNL     1      23.145   1.032 -31.148  1.00  0.00     0.033 C 
HETATM    6  C14 UNL     1      23.778   1.966 -32.132  1.00  0.00     0.035 C 
HETATM    7  C15 UNL     1      25.223   2.257 -31.891  1.00  0.00     0.132 C 
HETATM    8  C21 UNL     1      25.667   1.458 -30.692  1.00  0.00     0.035 C 
HETATM    9  C22 UNL     1      24.807   1.945 -29.515  1.00  0.00     0.033 C 
BRANCH   7  10
HETATM   10  O2  UNL     1      26.038   2.105 -33.009  1.00  0.00    -0.315 OA
BRANCH  10  11
HETATM   11  C16 UNL     1      27.403   2.237 -33.033  1.00  0.00     0.267 C 
HETATM   12  O3  UNL     1      27.906   3.327 -32.674  1.00  0.00    -0.264 OA
BRANCH  11  13
HETATM   13  C17 UNL     1      28.280   1.120 -33.474  1.00  0.00     0.037 C 
HETATM   14  C18 UNL     1      27.566   0.271 -34.505  1.00  0.00     0.025 C 
HETATM   15  C19 UNL     1      28.642   0.209 -32.324  1.00  0.00     0.025 C 
HETATM   16  C20 UNL     1      29.547   1.682 -34.083  1.00  0.00     0.025 C 
ENDBRANCH  11  13
ENDBRANCH  10  11
ENDBRANCH   7  10
ENDBRANCH   1   3
BRANCH   1  17
HETATM   17  C3  UNL     1      22.065  -0.535 -29.175  1.00  0.00     0.115 C 
BRANCH  17  18
HETATM   18  C4  UNL     1      21.668  -1.140 -27.822  1.00  0.00     0.028 C 
BRANCH  18  19
HETATM   19  C5  UNL     1      20.424  -0.577 -27.249  1.00  0.00     0.104 C 
BRANCH  19  20
HETATM   20  C6  UNL     1      20.557   0.144 -25.975  1.00  0.00     0.217 C 
HETATM   21  O1  UNL     1      20.426   1.407 -25.861  1.00  0.00    -0.274 OA
HETATM   22  N2  UNL     1      20.850  -0.582 -24.783  1.00  0.00    -0.356 N 
ATOM     23  H2  UNL     1      20.964  -1.595 -24.819  1.00  0.00     0.162 HD
BRANCH  22  24
HETATM   24  C7  UNL     1      20.983   0.109 -23.537  1.00  0.00     0.084 C 
HETATM   25  C8  UNL     1      20.188  -0.600 -22.472  1.00  0.00     0.025 C 
HETATM   26  C9  UNL     1      20.919  -0.762 -21.182  1.00  0.00     0.002 C 
HETATM   27  C10 UNL     1      21.651   0.488 -20.737  1.00  0.00     0.000 C 
HETATM   28  C11 UNL     1      22.497   1.050 -21.862  1.00  0.00     0.002 C 
HETATM   29  C12 UNL     1      22.428   0.156 -23.086  1.00  0.00     0.025 C 
ENDBRANCH  22  24
ENDBRANCH  19  20
ENDBRANCH  18  19
ENDBRANCH  17  18
ENDBRANCH   1  17
TORSDOF 9
ENDMDL
MODEL 5
REMARK VINA RESULT: -7.740181444      4.574      9.659
REMARK  9 active torsions:
REMARK  status: ('A' for Active; 'I' for Inactive)
REMARK    1  A    between atoms: C2_2  and  N1_3 
REMARK    2  A    between atoms: N1_3  and  C3_5 
REMARK    3  A    between atoms: C3_5  and  C4_6 
REMARK    4  A    between atoms: C4_6  and  C5_7 
REMARK    5  A    between atoms: C5_7  and  C6_8 
REMARK       I    between atoms: C6_8  and  N2_10 
REMARK    6  A    between atoms: N2_10  and  C7_12 
REMARK    7  A    between atoms: C15_20  and  O2_21 
REMARK    8  A    between atoms: O2_21  and  C16_22 
REMARK    9  A    between atoms: C16_22  and  C17_24 
ROOT
HETATM    1  N1  UNL     1      20.845  -0.380 -29.641  1.00  0.00    -0.413 N 
ATOM      2  H1  UNL     1      21.033  -0.060 -30.591  1.00  0.00     0.154 HD
ENDROOT
BRANCH   1   3
HETATM    3  C2  UNL     1      21.631   0.067 -28.522  1.00  0.00     0.022 C 
HETATM    4  C1  UNL     1      23.114   0.047 -28.911  1.00  0.00     0.038 C 
HETATM    5  C13 UNL     1      21.387  -0.949 -27.422  1.00  0.00     0.033 C 
HETATM    6  C14 UNL     1      21.646  -0.403 -26.053  1.00  0.00     0.035 C 
HETATM    7  C15 UNL     1      21.021   0.923 -25.771  1.00  0.00     0.132 C 
HETATM    8  C21 UNL     1      20.234   1.338 -26.988  1.00  0.00     0.035 C 
HETATM    9  C22 UNL     1      21.252   1.446 -28.134  1.00  0.00     0.033 C 
BRANCH   7  10
HETATM   10  O2  UNL     1      20.300   0.981 -24.581  1.00  0.00    -0.315 OA
BRANCH  10  11
HETATM   11  C16 UNL     1      20.796   1.354 -23.358  1.00  0.00     0.267 C 
HETATM   12  O3  UNL     1      20.815   2.571 -23.064  1.00  0.00    -0.264 OA
BRANCH  11  13
HETATM   13  C17 UNL     1      21.305   0.345 -22.389  1.00  0.00     0.037 C 
HETATM   14  C18 UNL     1      22.755   0.023 -22.685  1.00  0.00     0.025 C 
HETATM   15  C19 UNL     1      20.535  -0.953 -22.482  1.00  0.00     0.025 C 
HETATM   16  C20 UNL     1      21.194   0.893 -20.984  1.00  0.00     0.025 C 
ENDBRANCH  11  13
ENDBRANCH  10  11
ENDBRANCH   7  10
ENDBRANCH   1   3
BRANCH   1  17
HETATM   17  C3  UNL     1      19.792  -1.292 -29.353  1.00  0.00     0.115 C 
BRANCH  17  18
HETATM   18  C4  UNL     1      20.042  -2.533 -30.219  1.00  0.00     0.028 C 
BRANCH  18  19
HETATM   19  C5  UNL     1      20.090  -2.256 -31.674  1.00  0.00     0.104 C 
BRANCH  19  20
HETATM   20  C6  UNL     1      18.889  -1.650 -32.266  1.00  0.00     0.217 C 
HETATM   21  O1  UNL     1      18.891  -0.533 -32.881  1.00  0.00    -0.274 OA
HETATM   22  N2  UNL     1      17.638  -2.326 -32.163  1.00  0.00    -0.356 N 
ATOM     23  H2  UNL     1      17.581  -3.223 -31.682  1.00  0.00     0.162 HD
BRANCH  22  24
HETATM   24  C7  UNL     1      16.461  -1.745 -32.735  1.00  0.00     0.084 C 
HETATM   25  C8  UNL     1      15.691  -2.795 -33.495  1.00  0.00     0.025 C 
HETATM   26  C9  UNL     1      14.223  -2.770 -33.234  1.00  0.00     0.002 C 
HETATM   27  C10 UNL     1      13.627  -1.377 -33.244  1.00  0.00     0.000 C 
HETATM   28  C11 UNL     1      14.427  -0.438 -32.364  1.00  0.00     0.002 C 
HETATM   29  C12 UNL     1      15.550  -1.182 -31.665  1.00  0.00     0.025 C 
ENDBRANCH  22  24
ENDBRANCH  19  20
ENDBRANCH  18  19
ENDBRANCH  17  18
ENDBRANCH   1  17
TORSDOF 9
ENDMDL
