MODEL 1
REMARK VINA RESULT: -6.593145840      0.000      0.000
REMARK  6 active torsions:
REMARK  status: ('A' for Active; 'I' for Inactive)
REMARK    1  A    between atoms: C2_2  and  C3_3 
REMARK    2  A    between atoms: C7_7  and  N1_8 
REMARK    3  A    between atoms: N1_8  and  C8_11 
REMARK    4  A    between atoms: C8_11  and  C9_12 
REMARK    5  A    between atoms: C9_12  and  C11_14 
REMARK    6  A    between atoms: C9_12  and  S1_20 
ROOT
HETATM    1  C8  UNL     1       0.054  -1.172  -3.693  1.00  0.00     0.261 C 
ENDROOT
BRANCH   1   2
HETATM    2  N1  UNL     1       1.420  -1.599  -3.588  1.00  0.00    -0.069 N 
ATOM      3  H12 UNL     1       2.042  -0.945  -4.063  1.00  0.00     0.277 HD
ATOM      4  H11 UNL     1       1.585  -2.430  -4.155  1.00  0.00     0.277 HD
BRANCH   2   5
HETATM    5  C7  UNL     1       1.845  -1.815  -2.220  1.00  0.00     0.186 C 
HETATM    6  C6  UNL     1       3.209  -1.216  -1.952  1.00  0.00     0.033 C 
HETATM    7  C5  UNL     1       3.784  -1.976  -0.767  1.00  0.00     0.003 C 
HETATM    8  C4  UNL     1       2.694  -2.608   0.071  1.00  0.00     0.008 C 
HETATM    9  C3  UNL     1       1.464  -1.736   0.170  1.00  0.00     0.009 C 
HETATM   10  C17 UNL     1       0.916  -1.313  -1.172  1.00  0.00     0.041 C 
BRANCH   9  11
HETATM   11  C2  UNL     1       1.813  -0.592   1.041  1.00  0.00    -0.032 C 
HETATM   12  C1  UNL     1       0.954   0.374   1.258  1.00  0.00     0.007 C 
ENDBRANCH   9  11
ENDBRANCH   2   5
ENDBRANCH   1   2
BRANCH   1  13
HETATM   13  C9  UNL     1      -0.040   0.122  -4.526  1.00  0.00     0.106 C 
HETATM   14  C10 UNL     1       1.322   0.793  -4.529  1.00  0.00     0.037 C 
BRANCH  13  15
HETATM   15  C11 UNL     1      -1.119   1.007  -3.987  1.00  0.00     0.013 C 
HETATM   16  C12 UNL     1      -0.712   2.162  -3.157  1.00  0.00     0.006 C 
HETATM   17  C13 UNL     1      -0.977   1.913  -1.653  1.00  0.00     0.000 C 
HETATM   18  C14 UNL     1      -2.448   1.795  -1.363  1.00  0.00     0.000 C 
HETATM   19  C15 UNL     1      -3.115   1.340  -2.652  1.00  0.00     0.000 C 
HETATM   20  C16 UNL     1      -2.217   0.248  -3.252  1.00  0.00     0.006 C 
ENDBRANCH  13  15
BRANCH  13  21
HETATM   21  S1  UNL     1      -0.418  -0.289  -6.204  1.00  0.00     0.112 S 
HETATM   22  O1  UNL     1       0.834  -0.590  -7.005  1.00  0.00    -0.594 OA
HETATM   23  O2  UNL     1      -1.113   0.802  -6.939  1.00  0.00    -0.594 OA
HETATM   24  O3  UNL     1      -1.364  -1.682  -6.305  1.00  0.00    -0.594 OA
ENDBRANCH  13  21
ENDBRANCH   1  13
TORSDOF 6
ENDMDL
MODEL 2
REMARK VINA RESULT: -6.547759451      3.693      6.594
REMARK  6 active torsions:
REMARK  status: ('A' for Active; 'I' for Inactive)
REMARK    1  A    between atoms: C2_2  and  C3_3 
REMARK    2  A    between atoms: C7_7  and  N1_8 
REMARK    3  A    between atoms: N1_8  and  C8_11 
REMARK    4  A    between atoms: C8_11  and  C9_12 
REMARK    5  A    between atoms: C9_12  and  C11_14 
REMARK    6  A    between atoms: C9_12  and  S1_20 
ROOT
HETATM    1  C8  UNL     1      -0.687  -0.192  -4.889  1.00  0.00     0.261 C 
ENDROOT
BRANCH   1   2
HETATM    2  N1  UNL     1      -0.750   0.532  -6.126  1.00  0.00    -0.069 N 
ATOM      3  H12 UNL     1      -0.235   1.411  -6.060  1.00  0.00     0.277 HD
ATOM      4  H11 UNL     1      -1.688   0.899  -6.285  1.00  0.00     0.277 HD
BRANCH   2   5
HETATM    5  C7  UNL     1      -0.300  -0.245  -7.263  1.00  0.00     0.186 C 
HETATM    6  C6  UNL     1      -1.443  -0.978  -7.933  1.00  0.00     0.033 C 
HETATM    7  C5  UNL     1      -0.823  -2.156  -8.667  1.00  0.00     0.003 C 
HETATM    8  C4  UNL     1       0.638  -1.912  -8.978  1.00  0.00     0.008 C 
HETATM    9  C3  UNL     1       0.917  -0.473  -9.344  1.00  0.00     0.009 C 
HETATM   10  C17 UNL     1       0.427   0.517  -8.315  1.00  0.00     0.041 C 
BRANCH   9  11
HETATM   11  C2  UNL     1       0.338  -0.247 -10.688  1.00  0.00    -0.032 C 
HETATM   12  C1  UNL     1      -0.477   0.754 -10.909  1.00  0.00     0.007 C 
ENDBRANCH   9  11
ENDBRANCH   2   5
ENDBRANCH   1   2
BRANCH   1  13
HETATM   13  C9  UNL     1       0.057   0.635  -3.822  1.00  0.00     0.106 C 
HETATM   14  C10 UNL     1       0.993   1.601  -4.526  1.00  0.00     0.037 C 
BRANCH  13  15
HETATM   15  C11 UNL     1       0.772  -0.272  -2.871  1.00  0.00     0.013 C 
HETATM   16  C12 UNL     1       2.243  -0.369  -2.985  1.00  0.00     0.006 C 
HETATM   17  C13 UNL     1       2.684  -1.691  -3.656  1.00  0.00     0.000 C 
HETATM   18  C14 UNL     1       2.337  -2.883  -2.809  1.00  0.00     0.000 C 
HETATM   19  C15 UNL     1       1.163  -2.473  -1.932  1.00  0.00     0.000 C 
HETATM   20  C16 UNL     1       0.197  -1.683  -2.829  1.00  0.00     0.006 C 
ENDBRANCH  13  15
BRANCH  13  21
HETATM   21  S1  UNL     1      -1.109   1.612  -2.919  1.00  0.00     0.112 S 
HETATM   22  O1  UNL     1      -2.525   1.406  -3.424  1.00  0.00    -0.594 OA
HETATM   23  O2  UNL     1      -0.857   3.074  -3.014  1.00  0.00    -0.594 OA
HETATM   24  O3  UNL     1      -1.145   1.184  -1.287  1.00  0.00    -0.594 OA
ENDBRANCH  13  21
ENDBRANCH   1  13
TORSDOF 6
ENDMDL
MODEL 3
REMARK VINA RESULT: -6.531365994      3.713      6.590
REMARK  6 active torsions:
REMARK  status: ('A' for Active; 'I' for Inactive)
REMARK    1  A    between atoms: C2_2  and  C3_3 
REMARK    2  A    between atoms: C7_7  and  N1_8 
REMARK    3  A    between atoms: N1_8  and  C8_11 
REMARK    4  A    between atoms: C8_11  and  C9_12 
REMARK    5  A    between atoms: C9_12  and  C11_14 
REMARK    6  A    between atoms: C9_12  and  S1_20 
ROOT
HETATM    1  C8  UNL     1      -0.949   0.198  -5.114  1.00  0.00     0.261 C 
ENDROOT
BRANCH   1   2
HETATM    2  N1  UNL     1      -0.314   0.789  -6.257  1.00  0.00    -0.069 N 
ATOM      3  H12 UNL     1       0.547   1.266  -5.987  1.00  0.00     0.277 HD
ATOM      4  H11 UNL     1      -0.849   1.588  -6.596  1.00  0.00     0.277 HD
BRANCH   2   5
HETATM    5  C7  UNL     1      -0.067  -0.158  -7.325  1.00  0.00     0.186 C 
HETATM    6  C6  UNL     1      -1.354  -0.727  -7.882  1.00  0.00     0.033 C 
HETATM    7  C5  UNL     1      -0.993  -2.061  -8.514  1.00  0.00     0.003 C 
HETATM    8  C4  UNL     1       0.471  -2.119  -8.894  1.00  0.00     0.008 C 
HETATM    9  C3  UNL     1       0.986  -0.795  -9.410  1.00  0.00     0.009 C 
HETATM   10  C17 UNL     1       0.732   0.357  -8.469  1.00  0.00     0.041 C 
BRANCH   9  11
HETATM   11  C2  UNL     1       0.392  -0.592 -10.750  1.00  0.00    -0.032 C 
HETATM   12  C1  UNL     1      -0.237   0.518 -11.045  1.00  0.00     0.007 C 
ENDBRANCH   9  11
ENDBRANCH   2   5
ENDBRANCH   1   2
BRANCH   1  13
HETATM   13  C9  UNL     1      -0.282   0.690  -3.816  1.00  0.00     0.106 C 
HETATM   14  C10 UNL     1       0.834   1.652  -4.181  1.00  0.00     0.037 C 
BRANCH  13  15
HETATM   15  C11 UNL     1       0.200  -0.473  -3.007  1.00  0.00     0.013 C 
HETATM   16  C12 UNL     1       1.471  -0.319  -2.267  1.00  0.00     0.006 C 
HETATM   17  C13 UNL     1       2.636  -1.068  -2.958  1.00  0.00     0.000 C 
HETATM   18  C14 UNL     1       2.421  -2.556  -2.943  1.00  0.00     0.000 C 
HETATM   19  C15 UNL     1       0.920  -2.783  -2.841  1.00  0.00     0.000 C 
HETATM   20  C16 UNL     1       0.255  -1.777  -3.794  1.00  0.00     0.006 C 
ENDBRANCH  13  15
BRANCH  13  21
HETATM   21  S1  UNL     1      -1.459   1.604  -2.862  1.00  0.00     0.112 S 
HETATM   22  O1  UNL     1      -0.857   2.875  -2.294  1.00  0.00    -0.594 OA
HETATM   23  O2  UNL     1      -1.987   0.852  -1.693  1.00  0.00    -0.594 OA
HETATM   24  O3  UNL     1      -2.767   2.105  -3.804  1.00  0.00    -0.594 OA
ENDBRANCH  13  21
ENDBRANCH   1  13
TORSDOF 6
ENDMDL
MODEL 4
REMARK VINA RESULT: -6.521855415      1.663      4.574
REMARK  6 active torsions:
REMARK  status: ('A' for Active; 'I' for Inactive)
REMARK    1  A    between atoms: C2_2  and  C3_3 
REMARK    2  A    between atoms: C7_7  and  N1_8 
REMARK    3  A    between atoms: N1_8  and  C8_11 
REMARK    4  A    between atoms: C8_11  and  C9_12 
REMARK    5  A    between atoms: C9_12  and  C11_14 
REMARK    6  A    between atoms: C9_12  and  S1_20 
ROOT
HETATM    1  C8  UNL     1      -0.167   1.127  -3.942  1.00  0.00     0.261 C 
ENDROOT
BRANCH   1   2
HETATM    2  N1  UNL     1      -1.563   1.383  -3.727  1.00  0.00    -0.069 N 
ATOM      3  H12 UNL     1      -2.131   0.608  -4.070  1.00  0.00     0.277 HD
ATOM      4  H11 UNL     1      -1.896   2.122  -4.346  1.00  0.00     0.277 HD
BRANCH   2   5
HETATM    5  C7  UNL     1      -1.880   1.684  -2.346  1.00  0.00     0.186 C 
HETATM    6  C6  UNL     1      -3.256   1.183  -1.962  1.00  0.00     0.033 C 
HETATM    7  C5  UNL     1      -3.703   2.028  -0.779  1.00  0.00     0.003 C 
HETATM    8  C4  UNL     1      -2.523   2.625  -0.044  1.00  0.00     0.008 C 
HETATM    9  C3  UNL     1      -1.343   1.683   0.015  1.00  0.00     0.009 C 
HETATM   10  C17 UNL     1      -0.914   1.170  -1.338  1.00  0.00     0.041 C 
BRANCH   9  11
HETATM   11  C2  UNL     1      -1.700   0.601   0.960  1.00  0.00    -0.032 C 
HETATM   12  C1  UNL     1      -0.920  -0.441   1.114  1.00  0.00     0.007 C 
ENDBRANCH   9  11
ENDBRANCH   2   5
ENDBRANCH   1   2
BRANCH   1  13
HETATM   13  C9  UNL     1       0.022  -0.183  -4.731  1.00  0.00     0.106 C 
HETATM   14  C10 UNL     1      -1.294  -0.939  -4.733  1.00  0.00     0.037 C 
BRANCH  13  15
HETATM   15  C11 UNL     1       1.146  -0.980  -4.149  1.00  0.00     0.013 C 
HETATM   16  C12 UNL     1       0.803  -2.205  -3.394  1.00  0.00     0.006 C 
HETATM   17  C13 UNL     1       0.937  -1.998  -1.866  1.00  0.00     0.000 C 
HETATM   18  C14 UNL     1       2.365  -1.749  -1.467  1.00  0.00     0.000 C 
HETATM   19  C15 UNL     1       3.070  -1.174  -2.686  1.00  0.00     0.000 C 
HETATM   20  C16 UNL     1       2.109  -0.150  -3.309  1.00  0.00     0.006 C 
ENDBRANCH  13  15
BRANCH  13  21
HETATM   21  S1  UNL     1       0.401   0.199  -6.417  1.00  0.00     0.112 S 
HETATM   22  O1  UNL     1      -0.852   0.469  -7.227  1.00  0.00    -0.594 OA
HETATM   23  O2  UNL     1       1.111  -0.898  -7.128  1.00  0.00    -0.594 OA
HETATM   24  O3  UNL     1       1.331   1.601  -6.542  1.00  0.00    -0.594 OA
ENDBRANCH  13  21
ENDBRANCH   1  13
TORSDOF 6
ENDMDL
MODEL 5
REMARK VINA RESULT: -6.514176324      3.557      6.295
REMARK  6 active torsions:
REMARK  status: ('A' for Active; 'I' for Inactive)
REMARK    1  A    between atoms: C2_2  and  C3_3 
REMARK    2  A    between atoms: C7_7  and  N1_8 
REMARK    3  A    between atoms: N1_8  and  C8_11 
REMARK    4  A    between atoms: C8_11  and  C9_12 
REMARK    5  A    between atoms: C9_12  and  C11_14 
REMARK    6  A    between atoms: C9_12  and  S1_20 
ROOT
HETATM    1  C8  UNL     1       0.679   0.225  -4.862  1.00  0.00     0.261 C 
ENDROOT
BRANCH   1   2
HETATM    2  N1  UNL     1       0.773  -0.501  -6.096  1.00  0.00    -0.069 N 
ATOM      3  H12 UNL     1       0.273  -1.388  -6.035  1.00  0.00     0.277 HD
ATOM      4  H11 UNL     1       1.720  -0.851  -6.240  1.00  0.00     0.277 HD
BRANCH   2   5
HETATM    5  C7  UNL     1       0.326   0.265  -7.242  1.00  0.00     0.186 C 
HETATM    6  C6  UNL     1       1.471   0.987  -7.919  1.00  0.00     0.033 C 
HETATM    7  C5  UNL     1       0.856   2.159  -8.667  1.00  0.00     0.003 C 
HETATM    8  C4  UNL     1      -0.606   1.916  -8.976  1.00  0.00     0.008 C 
HETATM    9  C3  UNL     1      -0.889   0.474  -9.326  1.00  0.00     0.009 C 
HETATM   10  C17 UNL     1      -0.403  -0.505  -8.285  1.00  0.00     0.041 C 
BRANCH   9  11
HETATM   11  C2  UNL     1      -0.311   0.232 -10.667  1.00  0.00    -0.032 C 
HETATM   12  C1  UNL     1       0.481  -0.790 -10.882  1.00  0.00     0.007 C 
ENDBRANCH   9  11
ENDBRANCH   2   5
ENDBRANCH   1   2
BRANCH   1  13
HETATM   13  C9  UNL     1      -0.065  -0.612  -3.804  1.00  0.00     0.106 C 
HETATM   14  C10 UNL     1      -0.994  -1.577  -4.518  1.00  0.00     0.037 C 
BRANCH  13  15
HETATM   15  C11 UNL     1      -0.788   0.285  -2.849  1.00  0.00     0.013 C 
HETATM   16  C12 UNL     1      -2.260   0.377  -2.970  1.00  0.00     0.006 C 
HETATM   17  C13 UNL     1      -2.702   1.704  -3.633  1.00  0.00     0.000 C 
HETATM   18  C14 UNL     1      -2.363   2.890  -2.775  1.00  0.00     0.000 C 
HETATM   19  C15 UNL     1      -1.192   2.478  -1.896  1.00  0.00     0.000 C 
HETATM   20  C16 UNL     1      -0.219   1.698  -2.793  1.00  0.00     0.006 C 
ENDBRANCH  13  15
BRANCH  13  21
HETATM   21  S1  UNL     1       1.102  -1.589  -2.903  1.00  0.00     0.112 S 
HETATM   22  O1  UNL     1       2.525  -1.323  -3.355  1.00  0.00    -0.594 OA
HETATM   23  O2  UNL     1       0.897  -3.053  -3.061  1.00  0.00    -0.594 OA
HETATM   24  O3  UNL     1       1.075  -1.226  -1.255  1.00  0.00    -0.594 OA
ENDBRANCH  13  21
ENDBRANCH   1  13
TORSDOF 6
ENDMDL
