MODEL 1
REMARK VINA RESULT: -7.257531329      0.000      0.000
REMARK  7 active torsions:
REMARK  status: ('A' for Active; 'I' for Inactive)
REMARK    1  A    between atoms: N1_2  and  C2_5 
REMARK    2  A    between atoms: C2_5  and  C3_6 
REMARK    3  A    between atoms: C3_6  and  C4_7 
REMARK    4  A    between atoms: C4_7  and  N2_8 
REMARK    5  A    between atoms: N2_8  and  C5_10 
REMARK    6  A    between atoms: C5_10  and  C6_11 
REMARK    7  A    between atoms: C14_20  and  C15_21 
ROOT
HETATM    1  C6  UNL     1       0.703  -0.414  -0.611  1.00  0.00     0.024 C 
HETATM    2  C7  UNL     1       0.693  -1.877  -0.538  1.00  0.00     0.011 C 
HETATM    3  C8  UNL     1       0.926  -2.548  -1.852  1.00  0.00     0.021 C 
HETATM    4  C9  UNL     1       1.460  -1.674  -2.951  1.00  0.00     0.101 C 
HETATM    5  C10 UNL     1       2.871  -1.415  -2.692  1.00  0.00     0.064 C 
HETATM    6  N3  UNL     1       3.975  -1.216  -2.486  1.00  0.00    -0.197 NA
HETATM    7  C11 UNL     1       0.632  -0.433  -3.141  1.00  0.00    -0.024 C 
HETATM    8  C12 UNL     1       1.444   0.688  -3.690  1.00  0.00     0.011 C 
HETATM    9  C13 UNL     1       0.888   1.196  -5.024  1.00  0.00     0.006 C 
HETATM   10  C14 UNL     1       0.975   0.024  -5.976  1.00  0.00    -0.007 C 
HETATM   11  C19 UNL     1      -0.002  -1.003  -5.519  1.00  0.00     0.006 C 
HETATM   12  C20 UNL     1      -0.484  -0.796  -4.124  1.00  0.00     0.011 C 
HETATM   13  C21 UNL     1      -0.043   0.004  -1.890  1.00  0.00     0.020 C 
ENDROOT
BRANCH   1  14
HETATM   14  C5  UNL     1      -0.013   0.331   0.476  1.00  0.00     0.060 C 
BRANCH  14  15
HETATM   15  N2  UNL     1      -1.113  -0.223   1.135  1.00  0.00    -0.402 N 
ATOM     16  H2  UNL     1      -1.172  -1.225   1.319  1.00  0.00     0.158 HD
BRANCH  15  17
HETATM   17  C4  UNL     1      -2.126   0.649   1.533  1.00  0.00     0.120 C 
BRANCH  17  18
HETATM   18  C3  UNL     1      -2.490   1.659   0.431  1.00  0.00     0.047 C 
BRANCH  18  19
HETATM   19  C2  UNL     1      -3.319   2.784   0.963  1.00  0.00     0.233 C 
BRANCH  19  20
HETATM   20  N1  UNL     1      -4.611   2.891   0.347  1.00  0.00    -0.079 N 
HETATM   21  C1  UNL     1      -4.769   2.010  -0.786  1.00  0.00     0.266 C 
ATOM     22  H12 UNL     1      -4.812   3.857   0.088  1.00  0.00     0.276 HD
ATOM     23  H11 UNL     1      -5.353   2.743   1.030  1.00  0.00     0.276 HD
ENDBRANCH  19  20
ENDBRANCH  18  19
ENDBRANCH  17  18
ENDBRANCH  15  17
ENDBRANCH  14  15
ENDBRANCH   1  14
BRANCH  10  24
HETATM   24  C15 UNL     1       0.784   0.468  -7.389  1.00  0.00    -0.048 C 
HETATM   25  C16 UNL     1      -0.663   0.589  -7.759  1.00  0.00     0.015 C 
HETATM   26  C17 UNL     1       1.441   1.822  -7.553  1.00  0.00     0.015 C 
HETATM   27  C18 UNL     1       1.482  -0.495  -8.320  1.00  0.00     0.015 C 
ENDBRANCH  10  24
TORSDOF 7
ENDMDL
MODEL 2
REMARK VINA RESULT: -7.249427711      2.059      4.964
REMARK  7 active torsions:
REMARK  status: ('A' for Active; 'I' for Inactive)
REMARK    1  A    between atoms: N1_2  and  C2_5 
REMARK    2  A    between atoms: C2_5  and  C3_6 
REMARK    3  A    between atoms: C3_6  and  C4_7 
REMARK    4  A    between atoms: C4_7  and  N2_8 
REMARK    5  A    between atoms: N2_8  and  C5_10 
REMARK    6  A    between atoms: C5_10  and  C6_11 
REMARK    7  A    between atoms: C14_20  and  C15_21 
ROOT
HETATM    1  C6  UNL     1      -0.707   0.383  -0.678  1.00  0.00     0.024 C 
HETATM    2  C7  UNL     1      -0.673   1.847  -0.621  1.00  0.00     0.011 C 
HETATM    3  C8  UNL     1      -0.908   2.506  -1.942  1.00  0.00     0.021 C 
HETATM    4  C9  UNL     1      -1.467   1.629  -3.025  1.00  0.00     0.101 C 
HETATM    5  C10 UNL     1      -2.878   1.395  -2.750  1.00  0.00     0.064 C 
HETATM    6  N3  UNL     1      -3.984   1.217  -2.531  1.00  0.00    -0.197 NA
HETATM    7  C11 UNL     1      -0.661   0.372  -3.208  1.00  0.00    -0.024 C 
HETATM    8  C12 UNL     1      -1.496  -0.742  -3.736  1.00  0.00     0.011 C 
HETATM    9  C13 UNL     1      -0.961  -1.274  -5.070  1.00  0.00     0.006 C 
HETATM   10  C14 UNL     1      -1.038  -0.112  -6.034  1.00  0.00    -0.007 C 
HETATM   11  C19 UNL     1      -0.040   0.904  -5.598  1.00  0.00     0.006 C 
HETATM   12  C20 UNL     1       0.452   0.705  -4.206  1.00  0.00     0.011 C 
HETATM   13  C21 UNL     1       0.020  -0.061  -1.959  1.00  0.00     0.020 C 
ENDROOT
BRANCH   1  14
HETATM   14  C5  UNL     1       0.007  -0.361   0.411  1.00  0.00     0.060 C 
BRANCH  14  15
HETATM   15  N2  UNL     1       1.050   0.226   1.131  1.00  0.00    -0.402 N 
ATOM     16  H2  UNL     1       1.027   1.213   1.388  1.00  0.00     0.158 HD
BRANCH  15  17
HETATM   17  C4  UNL     1       2.124  -0.591   1.483  1.00  0.00     0.120 C 
BRANCH  17  18
HETATM   18  C3  UNL     1       2.422  -1.654   0.411  1.00  0.00     0.047 C 
BRANCH  18  19
HETATM   19  C2  UNL     1       3.240  -2.779   0.960  1.00  0.00     0.233 C 
BRANCH  19  20
HETATM   20  N1  UNL     1       4.554  -2.869   0.391  1.00  0.00    -0.079 N 
HETATM   21  C1  UNL     1       4.696  -2.101  -0.822  1.00  0.00     0.266 C 
ATOM     22  H12 UNL     1       4.819  -3.842   0.239  1.00  0.00     0.276 HD
ATOM     23  H11 UNL     1       5.265  -2.608   1.073  1.00  0.00     0.276 HD
ENDBRANCH  19  20
ENDBRANCH  18  19
ENDBRANCH  17  18
ENDBRANCH  15  17
ENDBRANCH  14  15
ENDBRANCH   1  14
BRANCH  10  24
HETATM   24  C15 UNL     1      -0.868  -0.575  -7.443  1.00  0.00    -0.048 C 
HETATM   25  C16 UNL     1      -1.483  -1.920  -7.682  1.00  0.00     0.015 C 
HETATM   26  C17 UNL     1      -1.533   0.432  -8.358  1.00  0.00     0.015 C 
HETATM   27  C18 UNL     1       0.603  -0.604  -7.790  1.00  0.00     0.015 C 
ENDBRANCH  10  24
TORSDOF 7
ENDMDL
MODEL 3
REMARK VINA RESULT: -7.237102055      2.246      5.362
REMARK  7 active torsions:
REMARK  status: ('A' for Active; 'I' for Inactive)
REMARK    1  A    between atoms: N1_2  and  C2_5 
REMARK    2  A    between atoms: C2_5  and  C3_6 
REMARK    3  A    between atoms: C3_6  and  C4_7 
REMARK    4  A    between atoms: C4_7  and  N2_8 
REMARK    5  A    between atoms: N2_8  and  C5_10 
REMARK    6  A    between atoms: C5_10  and  C6_11 
REMARK    7  A    between atoms: C14_20  and  C15_21 
ROOT
HETATM    1  C6  UNL     1      -0.493   0.251  -0.909  1.00  0.00     0.024 C 
HETATM    2  C7  UNL     1      -0.474   1.714  -0.829  1.00  0.00     0.011 C 
HETATM    3  C8  UNL     1      -0.786   2.391  -2.124  1.00  0.00     0.021 C 
HETATM    4  C9  UNL     1      -1.391   1.524  -3.191  1.00  0.00     0.101 C 
HETATM    5  C10 UNL     1      -2.783   1.268  -2.845  1.00  0.00     0.064 C 
HETATM    6  N3  UNL     1      -3.873   1.072  -2.571  1.00  0.00    -0.197 NA
HETATM    7  C11 UNL     1      -0.581   0.280  -3.438  1.00  0.00    -0.024 C 
HETATM    8  C12 UNL     1      -1.430  -0.835  -3.939  1.00  0.00     0.011 C 
HETATM    9  C13 UNL     1      -0.960  -1.339  -5.308  1.00  0.00     0.006 C 
HETATM   10  C14 UNL     1      -1.102  -0.162  -6.247  1.00  0.00    -0.007 C 
HETATM   11  C19 UNL     1      -0.094   0.859  -5.848  1.00  0.00     0.006 C 
HETATM   12  C20 UNL     1       0.473   0.644  -4.487  1.00  0.00     0.011 C 
HETATM   13  C21 UNL     1       0.170  -0.164  -2.233  1.00  0.00     0.020 C 
ENDROOT
BRANCH   1  14
HETATM   14  C5  UNL     1       0.287  -0.502   0.129  1.00  0.00     0.060 C 
BRANCH  14  15
HETATM   15  N2  UNL     1       0.997  -1.661  -0.194  1.00  0.00    -0.402 N 
ATOM     16  H2  UNL     1       0.546  -2.447  -0.663  1.00  0.00     0.158 HD
BRANCH  15  17
HETATM   17  C4  UNL     1       2.348  -1.699   0.150  1.00  0.00     0.120 C 
BRANCH  17  18
HETATM   18  C3  UNL     1       3.259  -1.846  -1.081  1.00  0.00     0.047 C 
BRANCH  18  19
HETATM   19  C2  UNL     1       4.686  -2.058  -0.691  1.00  0.00     0.233 C 
BRANCH  19  20
HETATM   20  N1  UNL     1       4.855  -2.954   0.417  1.00  0.00    -0.079 N 
HETATM   21  C1  UNL     1       6.173  -2.884   1.002  1.00  0.00     0.266 C 
ATOM     22  H12 UNL     1       4.626  -3.912   0.149  1.00  0.00     0.276 HD
ATOM     23  H11 UNL     1       4.134  -2.802   1.122  1.00  0.00     0.276 HD
ENDBRANCH  19  20
ENDBRANCH  18  19
ENDBRANCH  17  18
ENDBRANCH  15  17
ENDBRANCH  14  15
ENDBRANCH   1  14
BRANCH  10  24
HETATM   24  C15 UNL     1      -1.001  -0.601  -7.671  1.00  0.00    -0.048 C 
HETATM   25  C16 UNL     1       0.419  -0.694  -8.142  1.00  0.00     0.015 C 
HETATM   26  C17 UNL     1      -1.643  -1.967  -7.793  1.00  0.00     0.015 C 
HETATM   27  C18 UNL     1      -1.781   0.350  -8.549  1.00  0.00     0.015 C 
ENDBRANCH  10  24
TORSDOF 7
ENDMDL
MODEL 4
REMARK VINA RESULT: -7.224659961      0.826      1.348
REMARK  7 active torsions:
REMARK  status: ('A' for Active; 'I' for Inactive)
REMARK    1  A    between atoms: N1_2  and  C2_5 
REMARK    2  A    between atoms: C2_5  and  C3_6 
REMARK    3  A    between atoms: C3_6  and  C4_7 
REMARK    4  A    between atoms: C4_7  and  N2_8 
REMARK    5  A    between atoms: N2_8  and  C5_10 
REMARK    6  A    between atoms: C5_10  and  C6_11 
REMARK    7  A    between atoms: C14_20  and  C15_21 
ROOT
HETATM    1  C6  UNL     1       0.515  -0.249  -0.924  1.00  0.00     0.024 C 
HETATM    2  C7  UNL     1       0.482  -1.712  -0.849  1.00  0.00     0.011 C 
HETATM    3  C8  UNL     1       0.791  -2.389  -2.144  1.00  0.00     0.021 C 
HETATM    4  C9  UNL     1       1.407  -1.524  -3.207  1.00  0.00     0.101 C 
HETATM    5  C10 UNL     1       2.801  -1.282  -2.858  1.00  0.00     0.064 C 
HETATM    6  N3  UNL     1       3.891  -1.096  -2.580  1.00  0.00    -0.197 NA
HETATM    7  C11 UNL     1       0.609  -0.272  -3.452  1.00  0.00    -0.024 C 
HETATM    8  C12 UNL     1       1.469   0.837  -3.949  1.00  0.00     0.011 C 
HETATM    9  C13 UNL     1       1.008   1.349  -5.317  1.00  0.00     0.006 C 
HETATM   10  C14 UNL     1       1.141   0.174  -6.260  1.00  0.00    -0.007 C 
HETATM   11  C19 UNL     1       0.123  -0.840  -5.866  1.00  0.00     0.006 C 
HETATM   12  C20 UNL     1      -0.446  -0.623  -4.505  1.00  0.00     0.011 C 
HETATM   13  C21 UNL     1      -0.141   0.176  -2.249  1.00  0.00     0.020 C 
ENDROOT
BRANCH   1  14
HETATM   14  C5  UNL     1      -0.261   0.508   0.114  1.00  0.00     0.060 C 
BRANCH  14  15
HETATM   15  N2  UNL     1      -0.979   1.661  -0.212  1.00  0.00    -0.402 N 
ATOM     16  H2  UNL     1      -0.531   2.451  -0.678  1.00  0.00     0.158 HD
BRANCH  15  17
HETATM   17  C4  UNL     1      -2.332   1.688   0.124  1.00  0.00     0.120 C 
BRANCH  17  18
HETATM   18  C3  UNL     1      -3.237   1.823  -1.113  1.00  0.00     0.047 C 
BRANCH  18  19
HETATM   19  C2  UNL     1      -4.653   2.114  -0.733  1.00  0.00     0.233 C 
BRANCH  19  20
HETATM   20  N1  UNL     1      -4.780   2.945   0.429  1.00  0.00    -0.079 N 
HETATM   21  C1  UNL     1      -6.111   2.933   0.987  1.00  0.00     0.266 C 
ATOM     22  H12 UNL     1      -4.477   3.899   0.230  1.00  0.00     0.276 HD
ATOM     23  H11 UNL     1      -4.087   2.695   1.134  1.00  0.00     0.276 HD
ENDBRANCH  19  20
ENDBRANCH  18  19
ENDBRANCH  17  18
ENDBRANCH  15  17
ENDBRANCH  14  15
ENDBRANCH   1  14
BRANCH  10  24
HETATM   24  C15 UNL     1       1.048   0.617  -7.682  1.00  0.00    -0.048 C 
HETATM   25  C16 UNL     1       1.778  -0.299  -8.617  1.00  0.00     0.015 C 
HETATM   26  C17 UNL     1      -0.414   0.645  -8.075  1.00  0.00     0.015 C 
HETATM   27  C18 UNL     1       1.581   2.025  -7.808  1.00  0.00     0.015 C 
ENDBRANCH  10  24
TORSDOF 7
ENDMDL
MODEL 5
REMARK VINA RESULT: -6.896216167      2.073      3.278
REMARK  7 active torsions:
REMARK  status: ('A' for Active; 'I' for Inactive)
REMARK    1  A    between atoms: N1_2  and  C2_5 
REMARK    2  A    between atoms: C2_5  and  C3_6 
REMARK    3  A    between atoms: C3_6  and  C4_7 
REMARK    4  A    between atoms: C4_7  and  N2_8 
REMARK    5  A    between atoms: N2_8  and  C5_10 
REMARK    6  A    between atoms: C5_10  and  C6_11 
REMARK    7  A    between atoms: C14_20  and  C15_21 
ROOT
HETATM    1  C6  UNL     1      -0.786   0.395  -0.587  1.00  0.00     0.024 C 
HETATM    2  C7  UNL     1      -0.716   1.857  -0.513  1.00  0.00     0.011 C 
HETATM    3  C8  UNL     1      -0.886   2.535  -1.834  1.00  0.00     0.021 C 
HETATM    4  C9  UNL     1      -1.428   1.684  -2.946  1.00  0.00     0.101 C 
HETATM    5  C10 UNL     1      -2.854   1.485  -2.724  1.00  0.00     0.064 C 
HETATM    6  N3  UNL     1      -3.971   1.333  -2.547  1.00  0.00    -0.197 NA
HETATM    7  C11 UNL     1      -0.649   0.408  -3.114  1.00  0.00    -0.024 C 
HETATM    8  C12 UNL     1      -1.493  -0.678  -3.684  1.00  0.00     0.011 C 
HETATM    9  C13 UNL     1      -0.925  -1.210  -5.004  1.00  0.00     0.006 C 
HETATM   10  C14 UNL     1      -0.937  -0.036  -5.957  1.00  0.00    -0.007 C 
HETATM   11  C19 UNL     1       0.071   0.948  -5.475  1.00  0.00     0.006 C 
HETATM   12  C20 UNL     1       0.507   0.722  -4.068  1.00  0.00     0.011 C 
HETATM   13  C21 UNL     1      -0.025  -0.056  -1.846  1.00  0.00     0.020 C 
ENDROOT
BRANCH   1  14
HETATM   14  C5  UNL     1      -0.131  -0.379   0.518  1.00  0.00     0.060 C 
BRANCH  14  15
HETATM   15  N2  UNL     1      -0.875  -0.918   1.570  1.00  0.00    -0.402 N 
ATOM     16  H2  UNL     1      -1.348  -1.817   1.480  1.00  0.00     0.158 HD
BRANCH  15  17
HETATM   17  C4  UNL     1      -0.944  -0.176   2.749  1.00  0.00     0.120 C 
BRANCH  17  18
HETATM   18  C3  UNL     1      -2.391   0.191   3.122  1.00  0.00     0.047 C 
BRANCH  18  19
HETATM   19  C2  UNL     1      -2.800   1.500   2.526  1.00  0.00     0.233 C 
BRANCH  19  20
HETATM   20  N1  UNL     1      -3.699   1.372   1.414  1.00  0.00    -0.079 N 
HETATM   21  C1  UNL     1      -4.101   2.646   0.866  1.00  0.00     0.266 C 
ATOM     22  H12 UNL     1      -4.513   0.811   1.667  1.00  0.00     0.276 HD
ATOM     23  H11 UNL     1      -3.302   0.773   0.691  1.00  0.00     0.276 HD
ENDBRANCH  19  20
ENDBRANCH  18  19
ENDBRANCH  17  18
ENDBRANCH  15  17
ENDBRANCH  14  15
ENDBRANCH   1  14
BRANCH  10  24
HETATM   24  C15 UNL     1      -0.727  -0.490  -7.364  1.00  0.00    -0.048 C 
HETATM   25  C16 UNL     1      -1.360  -1.821  -7.637  1.00  0.00     0.015 C 
HETATM   26  C17 UNL     1      -1.342   0.538  -8.290  1.00  0.00     0.015 C 
HETATM   27  C18 UNL     1       0.753  -0.544  -7.662  1.00  0.00     0.015 C 
ENDBRANCH  10  24
TORSDOF 7
ENDMDL
