MODEL 1
REMARK VINA RESULT: -7.819192889      0.000      0.000
REMARK  6 active torsions:
REMARK  status: ('A' for Active; 'I' for Inactive)
REMARK       I    between atoms: C1_2  and  N1_3 
REMARK    1  A    between atoms: C1_2  and  C10_16 
REMARK    2  A    between atoms: N1_3  and  C2_5 
REMARK    3  A    between atoms: C2_5  and  C3_6 
REMARK    4  A    between atoms: C3_6  and  C4_7 
REMARK    5  A    between atoms: C13_19  and  C14_20 
REMARK    6  A    between atoms: C14_20  and  C15_21 
ROOT
HETATM    1  O1  UNL     1      -1.142   0.488  -6.057  1.00  0.00    -0.265 OA
HETATM    2  C1  UNL     1      -0.935  -0.634  -5.564  1.00  0.00     0.275 C 
HETATM    3  N1  UNL     1      -1.217  -1.804  -6.312  1.00  0.00    -0.355 N 
ATOM      4  H1  UNL     1      -1.040  -2.706  -5.871  1.00  0.00     0.162 HD
ENDROOT
BRANCH   2   5
HETATM    5  C10 UNL     1      -0.395  -0.714  -4.195  1.00  0.00     0.143 A 
HETATM    6  C11 UNL     1      -0.421   0.315  -3.283  1.00  0.00     0.045 A 
HETATM    7  C12 UNL     1       0.190  -0.208  -2.145  1.00  0.00     0.036 A 
HETATM    8  C13 UNL     1       0.552  -1.510  -2.414  1.00  0.00     0.054 A 
HETATM    9  O2  UNL     1       0.186  -1.767  -3.639  1.00  0.00    -0.309 OA
BRANCH   8  10
HETATM   10  C14 UNL     1       1.232  -2.416  -1.455  1.00  0.00     0.069 C 
BRANCH  10  11
HETATM   11  C15 UNL     1       2.421  -1.694  -0.901  1.00  0.00    -0.009 C 
HETATM   12  C16 UNL     1       3.605  -1.938  -1.805  1.00  0.00     0.005 C 
HETATM   13  C17 UNL     1       4.846  -1.380  -1.100  1.00  0.00     0.000 C 
HETATM   14  C18 UNL     1       5.153  -2.325   0.037  1.00  0.00     0.000 C 
HETATM   15  C19 UNL     1       3.938  -2.834   0.738  1.00  0.00     0.000 C 
HETATM   16  C20 UNL     1       2.709  -2.014   0.535  1.00  0.00     0.005 C 
ENDBRANCH  10  11
ENDBRANCH   8  10
ENDBRANCH   2   5
BRANCH   3  17
HETATM   17  C2  UNL     1      -1.736  -1.800  -7.654  1.00  0.00     0.125 C 
BRANCH  17  18
HETATM   18  C3  UNL     1      -0.652  -2.013  -8.636  1.00  0.00     0.052 C 
BRANCH  18  19
HETATM   19  C4  UNL     1      -0.126  -0.736  -9.254  1.00  0.00     0.187 C 
HETATM   20  C5  UNL     1       1.326  -0.521  -9.064  1.00  0.00     0.033 C 
HETATM   21  C6  UNL     1       1.695   0.477  -8.012  1.00  0.00     0.002 C 
HETATM   22  C7  UNL     1       1.148   1.845  -8.225  1.00  0.00     0.002 C 
HETATM   23  C8  UNL     1       0.562   2.078  -9.588  1.00  0.00     0.027 C 
HETATM   24  C9  UNL     1      -0.835   1.512  -9.714  1.00  0.00     0.232 C 
HETATM   25  N2  UNL     1      -0.963   0.361  -8.849  1.00  0.00    -0.071 N 
ATOM     26  H22 UNL     1      -1.937   0.068  -8.773  1.00  0.00     0.277 HD
ATOM     27  H21 UNL     1      -0.790   0.613  -7.876  1.00  0.00     0.277 HD
ENDBRANCH  18  19
ENDBRANCH  17  18
ENDBRANCH   3  17
TORSDOF 6
ENDMDL
MODEL 2
REMARK VINA RESULT: -7.802384709      2.946      5.313
REMARK  6 active torsions:
REMARK  status: ('A' for Active; 'I' for Inactive)
REMARK       I    between atoms: C1_2  and  N1_3 
REMARK    1  A    between atoms: C1_2  and  C10_16 
REMARK    2  A    between atoms: N1_3  and  C2_5 
REMARK    3  A    between atoms: C2_5  and  C3_6 
REMARK    4  A    between atoms: C3_6  and  C4_7 
REMARK    5  A    between atoms: C13_19  and  C14_20 
REMARK    6  A    between atoms: C14_20  and  C15_21 
ROOT
HETATM    1  O1  UNL     1       1.185  -0.526  -5.967  1.00  0.00    -0.265 OA
HETATM    2  C1  UNL     1       0.957   0.600  -5.490  1.00  0.00     0.275 C 
HETATM    3  N1  UNL     1       1.225   1.764  -6.251  1.00  0.00    -0.355 N 
ATOM      4  H1  UNL     1       1.030   2.669  -5.823  1.00  0.00     0.162 HD
ENDROOT
BRANCH   2   5
HETATM    5  C10 UNL     1       0.405   0.688  -4.126  1.00  0.00     0.143 A 
HETATM    6  C11 UNL     1       0.415  -0.338  -3.211  1.00  0.00     0.045 A 
HETATM    7  C12 UNL     1      -0.203   0.193  -2.080  1.00  0.00     0.036 A 
HETATM    8  C13 UNL     1      -0.553   1.497  -2.356  1.00  0.00     0.054 A 
HETATM    9  O2  UNL     1      -0.174   1.747  -3.579  1.00  0.00    -0.309 OA
BRANCH   8  10
HETATM   10  C14 UNL     1      -1.235   2.411  -1.407  1.00  0.00     0.069 C 
BRANCH  10  11
HETATM   11  C15 UNL     1      -2.429   1.696  -0.855  1.00  0.00    -0.009 C 
HETATM   12  C16 UNL     1      -3.620   1.981  -1.738  1.00  0.00     0.005 C 
HETATM   13  C17 UNL     1      -4.861   1.428  -1.031  1.00  0.00     0.000 C 
HETATM   14  C18 UNL     1      -5.139   2.351   0.132  1.00  0.00     0.000 C 
HETATM   15  C19 UNL     1      -3.907   2.823   0.829  1.00  0.00     0.000 C 
HETATM   16  C20 UNL     1      -2.695   1.987   0.592  1.00  0.00     0.005 C 
ENDBRANCH  10  11
ENDBRANCH   8  10
ENDBRANCH   2   5
BRANCH   3  17
HETATM   17  C2  UNL     1       1.755   1.752  -7.588  1.00  0.00     0.125 C 
BRANCH  17  18
HETATM   18  C3  UNL     1       0.679   1.963  -8.580  1.00  0.00     0.052 C 
BRANCH  18  19
HETATM   19  C4  UNL     1       0.149   0.683  -9.189  1.00  0.00     0.187 C 
HETATM   20  C5  UNL     1      -1.308   0.486  -9.019  1.00  0.00     0.033 C 
HETATM   21  C6  UNL     1      -1.704  -0.493  -7.959  1.00  0.00     0.002 C 
HETATM   22  C7  UNL     1      -1.169  -1.870  -8.145  1.00  0.00     0.002 C 
HETATM   23  C8  UNL     1      -0.565  -2.128  -9.496  1.00  0.00     0.027 C 
HETATM   24  C9  UNL     1       0.840  -1.578  -9.608  1.00  0.00     0.232 C 
HETATM   25  N2  UNL     1       0.968  -0.417  -8.757  1.00  0.00    -0.071 N 
ATOM     26  H22 UNL     1       1.944  -0.133  -8.669  1.00  0.00     0.277 HD
ATOM     27  H21 UNL     1       0.777  -0.654  -7.783  1.00  0.00     0.277 HD
ENDBRANCH  18  19
ENDBRANCH  17  18
ENDBRANCH   3  17
TORSDOF 6
ENDMDL
MODEL 3
REMARK VINA RESULT: -7.555824648      1.933      3.360
REMARK  6 active torsions:
REMARK  status: ('A' for Active; 'I' for Inactive)
REMARK       I    between atoms: C1_2  and  N1_3 
REMARK    1  A    between atoms: C1_2  and  C10_16 
REMARK    2  A    between atoms: N1_3  and  C2_5 
REMARK    3  A    between atoms: C2_5  and  C3_6 
REMARK    4  A    between atoms: C3_6  and  C4_7 
REMARK    5  A    between atoms: C13_19  and  C14_20 
REMARK    6  A    between atoms: C14_20  and  C15_21 
ROOT
HETATM    1  O1  UNL     1       1.551   0.379  -3.771  1.00  0.00    -0.265 OA
HETATM    2  C1  UNL     1       1.056  -0.475  -3.015  1.00  0.00     0.275 C 
HETATM    3  N1  UNL     1      -0.285  -0.893  -3.194  1.00  0.00    -0.355 N 
ATOM      4  H1  UNL     1      -0.657  -1.591  -2.549  1.00  0.00     0.162 HD
ENDROOT
BRANCH   2   5
HETATM    5  C10 UNL     1       1.895  -1.033  -1.938  1.00  0.00     0.143 A 
HETATM    6  C11 UNL     1       1.486  -1.203  -0.637  1.00  0.00     0.045 A 
HETATM    7  C12 UNL     1       2.590  -1.752   0.011  1.00  0.00     0.036 A 
HETATM    8  C13 UNL     1       3.603  -1.889  -0.913  1.00  0.00     0.054 A 
HETATM    9  O2  UNL     1       3.147  -1.450  -2.054  1.00  0.00    -0.309 OA
BRANCH   8  10
HETATM   10  C14 UNL     1       4.950  -2.439  -0.620  1.00  0.00     0.069 C 
BRANCH  10  11
HETATM   11  C15 UNL     1       5.626  -1.514   0.345  1.00  0.00    -0.009 C 
HETATM   12  C16 UNL     1       6.551  -0.600  -0.421  1.00  0.00     0.005 C 
HETATM   13  C17 UNL     1       7.388   0.173   0.603  1.00  0.00     0.000 C 
HETATM   14  C18 UNL     1       8.374  -0.813   1.183  1.00  0.00     0.000 C 
HETATM   15  C19 UNL     1       7.799  -2.170   1.410  1.00  0.00     0.000 C 
HETATM   16  C20 UNL     1       6.310  -2.216   1.480  1.00  0.00     0.005 C 
ENDBRANCH  10  11
ENDBRANCH   8  10
ENDBRANCH   2   5
BRANCH   3  17
HETATM   17  C2  UNL     1      -1.156  -0.398  -4.226  1.00  0.00     0.125 C 
BRANCH  17  18
HETATM   18  C3  UNL     1      -1.096  -1.264  -5.422  1.00  0.00     0.052 C 
BRANCH  18  19
HETATM   19  C4  UNL     1      -0.713  -0.530  -6.690  1.00  0.00     0.187 C 
HETATM   20  C5  UNL     1      -1.355  -1.057  -7.915  1.00  0.00     0.033 C 
HETATM   21  C6  UNL     1      -0.480  -1.902  -8.785  1.00  0.00     0.002 C 
HETATM   22  C7  UNL     1       0.753  -1.229  -9.279  1.00  0.00     0.002 C 
HETATM   23  C8  UNL     1       0.780   0.258  -9.067  1.00  0.00     0.027 C 
HETATM   24  C9  UNL     1       1.160   0.626  -7.650  1.00  0.00     0.232 C 
HETATM   25  N2  UNL     1       0.719  -0.417  -6.751  1.00  0.00    -0.071 N 
ATOM     26  H22 UNL     1       1.116  -0.289  -5.820  1.00  0.00     0.277 HD
ATOM     27  H21 UNL     1       1.147  -1.312  -6.992  1.00  0.00     0.277 HD
ENDBRANCH  18  19
ENDBRANCH  17  18
ENDBRANCH   3  17
TORSDOF 6
ENDMDL
MODEL 4
REMARK VINA RESULT: -7.555125465      4.575      6.553
REMARK  6 active torsions:
REMARK  status: ('A' for Active; 'I' for Inactive)
REMARK       I    between atoms: C1_2  and  N1_3 
REMARK    1  A    between atoms: C1_2  and  C10_16 
REMARK    2  A    between atoms: N1_3  and  C2_5 
REMARK    3  A    between atoms: C2_5  and  C3_6 
REMARK    4  A    between atoms: C3_6  and  C4_7 
REMARK    5  A    between atoms: C13_19  and  C14_20 
REMARK    6  A    between atoms: C14_20  and  C15_21 
ROOT
HETATM    1  O1  UNL     1      -0.166   1.234  -3.588  1.00  0.00    -0.265 OA
HETATM    2  C1  UNL     1      -1.083   0.529  -3.132  1.00  0.00     0.275 C 
HETATM    3  N1  UNL     1      -1.322  -0.761  -3.665  1.00  0.00    -0.355 N 
ATOM      4  H1  UNL     1      -2.088  -1.306  -3.269  1.00  0.00     0.162 HD
ENDROOT
BRANCH   2   5
HETATM    5  C10 UNL     1      -1.906   1.067  -2.034  1.00  0.00     0.143 A 
HETATM    6  C11 UNL     1      -1.476   1.219  -0.737  1.00  0.00     0.045 A 
HETATM    7  C12 UNL     1      -2.572   1.754  -0.062  1.00  0.00     0.036 A 
HETATM    8  C13 UNL     1      -3.600   1.901  -0.968  1.00  0.00     0.054 A 
HETATM    9  O2  UNL     1      -3.161   1.482  -2.122  1.00  0.00    -0.309 OA
BRANCH   8  10
HETATM   10  C14 UNL     1      -4.945   2.441  -0.644  1.00  0.00     0.069 C 
BRANCH  10  11
HETATM   11  C15 UNL     1      -5.607   1.491   0.305  1.00  0.00    -0.009 C 
HETATM   12  C16 UNL     1      -6.561   0.614  -0.468  1.00  0.00     0.005 C 
HETATM   13  C17 UNL     1      -7.382  -0.185   0.550  1.00  0.00     0.000 C 
HETATM   14  C18 UNL     1      -8.341   0.791   1.187  1.00  0.00     0.000 C 
HETATM   15  C19 UNL     1      -7.745   2.134   1.447  1.00  0.00     0.000 C 
HETATM   16  C20 UNL     1      -6.254   2.161   1.480  1.00  0.00     0.005 C 
ENDBRANCH  10  11
ENDBRANCH   8  10
ENDBRANCH   2   5
BRANCH   3  17
HETATM   17  C2  UNL     1      -0.555  -1.352  -4.730  1.00  0.00     0.125 C 
BRANCH  17  18
HETATM   18  C3  UNL     1      -1.240  -1.178  -6.028  1.00  0.00     0.052 C 
BRANCH  18  19
HETATM   19  C4  UNL     1      -0.544  -0.212  -6.963  1.00  0.00     0.187 C 
HETATM   20  C5  UNL     1      -0.486  -0.664  -8.371  1.00  0.00     0.033 C 
HETATM   21  C6  UNL     1       0.836  -1.202  -8.818  1.00  0.00     0.002 C 
HETATM   22  C7  UNL     1       1.976  -0.252  -8.691  1.00  0.00     0.002 C 
HETATM   23  C8  UNL     1       1.577   1.168  -8.411  1.00  0.00     0.027 C 
HETATM   24  C9  UNL     1       1.244   1.390  -6.953  1.00  0.00     0.232 C 
HETATM   25  N2  UNL     1       0.719   0.166  -6.390  1.00  0.00    -0.071 N 
ATOM     26  H22 UNL     1       0.656   0.228  -5.374  1.00  0.00     0.277 HD
ATOM     27  H21 UNL     1       1.398  -0.592  -6.468  1.00  0.00     0.277 HD
ENDBRANCH  18  19
ENDBRANCH  17  18
ENDBRANCH   3  17
TORSDOF 6
ENDMDL
MODEL 5
REMARK VINA RESULT: -7.545162159      5.125      9.278
REMARK  6 active torsions:
REMARK  status: ('A' for Active; 'I' for Inactive)
REMARK       I    between atoms: C1_2  and  N1_3 
REMARK    1  A    between atoms: C1_2  and  C10_16 
REMARK    2  A    between atoms: N1_3  and  C2_5 
REMARK    3  A    between atoms: C2_5  and  C3_6 
REMARK    4  A    between atoms: C3_6  and  C4_7 
REMARK    5  A    between atoms: C13_19  and  C14_20 
REMARK    6  A    between atoms: C14_20  and  C15_21 
ROOT
HETATM    1  O1  UNL     1      -1.195   1.112  -1.319  1.00  0.00    -0.265 OA
HETATM    2  C1  UNL     1      -1.878   1.078  -2.357  1.00  0.00     0.275 C 
HETATM    3  N1  UNL     1      -3.197   1.595  -2.359  1.00  0.00    -0.355 N 
ATOM      4  H1  UNL     1      -3.728   1.543  -3.229  1.00  0.00     0.162 HD
ENDROOT
BRANCH   2   5
HETATM    5  C10 UNL     1      -1.284   0.490  -3.572  1.00  0.00     0.143 A 
HETATM    6  C11 UNL     1      -1.410  -0.826  -3.945  1.00  0.00     0.045 A 
HETATM    7  C12 UNL     1      -0.697  -0.924  -5.138  1.00  0.00     0.036 A 
HETATM    8  C13 UNL     1      -0.181   0.320  -5.430  1.00  0.00     0.054 A 
HETATM    9  O2  UNL     1      -0.554   1.126  -4.476  1.00  0.00    -0.309 OA
BRANCH   8  10
HETATM   10  C14 UNL     1       0.643   0.637  -6.624  1.00  0.00     0.069 C 
BRANCH  10  11
HETATM   11  C15 UNL     1       0.132  -0.183  -7.768  1.00  0.00    -0.009 C 
HETATM   12  C16 UNL     1       1.274  -0.470  -8.712  1.00  0.00     0.005 C 
HETATM   13  C17 UNL     1       0.682  -1.109  -9.972  1.00  0.00     0.000 C 
HETATM   14  C18 UNL     1      -0.035  -0.007 -10.715  1.00  0.00     0.000 C 
HETATM   15  C19 UNL     1      -0.765   0.940  -9.823  1.00  0.00     0.000 C 
HETATM   16  C20 UNL     1      -1.058   0.415  -8.458  1.00  0.00     0.005 C 
ENDBRANCH  10  11
ENDBRANCH   8  10
ENDBRANCH   2   5
BRANCH   3  17
HETATM   17  C2  UNL     1      -3.836   2.188  -1.215  1.00  0.00     0.125 C 
BRANCH  17  18
HETATM   18  C3  UNL     1      -5.043   1.425  -0.834  1.00  0.00     0.052 C 
BRANCH  18  19
HETATM   19  C4  UNL     1      -5.486   1.652   0.595  1.00  0.00     0.187 C 
HETATM   20  C5  UNL     1      -6.612   0.795   1.027  1.00  0.00     0.033 C 
HETATM   21  C6  UNL     1      -7.947   1.468   1.079  1.00  0.00     0.002 C 
HETATM   22  C7  UNL     1      -8.020   2.650   1.983  1.00  0.00     0.002 C 
HETATM   23  C8  UNL     1      -6.844   2.804   2.904  1.00  0.00     0.027 C 
HETATM   24  C9  UNL     1      -5.652   3.422   2.209  1.00  0.00     0.232 C 
HETATM   25  N2  UNL     1      -5.674   3.062   0.810  1.00  0.00    -0.071 N 
ATOM     26  H22 UNL     1      -4.992   3.606   0.281  1.00  0.00     0.277 HD
ATOM     27  H21 UNL     1      -6.530   3.388   0.361  1.00  0.00     0.277 HD
ENDBRANCH  18  19
ENDBRANCH  17  18
ENDBRANCH   3  17
TORSDOF 6
ENDMDL
