MODEL 1
REMARK VINA RESULT: -7.331681473      0.000      0.000
REMARK  6 active torsions:
REMARK  status: ('A' for Active; 'I' for Inactive)
REMARK    1  A    between atoms: N1_2  and  C2_3 
REMARK    2  A    between atoms: N1_2  and  C8_9 
REMARK    3  A    between atoms: C2_3  and  C3_4 
REMARK    4  A    between atoms: C3_4  and  C4_5 
REMARK    5  A    between atoms: C8_9  and  C9_10 
REMARK    6  A    between atoms: N3_18  and  C15_19 
ROOT
HETATM    1  C9  UNL     1       0.122   0.243  -4.822  1.00  0.00     0.022 A 
HETATM    2  C10 UNL     1      -0.953   1.084  -4.921  1.00  0.00     0.104 A 
HETATM    3  N2  UNL     1      -1.587   1.475  -3.776  1.00  0.00    -0.350 N 
ATOM      4  H2  UNL     1      -2.392   2.099  -3.820  1.00  0.00     0.166 HD
HETATM    5  C11 UNL     1      -1.135   1.025  -2.584  1.00  0.00     0.120 A 
HETATM    6  C12 UNL     1      -0.070   0.195  -2.502  1.00  0.00     0.037 A 
HETATM    7  C13 UNL     1       0.170  -0.095  -1.189  1.00  0.00     0.035 A 
HETATM    8  C14 UNL     1      -0.793   0.587  -0.435  1.00  0.00     0.094 A 
HETATM    9  N3  UNL     1      -1.562   1.247  -1.297  1.00  0.00    -0.338 N 
HETATM   10  C20 UNL     1       0.651  -0.263  -3.686  1.00  0.00     0.053 A 
HETATM   11  N4  UNL     1       1.589  -0.989  -3.411  1.00  0.00    -0.398 N 
ATOM     12  H41 UNL     1       1.988  -1.371  -2.553  1.00  0.00     0.156 HD
ATOM     13  H42 UNL     1       2.093  -1.309  -4.238  1.00  0.00     0.156 HD
ENDROOT
BRANCH   1  14
HETATM   14  C8  UNL     1       0.882  -0.079  -6.107  1.00  0.00     0.100 C 
BRANCH  14  15
HETATM   15  N1  UNL     1       1.057   1.089  -6.869  1.00  0.00    -0.393 N 
HETATM   16  C1  UNL     1       1.713   2.176  -6.302  1.00  0.00     0.148 C 
BRANCH  15  17
HETATM   17  C2  UNL     1       1.244   0.912  -8.287  1.00  0.00     0.122 C 
BRANCH  17  18
HETATM   18  C3  UNL     1       0.155   1.643  -9.008  1.00  0.00     0.024 C 
BRANCH  18  19
HETATM   19  C4  UNL     1      -0.981   0.763  -9.474  1.00  0.00    -0.013 A 
HETATM   20  C5  UNL     1      -0.668  -0.722  -9.362  1.00  0.00     0.005 A 
HETATM   21  C6  UNL     1      -1.849  -0.930  -8.459  1.00  0.00     0.001 A 
HETATM   22  C7  UNL     1      -2.113   0.541  -8.513  1.00  0.00     0.005 A 
ENDBRANCH  18  19
ENDBRANCH  17  18
ENDBRANCH  15  17
ENDBRANCH  14  15
ENDBRANCH   1  14
BRANCH   9  23
HETATM   23  C15 UNL     1      -2.677   2.097  -1.010  1.00  0.00     0.091 C 
HETATM   24  C16 UNL     1      -3.997   1.408  -1.279  1.00  0.00     0.026 C 
HETATM   25  C17 UNL     1      -4.973   2.348  -0.587  1.00  0.00     0.002 C 
HETATM   26  C18 UNL     1      -4.295   2.491   0.781  1.00  0.00     0.002 C 
HETATM   27  C19 UNL     1      -2.810   2.404   0.464  1.00  0.00     0.026 C 
ENDBRANCH   9  23
TORSDOF 6
ENDMDL
MODEL 2
REMARK VINA RESULT: -7.326701829      2.341      4.830
REMARK  6 active torsions:
REMARK  status: ('A' for Active; 'I' for Inactive)
REMARK    1  A    between atoms: N1_2  and  C2_3 
REMARK    2  A    between atoms: N1_2  and  C8_9 
REMARK    3  A    between atoms: C2_3  and  C3_4 
REMARK    4  A    between atoms: C3_4  and  C4_5 
REMARK    5  A    between atoms: C8_9  and  C9_10 
REMARK    6  A    between atoms: N3_18  and  C15_19 
ROOT
HETATM    1  C9  UNL     1      -0.206  -0.198  -4.916  1.00  0.00     0.022 A 
HETATM    2  C10 UNL     1       0.875  -1.034  -4.995  1.00  0.00     0.104 A 
HETATM    3  N2  UNL     1       1.494  -1.415  -3.839  1.00  0.00    -0.350 N 
ATOM      4  H2  UNL     1       2.303  -2.036  -3.868  1.00  0.00     0.166 HD
HETATM    5  C11 UNL     1       1.023  -0.960  -2.656  1.00  0.00     0.120 A 
HETATM    6  C12 UNL     1      -0.047  -0.135  -2.595  1.00  0.00     0.037 A 
HETATM    7  C13 UNL     1      -0.306   0.162  -1.287  1.00  0.00     0.035 A 
HETATM    8  C14 UNL     1       0.649  -0.511  -0.515  1.00  0.00     0.094 A 
HETATM    9  N3  UNL     1       1.433  -1.172  -1.362  1.00  0.00    -0.338 N 
HETATM   10  C20 UNL     1      -0.752   0.313  -3.791  1.00  0.00     0.053 A 
HETATM   11  N4  UNL     1      -1.698   1.037  -3.534  1.00  0.00    -0.398 N 
ATOM     12  H41 UNL     1      -2.111   1.422  -2.684  1.00  0.00     0.156 HD
ATOM     13  H42 UNL     1      -2.191   1.349  -4.370  1.00  0.00     0.156 HD
ENDROOT
BRANCH   1  14
HETATM   14  C8  UNL     1      -0.949   0.113  -6.214  1.00  0.00     0.100 C 
BRANCH  14  15
HETATM   15  N1  UNL     1      -1.089  -1.057  -6.981  1.00  0.00    -0.393 N 
HETATM   16  C1  UNL     1      -1.751  -2.150  -6.434  1.00  0.00     0.148 C 
BRANCH  15  17
HETATM   17  C2  UNL     1      -1.234  -0.881  -8.404  1.00  0.00     0.122 C 
BRANCH  17  18
HETATM   18  C3  UNL     1      -0.128  -1.618  -9.092  1.00  0.00     0.024 C 
BRANCH  18  19
HETATM   19  C4  UNL     1       1.028  -0.745  -9.520  1.00  0.00    -0.013 A 
HETATM   20  C5  UNL     1       0.713   0.741  -9.441  1.00  0.00     0.005 A 
HETATM   21  C6  UNL     1       1.855   0.960  -8.492  1.00  0.00     0.001 A 
HETATM   22  C7  UNL     1       2.119  -0.512  -8.514  1.00  0.00     0.005 A 
ENDBRANCH  18  19
ENDBRANCH  17  18
ENDBRANCH  15  17
ENDBRANCH  14  15
ENDBRANCH   1  14
BRANCH   9  23
HETATM   23  C15 UNL     1       2.548  -2.015  -1.054  1.00  0.00     0.091 C 
HETATM   24  C16 UNL     1       3.864  -1.370  -1.426  1.00  0.00     0.026 C 
HETATM   25  C17 UNL     1       4.855  -2.270  -0.703  1.00  0.00     0.002 C 
HETATM   26  C18 UNL     1       4.231  -2.296   0.698  1.00  0.00     0.002 C 
HETATM   27  C19 UNL     1       2.735  -2.211   0.434  1.00  0.00     0.026 C 
ENDBRANCH   9  23
TORSDOF 6
ENDMDL
MODEL 3
REMARK VINA RESULT: -7.258245632      2.784      5.181
REMARK  6 active torsions:
REMARK  status: ('A' for Active; 'I' for Inactive)
REMARK    1  A    between atoms: N1_2  and  C2_3 
REMARK    2  A    between atoms: N1_2  and  C8_9 
REMARK    3  A    between atoms: C2_3  and  C3_4 
REMARK    4  A    between atoms: C3_4  and  C4_5 
REMARK    5  A    between atoms: C8_9  and  C9_10 
REMARK    6  A    between atoms: N3_18  and  C15_19 
ROOT
HETATM    1  C9  UNL     1       0.227  -0.416  -3.991  1.00  0.00     0.022 A 
HETATM    2  C10 UNL     1       1.325  -1.214  -4.173  1.00  0.00     0.104 A 
HETATM    3  N2  UNL     1       2.021  -1.630  -3.074  1.00  0.00    -0.350 N 
ATOM      4  H2  UNL     1       2.844  -2.224  -3.179  1.00  0.00     0.166 HD
HETATM    5  C11 UNL     1       1.606  -1.248  -1.845  1.00  0.00     0.120 A 
HETATM    6  C12 UNL     1       0.519  -0.461  -1.682  1.00  0.00     0.037 A 
HETATM    7  C13 UNL     1       0.327  -0.236  -0.348  1.00  0.00     0.035 A 
HETATM    8  C14 UNL     1       1.344  -0.915   0.334  1.00  0.00     0.094 A 
HETATM    9  N3  UNL     1       2.096  -1.510  -0.588  1.00  0.00    -0.338 N 
HETATM   10  C20 UNL     1      -0.267   0.022  -2.813  1.00  0.00     0.053 A 
HETATM   11  N4  UNL     1      -1.217   0.702  -2.467  1.00  0.00    -0.398 N 
ATOM     12  H41 UNL     1      -1.591   1.033  -1.577  1.00  0.00     0.156 HD
ATOM     13  H42 UNL     1      -1.767   1.039  -3.257  1.00  0.00     0.156 HD
ENDROOT
BRANCH   1  14
HETATM   14  C8  UNL     1      -0.598  -0.067  -5.228  1.00  0.00     0.100 C 
BRANCH  14  15
HETATM   15  N1  UNL     1      -0.950  -1.239  -5.919  1.00  0.00    -0.393 N 
HETATM   16  C1  UNL     1      -1.696  -2.213  -5.265  1.00  0.00     0.148 C 
BRANCH  15  17
HETATM   17  C2  UNL     1      -1.193  -1.105  -7.334  1.00  0.00     0.122 C 
BRANCH  17  18
HETATM   18  C3  UNL     1      -0.870   0.297  -7.745  1.00  0.00     0.024 C 
BRANCH  18  19
HETATM   19  C4  UNL     1       0.230   0.404  -8.775  1.00  0.00    -0.013 A 
HETATM   20  C5  UNL     1       1.554   0.868  -8.187  1.00  0.00     0.005 A 
HETATM   21  C6  UNL     1       2.234  -0.382  -8.663  1.00  0.00     0.001 A 
HETATM   22  C7  UNL     1       0.917  -0.869  -9.177  1.00  0.00     0.005 A 
ENDBRANCH  18  19
ENDBRANCH  17  18
ENDBRANCH  15  17
ENDBRANCH  14  15
ENDBRANCH   1  14
BRANCH   9  23
HETATM   23  C15 UNL     1       3.250  -2.331  -0.386  1.00  0.00     0.091 C 
HETATM   24  C16 UNL     1       4.535  -1.563  -0.598  1.00  0.00     0.026 C 
HETATM   25  C17 UNL     1       5.559  -2.517  -0.001  1.00  0.00     0.002 C 
HETATM   26  C18 UNL     1       4.902  -2.813   1.353  1.00  0.00     0.002 C 
HETATM   27  C19 UNL     1       3.411  -2.765   1.053  1.00  0.00     0.026 C 
ENDBRANCH   9  23
TORSDOF 6
ENDMDL
MODEL 4
REMARK VINA RESULT: -7.176107701      1.104      1.664
REMARK  6 active torsions:
REMARK  status: ('A' for Active; 'I' for Inactive)
REMARK    1  A    between atoms: N1_2  and  C2_3 
REMARK    2  A    between atoms: N1_2  and  C8_9 
REMARK    3  A    between atoms: C2_3  and  C3_4 
REMARK    4  A    between atoms: C3_4  and  C4_5 
REMARK    5  A    between atoms: C8_9  and  C9_10 
REMARK    6  A    between atoms: N3_18  and  C15_19 
ROOT
HETATM    1  C9  UNL     1       0.441   0.956  -3.410  1.00  0.00     0.022 A 
HETATM    2  C10 UNL     1      -0.516   1.921  -3.577  1.00  0.00     0.104 A 
HETATM    3  N2  UNL     1      -1.400   2.149  -2.562  1.00  0.00    -0.350 N 
ATOM      4  H2  UNL     1      -2.125   2.860  -2.658  1.00  0.00     0.166 HD
HETATM    5  C11 UNL     1      -1.304   1.421  -1.426  1.00  0.00     0.120 A 
HETATM    6  C12 UNL     1      -0.352   0.472  -1.276  1.00  0.00     0.037 A 
HETATM    7  C13 UNL     1      -0.482  -0.099  -0.042  1.00  0.00     0.035 A 
HETATM    8  C14 UNL     1      -1.563   0.528   0.590  1.00  0.00     0.094 A 
HETATM    9  N3  UNL     1      -2.037   1.432  -0.264  1.00  0.00    -0.338 N 
HETATM   10  C20 UNL     1       0.622   0.177  -2.322  1.00  0.00     0.053 A 
HETATM   11  N4  UNL     1       1.408  -0.695  -1.997  1.00  0.00    -0.398 N 
ATOM     12  H41 UNL     1       1.545  -1.284  -1.176  1.00  0.00     0.156 HD
ATOM     13  H42 UNL     1       2.089  -0.902  -2.728  1.00  0.00     0.156 HD
ENDROOT
BRANCH   1  14
HETATM   14  C8  UNL     1       1.487   0.809  -4.513  1.00  0.00     0.100 C 
BRANCH  14  15
HETATM   15  N1  UNL     1       0.863   0.795  -5.772  1.00  0.00    -0.393 N 
HETATM   16  C1  UNL     1       1.253   1.722  -6.732  1.00  0.00     0.148 C 
BRANCH  15  17
HETATM   17  C2  UNL     1       0.449  -0.491  -6.272  1.00  0.00     0.122 C 
BRANCH  17  18
HETATM   18  C3  UNL     1      -1.024  -0.451  -6.534  1.00  0.00     0.024 C 
BRANCH  18  19
HETATM   19  C4  UNL     1      -1.409  -0.750  -7.965  1.00  0.00    -0.013 A 
HETATM   20  C5  UNL     1      -1.910   0.475  -8.714  1.00  0.00     0.005 A 
HETATM   21  C6  UNL     1      -0.830   0.320  -9.744  1.00  0.00     0.001 A 
HETATM   22  C7  UNL     1      -0.295  -0.841  -8.968  1.00  0.00     0.005 A 
ENDBRANCH  18  19
ENDBRANCH  17  18
ENDBRANCH  15  17
ENDBRANCH  14  15
ENDBRANCH   1  14
BRANCH   9  23
HETATM   23  C15 UNL     1      -3.132   2.333  -0.073  1.00  0.00     0.091 C 
HETATM   24  C16 UNL     1      -4.443   1.734  -0.529  1.00  0.00     0.026 C 
HETATM   25  C17 UNL     1      -5.446   2.700   0.084  1.00  0.00     0.002 C 
HETATM   26  C18 UNL     1      -4.934   2.748   1.529  1.00  0.00     0.002 C 
HETATM   27  C19 UNL     1      -3.427   2.588   1.388  1.00  0.00     0.026 C 
ENDBRANCH   9  23
TORSDOF 6
ENDMDL
MODEL 5
REMARK VINA RESULT: -7.138719901      3.067      5.426
REMARK  6 active torsions:
REMARK  status: ('A' for Active; 'I' for Inactive)
REMARK    1  A    between atoms: N1_2  and  C2_3 
REMARK    2  A    between atoms: N1_2  and  C8_9 
REMARK    3  A    between atoms: C2_3  and  C3_4 
REMARK    4  A    between atoms: C3_4  and  C4_5 
REMARK    5  A    between atoms: C8_9  and  C9_10 
REMARK    6  A    between atoms: N3_18  and  C15_19 
ROOT
HETATM    1  C9  UNL     1       0.660  -0.152  -3.121  1.00  0.00     0.022 A 
HETATM    2  C10 UNL     1       1.807  -0.852  -3.384  1.00  0.00     0.104 A 
HETATM    3  N2  UNL     1       2.479  -1.423  -2.342  1.00  0.00    -0.350 N 
ATOM      4  H2  UNL     1       3.337  -1.949  -2.507  1.00  0.00     0.166 HD
HETATM    5  C11 UNL     1       1.994  -1.283  -1.087  1.00  0.00     0.120 A 
HETATM    6  C12 UNL     1       0.859  -0.589  -0.844  1.00  0.00     0.037 A 
HETATM    7  C13 UNL     1       0.601  -0.613   0.497  1.00  0.00     0.035 A 
HETATM    8  C14 UNL     1       1.626  -1.353   1.101  1.00  0.00     0.094 A 
HETATM    9  N3  UNL     1       2.446  -1.739   0.127  1.00  0.00    -0.338 N 
HETATM   10  C20 UNL     1       0.094   0.048  -1.911  1.00  0.00     0.053 A 
HETATM   11  N4  UNL     1      -0.905   0.611  -1.500  1.00  0.00    -0.398 N 
ATOM     12  H41 UNL     1      -1.332   0.761  -0.586  1.00  0.00     0.156 HD
ATOM     13  H42 UNL     1      -1.440   1.055  -2.245  1.00  0.00     0.156 HD
ENDROOT
BRANCH   1  14
HETATM   14  C8  UNL     1      -0.132   0.371  -4.318  1.00  0.00     0.100 C 
BRANCH  14  15
HETATM   15  N1  UNL     1      -0.397  -0.677  -5.216  1.00  0.00    -0.393 N 
HETATM   16  C1  UNL     1      -1.341  -1.639  -4.876  1.00  0.00     0.148 C 
BRANCH  15  17
HETATM   17  C2  UNL     1      -0.295  -0.365  -6.620  1.00  0.00     0.122 C 
BRANCH  17  18
HETATM   18  C3  UNL     1       0.744   0.696  -6.800  1.00  0.00     0.024 C 
BRANCH  18  19
HETATM   19  C4  UNL     1       1.374   0.721  -8.173  1.00  0.00    -0.013 A 
HETATM   20  C5  UNL     1       1.892  -0.640  -8.615  1.00  0.00     0.005 A 
HETATM   21  C6  UNL     1       1.006  -0.613  -9.826  1.00  0.00     0.001 A 
HETATM   22  C7  UNL     1       0.446   0.691  -9.353  1.00  0.00     0.005 A 
ENDBRANCH  18  19
ENDBRANCH  17  18
ENDBRANCH  15  17
ENDBRANCH  14  15
ENDBRANCH   1  14
BRANCH   9  23
HETATM   23  C15 UNL     1       3.635  -2.528   0.241  1.00  0.00     0.091 C 
HETATM   24  C16 UNL     1       4.885  -1.685   0.128  1.00  0.00     0.026 C 
HETATM   25  C17 UNL     1       5.949  -2.657   0.617  1.00  0.00     0.002 C 
HETATM   26  C18 UNL     1       5.303  -3.137   1.923  1.00  0.00     0.002 C 
HETATM   27  C19 UNL     1       3.812  -3.119   1.622  1.00  0.00     0.026 C 
ENDBRANCH   9  23
TORSDOF 6
ENDMDL
