MODEL 1
REMARK VINA RESULT: -7.858439363      0.000      0.000
REMARK  8 active torsions:
REMARK  status: ('A' for Active; 'I' for Inactive)
REMARK    1  A    between atoms: C2_2  and  C4_4 
REMARK    2  A    between atoms: C4_4  and  C5_5 
REMARK    3  A    between atoms: C7_7  and  O1_8 
REMARK    4  A    between atoms: C7_7  and  C8_10 
REMARK    5  A    between atoms: C8_10  and  C9_11 
REMARK    6  A    between atoms: C10_12  and  C11_13 
REMARK    7  A    between atoms: C11_13  and  O2_14 
REMARK    8  A    between atoms: C11_13  and  C12_16 
ROOT
HETATM    1  C9  UNL     1      -0.274  -0.667  -3.693  1.00  0.00    -0.025 C 
HETATM    2  C10 UNL     1       0.544  -0.717  -4.759  1.00  0.00     0.001 C 
ENDROOT
BRANCH   1   3
HETATM    3  C8  UNL     1      -1.509   0.123  -3.609  1.00  0.00     0.067 C 
BRANCH   3   4
HETATM    4  C7  UNL     1      -1.375   1.370  -2.802  1.00  0.00     0.084 C 
HETATM    5  C6  UNL     1      -2.678   2.199  -2.778  1.00  0.00     0.072 C 
HETATM    6  C5  UNL     1      -3.334   1.557  -1.610  1.00  0.00     0.124 C 
HETATM    7  O3  UNL     1      -2.339   1.366  -0.652  1.00  0.00    -0.383 OA
HETATM    8  C20 UNL     1      -1.158   1.143  -1.345  1.00  0.00     0.206 C 
BRANCH   6   9
HETATM    9  C4  UNL     1      -4.569   2.137  -1.067  1.00  0.00     0.035 C 
BRANCH   9  10
HETATM   10  C2  UNL     1      -5.028   1.723   0.284  1.00  0.00    -0.020 C 
HETATM   11  C1  UNL     1      -6.295   0.847   0.080  1.00  0.00     0.009 C 
HETATM   12  C3  UNL     1      -5.540   2.874   1.144  1.00  0.00     0.009 C 
ENDBRANCH   9  10
ENDBRANCH   6   9
BRANCH   4  13
HETATM   13  O1  UNL     1      -0.343   2.145  -3.343  1.00  0.00    -0.387 OA
ATOM     14  H1  UNL     1       0.032   1.693  -4.089  1.00  0.00     0.210 HD
ENDBRANCH   4  13
ENDBRANCH   3   4
ENDBRANCH   1   3
BRANCH   2  15
HETATM   15  C11 UNL     1       0.196   0.068  -5.932  1.00  0.00     0.145 C 
BRANCH  15  16
HETATM   16  O2  UNL     1       0.993   1.230  -5.952  1.00  0.00    -0.391 OA
ATOM     17  H2  UNL     1       0.906   1.646  -6.801  1.00  0.00     0.210 HD
ENDBRANCH  15  16
BRANCH  15  18
HETATM   18  C12 UNL     1       0.287  -0.571  -7.261  1.00  0.00     0.022 C 
HETATM   19  C13 UNL     1       1.241   0.056  -8.242  1.00  0.00     0.012 C 
HETATM   20  C14 UNL     1       0.922  -0.637  -9.582  1.00  0.00    -0.014 C 
HETATM   21  C15 UNL     1      -0.270   0.094 -10.150  1.00  0.00     0.005 C 
HETATM   22  C19 UNL     1       0.497  -2.074  -9.373  1.00  0.00     0.005 C 
HETATM   23  C16 UNL     1      -1.307   0.248  -9.052  1.00  0.00     0.005 C 
HETATM   24  C17 UNL     1      -1.018  -0.777  -7.972  1.00  0.00    -0.008 C 
HETATM   25  C18 UNL     1      -0.886  -2.102  -8.764  1.00  0.00     0.005 C 
ENDBRANCH  15  18
ENDBRANCH   2  15
TORSDOF 8
ENDMDL
MODEL 2
REMARK VINA RESULT: -7.856561840      3.660      5.837
REMARK  8 active torsions:
REMARK  status: ('A' for Active; 'I' for Inactive)
REMARK    1  A    between atoms: C2_2  and  C4_4 
REMARK    2  A    between atoms: C4_4  and  C5_5 
REMARK    3  A    between atoms: C7_7  and  O1_8 
REMARK    4  A    between atoms: C7_7  and  C8_10 
REMARK    5  A    between atoms: C8_10  and  C9_11 
REMARK    6  A    between atoms: C10_12  and  C11_13 
REMARK    7  A    between atoms: C11_13  and  O2_14 
REMARK    8  A    between atoms: C11_13  and  C12_16 
ROOT
HETATM    1  C9  UNL     1       0.075   0.569  -3.766  1.00  0.00    -0.025 C 
HETATM    2  C10 UNL     1      -0.723   0.585  -4.849  1.00  0.00     0.001 C 
ENDROOT
BRANCH   1   3
HETATM    3  C8  UNL     1       1.347  -0.159  -3.662  1.00  0.00     0.067 C 
BRANCH   3   4
HETATM    4  C7  UNL     1       1.259  -1.418  -2.868  1.00  0.00     0.084 C 
HETATM    5  C6  UNL     1       2.592  -2.197  -2.852  1.00  0.00     0.072 C 
HETATM    6  C5  UNL     1       3.224  -1.542  -1.678  1.00  0.00     0.124 C 
HETATM    7  O3  UNL     1       2.223  -1.399  -0.717  1.00  0.00    -0.383 OA
HETATM    8  C20 UNL     1       1.034  -1.213  -1.409  1.00  0.00     0.206 C 
BRANCH   6   9
HETATM    9  C4  UNL     1       4.480  -2.082  -1.140  1.00  0.00     0.035 C 
BRANCH   9  10
HETATM   10  C2  UNL     1       4.925  -1.662   0.214  1.00  0.00    -0.020 C 
HETATM   11  C1  UNL     1       6.268  -0.903   0.032  1.00  0.00     0.009 C 
HETATM   12  C3  UNL     1       5.306  -2.822   1.128  1.00  0.00     0.009 C 
ENDBRANCH   9  10
ENDBRANCH   6   9
BRANCH   4  13
HETATM   13  O1  UNL     1       0.257  -2.226  -3.417  1.00  0.00    -0.387 OA
ATOM     14  H1  UNL     1      -0.313  -2.535  -2.723  1.00  0.00     0.210 HD
ENDBRANCH   4  13
ENDBRANCH   3   4
ENDBRANCH   1   3
BRANCH   2  15
HETATM   15  C11 UNL     1      -0.312  -0.171  -6.020  1.00  0.00     0.145 C 
BRANCH  15  16
HETATM   16  O2  UNL     1      -1.103  -1.335  -6.108  1.00  0.00    -0.391 OA
ATOM     17  H2  UNL     1      -0.557  -2.054  -6.401  1.00  0.00     0.210 HD
ENDBRANCH  15  16
BRANCH  15  18
HETATM   18  C12 UNL     1      -0.335   0.499  -7.336  1.00  0.00     0.022 C 
HETATM   19  C13 UNL     1      -1.210  -0.127  -8.390  1.00  0.00     0.012 C 
HETATM   20  C14 UNL     1      -0.825   0.606  -9.691  1.00  0.00    -0.014 C 
HETATM   21  C15 UNL     1       0.418  -0.081 -10.199  1.00  0.00     0.005 C 
HETATM   22  C19 UNL     1      -0.452   2.048  -9.422  1.00  0.00     0.005 C 
HETATM   23  C16 UNL     1       1.388  -0.238  -9.042  1.00  0.00     0.005 C 
HETATM   24  C17 UNL     1       1.006   0.753  -7.959  1.00  0.00    -0.008 C 
HETATM   25  C18 UNL     1       0.889   2.094  -8.726  1.00  0.00     0.005 C 
ENDBRANCH  15  18
ENDBRANCH   2  15
TORSDOF 8
ENDMDL
MODEL 3
REMARK VINA RESULT: -7.656647464      3.835      6.015
REMARK  8 active torsions:
REMARK  status: ('A' for Active; 'I' for Inactive)
REMARK    1  A    between atoms: C2_2  and  C4_4 
REMARK    2  A    between atoms: C4_4  and  C5_5 
REMARK    3  A    between atoms: C7_7  and  O1_8 
REMARK    4  A    between atoms: C7_7  and  C8_10 
REMARK    5  A    between atoms: C8_10  and  C9_11 
REMARK    6  A    between atoms: C10_12  and  C11_13 
REMARK    7  A    between atoms: C11_13  and  O2_14 
REMARK    8  A    between atoms: C11_13  and  C12_16 
ROOT
HETATM    1  C9  UNL     1       1.502   0.344  -3.554  1.00  0.00    -0.025 C 
HETATM    2  C10 UNL     1       0.967   0.650  -4.749  1.00  0.00     0.001 C 
ENDROOT
BRANCH   1   3
HETATM    3  C8  UNL     1       0.832  -0.430  -2.499  1.00  0.00     0.067 C 
BRANCH   3   4
HETATM    4  C7  UNL     1       1.360  -1.816  -2.340  1.00  0.00     0.084 C 
HETATM    5  C6  UNL     1       2.869  -1.911  -2.654  1.00  0.00     0.072 C 
HETATM    6  C5  UNL     1       3.403  -1.589  -1.307  1.00  0.00     0.124 C 
HETATM    7  O3  UNL     1       2.603  -2.271  -0.390  1.00  0.00    -0.383 OA
HETATM    8  C20 UNL     1       1.331  -2.329  -0.940  1.00  0.00     0.206 C 
BRANCH   6   9
HETATM    9  C4  UNL     1       4.842  -1.731  -1.048  1.00  0.00     0.035 C 
BRANCH   9  10
HETATM   10  C2  UNL     1       5.343  -1.589   0.343  1.00  0.00    -0.020 C 
HETATM   11  C1  UNL     1       6.615  -0.698   0.275  1.00  0.00     0.009 C 
HETATM   12  C3  UNL     1       5.865  -2.888   0.948  1.00  0.00     0.009 C 
ENDBRANCH   9  10
ENDBRANCH   6   9
BRANCH   4  13
HETATM   13  O1  UNL     1       0.653  -2.667  -3.197  1.00  0.00    -0.387 OA
ATOM     14  H1  UNL     1      -0.244  -2.363  -3.272  1.00  0.00     0.210 HD
ENDBRANCH   4  13
ENDBRANCH   3   4
ENDBRANCH   1   3
BRANCH   2  15
HETATM   15  C11 UNL     1      -0.381   0.190  -5.040  1.00  0.00     0.145 C 
BRANCH  15  16
HETATM   16  O2  UNL     1      -1.300   1.046  -4.401  1.00  0.00    -0.391 OA
ATOM     17  H2  UNL     1      -1.773   0.550  -3.743  1.00  0.00     0.210 HD
ENDBRANCH  15  16
BRANCH  15  18
HETATM   18  C12 UNL     1      -0.789   0.052  -6.453  1.00  0.00     0.022 C 
HETATM   19  C13 UNL     1      -1.265  -1.310  -6.883  1.00  0.00     0.012 C 
HETATM   20  C14 UNL     1      -1.354  -1.216  -8.420  1.00  0.00    -0.014 C 
HETATM   21  C15 UNL     1       0.047  -1.456  -8.928  1.00  0.00     0.005 C 
HETATM   22  C19 UNL     1      -1.751   0.173  -8.866  1.00  0.00     0.005 C 
HETATM   23  C16 UNL     1       1.005  -0.601  -8.120  1.00  0.00     0.005 C 
HETATM   24  C17 UNL     1       0.215   0.518  -7.467  1.00  0.00    -0.008 C 
HETATM   25  C18 UNL     1      -0.593   1.119  -8.645  1.00  0.00     0.005 C 
ENDBRANCH  15  18
ENDBRANCH   2  15
TORSDOF 8
ENDMDL
MODEL 4
REMARK VINA RESULT: -7.607157829      3.416      5.276
REMARK  8 active torsions:
REMARK  status: ('A' for Active; 'I' for Inactive)
REMARK    1  A    between atoms: C2_2  and  C4_4 
REMARK    2  A    between atoms: C4_4  and  C5_5 
REMARK    3  A    between atoms: C7_7  and  O1_8 
REMARK    4  A    between atoms: C7_7  and  C8_10 
REMARK    5  A    between atoms: C8_10  and  C9_11 
REMARK    6  A    between atoms: C10_12  and  C11_13 
REMARK    7  A    between atoms: C11_13  and  O2_14 
REMARK    8  A    between atoms: C11_13  and  C12_16 
ROOT
HETATM    1  C9  UNL     1       1.678   0.619  -4.034  1.00  0.00    -0.025 C 
HETATM    2  C10 UNL     1       0.898   1.222  -4.948  1.00  0.00     0.001 C 
ENDROOT
BRANCH   1   3
HETATM    3  C8  UNL     1       1.691  -0.822  -3.750  1.00  0.00     0.067 C 
BRANCH   3   4
HETATM    4  C7  UNL     1       0.713  -1.240  -2.704  1.00  0.00     0.084 C 
HETATM    5  C6  UNL     1       1.239  -2.408  -1.840  1.00  0.00     0.072 C 
HETATM    6  C5  UNL     1       1.956  -1.620  -0.805  1.00  0.00     0.124 C 
HETATM    7  O3  UNL     1       1.137  -0.534  -0.496  1.00  0.00    -0.383 OA
HETATM    8  C20 UNL     1       0.451  -0.211  -1.658  1.00  0.00     0.206 C 
BRANCH   6   9
HETATM    9  C4  UNL     1       2.494  -2.305   0.378  1.00  0.00     0.035 C 
BRANCH   9  10
HETATM   10  C2  UNL     1       3.960  -2.530   0.476  1.00  0.00    -0.020 C 
HETATM   11  C1  UNL     1       4.484  -1.597   1.602  1.00  0.00     0.009 C 
HETATM   12  C3  UNL     1       4.741  -2.066  -0.749  1.00  0.00     0.009 C 
ENDBRANCH   9  10
ENDBRANCH   6   9
BRANCH   4  13
HETATM   13  O1  UNL     1      -0.476  -1.627  -3.331  1.00  0.00    -0.387 OA
ATOM     14  H1  UNL     1      -0.272  -2.149  -4.099  1.00  0.00     0.210 HD
ENDBRANCH   4  13
ENDBRANCH   3   4
ENDBRANCH   1   3
BRANCH   2  15
HETATM   15  C11 UNL     1      -0.013   0.400  -5.727  1.00  0.00     0.145 C 
BRANCH  15  16
HETATM   16  O2  UNL     1      -1.300   0.488  -5.159  1.00  0.00    -0.391 OA
ATOM     17  H2  UNL     1      -1.493   1.400  -4.977  1.00  0.00     0.210 HD
ENDBRANCH  15  16
BRANCH  15  18
HETATM   18  C12 UNL     1      -0.134   0.661  -7.176  1.00  0.00     0.022 C 
HETATM   19  C13 UNL     1      -0.761  -0.431  -8.002  1.00  0.00     0.012 C 
HETATM   20  C14 UNL     1      -0.505  -0.002  -9.461  1.00  0.00    -0.014 C 
HETATM   21  C15 UNL     1       0.898  -0.453  -9.783  1.00  0.00     0.005 C 
HETATM   22  C19 UNL     1      -0.526   1.504  -9.605  1.00  0.00     0.005 C 
HETATM   23  C16 UNL     1       1.811  -0.034  -8.645  1.00  0.00     0.005 C 
HETATM   24  C17 UNL     1       1.130   1.078  -7.869  1.00  0.00    -0.008 C 
HETATM   25  C18 UNL     1       0.719   2.084  -8.973  1.00  0.00     0.005 C 
ENDBRANCH  15  18
ENDBRANCH   2  15
TORSDOF 8
ENDMDL
MODEL 5
REMARK VINA RESULT: -7.555858016      1.124      1.916
REMARK  8 active torsions:
REMARK  status: ('A' for Active; 'I' for Inactive)
REMARK    1  A    between atoms: C2_2  and  C4_4 
REMARK    2  A    between atoms: C4_4  and  C5_5 
REMARK    3  A    between atoms: C7_7  and  O1_8 
REMARK    4  A    between atoms: C7_7  and  C8_10 
REMARK    5  A    between atoms: C8_10  and  C9_11 
REMARK    6  A    between atoms: C10_12  and  C11_13 
REMARK    7  A    between atoms: C11_13  and  O2_14 
REMARK    8  A    between atoms: C11_13  and  C12_16 
ROOT
HETATM    1  C9  UNL     1      -1.106  -0.809  -4.045  1.00  0.00    -0.025 C 
HETATM    2  C10 UNL     1      -0.494  -0.851  -5.241  1.00  0.00     0.001 C 
ENDROOT
BRANCH   1   3
HETATM    3  C8  UNL     1      -1.623   0.406  -3.400  1.00  0.00     0.067 C 
BRANCH   3   4
HETATM    4  C7  UNL     1      -0.718   0.966  -2.354  1.00  0.00     0.084 C 
HETATM    5  C6  UNL     1      -1.298   2.236  -1.693  1.00  0.00     0.072 C 
HETATM    6  C5  UNL     1      -2.088   1.591  -0.615  1.00  0.00     0.124 C 
HETATM    7  O3  UNL     1      -1.297   0.559  -0.106  1.00  0.00    -0.383 OA
HETATM    8  C20 UNL     1      -0.534   0.088  -1.164  1.00  0.00     0.206 C 
BRANCH   6   9
HETATM    9  C4  UNL     1      -2.705   2.424   0.426  1.00  0.00     0.035 C 
BRANCH   9  10
HETATM   10  C2  UNL     1      -4.186   2.532   0.480  1.00  0.00    -0.020 C 
HETATM   11  C1  UNL     1      -4.657   1.663   1.679  1.00  0.00     0.009 C 
HETATM   12  C3  UNL     1      -4.897   1.893  -0.708  1.00  0.00     0.009 C 
ENDBRANCH   9  10
ENDBRANCH   6   9
BRANCH   4  13
HETATM   13  O1  UNL     1       0.514   1.271  -2.943  1.00  0.00    -0.387 OA
ATOM     14  H1  UNL     1       0.368   1.792  -3.725  1.00  0.00     0.210 HD
ENDBRANCH   4  13
ENDBRANCH   3   4
ENDBRANCH   1   3
BRANCH   2  15
HETATM   15  C11 UNL     1      -0.318   0.394  -5.970  1.00  0.00     0.145 C 
BRANCH  15  16
HETATM   16  O2  UNL     1       0.933   0.946  -5.629  1.00  0.00    -0.391 OA
ATOM     17  H2  UNL     1       1.502   0.905  -6.388  1.00  0.00     0.210 HD
ENDBRANCH  15  16
BRANCH  15  18
HETATM   18  C12 UNL     1      -0.420   0.369  -7.444  1.00  0.00     0.022 C 
HETATM   19  C13 UNL     1      -0.904  -0.917  -8.059  1.00  0.00     0.012 C 
HETATM   20  C14 UNL     1      -0.649  -0.738  -9.569  1.00  0.00    -0.014 C 
HETATM   21  C15 UNL     1       0.803  -1.087  -9.786  1.00  0.00     0.005 C 
HETATM   22  C19 UNL     1      -0.822   0.704  -9.991  1.00  0.00     0.005 C 
HETATM   23  C16 UNL     1       1.631  -0.371  -8.735  1.00  0.00     0.005 C 
HETATM   24  C17 UNL     1       0.816   0.785  -8.188  1.00  0.00    -0.008 C 
HETATM   25  C18 UNL     1       0.336   1.521  -9.464  1.00  0.00     0.005 C 
ENDBRANCH  15  18
ENDBRANCH   2  15
TORSDOF 8
ENDMDL
