MODEL 1
REMARK VINA RESULT: -7.392263560      0.000      0.000
REMARK  6 active torsions:
REMARK  status: ('A' for Active; 'I' for Inactive)
REMARK       I    between atoms: C1_2  and  N1_3 
REMARK       I    between atoms: C1_2  and  N2_13 
REMARK    1  A    between atoms: N1_3  and  C2_5 
REMARK    2  A    between atoms: C2_5  and  C3_6 
REMARK    3  A    between atoms: C3_6  and  C4_7 
REMARK    4  A    between atoms: C4_7  and  C5_8 
REMARK    5  A    between atoms: N2_13  and  C10_15 
REMARK    6  A    between atoms: C14_21  and  N4_22 
ROOT
HETATM    1  O1  UNL     1       1.228  -0.168  -6.330  1.00  0.00    -0.247 OA
HETATM    2  C1  UNL     1       1.296   0.948  -5.783  1.00  0.00     0.320 C 
HETATM    3  N1  UNL     1       1.321   2.074  -6.650  1.00  0.00    -0.343 N 
ATOM      4  H1  UNL     1       1.380   3.006  -6.237  1.00  0.00     0.164 HD
HETATM    5  N2  UNL     1       1.346   1.139  -4.400  1.00  0.00    -0.306 N 
ATOM      6  H2  UNL     1       1.404   2.110  -4.094  1.00  0.00     0.171 HD
ENDROOT
BRANCH   5   7
HETATM    7  C10 UNL     1       1.329   0.181  -3.366  1.00  0.00     0.078 A 
HETATM    8  C11 UNL     1       2.314  -0.787  -3.175  1.00  0.00     0.119 A 
HETATM    9  N3  UNL     1       2.227  -1.719  -2.181  1.00  0.00    -0.373 N 
HETATM   10  C12 UNL     1       1.186  -1.746  -1.339  1.00  0.00     0.090 A 
ATOM     11  H3  UNL     1       2.970  -2.409  -2.077  1.00  0.00     0.164 HD
HETATM   12  C13 UNL     1       0.175  -0.821  -1.467  1.00  0.00     0.048 A 
HETATM   13  C14 UNL     1       0.264   0.140  -2.489  1.00  0.00     0.060 A 
BRANCH  13  14
HETATM   14  N4  UNL     1      -0.764   1.096  -2.568  1.00  0.00    -0.379 N 
HETATM   15  C15 UNL     1      -0.889   2.114  -1.556  1.00  0.00     0.123 C 
HETATM   16  C16 UNL     1      -2.294   2.052  -0.946  1.00  0.00     0.020 C 
HETATM   17  C17 UNL     1      -3.348   1.902  -1.990  1.00  0.00     0.003 C 
HETATM   18  C18 UNL     1      -2.844   2.035  -3.409  1.00  0.00     0.020 C 
HETATM   19  C19 UNL     1      -1.700   1.050  -3.664  1.00  0.00     0.123 C 
ENDBRANCH  13  14
ENDBRANCH   5   7
BRANCH   3  20
HETATM   20  C2  UNL     1       1.267   1.959  -8.089  1.00  0.00     0.124 C 
BRANCH  20  21
HETATM   21  C3  UNL     1      -0.078   2.041  -8.686  1.00  0.00     0.020 C 
BRANCH  21  22
HETATM   22  C4  UNL     1      -0.430   1.236  -9.861  1.00  0.00     0.006 C 
BRANCH  22  23
HETATM   23  C5  UNL     1      -0.935  -0.131  -9.608  1.00  0.00    -0.014 C 
HETATM   24  C6  UNL     1      -1.651  -0.415  -8.352  1.00  0.00     0.004 C 
HETATM   25  C7  UNL     1      -1.412  -1.894  -8.023  1.00  0.00     0.000 C 
HETATM   26  C8  UNL     1      -0.516  -2.394  -9.156  1.00  0.00     0.000 C 
HETATM   27  C9  UNL     1       0.246  -1.135  -9.570  1.00  0.00     0.004 C 
ENDBRANCH  22  23
ENDBRANCH  21  22
ENDBRANCH  20  21
ENDBRANCH   3  20
TORSDOF 6
ENDMDL
MODEL 2
REMARK VINA RESULT: -7.390119452      1.684      4.276
REMARK  6 active torsions:
REMARK  status: ('A' for Active; 'I' for Inactive)
REMARK       I    between atoms: C1_2  and  N1_3 
REMARK       I    between atoms: C1_2  and  N2_13 
REMARK    1  A    between atoms: N1_3  and  C2_5 
REMARK    2  A    between atoms: C2_5  and  C3_6 
REMARK    3  A    between atoms: C3_6  and  C4_7 
REMARK    4  A    between atoms: C4_7  and  C5_8 
REMARK    5  A    between atoms: N2_13  and  C10_15 
REMARK    6  A    between atoms: C14_21  and  N4_22 
ROOT
HETATM    1  O1  UNL     1      -1.263   0.175  -6.343  1.00  0.00    -0.247 OA
HETATM    2  C1  UNL     1      -1.304  -0.945  -5.801  1.00  0.00     0.320 C 
HETATM    3  N1  UNL     1      -1.313  -2.068  -6.672  1.00  0.00    -0.343 N 
ATOM      4  H1  UNL     1      -1.350  -3.002  -6.263  1.00  0.00     0.164 HD
HETATM    5  N2  UNL     1      -1.341  -1.142  -4.417  1.00  0.00    -0.306 N 
ATOM      6  H2  UNL     1      -1.377  -2.116  -4.116  1.00  0.00     0.171 HD
ENDROOT
BRANCH   5   7
HETATM    7  C10 UNL     1      -1.336  -0.188  -3.380  1.00  0.00     0.078 A 
HETATM    8  C11 UNL     1      -2.327   0.773  -3.191  1.00  0.00     0.119 A 
HETATM    9  N3  UNL     1      -2.252   1.701  -2.193  1.00  0.00    -0.373 N 
HETATM   10  C12 UNL     1      -1.217   1.731  -1.344  1.00  0.00     0.090 A 
ATOM     11  H3  UNL     1      -3.000   2.387  -2.091  1.00  0.00     0.164 HD
HETATM   12  C13 UNL     1      -0.201   0.811  -1.468  1.00  0.00     0.048 A 
HETATM   13  C14 UNL     1      -0.278  -0.146  -2.495  1.00  0.00     0.060 A 
BRANCH  13  14
HETATM   14  N4  UNL     1       0.755  -1.096  -2.571  1.00  0.00    -0.379 N 
HETATM   15  C15 UNL     1       0.888  -2.109  -1.554  1.00  0.00     0.123 C 
HETATM   16  C16 UNL     1       2.294  -2.036  -0.946  1.00  0.00     0.020 C 
HETATM   17  C17 UNL     1       3.345  -1.884  -1.992  1.00  0.00     0.003 C 
HETATM   18  C18 UNL     1       2.840  -2.027  -3.410  1.00  0.00     0.020 C 
HETATM   19  C19 UNL     1       1.690  -1.050  -3.668  1.00  0.00     0.123 C 
ENDBRANCH  13  14
ENDBRANCH   5   7
BRANCH   3  20
HETATM   20  C2  UNL     1      -1.271  -1.945  -8.111  1.00  0.00     0.124 C 
BRANCH  20  21
HETATM   21  C3  UNL     1       0.067  -2.043  -8.722  1.00  0.00     0.020 C 
BRANCH  21  22
HETATM   22  C4  UNL     1       0.422  -1.229  -9.890  1.00  0.00     0.006 C 
BRANCH  22  23
HETATM   23  C5  UNL     1       0.929   0.134  -9.626  1.00  0.00    -0.014 C 
HETATM   24  C6  UNL     1       1.644   0.408  -8.367  1.00  0.00     0.004 C 
HETATM   25  C7  UNL     1       1.407   1.885  -8.028  1.00  0.00     0.000 C 
HETATM   26  C8  UNL     1       0.514   2.394  -9.158  1.00  0.00     0.000 C 
HETATM   27  C9  UNL     1      -0.250   1.140  -9.583  1.00  0.00     0.004 C 
ENDBRANCH  22  23
ENDBRANCH  21  22
ENDBRANCH  20  21
ENDBRANCH   3  20
TORSDOF 6
ENDMDL
MODEL 3
REMARK VINA RESULT: -6.989346444      1.449      3.436
REMARK  6 active torsions:
REMARK  status: ('A' for Active; 'I' for Inactive)
REMARK       I    between atoms: C1_2  and  N1_3 
REMARK       I    between atoms: C1_2  and  N2_13 
REMARK    1  A    between atoms: N1_3  and  C2_5 
REMARK    2  A    between atoms: C2_5  and  C3_6 
REMARK    3  A    between atoms: C3_6  and  C4_7 
REMARK    4  A    between atoms: C4_7  and  C5_8 
REMARK    5  A    between atoms: N2_13  and  C10_15 
REMARK    6  A    between atoms: C14_21  and  N4_22 
ROOT
HETATM    1  O1  UNL     1       1.322   2.479  -4.510  1.00  0.00    -0.247 OA
HETATM    2  C1  UNL     1       0.690   1.450  -4.813  1.00  0.00     0.320 C 
HETATM    3  N1  UNL     1       0.843   0.986  -6.148  1.00  0.00    -0.343 N 
ATOM      4  H1  UNL     1       0.337   0.147  -6.434  1.00  0.00     0.164 HD
HETATM    5  N2  UNL     1      -0.136   0.751  -3.929  1.00  0.00    -0.306 N 
ATOM      6  H2  UNL     1      -0.594  -0.073  -4.317  1.00  0.00     0.171 HD
ENDROOT
BRANCH   5   7
HETATM    7  C10 UNL     1      -0.427   1.022  -2.576  1.00  0.00     0.078 A 
HETATM    8  C11 UNL     1      -1.163   2.121  -2.136  1.00  0.00     0.119 A 
HETATM    9  N3  UNL     1      -1.381   2.359  -0.809  1.00  0.00    -0.373 N 
HETATM   10  C12 UNL     1      -0.895   1.544   0.135  1.00  0.00     0.090 A 
ATOM     11  H3  UNL     1      -1.925   3.175  -0.532  1.00  0.00     0.164 HD
HETATM   12  C13 UNL     1      -0.159   0.438  -0.225  1.00  0.00     0.048 A 
HETATM   13  C14 UNL     1       0.065   0.191  -1.591  1.00  0.00     0.060 A 
BRANCH  13  14
HETATM   14  N4  UNL     1       0.786  -0.968  -1.928  1.00  0.00    -0.379 N 
HETATM   15  C15 UNL     1       2.035  -1.265  -1.271  1.00  0.00     0.123 C 
HETATM   16  C16 UNL     1       3.137  -1.426  -2.324  1.00  0.00     0.020 C 
HETATM   17  C17 UNL     1       2.685  -2.253  -3.480  1.00  0.00     0.003 C 
HETATM   18  C18 UNL     1       1.336  -2.908  -3.288  1.00  0.00     0.020 C 
HETATM   19  C19 UNL     1       0.277  -1.858  -2.941  1.00  0.00     0.123 C 
ENDBRANCH  13  14
ENDBRANCH   5   7
BRANCH   3  20
HETATM   20  C2  UNL     1       1.682   1.651  -7.118  1.00  0.00     0.124 C 
BRANCH  20  21
HETATM   21  C3  UNL     1       1.628   1.108  -8.488  1.00  0.00     0.020 C 
BRANCH  21  22
HETATM   22  C4  UNL     1       0.392   1.178  -9.276  1.00  0.00     0.006 C 
BRANCH  22  23
HETATM   23  C5  UNL     1      -0.433  -0.048  -9.334  1.00  0.00    -0.014 C 
HETATM   24  C6  UNL     1      -1.556  -0.208  -8.393  1.00  0.00     0.004 C 
HETATM   25  C7  UNL     1      -1.740  -1.714  -8.165  1.00  0.00     0.000 C 
HETATM   26  C8  UNL     1      -0.649  -2.362  -9.017  1.00  0.00     0.000 C 
HETATM   27  C9  UNL     1       0.443  -1.293  -9.044  1.00  0.00     0.004 C 
ENDBRANCH  22  23
ENDBRANCH  21  22
ENDBRANCH  20  21
ENDBRANCH   3  20
TORSDOF 6
ENDMDL
MODEL 4
REMARK VINA RESULT: -6.981558699      1.666      2.756
REMARK  6 active torsions:
REMARK  status: ('A' for Active; 'I' for Inactive)
REMARK       I    between atoms: C1_2  and  N1_3 
REMARK       I    between atoms: C1_2  and  N2_13 
REMARK    1  A    between atoms: N1_3  and  C2_5 
REMARK    2  A    between atoms: C2_5  and  C3_6 
REMARK    3  A    between atoms: C3_6  and  C4_7 
REMARK    4  A    between atoms: C4_7  and  C5_8 
REMARK    5  A    between atoms: N2_13  and  C10_15 
REMARK    6  A    between atoms: C14_21  and  N4_22 
ROOT
HETATM    1  O1  UNL     1      -1.271  -2.517  -4.527  1.00  0.00    -0.247 OA
HETATM    2  C1  UNL     1      -0.669  -1.466  -4.816  1.00  0.00     0.320 C 
HETATM    3  N1  UNL     1      -0.830  -0.991  -6.146  1.00  0.00    -0.343 N 
ATOM      4  H1  UNL     1      -0.348  -0.134  -6.419  1.00  0.00     0.164 HD
HETATM    5  N2  UNL     1       0.133  -0.754  -3.919  1.00  0.00    -0.306 N 
ATOM      6  H2  UNL     1       0.568   0.088  -4.296  1.00  0.00     0.171 HD
ENDROOT
BRANCH   5   7
HETATM    7  C10 UNL     1       0.427  -1.033  -2.569  1.00  0.00     0.078 A 
HETATM    8  C11 UNL     1       1.164  -2.134  -2.137  1.00  0.00     0.119 A 
HETATM    9  N3  UNL     1       1.385  -2.379  -0.812  1.00  0.00    -0.373 N 
HETATM   10  C12 UNL     1       0.900  -1.570   0.138  1.00  0.00     0.090 A 
ATOM     11  H3  UNL     1       1.930  -3.197  -0.540  1.00  0.00     0.164 HD
HETATM   12  C13 UNL     1       0.163  -0.462  -0.214  1.00  0.00     0.048 A 
HETATM   13  C14 UNL     1      -0.064  -0.208  -1.578  1.00  0.00     0.060 A 
BRANCH  13  14
HETATM   14  N4  UNL     1      -0.786   0.953  -1.907  1.00  0.00    -0.379 N 
HETATM   15  C15 UNL     1      -2.038   1.240  -1.253  1.00  0.00     0.123 C 
HETATM   16  C16 UNL     1      -3.136   1.409  -2.310  1.00  0.00     0.020 C 
HETATM   17  C17 UNL     1      -2.680   2.249  -3.455  1.00  0.00     0.003 C 
HETATM   18  C18 UNL     1      -1.333   2.905  -3.250  1.00  0.00     0.020 C 
HETATM   19  C19 UNL     1      -0.274   1.854  -2.909  1.00  0.00     0.123 C 
ENDBRANCH  13  14
ENDBRANCH   5   7
BRANCH   3  20
HETATM   20  C2  UNL     1      -1.646  -1.669  -7.127  1.00  0.00     0.124 C 
BRANCH  20  21
HETATM   21  C3  UNL     1      -1.633  -1.085  -8.481  1.00  0.00     0.020 C 
BRANCH  21  22
HETATM   22  C4  UNL     1      -0.426  -1.144  -9.314  1.00  0.00     0.006 C 
BRANCH  22  23
HETATM   23  C5  UNL     1       0.422   0.067  -9.349  1.00  0.00    -0.014 C 
HETATM   24  C6  UNL     1       1.557   0.181  -8.417  1.00  0.00     0.004 C 
HETATM   25  C7  UNL     1       1.773   1.676  -8.151  1.00  0.00     0.000 C 
HETATM   26  C8  UNL     1       0.686   2.367  -8.974  1.00  0.00     0.000 C 
HETATM   27  C9  UNL     1      -0.427   1.320  -9.017  1.00  0.00     0.004 C 
ENDBRANCH  22  23
ENDBRANCH  21  22
ENDBRANCH  20  21
ENDBRANCH   3  20
TORSDOF 6
ENDMDL
MODEL 5
REMARK VINA RESULT: -6.708936972      5.680      8.805
REMARK  6 active torsions:
REMARK  status: ('A' for Active; 'I' for Inactive)
REMARK       I    between atoms: C1_2  and  N1_3 
REMARK       I    between atoms: C1_2  and  N2_13 
REMARK    1  A    between atoms: N1_3  and  C2_5 
REMARK    2  A    between atoms: C2_5  and  C3_6 
REMARK    3  A    between atoms: C3_6  and  C4_7 
REMARK    4  A    between atoms: C4_7  and  C5_8 
REMARK    5  A    between atoms: N2_13  and  C10_15 
REMARK    6  A    between atoms: C14_21  and  N4_22 
ROOT
HETATM    1  O1  UNL     1       3.674  -0.923   1.237  1.00  0.00    -0.247 OA
HETATM    2  C1  UNL     1       4.110  -1.734   0.399  1.00  0.00     0.320 C 
HETATM    3  N1  UNL     1       3.138  -2.473  -0.329  1.00  0.00    -0.343 N 
ATOM      4  H1  UNL     1       3.459  -3.150  -1.022  1.00  0.00     0.164 HD
HETATM    5  N2  UNL     1       5.469  -1.945   0.149  1.00  0.00    -0.306 N 
ATOM      6  H2  UNL     1       5.679  -2.644  -0.563  1.00  0.00     0.171 HD
ENDROOT
BRANCH   5   7
HETATM    7  C10 UNL     1       6.591  -1.329   0.740  1.00  0.00     0.078 A 
HETATM    8  C11 UNL     1       6.968  -0.005   0.519  1.00  0.00     0.119 A 
HETATM    9  N3  UNL     1       8.089   0.530   1.085  1.00  0.00    -0.373 N 
HETATM   10  C12 UNL     1       8.882  -0.196   1.884  1.00  0.00     0.090 A 
ATOM     11  H3  UNL     1       8.328   1.503   0.896  1.00  0.00     0.164 HD
HETATM   12  C13 UNL     1       8.572  -1.510   2.148  1.00  0.00     0.048 A 
HETATM   13  C14 UNL     1       7.417  -2.062   1.567  1.00  0.00     0.060 A 
BRANCH  13  14
HETATM   14  N4  UNL     1       7.106  -3.395   1.888  1.00  0.00    -0.379 N 
HETATM   15  C15 UNL     1       6.209  -3.690   2.978  1.00  0.00     0.123 C 
HETATM   16  C16 UNL     1       6.912  -4.616   3.977  1.00  0.00     0.020 C 
HETATM   17  C17 UNL     1       7.645  -5.719   3.292  1.00  0.00     0.003 C 
HETATM   18  C18 UNL     1       7.389  -5.809   1.805  1.00  0.00     0.020 C 
HETATM   19  C19 UNL     1       7.694  -4.470   1.128  1.00  0.00     0.123 C 
ENDBRANCH  13  14
ENDBRANCH   5   7
BRANCH   3  20
HETATM   20  C2  UNL     1       1.716  -2.308  -0.131  1.00  0.00     0.124 C 
BRANCH  20  21
HETATM   21  C3  UNL     1       0.985  -1.682  -1.247  1.00  0.00     0.020 C 
BRANCH  21  22
HETATM   22  C4  UNL     1       1.052  -2.247  -2.600  1.00  0.00     0.006 C 
BRANCH  22  23
HETATM   23  C5  UNL     1       1.124  -1.286  -3.722  1.00  0.00    -0.014 C 
HETATM   24  C6  UNL     1       1.603   0.084  -3.470  1.00  0.00     0.004 C 
HETATM   25  C7  UNL     1       0.925   0.994  -4.503  1.00  0.00     0.000 C 
HETATM   26  C8  UNL     1       0.043   0.049  -5.318  1.00  0.00     0.000 C 
HETATM   27  C9  UNL     1      -0.289  -1.058  -4.317  1.00  0.00     0.004 C 
ENDBRANCH  22  23
ENDBRANCH  21  22
ENDBRANCH  20  21
ENDBRANCH   3  20
TORSDOF 6
ENDMDL
