MODEL 1
REMARK VINA RESULT: -7.039167488      0.000      0.000
REMARK  7 active torsions:
REMARK  status: ('A' for Active; 'I' for Inactive)
REMARK    1  A    between atoms: C2_2  and  N1_3 
REMARK    2  A    between atoms: N1_3  and  C3_4 
REMARK    3  A    between atoms: N1_3  and  C5_6 
REMARK    4  A    between atoms: C5_6  and  C6_7 
REMARK    5  A    between atoms: C6_7  and  N2_8 
REMARK    6  A    between atoms: N2_8  and  C7_10 
REMARK    7  A    between atoms: C7_10  and  C8_11 
ROOT
HETATM    1  C8  UNL     1      -0.423   0.767   2.305  1.00  0.00     0.247 C 
HETATM    2  C9  UNL     1       0.341   0.296   1.073  1.00  0.00     0.015 C 
HETATM    3  C10 UNL     1      -0.042  -0.706   0.319  1.00  0.00    -0.070 C 
HETATM    4  C11 UNL     1       0.948  -0.883  -0.793  1.00  0.00     0.039 C 
HETATM    5  C12 UNL     1       0.435   0.001  -1.905  1.00  0.00    -0.015 C 
HETATM    6  C13 UNL     1       1.586   0.465  -2.766  1.00  0.00     0.010 C 
HETATM    7  C14 UNL     1      -0.612  -0.720  -2.654  1.00  0.00     0.005 C 
HETATM    8  C15 UNL     1      -1.245  -1.887  -1.922  1.00  0.00     0.006 C 
HETATM    9  C16 UNL     1      -2.054  -1.495  -0.734  1.00  0.00    -0.000 C 
HETATM   10  C17 UNL     1      -3.302  -2.309  -0.718  1.00  0.00     0.006 C 
HETATM   11  C18 UNL     1      -4.334  -1.494   0.057  1.00  0.00     0.001 C 
HETATM   12  C19 UNL     1      -4.246  -1.992   1.460  1.00  0.00     0.006 C 
HETATM   13  C20 UNL     1      -3.187  -1.368   2.289  1.00  0.00     0.013 C 
HETATM   14  C21 UNL     1      -2.772  -2.341   3.372  1.00  0.00     0.012 C 
HETATM   15  C22 UNL     1      -2.037  -0.766   1.626  1.00  0.00     0.203 C 
HETATM   16  N3  UNL     1      -1.148  -0.344   2.738  1.00  0.00    -0.058 N 
ATOM     17  H31 UNL     1      -1.655  -0.172   3.606  1.00  0.00     0.278 HD
ATOM     18  H32 UNL     1      -0.552  -1.099   3.076  1.00  0.00     0.278 HD
HETATM   19  C23 UNL     1      -1.310  -1.500   0.573  1.00  0.00     0.012 C 
HETATM   20  C24 UNL     1      -0.838  -2.868   0.971  1.00  0.00     0.022 C 
ENDROOT
BRANCH   1  21
HETATM   21  C7  UNL     1       0.584   1.287   3.274  1.00  0.00     0.097 C 
BRANCH  21  22
HETATM   22  N2  UNL     1       0.943   0.438   4.336  1.00  0.00    -0.378 N 
ATOM     23  H2  UNL     1       1.530  -0.368   4.120  1.00  0.00     0.164 HD
BRANCH  22  24
HETATM   24  C6  UNL     1       0.559   0.619   5.650  1.00  0.00     0.090 C 
BRANCH  24  25
HETATM   25  C5  UNL     1      -0.248  -0.449   6.345  1.00  0.00     0.316 C 
BRANCH  25  26
HETATM   26  N1  UNL     1       0.141  -0.803   7.664  1.00  0.00     0.092 N 
BRANCH  26  27
HETATM   27  C2  UNL     1      -0.650  -0.034   8.602  1.00  0.00     0.268 C 
HETATM   28  C1  UNL     1      -2.069  -0.359   8.771  1.00  0.00     0.037 C 
ENDBRANCH  26  27
BRANCH  26  29
HETATM   29  C3  UNL     1       1.498  -0.783   8.005  1.00  0.00     0.268 C 
HETATM   30  C4  UNL     1       1.969   0.329   8.918  1.00  0.00     0.037 C 
ENDBRANCH  26  29
ENDBRANCH  25  26
ENDBRANCH  24  25
ENDBRANCH  22  24
ENDBRANCH  21  22
ENDBRANCH   1  21
TORSDOF 7
ENDMDL
MODEL 2
REMARK VINA RESULT: -7.037826850      2.003      4.535
REMARK  7 active torsions:
REMARK  status: ('A' for Active; 'I' for Inactive)
REMARK    1  A    between atoms: C2_2  and  N1_3 
REMARK    2  A    between atoms: N1_3  and  C3_4 
REMARK    3  A    between atoms: N1_3  and  C5_6 
REMARK    4  A    between atoms: C5_6  and  C6_7 
REMARK    5  A    between atoms: C6_7  and  N2_8 
REMARK    6  A    between atoms: N2_8  and  C7_10 
REMARK    7  A    between atoms: C7_10  and  C8_11 
ROOT
HETATM    1  C8  UNL     1       0.454  -0.786   2.291  1.00  0.00     0.247 C 
HETATM    2  C9  UNL     1      -0.319  -0.309   1.067  1.00  0.00     0.015 C 
HETATM    3  C10 UNL     1       0.055   0.699   0.318  1.00  0.00    -0.070 C 
HETATM    4  C11 UNL     1      -0.943   0.879  -0.787  1.00  0.00     0.039 C 
HETATM    5  C12 UNL     1      -0.432   0.005  -1.908  1.00  0.00    -0.015 C 
HETATM    6  C13 UNL     1      -1.588  -0.458  -2.765  1.00  0.00     0.010 C 
HETATM    7  C14 UNL     1       0.607   0.734  -2.658  1.00  0.00     0.005 C 
HETATM    8  C15 UNL     1       1.239   1.899  -1.923  1.00  0.00     0.006 C 
HETATM    9  C16 UNL     1       2.058   1.503  -0.743  1.00  0.00    -0.000 C 
HETATM   10  C17 UNL     1       3.302   2.322  -0.729  1.00  0.00     0.006 C 
HETATM   11  C18 UNL     1       4.342   1.506   0.034  1.00  0.00     0.001 C 
HETATM   12  C19 UNL     1       4.261   1.995   1.441  1.00  0.00     0.006 C 
HETATM   13  C20 UNL     1       3.210   1.361   2.272  1.00  0.00     0.013 C 
HETATM   14  C21 UNL     1       2.798   2.325   3.364  1.00  0.00     0.012 C 
HETATM   15  C22 UNL     1       2.058   0.759   1.612  1.00  0.00     0.203 C 
HETATM   16  N3  UNL     1       1.178   0.325   2.727  1.00  0.00    -0.058 N 
ATOM     17  H31 UNL     1       1.691   0.150   3.591  1.00  0.00     0.278 HD
ATOM     18  H32 UNL     1       0.581   1.075   3.074  1.00  0.00     0.278 HD
HETATM   19  C23 UNL     1       1.322   1.496   0.569  1.00  0.00     0.012 C 
HETATM   20  C24 UNL     1       0.846   2.860   0.979  1.00  0.00     0.022 C 
ENDROOT
BRANCH   1  21
HETATM   21  C7  UNL     1      -0.544  -1.316   3.264  1.00  0.00     0.097 C 
BRANCH  21  22
HETATM   22  N2  UNL     1      -0.948  -0.452   4.297  1.00  0.00    -0.378 N 
ATOM     23  H2  UNL     1      -1.578   0.313   4.055  1.00  0.00     0.164 HD
BRANCH  22  24
HETATM   24  C6  UNL     1      -0.551  -0.566   5.615  1.00  0.00     0.090 C 
BRANCH  24  25
HETATM   25  C5  UNL     1       0.129   0.596   6.293  1.00  0.00     0.316 C 
BRANCH  25  26
HETATM   26  N1  UNL     1      -0.181   0.825   7.660  1.00  0.00     0.092 N 
BRANCH  26  27
HETATM   27  C2  UNL     1       0.631  -0.057   8.472  1.00  0.00     0.268 C 
HETATM   28  C1  UNL     1       2.013   0.325   8.774  1.00  0.00     0.037 C 
ENDBRANCH  26  27
BRANCH  26  29
HETATM   29  C3  UNL     1      -1.519   0.809   8.069  1.00  0.00     0.268 C 
HETATM   30  C4  UNL     1      -1.982  -0.380   8.883  1.00  0.00     0.037 C 
ENDBRANCH  26  29
ENDBRANCH  25  26
ENDBRANCH  24  25
ENDBRANCH  22  24
ENDBRANCH  21  22
ENDBRANCH   1  21
TORSDOF 7
ENDMDL
MODEL 3
REMARK VINA RESULT: -7.028027523      1.964      4.334
REMARK  7 active torsions:
REMARK  status: ('A' for Active; 'I' for Inactive)
REMARK    1  A    between atoms: C2_2  and  N1_3 
REMARK    2  A    between atoms: N1_3  and  C3_4 
REMARK    3  A    between atoms: N1_3  and  C5_6 
REMARK    4  A    between atoms: C5_6  and  C6_7 
REMARK    5  A    between atoms: C6_7  and  N2_8 
REMARK    6  A    between atoms: N2_8  and  C7_10 
REMARK    7  A    between atoms: C7_10  and  C8_11 
ROOT
HETATM    1  C8  UNL     1       0.569  -0.769   2.479  1.00  0.00     0.247 C 
HETATM    2  C9  UNL     1      -0.254  -0.350   1.267  1.00  0.00     0.015 C 
HETATM    3  C10 UNL     1       0.078   0.635   0.469  1.00  0.00    -0.070 C 
HETATM    4  C11 UNL     1      -0.960   0.761  -0.605  1.00  0.00     0.039 C 
HETATM    5  C12 UNL     1      -0.476  -0.146  -1.711  1.00  0.00    -0.015 C 
HETATM    6  C13 UNL     1      -1.653  -0.657  -2.509  1.00  0.00     0.010 C 
HETATM    7  C14 UNL     1       0.525   0.570  -2.524  1.00  0.00     0.005 C 
HETATM    8  C15 UNL     1       1.164   1.770  -1.854  1.00  0.00     0.006 C 
HETATM    9  C16 UNL     1       2.030   1.430  -0.690  1.00  0.00    -0.000 C 
HETATM   10  C17 UNL     1       3.261   2.266  -0.750  1.00  0.00     0.006 C 
HETATM   11  C18 UNL     1       4.339   1.494   0.005  1.00  0.00     0.001 C 
HETATM   12  C19 UNL     1       4.300   2.033   1.395  1.00  0.00     0.006 C 
HETATM   13  C20 UNL     1       3.288   1.415   2.285  1.00  0.00     0.013 C 
HETATM   14  C21 UNL     1       2.900   2.412   3.356  1.00  0.00     0.012 C 
HETATM   15  C22 UNL     1       2.124   0.772   1.689  1.00  0.00     0.203 C 
HETATM   16  N3  UNL     1       1.290   0.367   2.849  1.00  0.00    -0.058 N 
ATOM     17  H31 UNL     1       1.835   0.231   3.700  1.00  0.00     0.278 HD
ATOM     18  H32 UNL     1       0.694   1.121   3.190  1.00  0.00     0.278 HD
HETATM   19  C23 UNL     1       1.340   1.460   0.647  1.00  0.00     0.012 C 
HETATM   20  C24 UNL     1       0.858   2.831   1.023  1.00  0.00     0.022 C 
ENDROOT
BRANCH   1  21
HETATM   21  C7  UNL     1      -0.386  -1.278   3.505  1.00  0.00     0.097 C 
BRANCH  21  22
HETATM   22  N2  UNL     1      -1.114  -0.318   4.229  1.00  0.00    -0.378 N 
ATOM     23  H2  UNL     1      -1.943   0.081   3.786  1.00  0.00     0.164 HD
BRANCH  22  24
HETATM   24  C6  UNL     1      -0.788   0.123   5.496  1.00  0.00     0.090 C 
BRANCH  24  25
HETATM   25  C5  UNL     1       0.323  -0.553   6.259  1.00  0.00     0.316 C 
BRANCH  25  26
HETATM   26  N1  UNL     1       0.092  -0.832   7.632  1.00  0.00     0.092 N 
BRANCH  26  27
HETATM   27  C2  UNL     1      -0.912   0.085   8.130  1.00  0.00     0.268 C 
HETATM   28  C1  UNL     1      -2.074  -0.451   8.843  1.00  0.00     0.037 C 
ENDBRANCH  26  27
BRANCH  26  29
HETATM   29  C3  UNL     1       1.183  -0.917   8.505  1.00  0.00     0.268 C 
HETATM   30  C4  UNL     1       1.985   0.345   8.739  1.00  0.00     0.037 C 
ENDBRANCH  26  29
ENDBRANCH  25  26
ENDBRANCH  24  25
ENDBRANCH  22  24
ENDBRANCH  21  22
ENDBRANCH   1  21
TORSDOF 7
ENDMDL
MODEL 4
REMARK VINA RESULT: -6.976464722      2.050      4.459
REMARK  7 active torsions:
REMARK  status: ('A' for Active; 'I' for Inactive)
REMARK    1  A    between atoms: C2_2  and  N1_3 
REMARK    2  A    between atoms: N1_3  and  C3_4 
REMARK    3  A    between atoms: N1_3  and  C5_6 
REMARK    4  A    between atoms: C5_6  and  C6_7 
REMARK    5  A    between atoms: C6_7  and  N2_8 
REMARK    6  A    between atoms: N2_8  and  C7_10 
REMARK    7  A    between atoms: C7_10  and  C8_11 
ROOT
HETATM    1  C8  UNL     1       0.750  -0.820   3.177  1.00  0.00     0.247 C 
HETATM    2  C9  UNL     1      -0.116  -0.661   1.933  1.00  0.00     0.015 C 
HETATM    3  C10 UNL     1       0.129   0.209   0.983  1.00  0.00    -0.070 C 
HETATM    4  C11 UNL     1      -0.927   0.083  -0.074  1.00  0.00     0.039 C 
HETATM    5  C12 UNL     1      -0.383  -0.947  -1.035  1.00  0.00    -0.015 C 
HETATM    6  C13 UNL     1      -1.523  -1.666  -1.717  1.00  0.00     0.010 C 
HETATM    7  C14 UNL     1       0.550  -0.293  -1.972  1.00  0.00     0.005 C 
HETATM    8  C15 UNL     1       1.098   1.043  -1.512  1.00  0.00     0.006 C 
HETATM    9  C16 UNL     1       2.000   0.957  -0.329  1.00  0.00    -0.000 C 
HETATM   10  C17 UNL     1       3.160   1.866  -0.547  1.00  0.00     0.006 C 
HETATM   11  C18 UNL     1       4.304   1.308   0.295  1.00  0.00     0.001 C 
HETATM   12  C19 UNL     1       4.236   2.055   1.585  1.00  0.00     0.006 C 
HETATM   13  C20 UNL     1       3.285   1.509   2.583  1.00  0.00     0.013 C 
HETATM   14  C21 UNL     1       2.829   2.629   3.493  1.00  0.00     0.012 C 
HETATM   15  C22 UNL     1       2.170   0.692   2.121  1.00  0.00     0.203 C 
HETATM   16  N3  UNL     1       1.382   0.413   3.348  1.00  0.00    -0.058 N 
ATOM     17  H31 UNL     1       1.945   0.455   4.198  1.00  0.00     0.278 HD
ATOM     18  H32 UNL     1       0.731   1.163   3.580  1.00  0.00     0.278 HD
HETATM   19  C23 UNL     1       1.324   1.146   1.001  1.00  0.00     0.012 C 
HETATM   20  C24 UNL     1       0.738   2.517   1.169  1.00  0.00     0.022 C 
ENDROOT
BRANCH   1  21
HETATM   21  C7  UNL     1      -0.152  -1.232   4.291  1.00  0.00     0.097 C 
BRANCH  21  22
HETATM   22  N2  UNL     1      -0.751  -0.204   5.039  1.00  0.00    -0.378 N 
ATOM     23  H2  UNL     1      -1.383   0.431   4.551  1.00  0.00     0.164 HD
BRANCH  22  24
HETATM   24  C6  UNL     1      -0.545   0.007   6.389  1.00  0.00     0.090 C 
BRANCH  24  25
HETATM   25  C5  UNL     1       0.507  -0.790   7.117  1.00  0.00     0.316 C 
BRANCH  25  26
HETATM   26  N1  UNL     1       0.297  -1.035   8.500  1.00  0.00     0.092 N 
BRANCH  26  27
HETATM   27  C2  UNL     1       0.978  -0.009   9.261  1.00  0.00     0.268 C 
HETATM   28  C1  UNL     1       2.251   0.520   8.763  1.00  0.00     0.037 C 
ENDBRANCH  26  27
BRANCH  26  29
HETATM   29  C3  UNL     1       0.557  -2.310   9.015  1.00  0.00     0.268 C 
HETATM   30  C4  UNL     1      -0.138  -2.693  10.304  1.00  0.00     0.037 C 
ENDBRANCH  26  29
ENDBRANCH  25  26
ENDBRANCH  24  25
ENDBRANCH  22  24
ENDBRANCH  21  22
ENDBRANCH   1  21
TORSDOF 7
ENDMDL
MODEL 5
REMARK VINA RESULT: -6.948459096      1.303      1.682
REMARK  7 active torsions:
REMARK  status: ('A' for Active; 'I' for Inactive)
REMARK    1  A    between atoms: C2_2  and  N1_3 
REMARK    2  A    between atoms: N1_3  and  C3_4 
REMARK    3  A    between atoms: N1_3  and  C5_6 
REMARK    4  A    between atoms: C5_6  and  C6_7 
REMARK    5  A    between atoms: C6_7  and  N2_8 
REMARK    6  A    between atoms: N2_8  and  C7_10 
REMARK    7  A    between atoms: C7_10  and  C8_11 
ROOT
HETATM    1  C8  UNL     1      -1.269   0.719   3.830  1.00  0.00     0.247 C 
HETATM    2  C9  UNL     1      -0.206   0.746   2.737  1.00  0.00     0.015 C 
HETATM    3  C10 UNL     1      -0.224  -0.036   1.686  1.00  0.00    -0.070 C 
HETATM    4  C11 UNL     1       0.972   0.267   0.835  1.00  0.00     0.039 C 
HETATM    5  C12 UNL     1       0.506   1.351  -0.106  1.00  0.00    -0.015 C 
HETATM    6  C13 UNL     1       1.677   2.210  -0.521  1.00  0.00     0.010 C 
HETATM    7  C14 UNL     1      -0.209   0.736  -1.241  1.00  0.00     0.005 C 
HETATM    8  C15 UNL     1      -0.712  -0.674  -1.001  1.00  0.00     0.006 C 
HETATM    9  C16 UNL     1      -1.794  -0.769   0.019  1.00  0.00    -0.000 C 
HETATM   10  C17 UNL     1      -2.826  -1.726  -0.470  1.00  0.00     0.006 C 
HETATM   11  C18 UNL     1      -4.132  -1.334   0.217  1.00  0.00     0.001 C 
HETATM   12  C19 UNL     1      -4.208  -2.202   1.427  1.00  0.00     0.006 C 
HETATM   13  C20 UNL     1      -3.477  -1.700   2.614  1.00  0.00     0.013 C 
HETATM   14  C21 UNL     1      -3.082  -2.875   3.483  1.00  0.00     0.012 C 
HETATM   15  C22 UNL     1      -2.373  -0.768   2.420  1.00  0.00     0.203 C 
HETATM   16  N3  UNL     1      -1.817  -0.564   3.781  1.00  0.00    -0.058 N 
ATOM     17  H31 UNL     1      -2.502  -0.730   4.518  1.00  0.00     0.278 HD
ATOM     18  H32 UNL     1      -1.152  -1.289   4.050  1.00  0.00     0.278 HD
HETATM   19  C23 UNL     1      -1.325  -1.047   1.421  1.00  0.00     0.012 C 
HETATM   20  C24 UNL     1      -0.663  -2.387   1.560  1.00  0.00     0.022 C 
ENDROOT
BRANCH   1  21
HETATM   21  C7  UNL     1      -0.593   1.074   5.110  1.00  0.00     0.097 C 
BRANCH  21  22
HETATM   22  N2  UNL     1       0.596   0.389   5.414  1.00  0.00    -0.378 N 
ATOM     23  H2  UNL     1       1.379   0.489   4.767  1.00  0.00     0.164 HD
BRANCH  22  24
HETATM   24  C6  UNL     1       0.780  -0.409   6.526  1.00  0.00     0.090 C 
BRANCH  24  25
HETATM   25  C5  UNL     1       1.221   0.213   7.827  1.00  0.00     0.316 C 
BRANCH  25  26
HETATM   26  N1  UNL     1       0.219   0.463   8.802  1.00  0.00     0.092 N 
BRANCH  26  27
HETATM   27  C2  UNL     1      -0.754  -0.608   8.750  1.00  0.00     0.268 C 
HETATM   28  C1  UNL     1      -2.180  -0.272   8.714  1.00  0.00     0.037 C 
ENDBRANCH  26  27
BRANCH  26  29
HETATM   29  C3  UNL     1      -0.402   1.716   8.837  1.00  0.00     0.268 C 
HETATM   30  C4  UNL     1      -0.085   2.615  10.013  1.00  0.00     0.037 C 
ENDBRANCH  26  29
ENDBRANCH  25  26
ENDBRANCH  24  25
ENDBRANCH  22  24
ENDBRANCH  21  22
ENDBRANCH   1  21
TORSDOF 7
ENDMDL
