MODEL 1
REMARK VINA RESULT: -8.222686635      0.000      0.000
REMARK  8 active torsions:
REMARK  status: ('A' for Active; 'I' for Inactive)
REMARK    1  A    between atoms: C2_2  and  C3_3 
REMARK    2  A    between atoms: C2_2  and  N2_16 
REMARK    3  A    between atoms: C3_3  and  C4_4 
REMARK    4  A    between atoms: C4_4  and  O1_5 
REMARK    5  A    between atoms: C4_4  and  C5_7 
REMARK    6  A    between atoms: C5_7  and  N1_8 
REMARK    7  A    between atoms: N2_16  and  C13_18 
REMARK    8  A    between atoms: C13_18  and  C15_20 
ROOT
HETATM    1  C1  UNL     1       0.652  -0.446   4.940  1.00  0.00     0.032 C 
HETATM    2  C2  UNL     1       0.239   1.004   4.914  1.00  0.00     0.075 C 
ENDROOT
BRANCH   2   3
HETATM    3  C3  UNL     1      -1.212   1.173   5.319  1.00  0.00     0.061 C 
BRANCH   3   4
HETATM    4  C4  UNL     1      -1.378   2.135   6.479  1.00  0.00     0.158 C 
BRANCH   4   5
HETATM    5  O1  UNL     1      -2.108   3.250   6.135  1.00  0.00    -0.390 OA
ATOM      6  H1  UNL     1      -2.187   3.867   6.853  1.00  0.00     0.210 HD
ENDBRANCH   4   5
BRANCH   4   7
HETATM    7  C5  UNL     1      -1.902   1.446   7.704  1.00  0.00     0.090 C 
BRANCH   7   8
HETATM    8  N1  UNL     1      -1.137   1.426   8.858  1.00  0.00    -0.382 N 
HETATM    9  C6  UNL     1      -1.053   0.157   9.500  1.00  0.00     0.080 C 
HETATM   10  C7  UNL     1      -2.061  -0.819   8.885  1.00  0.00     0.032 C 
HETATM   11  C8  UNL     1       0.315  -0.418   9.550  1.00  0.00     0.025 C 
HETATM   12  C9  UNL     1       1.304   0.232   8.651  1.00  0.00     0.004 C 
HETATM   13  C10 UNL     1       1.223   1.718   8.607  1.00  0.00     0.025 C 
HETATM   14  C11 UNL     1      -0.082   2.285   9.139  1.00  0.00     0.080 C 
HETATM   15  C12 UNL     1       0.095   2.526  10.650  1.00  0.00     0.032 C 
ENDBRANCH   7   8
ENDBRANCH   4   7
ENDBRANCH   3   4
ENDBRANCH   2   3
BRANCH   2  16
HETATM   16  N2  UNL     1       0.487   1.674   3.679  1.00  0.00    -0.413 N 
ATOM     17  H2  UNL     1      -0.098   2.445   3.359  1.00  0.00     0.154 HD
BRANCH  16  18
HETATM   18  C13 UNL     1       1.598   1.207   2.918  1.00  0.00     0.081 C 
HETATM   19  C14 UNL     1       2.758   2.129   3.201  1.00  0.00     0.032 C 
BRANCH  18  20
HETATM   20  C15 UNL     1       1.303   1.019   1.461  1.00  0.00    -0.020 C 
HETATM   21  C16 UNL     1       0.441   2.195   0.981  1.00  0.00     0.016 C 
HETATM   22  C17 UNL     1       0.051   2.052  -0.452  1.00  0.00    -0.013 C 
HETATM   23  C18 UNL     1       1.294   1.985  -1.298  1.00  0.00     0.009 C 
HETATM   24  C22 UNL     1      -0.810   0.818  -0.587  1.00  0.00     0.009 C 
HETATM   25  C19 UNL     1       2.097   0.788  -0.845  1.00  0.00    -0.013 C 
HETATM   26  C20 UNL     1       1.263  -0.450  -1.045  1.00  0.00     0.009 C 
HETATM   27  C24 UNL     1       2.512   1.006   0.582  1.00  0.00     0.016 C 
HETATM   28  C21 UNL     1       0.003  -0.362  -0.177  1.00  0.00    -0.013 C 
HETATM   29  C23 UNL     1       0.531  -0.242   1.261  1.00  0.00     0.016 C 
ENDBRANCH  18  20
ENDBRANCH  16  18
ENDBRANCH   2  16
TORSDOF 8
ENDMDL
MODEL 2
REMARK VINA RESULT: -8.218882209      2.513      4.073
REMARK  8 active torsions:
REMARK  status: ('A' for Active; 'I' for Inactive)
REMARK    1  A    between atoms: C2_2  and  C3_3 
REMARK    2  A    between atoms: C2_2  and  N2_16 
REMARK    3  A    between atoms: C3_3  and  C4_4 
REMARK    4  A    between atoms: C4_4  and  O1_5 
REMARK    5  A    between atoms: C4_4  and  C5_7 
REMARK    6  A    between atoms: C5_7  and  N1_8 
REMARK    7  A    between atoms: N2_16  and  C13_18 
REMARK    8  A    between atoms: C13_18  and  C15_20 
ROOT
HETATM    1  C1  UNL     1      -0.645   0.456   4.952  1.00  0.00     0.032 C 
HETATM    2  C2  UNL     1      -0.228  -0.993   4.922  1.00  0.00     0.075 C 
ENDROOT
BRANCH   2   3
HETATM    3  C3  UNL     1       1.223  -1.160   5.327  1.00  0.00     0.061 C 
BRANCH   3   4
HETATM    4  C4  UNL     1       1.393  -2.143   6.468  1.00  0.00     0.158 C 
BRANCH   4   5
HETATM    5  O1  UNL     1       2.118  -3.254   6.100  1.00  0.00    -0.390 OA
ATOM      6  H1  UNL     1       1.571  -3.937   5.732  1.00  0.00     0.210 HD
ENDBRANCH   4   5
BRANCH   4   7
HETATM    7  C5  UNL     1       1.927  -1.478   7.703  1.00  0.00     0.090 C 
BRANCH   7   8
HETATM    8  N1  UNL     1       1.153  -1.439   8.849  1.00  0.00    -0.382 N 
HETATM    9  C6  UNL     1       1.064  -0.159   9.470  1.00  0.00     0.080 C 
HETATM   10  C7  UNL     1       2.077   0.806   8.848  1.00  0.00     0.032 C 
HETATM   11  C8  UNL     1      -0.305   0.416   9.499  1.00  0.00     0.025 C 
HETATM   12  C9  UNL     1      -1.286  -0.249   8.602  1.00  0.00     0.004 C 
HETATM   13  C10 UNL     1      -1.205  -1.735   8.583  1.00  0.00     0.025 C 
HETATM   14  C11 UNL     1       0.095  -2.294   9.135  1.00  0.00     0.080 C 
HETATM   15  C12 UNL     1      -0.094  -2.510  10.648  1.00  0.00     0.032 C 
ENDBRANCH   7   8
ENDBRANCH   4   7
ENDBRANCH   3   4
ENDBRANCH   2   3
BRANCH   2  16
HETATM   16  N2  UNL     1      -0.475  -1.660   3.686  1.00  0.00    -0.413 N 
ATOM     17  H2  UNL     1       0.113  -2.427   3.362  1.00  0.00     0.154 HD
BRANCH  16  18
HETATM   18  C13 UNL     1      -1.588  -1.195   2.926  1.00  0.00     0.081 C 
HETATM   19  C14 UNL     1      -2.749  -2.114   3.219  1.00  0.00     0.032 C 
BRANCH  18  20
HETATM   20  C15 UNL     1      -1.300  -1.014   1.468  1.00  0.00    -0.020 C 
HETATM   21  C16 UNL     1      -0.423  -2.183   0.995  1.00  0.00     0.016 C 
HETATM   22  C17 UNL     1      -0.038  -2.046  -0.441  1.00  0.00    -0.013 C 
HETATM   23  C18 UNL     1      -1.284  -2.000  -1.284  1.00  0.00     0.009 C 
HETATM   24  C22 UNL     1       0.806  -0.801  -0.587  1.00  0.00     0.009 C 
HETATM   25  C19 UNL     1      -2.102  -0.811  -0.838  1.00  0.00    -0.013 C 
HETATM   26  C20 UNL     1      -1.284   0.436  -1.049  1.00  0.00     0.009 C 
HETATM   27  C24 UNL     1      -2.511  -1.023   0.592  1.00  0.00     0.016 C 
HETATM   28  C21 UNL     1      -0.021   0.371  -0.183  1.00  0.00    -0.013 C 
HETATM   29  C23 UNL     1      -0.544   0.255   1.256  1.00  0.00     0.016 C 
ENDBRANCH  18  20
ENDBRANCH  16  18
ENDBRANCH   2  16
TORSDOF 8
ENDMDL
MODEL 3
REMARK VINA RESULT: -8.158258647      0.110      1.389
REMARK  8 active torsions:
REMARK  status: ('A' for Active; 'I' for Inactive)
REMARK    1  A    between atoms: C2_2  and  C3_3 
REMARK    2  A    between atoms: C2_2  and  N2_16 
REMARK    3  A    between atoms: C3_3  and  C4_4 
REMARK    4  A    between atoms: C4_4  and  O1_5 
REMARK    5  A    between atoms: C4_4  and  C5_7 
REMARK    6  A    between atoms: C5_7  and  N1_8 
REMARK    7  A    between atoms: N2_16  and  C13_18 
REMARK    8  A    between atoms: C13_18  and  C15_20 
ROOT
HETATM    1  C1  UNL     1       0.679  -0.417   4.898  1.00  0.00     0.032 C 
HETATM    2  C2  UNL     1       0.252   1.030   4.912  1.00  0.00     0.075 C 
ENDROOT
BRANCH   2   3
HETATM    3  C3  UNL     1      -1.201   1.174   5.320  1.00  0.00     0.061 C 
BRANCH   3   4
HETATM    4  C4  UNL     1      -1.383   2.152   6.464  1.00  0.00     0.158 C 
BRANCH   4   5
HETATM    5  O1  UNL     1      -2.110   3.260   6.097  1.00  0.00    -0.390 OA
ATOM      6  H1  UNL     1      -3.044   3.089   6.073  1.00  0.00     0.210 HD
ENDBRANCH   4   5
BRANCH   4   7
HETATM    7  C5  UNL     1      -1.921   1.478   7.692  1.00  0.00     0.090 C 
BRANCH   7   8
HETATM    8  N1  UNL     1      -1.149   1.428   8.840  1.00  0.00    -0.382 N 
HETATM    9  C6  UNL     1      -1.059   0.142   9.447  1.00  0.00     0.080 C 
HETATM   10  C7  UNL     1      -2.069  -0.819   8.812  1.00  0.00     0.032 C 
HETATM   11  C8  UNL     1       0.311  -0.431   9.473  1.00  0.00     0.025 C 
HETATM   12  C9  UNL     1       1.293   0.245   8.586  1.00  0.00     0.004 C 
HETATM   13  C10 UNL     1       1.209   1.731   8.582  1.00  0.00     0.025 C 
HETATM   14  C11 UNL     1      -0.094   2.282   9.137  1.00  0.00     0.080 C 
HETATM   15  C12 UNL     1       0.092   2.482  10.653  1.00  0.00     0.032 C 
ENDBRANCH   7   8
ENDBRANCH   4   7
ENDBRANCH   3   4
ENDBRANCH   2   3
BRANCH   2  16
HETATM   16  N2  UNL     1       0.496   1.735   3.697  1.00  0.00    -0.413 N 
ATOM     17  H2  UNL     1      -0.042   2.562   3.438  1.00  0.00     0.154 HD
BRANCH  16  18
HETATM   18  C13 UNL     1       1.532   1.222   2.863  1.00  0.00     0.081 C 
HETATM   19  C14 UNL     1       2.774   2.035   3.135  1.00  0.00     0.032 C 
BRANCH  18  20
HETATM   20  C15 UNL     1       1.161   1.131   1.415  1.00  0.00    -0.020 C 
HETATM   21  C16 UNL     1       0.279  -0.110   1.214  1.00  0.00     0.016 C 
HETATM   22  C17 UNL     1      -0.086  -0.309  -0.220  1.00  0.00    -0.013 C 
HETATM   23  C18 UNL     1      -0.832   0.902  -0.712  1.00  0.00     0.009 C 
HETATM   24  C22 UNL     1       1.183  -0.564  -0.999  1.00  0.00     0.009 C 
HETATM   25  C19 UNL     1       0.076   2.100  -0.556  1.00  0.00    -0.013 C 
HETATM   26  C20 UNL     1       1.309   1.875  -1.390  1.00  0.00     0.009 C 
HETATM   27  C24 UNL     1       0.367   2.290   0.905  1.00  0.00     0.016 C 
HETATM   28  C21 UNL     1       2.054   0.638  -0.874  1.00  0.00    -0.013 C 
HETATM   29  C23 UNL     1       2.392   0.971   0.587  1.00  0.00     0.016 C 
ENDBRANCH  18  20
ENDBRANCH  16  18
ENDBRANCH   2  16
TORSDOF 8
ENDMDL
MODEL 4
REMARK VINA RESULT: -8.141610750      2.491      3.826
REMARK  8 active torsions:
REMARK  status: ('A' for Active; 'I' for Inactive)
REMARK    1  A    between atoms: C2_2  and  C3_3 
REMARK    2  A    between atoms: C2_2  and  N2_16 
REMARK    3  A    between atoms: C3_3  and  C4_4 
REMARK    4  A    between atoms: C4_4  and  O1_5 
REMARK    5  A    between atoms: C4_4  and  C5_7 
REMARK    6  A    between atoms: C5_7  and  N1_8 
REMARK    7  A    between atoms: N2_16  and  C13_18 
REMARK    8  A    between atoms: C13_18  and  C15_20 
ROOT
HETATM    1  C1  UNL     1      -0.699   0.440   4.918  1.00  0.00     0.032 C 
HETATM    2  C2  UNL     1      -0.257  -1.002   4.933  1.00  0.00     0.075 C 
ENDROOT
BRANCH   2   3
HETATM    3  C3  UNL     1       1.191  -1.131   5.363  1.00  0.00     0.061 C 
BRANCH   3   4
HETATM    4  C4  UNL     1       1.371  -2.133   6.486  1.00  0.00     0.158 C 
BRANCH   4   5
HETATM    5  O1  UNL     1       2.091  -3.238   6.094  1.00  0.00    -0.390 OA
ATOM      6  H1  UNL     1       1.561  -4.026   6.073  1.00  0.00     0.210 HD
ENDBRANCH   4   5
BRANCH   4   7
HETATM    7  C5  UNL     1       1.918  -1.487   7.726  1.00  0.00     0.090 C 
BRANCH   7   8
HETATM    8  N1  UNL     1       1.141  -1.434   8.870  1.00  0.00    -0.382 N 
HETATM    9  C6  UNL     1       1.057  -0.149   9.479  1.00  0.00     0.080 C 
HETATM   10  C7  UNL     1       2.077   0.806   8.851  1.00  0.00     0.032 C 
HETATM   11  C8  UNL     1      -0.309   0.434   9.501  1.00  0.00     0.025 C 
HETATM   12  C9  UNL     1      -1.291  -0.234   8.607  1.00  0.00     0.004 C 
HETATM   13  C10 UNL     1      -1.218  -1.720   8.601  1.00  0.00     0.025 C 
HETATM   14  C11 UNL     1       0.078  -2.281   9.160  1.00  0.00     0.080 C 
HETATM   15  C12 UNL     1      -0.115  -2.484  10.675  1.00  0.00     0.032 C 
ENDBRANCH   7   8
ENDBRANCH   4   7
ENDBRANCH   3   4
ENDBRANCH   2   3
BRANCH   2  16
HETATM   16  N2  UNL     1      -0.474  -1.706   3.712  1.00  0.00    -0.413 N 
ATOM     17  H2  UNL     1       0.090  -2.514   3.450  1.00  0.00     0.154 HD
BRANCH  16  18
HETATM   18  C13 UNL     1      -1.523  -1.219   2.878  1.00  0.00     0.081 C 
HETATM   19  C14 UNL     1      -2.746  -2.059   3.154  1.00  0.00     0.032 C 
BRANCH  18  20
HETATM   20  C15 UNL     1      -1.156  -1.125   1.429  1.00  0.00    -0.020 C 
HETATM   21  C16 UNL     1      -0.268   0.112   1.229  1.00  0.00     0.016 C 
HETATM   22  C17 UNL     1       0.094   0.313  -0.205  1.00  0.00    -0.013 C 
HETATM   23  C18 UNL     1       0.832  -0.900  -0.703  1.00  0.00     0.009 C 
HETATM   24  C22 UNL     1      -1.176   0.577  -0.980  1.00  0.00     0.009 C 
HETATM   25  C19 UNL     1      -0.081  -2.093  -0.549  1.00  0.00    -0.013 C 
HETATM   26  C20 UNL     1      -1.316  -1.860  -1.377  1.00  0.00     0.009 C 
HETATM   27  C24 UNL     1      -0.369  -2.287   0.913  1.00  0.00     0.016 C 
HETATM   28  C21 UNL     1      -2.053  -0.621  -0.856  1.00  0.00    -0.013 C 
HETATM   29  C23 UNL     1      -2.388  -0.957   0.605  1.00  0.00     0.016 C 
ENDBRANCH  18  20
ENDBRANCH  16  18
ENDBRANCH   2  16
TORSDOF 8
ENDMDL
MODEL 5
REMARK VINA RESULT: -8.110235363      0.154      1.407
REMARK  8 active torsions:
REMARK  status: ('A' for Active; 'I' for Inactive)
REMARK    1  A    between atoms: C2_2  and  C3_3 
REMARK    2  A    between atoms: C2_2  and  N2_16 
REMARK    3  A    between atoms: C3_3  and  C4_4 
REMARK    4  A    between atoms: C4_4  and  O1_5 
REMARK    5  A    between atoms: C4_4  and  C5_7 
REMARK    6  A    between atoms: C5_7  and  N1_8 
REMARK    7  A    between atoms: N2_16  and  C13_18 
REMARK    8  A    between atoms: C13_18  and  C15_20 
ROOT
HETATM    1  C1  UNL     1       0.678  -0.461   4.935  1.00  0.00     0.032 C 
HETATM    2  C2  UNL     1       0.298   0.999   4.919  1.00  0.00     0.075 C 
ENDROOT
BRANCH   2   3
HETATM    3  C3  UNL     1      -1.164   1.194   5.267  1.00  0.00     0.061 C 
BRANCH   3   4
HETATM    4  C4  UNL     1      -1.357   2.140   6.436  1.00  0.00     0.158 C 
BRANCH   4   5
HETATM    5  O1  UNL     1      -2.102   3.247   6.098  1.00  0.00    -0.390 OA
ATOM      6  H1  UNL     1      -2.344   3.765   6.856  1.00  0.00     0.210 HD
ENDBRANCH   4   5
BRANCH   4   7
HETATM    7  C5  UNL     1      -1.882   1.428   7.648  1.00  0.00     0.090 C 
BRANCH   7   8
HETATM    8  N1  UNL     1      -1.130   1.409   8.810  1.00  0.00    -0.382 N 
HETATM    9  C6  UNL     1      -1.058   0.142   9.458  1.00  0.00     0.080 C 
HETATM   10  C7  UNL     1      -2.062  -0.832   8.835  1.00  0.00     0.032 C 
HETATM   11  C8  UNL     1       0.308  -0.437   9.526  1.00  0.00     0.025 C 
HETATM   12  C9  UNL     1       1.309   0.207   8.635  1.00  0.00     0.004 C 
HETATM   13  C10 UNL     1       1.234   1.692   8.585  1.00  0.00     0.025 C 
HETATM   14  C11 UNL     1      -0.075   2.266   9.099  1.00  0.00     0.080 C 
HETATM   15  C12 UNL     1       0.085   2.512  10.611  1.00  0.00     0.032 C 
ENDBRANCH   7   8
ENDBRANCH   4   7
ENDBRANCH   3   4
ENDBRANCH   2   3
BRANCH   2  16
HETATM   16  N2  UNL     1       0.614   1.684   3.709  1.00  0.00    -0.413 N 
ATOM     17  H2  UNL     1       0.171   2.569   3.461  1.00  0.00     0.154 HD
BRANCH  16  18
HETATM   18  C13 UNL     1       1.581   1.066   2.864  1.00  0.00     0.081 C 
HETATM   19  C14 UNL     1       2.859   1.859   2.986  1.00  0.00     0.032 C 
BRANCH  18  20
HETATM   20  C15 UNL     1       1.118   0.859   1.454  1.00  0.00    -0.020 C 
HETATM   21  C16 UNL     1       2.345   0.861   0.532  1.00  0.00     0.016 C 
HETATM   22  C17 UNL     1       1.964   0.720  -0.904  1.00  0.00    -0.013 C 
HETATM   23  C18 UNL     1       1.217  -0.573  -1.092  1.00  0.00     0.009 C 
HETATM   24  C22 UNL     1       1.143   1.926  -1.295  1.00  0.00     0.009 C 
HETATM   25  C19 UNL     1      -0.015  -0.527  -0.218  1.00  0.00    -0.013 C 
HETATM   26  C20 UNL     1      -0.867   0.635  -0.655  1.00  0.00     0.009 C 
HETATM   27  C24 UNL     1       0.423  -0.442   1.217  1.00  0.00     0.016 C 
HETATM   28  C21 UNL     1      -0.089   1.941  -0.457  1.00  0.00    -0.013 C 
HETATM   29  C23 UNL     1       0.223   1.981   1.047  1.00  0.00     0.016 C 
ENDBRANCH  18  20
ENDBRANCH  16  18
ENDBRANCH   2  16
TORSDOF 8
ENDMDL
