MODEL 1
REMARK VINA RESULT: -7.885050048      0.000      0.000
REMARK  8 active torsions:
REMARK  status: ('A' for Active; 'I' for Inactive)
REMARK    1  A    between atoms: C2_2  and  C3_3 
REMARK    2  A    between atoms: C3_3  and  C4_4 
REMARK    3  A    between atoms: C4_4  and  C5_5 
REMARK    4  A    between atoms: C5_5  and  N1_6 
REMARK    5  A    between atoms: N1_6  and  C6_9 
REMARK    6  A    between atoms: C6_9  and  C7_10 
REMARK    7  A    between atoms: C7_10  and  C8_11 
REMARK    8  A    between atoms: C8_11  and  N2_12 
ROOT
HETATM    1  C1  UNL     1       0.759   2.148   2.642  1.00  0.00     0.015 C 
HETATM    2  C2  UNL     1       1.207   0.727   2.962  1.00  0.00    -0.038 C 
HETATM    3  C9  UNL     1       0.673  -0.234   2.013  1.00  0.00     0.019 C 
HETATM    4  C10 UNL     1      -0.373  -1.221   2.385  1.00  0.00     0.075 C 
HETATM    5  S1  UNL     1      -1.261  -0.982   3.910  1.00  0.00    -0.159 SA
HETATM    6  C11 UNL     1      -0.485   0.355   4.857  1.00  0.00     0.013 C 
HETATM    7  C12 UNL     1      -1.378   1.536   4.664  1.00  0.00     0.028 C 
HETATM    8  C13 UNL     1      -0.529   0.088   6.344  1.00  0.00     0.009 C 
HETATM    9  C14 UNL     1      -0.398   1.305   7.192  1.00  0.00     0.007 C 
HETATM   10  C15 UNL     1      -0.435   0.843   8.633  1.00  0.00     0.005 C 
HETATM   11  C16 UNL     1      -0.904  -0.573   8.792  1.00  0.00    -0.010 C 
HETATM   12  C17 UNL     1      -0.263  -1.169  10.051  1.00  0.00     0.005 C 
HETATM   13  C18 UNL     1       0.749  -1.885   9.183  1.00  0.00     0.006 C 
HETATM   14  C19 UNL     1      -0.114  -1.580   8.005  1.00  0.00    -0.006 C 
HETATM   15  C20 UNL     1       0.532  -0.846   6.852  1.00  0.00    -0.005 C 
HETATM   16  C21 UNL     1       1.091  -1.719   5.804  1.00  0.00     0.006 C 
HETATM   17  C22 UNL     1       1.665  -0.825   4.733  1.00  0.00     0.007 C 
HETATM   18  C23 UNL     1       0.897   0.414   4.431  1.00  0.00     0.012 C 
ENDROOT
BRANCH   2  19
HETATM   19  C3  UNL     1       2.711   0.808   2.964  1.00  0.00     0.011 C 
BRANCH  19  20
HETATM   20  C4  UNL     1       3.419   1.837   2.215  1.00  0.00     0.028 C 
BRANCH  20  21
HETATM   21  C5  UNL     1       4.472   1.476   1.226  1.00  0.00     0.232 C 
BRANCH  21  22
HETATM   22  N1  UNL     1       4.817   2.658   0.453  1.00  0.00    -0.075 N 
ATOM     23  H12 UNL     1       4.035   3.001  -0.106  1.00  0.00     0.277 HD
ATOM     24  H11 UNL     1       4.945   3.483   1.038  1.00  0.00     0.277 HD
BRANCH  22  25
HETATM   25  C6  UNL     1       5.980   2.362  -0.348  1.00  0.00     0.233 C 
BRANCH  25  26
HETATM   26  C7  UNL     1       6.354   3.509  -1.266  1.00  0.00     0.055 C 
BRANCH  26  27
HETATM   27  C8  UNL     1       7.746   3.986  -0.855  1.00  0.00     0.231 C 
BRANCH  27  28
HETATM   28  N2  UNL     1       7.643   5.221  -0.083  1.00  0.00    -0.079 N 
ATOM     29  H23 UNL     1       6.863   5.800  -0.392  1.00  0.00     0.274 HD
ATOM     30  H22 UNL     1       7.332   5.049   0.873  1.00  0.00     0.274 HD
ATOM     31  H21 UNL     1       8.529   5.725  -0.112  1.00  0.00     0.274 HD
ENDBRANCH  27  28
ENDBRANCH  26  27
ENDBRANCH  25  26
ENDBRANCH  22  25
ENDBRANCH  21  22
ENDBRANCH  20  21
ENDBRANCH  19  20
ENDBRANCH   2  19
TORSDOF 8
ENDMDL
MODEL 2
REMARK VINA RESULT: -7.855761568      4.713      7.509
REMARK  8 active torsions:
REMARK  status: ('A' for Active; 'I' for Inactive)
REMARK    1  A    between atoms: C2_2  and  C3_3 
REMARK    2  A    between atoms: C3_3  and  C4_4 
REMARK    3  A    between atoms: C4_4  and  C5_5 
REMARK    4  A    between atoms: C5_5  and  N1_6 
REMARK    5  A    between atoms: N1_6  and  C6_9 
REMARK    6  A    between atoms: C6_9  and  C7_10 
REMARK    7  A    between atoms: C7_10  and  C8_11 
REMARK    8  A    between atoms: C8_11  and  N2_12 
ROOT
HETATM    1  C1  UNL     1      -0.797  -2.182   2.686  1.00  0.00     0.015 C 
HETATM    2  C2  UNL     1      -1.226  -0.751   2.989  1.00  0.00    -0.038 C 
HETATM    3  C9  UNL     1      -0.688   0.190   2.022  1.00  0.00     0.019 C 
HETATM    4  C10 UNL     1       0.373   1.169   2.372  1.00  0.00     0.075 C 
HETATM    5  S1  UNL     1       1.270   0.941   3.893  1.00  0.00    -0.159 SA
HETATM    6  C11 UNL     1       0.486  -0.373   4.865  1.00  0.00     0.013 C 
HETATM    7  C12 UNL     1       1.363  -1.568   4.682  1.00  0.00     0.028 C 
HETATM    8  C13 UNL     1       0.544  -0.086   6.348  1.00  0.00     0.009 C 
HETATM    9  C14 UNL     1       0.405  -1.289   7.214  1.00  0.00     0.007 C 
HETATM   10  C15 UNL     1       0.459  -0.807   8.648  1.00  0.00     0.005 C 
HETATM   11  C16 UNL     1       0.946   0.605   8.783  1.00  0.00    -0.010 C 
HETATM   12  C17 UNL     1       0.322   1.227  10.038  1.00  0.00     0.005 C 
HETATM   13  C18 UNL     1      -0.688   1.942   9.169  1.00  0.00     0.006 C 
HETATM   14  C19 UNL     1       0.162   1.611   7.988  1.00  0.00    -0.006 C 
HETATM   15  C20 UNL     1      -0.501   0.868   6.850  1.00  0.00    -0.005 C 
HETATM   16  C21 UNL     1      -1.058   1.733   5.795  1.00  0.00     0.006 C 
HETATM   17  C22 UNL     1      -1.651   0.831   4.741  1.00  0.00     0.007 C 
HETATM   18  C23 UNL     1      -0.900  -0.421   4.450  1.00  0.00     0.012 C 
ENDROOT
BRANCH   2  19
HETATM   19  C3  UNL     1      -2.730  -0.814   3.003  1.00  0.00     0.011 C 
BRANCH  19  20
HETATM   20  C4  UNL     1      -3.456  -1.857   2.290  1.00  0.00     0.028 C 
BRANCH  20  21
HETATM   21  C5  UNL     1      -4.100  -1.578   0.977  1.00  0.00     0.232 C 
BRANCH  21  22
HETATM   22  N1  UNL     1      -4.952  -2.701   0.623  1.00  0.00    -0.075 N 
ATOM     23  H12 UNL     1      -4.417  -3.523   0.339  1.00  0.00     0.277 HD
ATOM     24  H11 UNL     1      -5.417  -3.109   1.433  1.00  0.00     0.277 HD
BRANCH  22  25
HETATM   25  C6  UNL     1      -5.884  -2.273  -0.391  1.00  0.00     0.233 C 
BRANCH  25  26
HETATM   26  C7  UNL     1      -6.321  -3.412  -1.291  1.00  0.00     0.055 C 
BRANCH  26  27
HETATM   27  C8  UNL     1      -7.709  -3.851  -0.828  1.00  0.00     0.231 C 
BRANCH  27  28
HETATM   28  N2  UNL     1      -7.622  -5.133  -0.135  1.00  0.00    -0.079 N 
ATOM     29  H23 UNL     1      -7.101  -5.824  -0.674  1.00  0.00     0.274 HD
ATOM     30  H22 UNL     1      -7.009  -5.086   0.679  1.00  0.00     0.274 HD
ATOM     31  H21 UNL     1      -8.556  -5.462   0.109  1.00  0.00     0.274 HD
ENDBRANCH  27  28
ENDBRANCH  26  27
ENDBRANCH  25  26
ENDBRANCH  22  25
ENDBRANCH  21  22
ENDBRANCH  20  21
ENDBRANCH  19  20
ENDBRANCH   2  19
TORSDOF 8
ENDMDL
MODEL 3
REMARK VINA RESULT: -7.700596069      1.136      1.464
REMARK  8 active torsions:
REMARK  status: ('A' for Active; 'I' for Inactive)
REMARK    1  A    between atoms: C2_2  and  C3_3 
REMARK    2  A    between atoms: C3_3  and  C4_4 
REMARK    3  A    between atoms: C4_4  and  C5_5 
REMARK    4  A    between atoms: C5_5  and  N1_6 
REMARK    5  A    between atoms: N1_6  and  C6_9 
REMARK    6  A    between atoms: C6_9  and  C7_10 
REMARK    7  A    between atoms: C7_10  and  C8_11 
REMARK    8  A    between atoms: C8_11  and  N2_12 
ROOT
HETATM    1  C1  UNL     1       0.650   2.071   2.705  1.00  0.00     0.015 C 
HETATM    2  C2  UNL     1       1.129   0.679   3.102  1.00  0.00    -0.038 C 
HETATM    3  C9  UNL     1       0.663  -0.337   2.175  1.00  0.00     0.019 C 
HETATM    4  C10 UNL     1      -0.367  -1.341   2.548  1.00  0.00     0.075 C 
HETATM    5  S1  UNL     1      -1.322  -1.067   4.026  1.00  0.00    -0.159 SA
HETATM    6  C11 UNL     1      -0.626   0.332   4.945  1.00  0.00     0.013 C 
HETATM    7  C12 UNL     1      -1.546   1.475   4.667  1.00  0.00     0.028 C 
HETATM    8  C13 UNL     1      -0.721   0.126   6.438  1.00  0.00     0.009 C 
HETATM    9  C14 UNL     1      -0.661   1.381   7.238  1.00  0.00     0.007 C 
HETATM   10  C15 UNL     1      -0.741   0.977   8.696  1.00  0.00     0.005 C 
HETATM   11  C16 UNL     1      -1.173  -0.445   8.896  1.00  0.00    -0.010 C 
HETATM   12  C17 UNL     1      -0.565  -0.968  10.203  1.00  0.00     0.005 C 
HETATM   13  C18 UNL     1       0.503  -1.685   9.407  1.00  0.00     0.006 C 
HETATM   14  C19 UNL     1      -0.321  -1.458   8.185  1.00  0.00    -0.006 C 
HETATM   15  C20 UNL     1       0.347  -0.751   7.027  1.00  0.00    -0.005 C 
HETATM   16  C21 UNL     1       0.974  -1.649   6.039  1.00  0.00     0.006 C 
HETATM   17  C22 UNL     1       1.563  -0.782   4.955  1.00  0.00     0.007 C 
HETATM   18  C23 UNL     1       0.770   0.418   4.570  1.00  0.00     0.012 C 
ENDROOT
BRANCH   2  19
HETATM   19  C3  UNL     1       2.628   0.810   3.159  1.00  0.00     0.011 C 
BRANCH  19  20
HETATM   20  C4  UNL     1       3.329   1.860   2.433  1.00  0.00     0.028 C 
BRANCH  20  21
HETATM   21  C5  UNL     1       3.744   1.666   1.017  1.00  0.00     0.232 C 
BRANCH  21  22
HETATM   22  N1  UNL     1       5.190   1.532   0.963  1.00  0.00    -0.075 N 
ATOM     23  H12 UNL     1       5.635   1.739   1.857  1.00  0.00     0.277 HD
ATOM     24  H11 UNL     1       5.489   0.561   0.879  1.00  0.00     0.277 HD
BRANCH  22  25
HETATM   25  C6  UNL     1       5.691   2.359  -0.108  1.00  0.00     0.233 C 
BRANCH  25  26
HETATM   26  C7  UNL     1       6.845   1.709  -0.846  1.00  0.00     0.055 C 
BRANCH  26  27
HETATM   27  C8  UNL     1       7.174   0.406  -0.120  1.00  0.00     0.231 C 
BRANCH  27  28
HETATM   28  N2  UNL     1       7.674  -0.583  -1.070  1.00  0.00    -0.079 N 
ATOM     29  H23 UNL     1       8.684  -0.707  -0.996  1.00  0.00     0.274 HD
ATOM     30  H22 UNL     1       7.389  -1.530  -0.822  1.00  0.00     0.274 HD
ATOM     31  H21 UNL     1       7.388  -0.334  -2.017  1.00  0.00     0.274 HD
ENDBRANCH  27  28
ENDBRANCH  26  27
ENDBRANCH  25  26
ENDBRANCH  22  25
ENDBRANCH  21  22
ENDBRANCH  20  21
ENDBRANCH  19  20
ENDBRANCH   2  19
TORSDOF 8
ENDMDL
MODEL 4
REMARK VINA RESULT: -7.696861256      4.638      7.079
REMARK  8 active torsions:
REMARK  status: ('A' for Active; 'I' for Inactive)
REMARK    1  A    between atoms: C2_2  and  C3_3 
REMARK    2  A    between atoms: C3_3  and  C4_4 
REMARK    3  A    between atoms: C4_4  and  C5_5 
REMARK    4  A    between atoms: C5_5  and  N1_6 
REMARK    5  A    between atoms: N1_6  and  C6_9 
REMARK    6  A    between atoms: C6_9  and  C7_10 
REMARK    7  A    between atoms: C7_10  and  C8_11 
REMARK    8  A    between atoms: C8_11  and  N2_12 
ROOT
HETATM    1  C1  UNL     1      -0.688  -2.079   2.681  1.00  0.00     0.015 C 
HETATM    2  C2  UNL     1      -1.128  -0.667   3.049  1.00  0.00    -0.038 C 
HETATM    3  C9  UNL     1      -0.613   0.320   2.115  1.00  0.00     0.019 C 
HETATM    4  C10 UNL     1       0.442   1.296   2.493  1.00  0.00     0.075 C 
HETATM    5  S1  UNL     1       1.360   1.014   3.993  1.00  0.00    -0.159 SA
HETATM    6  C11 UNL     1       0.602  -0.348   4.918  1.00  0.00     0.013 C 
HETATM    7  C12 UNL     1       1.490  -1.524   4.675  1.00  0.00     0.028 C 
HETATM    8  C13 UNL     1       0.676  -0.121   6.411  1.00  0.00     0.009 C 
HETATM    9  C14 UNL     1       0.561  -1.361   7.228  1.00  0.00     0.007 C 
HETATM   10  C15 UNL     1       0.627  -0.939   8.680  1.00  0.00     0.005 C 
HETATM   11  C16 UNL     1       1.101   0.472   8.868  1.00  0.00    -0.010 C 
HETATM   12  C17 UNL     1       0.486   1.034  10.155  1.00  0.00     0.005 C 
HETATM   13  C18 UNL     1      -0.543   1.774   9.328  1.00  0.00     0.006 C 
HETATM   14  C19 UNL     1       0.296   1.501   8.125  1.00  0.00    -0.006 C 
HETATM   15  C20 UNL     1      -0.373   0.798   6.965  1.00  0.00    -0.005 C 
HETATM   16  C21 UNL     1      -0.953   1.700   5.953  1.00  0.00     0.006 C 
HETATM   17  C22 UNL     1      -1.550   0.836   4.870  1.00  0.00     0.007 C 
HETATM   18  C23 UNL     1      -0.788  -0.395   4.519  1.00  0.00     0.012 C 
ENDROOT
BRANCH   2  19
HETATM   19  C3  UNL     1      -2.632  -0.748   3.079  1.00  0.00     0.011 C 
BRANCH  19  20
HETATM   20  C4  UNL     1      -3.353  -1.797   2.370  1.00  0.00     0.028 C 
BRANCH  20  21
HETATM   21  C5  UNL     1      -3.787  -1.607   0.958  1.00  0.00     0.232 C 
BRANCH  21  22
HETATM   22  N1  UNL     1      -5.236  -1.504   0.921  1.00  0.00    -0.075 N 
ATOM     23  H12 UNL     1      -5.665  -1.707   1.824  1.00  0.00     0.277 HD
ATOM     24  H11 UNL     1      -5.557  -0.541   0.826  1.00  0.00     0.277 HD
BRANCH  22  25
HETATM   25  C6  UNL     1      -5.733  -2.358  -0.131  1.00  0.00     0.233 C 
BRANCH  25  26
HETATM   26  C7  UNL     1      -6.914  -1.747  -0.859  1.00  0.00     0.055 C 
BRANCH  26  27
HETATM   27  C8  UNL     1      -7.272  -0.449  -0.137  1.00  0.00     0.231 C 
BRANCH  27  28
HETATM   28  N2  UNL     1      -7.629   0.580  -1.109  1.00  0.00    -0.079 N 
ATOM     29  H23 UNL     1      -8.033   0.182  -1.956  1.00  0.00     0.274 HD
ATOM     30  H22 UNL     1      -8.431   1.131  -0.805  1.00  0.00     0.274 HD
ATOM     31  H21 UNL     1      -6.818   1.166  -1.311  1.00  0.00     0.274 HD
ENDBRANCH  27  28
ENDBRANCH  26  27
ENDBRANCH  25  26
ENDBRANCH  22  25
ENDBRANCH  21  22
ENDBRANCH  20  21
ENDBRANCH  19  20
ENDBRANCH   2  19
TORSDOF 8
ENDMDL
MODEL 5
REMARK VINA RESULT: -7.628754498      3.670      5.448
REMARK  8 active torsions:
REMARK  status: ('A' for Active; 'I' for Inactive)
REMARK    1  A    between atoms: C2_2  and  C3_3 
REMARK    2  A    between atoms: C3_3  and  C4_4 
REMARK    3  A    between atoms: C4_4  and  C5_5 
REMARK    4  A    between atoms: C5_5  and  N1_6 
REMARK    5  A    between atoms: N1_6  and  C6_9 
REMARK    6  A    between atoms: C6_9  and  C7_10 
REMARK    7  A    between atoms: C7_10  and  C8_11 
REMARK    8  A    between atoms: C8_11  and  N2_12 
ROOT
HETATM    1  C1  UNL     1      -0.697  -2.113   2.776  1.00  0.00     0.015 C 
HETATM    2  C2  UNL     1      -1.140  -0.698   3.132  1.00  0.00    -0.038 C 
HETATM    3  C9  UNL     1      -0.628   0.281   2.190  1.00  0.00     0.019 C 
HETATM    4  C10 UNL     1       0.425   1.263   2.557  1.00  0.00     0.075 C 
HETATM    5  S1  UNL     1       1.345   0.997   4.058  1.00  0.00    -0.159 SA
HETATM    6  C11 UNL     1       0.592  -0.359   4.997  1.00  0.00     0.013 C 
HETATM    7  C12 UNL     1       1.482  -1.535   4.763  1.00  0.00     0.028 C 
HETATM    8  C13 UNL     1       0.667  -0.119   6.487  1.00  0.00     0.009 C 
HETATM    9  C14 UNL     1       0.556  -1.352   7.315  1.00  0.00     0.007 C 
HETATM   10  C15 UNL     1       0.622  -0.916   8.764  1.00  0.00     0.005 C 
HETATM   11  C16 UNL     1       1.093   0.497   8.938  1.00  0.00    -0.010 C 
HETATM   12  C17 UNL     1       0.479   1.070  10.222  1.00  0.00     0.005 C 
HETATM   13  C18 UNL     1      -0.553   1.799   9.389  1.00  0.00     0.006 C 
HETATM   14  C19 UNL     1       0.285   1.518   8.188  1.00  0.00    -0.006 C 
HETATM   15  C20 UNL     1      -0.384   0.803   7.035  1.00  0.00    -0.005 C 
HETATM   16  C21 UNL     1      -0.966   1.695   6.015  1.00  0.00     0.006 C 
HETATM   17  C22 UNL     1      -1.562   0.820   4.941  1.00  0.00     0.007 C 
HETATM   18  C23 UNL     1      -0.799  -0.412   4.599  1.00  0.00     0.012 C 
ENDROOT
BRANCH   2  19
HETATM   19  C3  UNL     1      -2.643  -0.782   3.165  1.00  0.00     0.011 C 
BRANCH  19  20
HETATM   20  C4  UNL     1      -3.362  -1.842   2.471  1.00  0.00     0.028 C 
BRANCH  20  21
HETATM   21  C5  UNL     1      -4.128  -1.559   1.226  1.00  0.00     0.232 C 
BRANCH  21  22
HETATM   22  N1  UNL     1      -3.507  -2.267   0.119  1.00  0.00    -0.075 N 
ATOM     23  H12 UNL     1      -3.032  -3.119   0.417  1.00  0.00     0.277 HD
ATOM     24  H11 UNL     1      -4.191  -2.698  -0.502  1.00  0.00     0.277 HD
BRANCH  22  25
HETATM   25  C6  UNL     1      -2.627  -1.358  -0.575  1.00  0.00     0.233 C 
BRANCH  25  26
HETATM   26  C7  UNL     1      -1.246  -1.944  -0.790  1.00  0.00     0.055 C 
BRANCH  26  27
HETATM   27  C8  UNL     1      -0.362  -0.832  -1.350  1.00  0.00     0.231 C 
BRANCH  27  28
HETATM   28  N2  UNL     1       1.041  -1.233  -1.295  1.00  0.00    -0.079 N 
ATOM     29  H23 UNL     1       1.634  -0.495  -0.916  1.00  0.00     0.274 HD
ATOM     30  H22 UNL     1       1.208  -1.941  -0.581  1.00  0.00     0.274 HD
ATOM     31  H21 UNL     1       1.353  -1.538  -2.217  1.00  0.00     0.274 HD
ENDBRANCH  27  28
ENDBRANCH  26  27
ENDBRANCH  25  26
ENDBRANCH  22  25
ENDBRANCH  21  22
ENDBRANCH  20  21
ENDBRANCH  19  20
ENDBRANCH   2  19
TORSDOF 8
ENDMDL
