MODEL 1
REMARK VINA RESULT: -6.945782017      0.000      0.000
REMARK  9 active torsions:
REMARK  status: ('A' for Active; 'I' for Inactive)
REMARK    1  A    between atoms: O1_2  and  C2_3 
REMARK    2  A    between atoms: C4_5  and  O2_6 
REMARK    3  A    between atoms: C4_5  and  C5_8 
REMARK    4  A    between atoms: C5_8  and  O3_9 
REMARK    5  A    between atoms: C6_11  and  O4_12 
REMARK    6  A    between atoms: C7_14  and  O5_15 
REMARK    7  A    between atoms: C8_17  and  O6_18 
REMARK    8  A    between atoms: O6_18  and  N1_19 
REMARK       I    between atoms: C9_21  and  N3_23 
REMARK    9  A    between atoms: N6_30  and  N7_31 
ROOT
HETATM    1  C2  UNL     1     -21.893 -21.755 -16.421  1.00  0.00     0.079 C 
HETATM    2  C3  UNL     1     -20.582 -21.785 -16.464  1.00  0.00     0.050 C 
HETATM    3  C4  UNL     1     -19.789 -20.724 -17.118  1.00  0.00     0.127 C 
HETATM    4  C6  UNL     1     -20.577 -19.566 -17.628  1.00  0.00     0.190 C 
HETATM    5  C7  UNL     1     -21.888 -20.105 -18.218  1.00  0.00     0.188 C 
HETATM    6  C8  UNL     1     -22.634 -20.660 -17.024  1.00  0.00     0.239 C 
ENDROOT
BRANCH   6   7
HETATM    7  O6  UNL     1     -23.975 -20.938 -17.302  1.00  0.00    -0.263 OA
BRANCH   7   8
HETATM    8  N1  UNL     1     -24.862 -21.558 -16.514  1.00  0.00    -0.235 N 
HETATM    9  C9  UNL     1     -26.082 -21.690 -16.866  1.00  0.00     0.248 C 
HETATM   10  N2  UNL     1     -26.486 -21.162 -18.123  1.00  0.00    -0.059 NA
HETATM   11  N3  UNL     1     -27.076 -22.327 -16.095  1.00  0.00    -0.151 N 
HETATM   12  N4  UNL     1     -27.070 -22.188 -14.720  1.00  0.00    -0.226 N 
HETATM   13  N6  UNL     1     -28.051 -23.087 -16.719  1.00  0.00    -0.119 NA
HETATM   14  N5  UNL     1     -27.967 -22.680 -13.959  1.00  0.00    -0.319 N 
ATOM     15  H4  UNL     1     -26.308 -21.663 -14.291  1.00  0.00     0.210 HD
HETATM   16  C10 UNL     1     -29.067 -23.429 -14.503  1.00  0.00     0.159 C 
ATOM     17  H5  UNL     1     -27.903 -22.541 -12.951  1.00  0.00     0.181 HD
HETATM   18  C11 UNL     1     -29.280 -23.097 -15.950  1.00  0.00     0.161 C 
ATOM     19  H1  UNL     1     -24.558 -21.931 -15.614  1.00  0.00     0.197 HD
BRANCH  13  20
HETATM   20  N7  UNL     1     -27.670 -24.419 -16.914  1.00  0.00    -0.344 NA
ATOM     21  H72 UNL     1     -26.822 -24.576 -16.370  1.00  0.00     0.172 HD
ATOM     22  H71 UNL     1     -27.528 -24.657 -17.896  1.00  0.00     0.172 HD
ENDBRANCH  13  20
ENDBRANCH   7   8
ENDBRANCH   6   7
BRANCH   1  23
HETATM   23  O1  UNL     1     -22.519 -22.830 -15.767  1.00  0.00    -0.358 OA
HETATM   24  C1  UNL     1     -21.825 -23.537 -14.758  1.00  0.00     0.209 C 
ENDBRANCH   1  23
BRANCH   5  25
HETATM   25  O5  UNL     1     -21.537 -21.112 -19.107  1.00  0.00    -0.390 OA
ATOM     26  H5  UNL     1     -22.322 -21.325 -19.598  1.00  0.00     0.210 HD
ENDBRANCH   5  25
BRANCH   4  27
HETATM   27  O4  UNL     1     -20.807 -18.608 -16.657  1.00  0.00    -0.389 OA
ATOM     28  H4  UNL     1     -20.553 -17.736 -16.935  1.00  0.00     0.210 HD
ENDBRANCH   4  27
BRANCH   3  29
HETATM   29  O2  UNL     1     -19.150 -21.327 -18.229  1.00  0.00    -0.381 OA
ATOM     30  H2  UNL     1     -19.840 -21.587 -18.827  1.00  0.00     0.211 HD
ENDBRANCH   3  29
BRANCH   3  31
HETATM   31  C5  UNL     1     -18.696 -20.271 -16.175  1.00  0.00     0.209 C 
BRANCH  31  32
HETATM   32  O3  UNL     1     -19.099 -20.516 -14.878  1.00  0.00    -0.397 OA
ATOM     33  H3  UNL     1     -18.329 -20.580 -14.326  1.00  0.00     0.209 HD
ENDBRANCH  31  32
ENDBRANCH   3  31
TORSDOF 9
ENDMDL
MODEL 2
REMARK VINA RESULT: -6.633046918      5.120      7.782
REMARK  9 active torsions:
REMARK  status: ('A' for Active; 'I' for Inactive)
REMARK    1  A    between atoms: O1_2  and  C2_3 
REMARK    2  A    between atoms: C4_5  and  O2_6 
REMARK    3  A    between atoms: C4_5  and  C5_8 
REMARK    4  A    between atoms: C5_8  and  O3_9 
REMARK    5  A    between atoms: C6_11  and  O4_12 
REMARK    6  A    between atoms: C7_14  and  O5_15 
REMARK    7  A    between atoms: C8_17  and  O6_18 
REMARK    8  A    between atoms: O6_18  and  N1_19 
REMARK       I    between atoms: C9_21  and  N3_23 
REMARK    9  A    between atoms: N6_30  and  N7_31 
ROOT
HETATM    1  C2  UNL     1     -21.429 -20.918 -16.535  1.00  0.00     0.079 C 
HETATM    2  C3  UNL     1     -22.095 -20.076 -17.289  1.00  0.00     0.050 C 
HETATM    3  C4  UNL     1     -21.445 -19.288 -18.357  1.00  0.00     0.127 C 
HETATM    4  C6  UNL     1     -20.006 -19.598 -18.588  1.00  0.00     0.190 C 
HETATM    5  C7  UNL     1     -19.348 -19.847 -17.223  1.00  0.00     0.188 C 
HETATM    6  C8  UNL     1     -20.001 -21.115 -16.721  1.00  0.00     0.239 C 
ENDROOT
BRANCH   6   7
HETATM    7  O6  UNL     1     -19.336 -21.671 -15.624  1.00  0.00    -0.263 OA
BRANCH   7   8
HETATM    8  N1  UNL     1     -18.431 -21.084 -14.832  1.00  0.00    -0.235 N 
HETATM    9  C9  UNL     1     -18.401 -21.314 -13.577  1.00  0.00     0.248 C 
HETATM   10  N2  UNL     1     -19.357 -22.213 -13.029  1.00  0.00    -0.059 NA
HETATM   11  N3  UNL     1     -17.482 -20.736 -12.676  1.00  0.00    -0.151 N 
HETATM   12  N4  UNL     1     -17.083 -19.425 -12.853  1.00  0.00    -0.226 N 
HETATM   13  N6  UNL     1     -16.986 -21.485 -11.622  1.00  0.00    -0.119 NA
HETATM   14  N5  UNL     1     -16.304 -18.812 -12.049  1.00  0.00    -0.319 N 
ATOM     15  H4  UNL     1     -17.429 -18.919 -13.669  1.00  0.00     0.210 HD
HETATM   16  C10 UNL     1     -15.784 -19.468 -10.882  1.00  0.00     0.159 C 
ATOM     17  H5  UNL     1     -16.048 -17.843 -12.238  1.00  0.00     0.181 HD
HETATM   18  C11 UNL     1     -16.638 -20.640 -10.497  1.00  0.00     0.161 C 
ATOM     19  H1  UNL     1     -17.751 -20.441 -15.239  1.00  0.00     0.197 HD
BRANCH  13  20
HETATM   20  N7  UNL     1     -15.845 -22.222 -11.959  1.00  0.00    -0.344 NA
ATOM     21  H72 UNL     1     -16.005 -23.183 -11.658  1.00  0.00     0.172 HD
ATOM     22  H71 UNL     1     -14.989 -21.845 -11.553  1.00  0.00     0.172 HD
ENDBRANCH  13  20
ENDBRANCH   7   8
ENDBRANCH   6   7
BRANCH   1  23
HETATM   23  O1  UNL     1     -22.172 -21.600 -15.558  1.00  0.00    -0.358 OA
HETATM   24  C1  UNL     1     -23.038 -22.651 -15.942  1.00  0.00     0.209 C 
ENDBRANCH   1  23
BRANCH   5  25
HETATM   25  O5  UNL     1     -19.672 -18.759 -16.424  1.00  0.00    -0.390 OA
ATOM     26  H5  UNL     1     -18.863 -18.471 -16.017  1.00  0.00     0.210 HD
ENDBRANCH   5  25
BRANCH   4  27
HETATM   27  O4  UNL     1     -19.821 -20.664 -19.449  1.00  0.00    -0.389 OA
ATOM     28  H4  UNL     1     -19.573 -21.462 -18.997  1.00  0.00     0.210 HD
ENDBRANCH   4  27
BRANCH   3  29
HETATM   29  O2  UNL     1     -21.532 -17.930 -17.964  1.00  0.00    -0.381 OA
ATOM     30  H2  UNL     1     -22.340 -17.595 -18.332  1.00  0.00     0.211 HD
ENDBRANCH   3  29
BRANCH   3  31
HETATM   31  C5  UNL     1     -22.248 -19.427 -19.633  1.00  0.00     0.209 C 
BRANCH  31  32
HETATM   32  O3  UNL     1     -22.996 -20.585 -19.562  1.00  0.00    -0.397 OA
ATOM     33  H3  UNL     1     -23.917 -20.358 -19.614  1.00  0.00     0.209 HD
ENDBRANCH  31  32
ENDBRANCH   3  31
TORSDOF 9
ENDMDL
MODEL 3
REMARK VINA RESULT: -6.619705181      3.927      6.246
REMARK  9 active torsions:
REMARK  status: ('A' for Active; 'I' for Inactive)
REMARK    1  A    between atoms: O1_2  and  C2_3 
REMARK    2  A    between atoms: C4_5  and  O2_6 
REMARK    3  A    between atoms: C4_5  and  C5_8 
REMARK    4  A    between atoms: C5_8  and  O3_9 
REMARK    5  A    between atoms: C6_11  and  O4_12 
REMARK    6  A    between atoms: C7_14  and  O5_15 
REMARK    7  A    between atoms: C8_17  and  O6_18 
REMARK    8  A    between atoms: O6_18  and  N1_19 
REMARK       I    between atoms: C9_21  and  N3_23 
REMARK    9  A    between atoms: N6_30  and  N7_31 
ROOT
HETATM    1  C2  UNL     1     -21.748 -18.387 -20.621  1.00  0.00     0.079 C 
HETATM    2  C3  UNL     1     -21.833 -17.078 -20.624  1.00  0.00     0.050 C 
HETATM    3  C4  UNL     1     -20.690 -16.212 -20.269  1.00  0.00     0.127 C 
HETATM    4  C6  UNL     1     -19.408 -16.927 -20.014  1.00  0.00     0.190 C 
HETATM    5  C7  UNL     1     -19.729 -18.228 -19.263  1.00  0.00     0.188 C 
HETATM    6  C8  UNL     1     -20.507 -19.053 -20.263  1.00  0.00     0.239 C 
ENDROOT
BRANCH   6   7
HETATM    7  O6  UNL     1     -20.646 -20.389 -19.875  1.00  0.00    -0.263 OA
BRANCH   7   8
HETATM    8  N1  UNL     1     -21.219 -20.862 -18.761  1.00  0.00    -0.235 N 
HETATM    9  C9  UNL     1     -20.598 -21.666 -17.988  1.00  0.00     0.248 C 
HETATM   10  N2  UNL     1     -19.275 -22.055 -18.335  1.00  0.00    -0.059 NA
HETATM   11  N3  UNL     1     -21.129 -22.208 -16.799  1.00  0.00    -0.151 N 
HETATM   12  N4  UNL     1     -22.467 -22.550 -16.741  1.00  0.00    -0.226 N 
HETATM   13  N6  UNL     1     -20.308 -22.395 -15.700  1.00  0.00    -0.119 NA
HETATM   14  N5  UNL     1     -23.008 -23.101 -15.726  1.00  0.00    -0.319 N 
ATOM     15  H4  UNL     1     -23.052 -22.351 -17.552  1.00  0.00     0.210 HD
HETATM   16  C10 UNL     1     -22.237 -23.407 -14.553  1.00  0.00     0.159 C 
ATOM     17  H5  UNL     1     -24.003 -23.327 -15.748  1.00  0.00     0.181 HD
HETATM   18  C11 UNL     1     -20.775 -23.494 -14.878  1.00  0.00     0.161 C 
ATOM     19  H1  UNL     1     -22.168 -20.574 -18.525  1.00  0.00     0.197 HD
BRANCH  13  20
HETATM   20  N7  UNL     1     -20.224 -21.266 -14.878  1.00  0.00    -0.344 NA
ATOM     21  H72 UNL     1     -21.114 -21.178 -14.389  1.00  0.00     0.172 HD
ATOM     22  H71 UNL     1     -19.997 -20.413 -15.388  1.00  0.00     0.172 HD
ENDBRANCH  13  20
ENDBRANCH   7   8
ENDBRANCH   6   7
BRANCH   1  23
HETATM   23  O1  UNL     1     -22.913 -19.087 -20.980  1.00  0.00    -0.358 OA
HETATM   24  C1  UNL     1     -22.949 -19.815 -22.192  1.00  0.00     0.209 C 
ENDBRANCH   1  23
BRANCH   5  25
HETATM   25  O5  UNL     1     -20.518 -17.872 -18.177  1.00  0.00    -0.390 OA
ATOM     26  H5  UNL     1     -20.434 -18.573 -17.541  1.00  0.00     0.210 HD
ENDBRANCH   5  25
BRANCH   4  27
HETATM   27  O4  UNL     1     -18.690 -17.168 -21.172  1.00  0.00    -0.389 OA
ATOM     28  H4  UNL     1     -18.284 -16.384 -21.521  1.00  0.00     0.210 HD
ENDBRANCH   4  27
BRANCH   3  29
HETATM   29  O2  UNL     1     -21.049 -15.542 -19.074  1.00  0.00    -0.381 OA
ATOM     30  H2  UNL     1     -20.239 -15.359 -18.615  1.00  0.00     0.211 HD
ENDBRANCH   3  29
BRANCH   3  31
HETATM   31  C5  UNL     1     -20.523 -15.150 -21.335  1.00  0.00     0.209 C 
BRANCH  31  32
HETATM   32  O3  UNL     1     -21.773 -14.711 -21.723  1.00  0.00    -0.397 OA
ATOM     33  H3  UNL     1     -22.215 -14.341 -20.968  1.00  0.00     0.209 HD
ENDBRANCH  31  32
ENDBRANCH   3  31
TORSDOF 9
ENDMDL
MODEL 4
REMARK VINA RESULT: -6.492584940      5.403      8.012
REMARK  9 active torsions:
REMARK  status: ('A' for Active; 'I' for Inactive)
REMARK    1  A    between atoms: O1_2  and  C2_3 
REMARK    2  A    between atoms: C4_5  and  O2_6 
REMARK    3  A    between atoms: C4_5  and  C5_8 
REMARK    4  A    between atoms: C5_8  and  O3_9 
REMARK    5  A    between atoms: C6_11  and  O4_12 
REMARK    6  A    between atoms: C7_14  and  O5_15 
REMARK    7  A    between atoms: C8_17  and  O6_18 
REMARK    8  A    between atoms: O6_18  and  N1_19 
REMARK       I    between atoms: C9_21  and  N3_23 
REMARK    9  A    between atoms: N6_30  and  N7_31 
ROOT
HETATM    1  C2  UNL     1     -20.475 -19.563 -16.791  1.00  0.00     0.079 C 
HETATM    2  C3  UNL     1     -21.162 -18.515 -17.180  1.00  0.00     0.050 C 
HETATM    3  C4  UNL     1     -20.544 -17.399 -17.926  1.00  0.00     0.127 C 
HETATM    4  C6  UNL     1     -19.116 -17.599 -18.298  1.00  0.00     0.190 C 
HETATM    5  C7  UNL     1     -18.413 -18.305 -17.130  1.00  0.00     0.188 C 
HETATM    6  C8  UNL     1     -19.056 -19.674 -17.081  1.00  0.00     0.239 C 
ENDROOT
BRANCH   6   7
HETATM    7  O6  UNL     1     -18.357 -20.574 -16.271  1.00  0.00    -0.263 OA
BRANCH   7   8
HETATM    8  N1  UNL     1     -17.660 -20.304 -15.160  1.00  0.00    -0.235 N 
HETATM    9  C9  UNL     1     -17.949 -20.857 -14.047  1.00  0.00     0.248 C 
HETATM   10  N2  UNL     1     -19.036 -21.773 -14.006  1.00  0.00    -0.059 NA
HETATM   11  N3  UNL     1     -17.266 -20.627 -12.835  1.00  0.00    -0.151 N 
HETATM   12  N4  UNL     1     -16.799 -19.359 -12.542  1.00  0.00    -0.226 N 
HETATM   13  N6  UNL     1     -17.068 -21.669 -11.946  1.00  0.00    -0.119 NA
HETATM   14  N5  UNL     1     -16.227 -19.056 -11.443  1.00  0.00    -0.319 N 
ATOM     15  H4  UNL     1     -16.918 -18.626 -13.243  1.00  0.00     0.210 HD
HETATM   16  C10 UNL     1     -16.030 -20.042 -10.417  1.00  0.00     0.159 C 
ATOM     17  H5  UNL     1     -15.904 -18.100 -11.291  1.00  0.00     0.181 HD
HETATM   18  C11 UNL     1     -16.986 -21.187 -10.581  1.00  0.00     0.161 C 
ATOM     19  H1  UNL     1     -16.883 -19.644 -15.205  1.00  0.00     0.197 HD
BRANCH  13  20
HETATM   20  N7  UNL     1     -15.900 -22.397 -12.201  1.00  0.00    -0.344 NA
ATOM     21  H72 UNL     1     -15.597 -22.805 -11.317  1.00  0.00     0.172 HD
ATOM     22  H71 UNL     1     -15.160 -21.835 -12.622  1.00  0.00     0.172 HD
ENDBRANCH  13  20
ENDBRANCH   7   8
ENDBRANCH   6   7
BRANCH   1  23
HETATM   23  O1  UNL     1     -21.189 -20.549 -16.089  1.00  0.00    -0.358 OA
HETATM   24  C1  UNL     1     -21.918 -21.529 -16.803  1.00  0.00     0.209 C 
ENDBRANCH   1  23
BRANCH   5  25
HETATM   25  O5  UNL     1     -18.705 -17.568 -15.990  1.00  0.00    -0.390 OA
ATOM     26  H5  UNL     1     -17.961 -17.665 -15.408  1.00  0.00     0.210 HD
ENDBRANCH   5  25
BRANCH   4  27
HETATM   27  O4  UNL     1     -18.965 -18.297 -19.484  1.00  0.00    -0.389 OA
ATOM     28  H4  UNL     1     -18.141 -18.109 -19.918  1.00  0.00     0.210 HD
ENDBRANCH   4  27
BRANCH   3  29
HETATM   29  O2  UNL     1     -20.610 -16.266 -17.081  1.00  0.00    -0.381 OA
ATOM     30  H2  UNL     1     -19.976 -16.410 -16.388  1.00  0.00     0.211 HD
ENDBRANCH   3  29
BRANCH   3  31
HETATM   31  C5  UNL     1     -21.391 -17.090 -19.143  1.00  0.00     0.209 C 
BRANCH  31  32
HETATM   32  O3  UNL     1     -20.898 -15.951 -19.748  1.00  0.00    -0.397 OA
ATOM     33  H3  UNL     1     -21.404 -15.779 -20.533  1.00  0.00     0.209 HD
ENDBRANCH  31  32
ENDBRANCH   3  31
TORSDOF 9
ENDMDL
MODEL 5
REMARK VINA RESULT: -6.492270935      5.293      7.825
REMARK  9 active torsions:
REMARK  status: ('A' for Active; 'I' for Inactive)
REMARK    1  A    between atoms: O1_2  and  C2_3 
REMARK    2  A    between atoms: C4_5  and  O2_6 
REMARK    3  A    between atoms: C4_5  and  C5_8 
REMARK    4  A    between atoms: C5_8  and  O3_9 
REMARK    5  A    between atoms: C6_11  and  O4_12 
REMARK    6  A    between atoms: C7_14  and  O5_15 
REMARK    7  A    between atoms: C8_17  and  O6_18 
REMARK    8  A    between atoms: O6_18  and  N1_19 
REMARK       I    between atoms: C9_21  and  N3_23 
REMARK    9  A    between atoms: N6_30  and  N7_31 
ROOT
HETATM    1  C2  UNL     1     -19.767 -21.066 -18.293  1.00  0.00     0.079 C 
HETATM    2  C3  UNL     1     -20.630 -20.780 -19.239  1.00  0.00     0.050 C 
HETATM    3  C4  UNL     1     -21.896 -20.069 -18.964  1.00  0.00     0.127 C 
HETATM    4  C6  UNL     1     -22.071 -19.607 -17.558  1.00  0.00     0.190 C 
HETATM    5  C7  UNL     1     -21.509 -20.690 -16.627  1.00  0.00     0.188 C 
HETATM    6  C8  UNL     1     -20.023 -20.692 -16.913  1.00  0.00     0.239 C 
ENDROOT
BRANCH   6   7
HETATM    7  O6  UNL     1     -19.288 -21.407 -15.963  1.00  0.00    -0.263 OA
BRANCH   7   8
HETATM    8  N1  UNL     1     -18.423 -20.922 -15.063  1.00  0.00    -0.235 N 
HETATM    9  C9  UNL     1     -18.450 -21.305 -13.846  1.00  0.00     0.248 C 
HETATM   10  N2  UNL     1     -19.424 -22.266 -13.458  1.00  0.00    -0.059 NA
HETATM   11  N3  UNL     1     -17.576 -20.844 -12.840  1.00  0.00    -0.151 N 
HETATM   12  N4  UNL     1     -17.177 -19.520 -12.834  1.00  0.00    -0.226 N 
HETATM   13  N6  UNL     1     -17.125 -21.717 -11.865  1.00  0.00    -0.119 NA
HETATM   14  N5  UNL     1     -16.440 -19.012 -11.925  1.00  0.00    -0.319 N 
ATOM     15  H4  UNL     1     -17.489 -18.918 -13.596  1.00  0.00     0.210 HD
HETATM   16  C10 UNL     1     -15.970 -19.807 -10.825  1.00  0.00     0.159 C 
ATOM     17  H5  UNL     1     -16.181 -18.026 -11.980  1.00  0.00     0.181 HD
HETATM   18  C11 UNL     1     -16.834 -21.018 -10.628  1.00  0.00     0.161 C 
ATOM     19  H1  UNL     1     -17.730 -20.233 -15.356  1.00  0.00     0.197 HD
BRANCH  13  20
HETATM   20  N7  UNL     1     -15.965 -22.406 -12.237  1.00  0.00    -0.344 NA
ATOM     21  H72 UNL     1     -15.858 -23.189 -11.593  1.00  0.00     0.172 HD
ATOM     22  H71 UNL     1     -15.133 -21.817 -12.244  1.00  0.00     0.172 HD
ENDBRANCH  13  20
ENDBRANCH   7   8
ENDBRANCH   6   7
BRANCH   1  23
HETATM   23  O1  UNL     1     -18.605 -21.745 -18.696  1.00  0.00    -0.358 OA
HETATM   24  C1  UNL     1     -18.361 -21.963 -20.072  1.00  0.00     0.209 C 
ENDBRANCH   1  23
BRANCH   5  25
HETATM   25  O5  UNL     1     -22.099 -21.887 -17.011  1.00  0.00    -0.390 OA
ATOM     26  H5  UNL     1     -22.119 -22.438 -16.238  1.00  0.00     0.210 HD
ENDBRANCH   5  25
BRANCH   4  27
HETATM   27  O4  UNL     1     -21.487 -18.375 -17.324  1.00  0.00    -0.389 OA
ATOM     28  H4  UNL     1     -21.875 -17.919 -16.587  1.00  0.00     0.210 HD
ENDBRANCH   4  27
BRANCH   3  29
HETATM   29  O2  UNL     1     -22.940 -20.984 -19.246  1.00  0.00    -0.381 OA
ATOM     30  H2  UNL     1     -23.239 -21.316 -18.408  1.00  0.00     0.211 HD
ENDBRANCH   3  29
BRANCH   3  31
HETATM   31  C5  UNL     1     -22.042 -18.922 -19.941  1.00  0.00     0.209 C 
BRANCH  31  32
HETATM   32  O3  UNL     1     -23.328 -18.928 -20.443  1.00  0.00    -0.397 OA
ATOM     33  H3  UNL     1     -23.633 -18.031 -20.512  1.00  0.00     0.209 HD
ENDBRANCH  31  32
ENDBRANCH   3  31
TORSDOF 9
ENDMDL
