MODEL 1
REMARK VINA RESULT: -6.371222744      0.000      0.000
REMARK  9 active torsions:
REMARK  status: ('A' for Active; 'I' for Inactive)
REMARK    1  A    between atoms: C2_2  and  C3_4 
REMARK    2  A    between atoms: C3_4  and  O2_5 
REMARK    3  A    between atoms: C3_4  and  C4_7 
REMARK    4  A    between atoms: C4_7  and  O3_8 
REMARK    5  A    between atoms: C4_7  and  C5_10 
REMARK    6  A    between atoms: C6_12  and  O5_13 
REMARK    7  A    between atoms: C7_15  and  O6_16 
REMARK    8  A    between atoms: C7_15  and  C8_18 
REMARK    9  A    between atoms: N2_23  and  N3_24 
ROOT
HETATM    1  C5  UNL     1     -20.975 -17.760 -19.361  1.00  0.00     0.196 C 
HETATM    2  O4  UNL     1     -22.056 -17.550 -20.165  1.00  0.00    -0.332 OA
HETATM    3  C6  UNL     1     -22.146 -18.646 -21.026  1.00  0.00     0.306 C 
HETATM    4  C7  UNL     1     -21.606 -19.841 -20.251  1.00  0.00     0.218 C 
HETATM    5  C9  UNL     1     -21.123 -19.226 -19.006  1.00  0.00     0.194 C 
HETATM    6  N1  UNL     1     -19.932 -19.694 -18.409  1.00  0.00    -0.112 NA
HETATM    7  N2  UNL     1     -19.668 -18.953 -17.275  1.00  0.00    -0.049 NA
HETATM    8  N4  UNL     1     -20.547 -17.946 -16.967  1.00  0.00    -0.253 N 
ATOM      9  H4  UNL     1     -20.819 -17.787 -15.997  1.00  0.00     0.187 HD
HETATM   10  C10 UNL     1     -21.080 -17.118 -18.001  1.00  0.00     0.274 C 
HETATM   11  O9  UNL     1     -21.566 -16.007 -17.782  1.00  0.00    -0.268 OA
ENDROOT
BRANCH   1  12
HETATM   12  C4  UNL     1     -19.666 -17.374 -19.942  1.00  0.00     0.200 C 
BRANCH  12  13
HETATM   13  C3  UNL     1     -19.759 -15.887 -20.324  1.00  0.00     0.219 C 
BRANCH  13  14
HETATM   14  C2  UNL     1     -18.329 -15.423 -20.368  1.00  0.00     0.154 C 
HETATM   15  C1  UNL     1     -17.875 -14.323 -21.231  1.00  0.00     0.093 C 
HETATM   16  O1  UNL     1     -17.552 -16.026 -19.629  1.00  0.00    -0.295 OA
ENDBRANCH  13  14
BRANCH  13  17
HETATM   17  O2  UNL     1     -20.311 -15.858 -21.604  1.00  0.00    -0.385 OA
ATOM     18  H2  UNL     1     -20.785 -15.046 -21.737  1.00  0.00     0.210 HD
ENDBRANCH  13  17
ENDBRANCH  12  13
BRANCH  12  19
HETATM   19  O3  UNL     1     -19.326 -18.025 -21.122  1.00  0.00    -0.389 OA
ATOM     20  H3  UNL     1     -19.711 -18.890 -21.044  1.00  0.00     0.210 HD
ENDBRANCH  12  19
ENDBRANCH   1  12
BRANCH   3  21
HETATM   21  O5  UNL     1     -23.484 -18.803 -21.364  1.00  0.00    -0.368 OA
ATOM     22  H5  UNL     1     -23.634 -19.729 -21.512  1.00  0.00     0.212 HD
ENDBRANCH   3  21
BRANCH   4  23
HETATM   23  O6  UNL     1     -20.667 -20.547 -20.967  1.00  0.00    -0.373 OA
ATOM     24  H6  UNL     1     -20.026 -20.966 -20.405  1.00  0.00     0.211 HD
ENDBRANCH   4  23
BRANCH   4  25
HETATM   25  C8  UNL     1     -22.766 -20.735 -19.987  1.00  0.00     0.216 C 
HETATM   26  O7  UNL     1     -23.422 -20.570 -18.936  1.00  0.00    -0.646 OA
HETATM   27  O8  UNL     1     -23.150 -21.744 -20.860  1.00  0.00    -0.646 OA
ENDBRANCH   4  25
BRANCH   7  28
HETATM   28  N3  UNL     1     -19.404 -19.777 -16.184  1.00  0.00    -0.330 NA
ATOM     29  H32 UNL     1     -18.410 -19.981 -16.085  1.00  0.00     0.174 HD
ATOM     30  H31 UNL     1     -19.899 -19.458 -15.352  1.00  0.00     0.174 HD
ENDBRANCH   7  28
TORSDOF 9
ENDMDL
MODEL 2
REMARK VINA RESULT: -6.237366256      2.637      3.905
REMARK  9 active torsions:
REMARK  status: ('A' for Active; 'I' for Inactive)
REMARK    1  A    between atoms: C2_2  and  C3_4 
REMARK    2  A    between atoms: C3_4  and  O2_5 
REMARK    3  A    between atoms: C3_4  and  C4_7 
REMARK    4  A    between atoms: C4_7  and  O3_8 
REMARK    5  A    between atoms: C4_7  and  C5_10 
REMARK    6  A    between atoms: C6_12  and  O5_13 
REMARK    7  A    between atoms: C7_15  and  O6_16 
REMARK    8  A    between atoms: C7_15  and  C8_18 
REMARK    9  A    between atoms: N2_23  and  N3_24 
ROOT
HETATM    1  C5  UNL     1     -20.180 -18.170 -19.778  1.00  0.00     0.196 C 
HETATM    2  O4  UNL     1     -19.749 -19.460 -19.883  1.00  0.00    -0.332 OA
HETATM    3  C6  UNL     1     -20.883 -20.275 -19.857  1.00  0.00     0.306 C 
HETATM    4  C7  UNL     1     -22.003 -19.466 -20.499  1.00  0.00     0.218 C 
HETATM    5  C9  UNL     1     -21.371 -18.156 -20.715  1.00  0.00     0.194 C 
HETATM    6  N1  UNL     1     -22.120 -16.976 -20.515  1.00  0.00    -0.112 NA
HETATM    7  N2  UNL     1     -21.316 -15.880 -20.751  1.00  0.00    -0.049 NA
HETATM    8  N4  UNL     1     -20.010 -16.124 -21.094  1.00  0.00    -0.253 N 
ATOM      9  H4  UNL     1     -19.561 -15.564 -21.819  1.00  0.00     0.187 HD
HETATM   10  C10 UNL     1     -19.277 -17.159 -20.438  1.00  0.00     0.274 C 
HETATM   11  O9  UNL     1     -18.046 -17.200 -20.426  1.00  0.00    -0.268 OA
ENDROOT
BRANCH   1  12
HETATM   12  C4  UNL     1     -20.449 -17.701 -18.398  1.00  0.00     0.200 C 
BRANCH  12  13
HETATM   13  C3  UNL     1     -19.240 -18.101 -17.536  1.00  0.00     0.219 C 
BRANCH  13  14
HETATM   14  C2  UNL     1     -18.962 -16.887 -16.694  1.00  0.00     0.154 C 
HETATM   15  C1  UNL     1     -17.729 -16.726 -15.910  1.00  0.00     0.093 C 
HETATM   16  O1  UNL     1     -19.839 -16.024 -16.701  1.00  0.00    -0.295 OA
ENDBRANCH  13  14
BRANCH  13  17
HETATM   17  O2  UNL     1     -19.678 -19.152 -16.731  1.00  0.00    -0.385 OA
ATOM     18  H2  UNL     1     -19.517 -19.983 -17.163  1.00  0.00     0.210 HD
ENDBRANCH  13  17
ENDBRANCH  12  13
BRANCH  12  19
HETATM   19  O3  UNL     1     -21.542 -18.291 -17.772  1.00  0.00    -0.389 OA
ATOM     20  H3  UNL     1     -21.349 -19.221 -17.771  1.00  0.00     0.210 HD
ENDBRANCH  12  19
ENDBRANCH   1  12
BRANCH   3  21
HETATM   21  O5  UNL     1     -20.588 -21.424 -20.578  1.00  0.00    -0.368 OA
ATOM     22  H5  UNL     1     -19.962 -21.927 -20.071  1.00  0.00     0.212 HD
ENDBRANCH   3  21
BRANCH   4  23
HETATM   23  O6  UNL     1     -23.145 -19.455 -19.732  1.00  0.00    -0.373 OA
ATOM     24  H6  UNL     1     -23.933 -19.424 -20.260  1.00  0.00     0.211 HD
ENDBRANCH   4  23
BRANCH   4  25
HETATM   25  C8  UNL     1     -22.314 -20.127 -21.795  1.00  0.00     0.216 C 
HETATM   26  O7  UNL     1     -21.576 -19.894 -22.777  1.00  0.00    -0.646 OA
HETATM   27  O8  UNL     1     -23.388 -20.991 -21.959  1.00  0.00    -0.646 OA
ENDBRANCH   4  25
BRANCH   7  28
HETATM   28  N3  UNL     1     -21.930 -14.979 -21.616  1.00  0.00    -0.330 NA
ATOM     29  H32 UNL     1     -22.298 -14.162 -21.128  1.00  0.00     0.174 HD
ATOM     30  H31 UNL     1     -21.356 -14.809 -22.442  1.00  0.00     0.174 HD
ENDBRANCH   7  28
TORSDOF 9
ENDMDL
MODEL 3
REMARK VINA RESULT: -6.198897775      3.176      5.791
REMARK  9 active torsions:
REMARK  status: ('A' for Active; 'I' for Inactive)
REMARK    1  A    between atoms: C2_2  and  C3_4 
REMARK    2  A    between atoms: C3_4  and  O2_5 
REMARK    3  A    between atoms: C3_4  and  C4_7 
REMARK    4  A    between atoms: C4_7  and  O3_8 
REMARK    5  A    between atoms: C4_7  and  C5_10 
REMARK    6  A    between atoms: C6_12  and  O5_13 
REMARK    7  A    between atoms: C7_15  and  O6_16 
REMARK    8  A    between atoms: C7_15  and  C8_18 
REMARK    9  A    between atoms: N2_23  and  N3_24 
ROOT
HETATM    1  C5  UNL     1     -21.653 -20.174 -17.727  1.00  0.00     0.196 C 
HETATM    2  O4  UNL     1     -21.721 -19.098 -16.892  1.00  0.00    -0.332 OA
HETATM    3  C6  UNL     1     -20.625 -18.283 -17.184  1.00  0.00     0.306 C 
HETATM    4  C7  UNL     1     -20.340 -18.468 -18.668  1.00  0.00     0.218 C 
HETATM    5  C9  UNL     1     -21.284 -19.530 -19.048  1.00  0.00     0.194 C 
HETATM    6  N1  UNL     1     -20.888 -20.524 -19.969  1.00  0.00    -0.112 NA
HETATM    7  N2  UNL     1     -21.923 -21.418 -20.148  1.00  0.00    -0.049 NA
HETATM    8  N4  UNL     1     -23.069 -21.202 -19.425  1.00  0.00    -0.253 N 
ATOM      9  H4  UNL     1     -23.980 -21.341 -19.862  1.00  0.00     0.187 HD
HETATM   10  C10 UNL     1     -22.990 -20.784 -18.062  1.00  0.00     0.274 C 
HETATM   11  O9  UNL     1     -23.922 -20.918 -17.268  1.00  0.00    -0.268 OA
ENDROOT
BRANCH   1  12
HETATM   12  C4  UNL     1     -20.758 -21.269 -17.280  1.00  0.00     0.200 C 
BRANCH  12  13
HETATM   13  C3  UNL     1     -20.956 -21.429 -15.764  1.00  0.00     0.219 C 
BRANCH  13  14
HETATM   14  C2  UNL     1     -21.228 -22.896 -15.576  1.00  0.00     0.154 C 
HETATM   15  C1  UNL     1     -22.419 -23.403 -14.877  1.00  0.00     0.093 C 
HETATM   16  O1  UNL     1     -20.385 -23.658 -16.048  1.00  0.00    -0.295 OA
ENDBRANCH  13  14
BRANCH  13  17
HETATM   17  O2  UNL     1     -19.735 -21.090 -15.182  1.00  0.00    -0.385 OA
ATOM     18  H2  UNL     1     -19.195 -21.865 -15.081  1.00  0.00     0.210 HD
ENDBRANCH  13  17
ENDBRANCH  12  13
BRANCH  12  19
HETATM   19  O3  UNL     1     -19.397 -21.024 -17.437  1.00  0.00    -0.389 OA
ATOM     20  H3  UNL     1     -19.292 -20.100 -17.245  1.00  0.00     0.210 HD
ENDBRANCH  12  19
ENDBRANCH   1  12
BRANCH   3  21
HETATM   21  O5  UNL     1     -20.984 -16.976 -16.879  1.00  0.00    -0.368 OA
ATOM     22  H5  UNL     1     -20.542 -16.739 -16.073  1.00  0.00     0.212 HD
ENDBRANCH   3  21
BRANCH   4  23
HETATM   23  O6  UNL     1     -19.014 -18.737 -18.916  1.00  0.00    -0.373 OA
ATOM     24  H6  UNL     1     -18.806 -18.701 -19.842  1.00  0.00     0.211 HD
ENDBRANCH   4  23
BRANCH   4  25
HETATM   25  C8  UNL     1     -20.690 -17.183 -19.332  1.00  0.00     0.216 C 
HETATM   26  O7  UNL     1     -19.772 -16.377 -19.596  1.00  0.00    -0.646 OA
HETATM   27  O8  UNL     1     -21.993 -16.843 -19.669  1.00  0.00    -0.646 OA
ENDBRANCH   4  25
BRANCH   7  28
HETATM   28  N3  UNL     1     -22.182 -21.628 -21.499  1.00  0.00    -0.330 NA
ATOM     29  H32 UNL     1     -22.629 -22.528 -21.673  1.00  0.00     0.174 HD
ATOM     30  H31 UNL     1     -22.609 -20.806 -21.926  1.00  0.00     0.174 HD
ENDBRANCH   7  28
TORSDOF 9
ENDMDL
MODEL 4
REMARK VINA RESULT: -6.168980019      2.026      2.838
REMARK  9 active torsions:
REMARK  status: ('A' for Active; 'I' for Inactive)
REMARK    1  A    between atoms: C2_2  and  C3_4 
REMARK    2  A    between atoms: C3_4  and  O2_5 
REMARK    3  A    between atoms: C3_4  and  C4_7 
REMARK    4  A    between atoms: C4_7  and  O3_8 
REMARK    5  A    between atoms: C4_7  and  C5_10 
REMARK    6  A    between atoms: C6_12  and  O5_13 
REMARK    7  A    between atoms: C7_15  and  O6_16 
REMARK    8  A    between atoms: C7_15  and  C8_18 
REMARK    9  A    between atoms: N2_23  and  N3_24 
ROOT
HETATM    1  C5  UNL     1     -20.671 -19.265 -18.946  1.00  0.00     0.196 C 
HETATM    2  O4  UNL     1     -21.925 -18.764 -19.134  1.00  0.00    -0.332 OA
HETATM    3  C6  UNL     1     -22.066 -18.514 -20.501  1.00  0.00     0.306 C 
HETATM    4  C7  UNL     1     -21.212 -19.555 -21.214  1.00  0.00     0.218 C 
HETATM    5  C9  UNL     1     -20.541 -20.239 -20.099  1.00  0.00     0.194 C 
HETATM    6  N1  UNL     1     -19.195 -20.643 -20.233  1.00  0.00    -0.112 NA
HETATM    7  N2  UNL     1     -18.777 -21.236 -19.059  1.00  0.00    -0.049 NA
HETATM    8  N4  UNL     1     -19.685 -21.300 -18.033  1.00  0.00    -0.253 N 
ATOM      9  H4  UNL     1     -19.747 -22.142 -17.460  1.00  0.00     0.187 HD
HETATM   10  C10 UNL     1     -20.544 -20.192 -17.764  1.00  0.00     0.274 C 
HETATM   11  O9  UNL     1     -21.107 -20.032 -16.680  1.00  0.00    -0.268 OA
ENDROOT
BRANCH   1  12
HETATM   12  C4  UNL     1     -19.591 -18.253 -18.843  1.00  0.00     0.200 C 
BRANCH  12  13
HETATM   13  C3  UNL     1     -20.267 -16.879 -18.704  1.00  0.00     0.219 C 
BRANCH  13  14
HETATM   14  C2  UNL     1     -20.032 -16.490 -17.271  1.00  0.00     0.154 C 
HETATM   15  C1  UNL     1     -18.847 -16.918 -16.513  1.00  0.00     0.093 C 
HETATM   16  O1  UNL     1     -20.900 -15.783 -16.762  1.00  0.00    -0.295 OA
ENDBRANCH  13  14
BRANCH  13  17
HETATM   17  O2  UNL     1     -19.566 -16.023 -19.554  1.00  0.00    -0.385 OA
ATOM     18  H2  UNL     1     -19.254 -16.501 -20.313  1.00  0.00     0.210 HD
ENDBRANCH  13  17
ENDBRANCH  12  13
BRANCH  12  19
HETATM   19  O3  UNL     1     -18.777 -18.138 -19.964  1.00  0.00    -0.389 OA
ATOM     20  H3  UNL     1     -18.542 -19.031 -20.187  1.00  0.00     0.210 HD
ENDBRANCH  12  19
ENDBRANCH   1  12
BRANCH   3  21
HETATM   21  O5  UNL     1     -23.414 -18.641 -20.812  1.00  0.00    -0.368 OA
ATOM     22  H5  UNL     1     -23.508 -19.407 -21.366  1.00  0.00     0.212 HD
ENDBRANCH   3  21
BRANCH   4  23
HETATM   23  O6  UNL     1     -20.379 -18.993 -22.153  1.00  0.00    -0.373 OA
ATOM     24  H6  UNL     1     -20.760 -18.221 -22.556  1.00  0.00     0.211 HD
ENDBRANCH   4  23
BRANCH   4  25
HETATM   25  C8  UNL     1     -22.154 -20.471 -21.911  1.00  0.00     0.216 C 
HETATM   26  O7  UNL     1     -22.274 -20.376 -23.152  1.00  0.00    -0.646 OA
HETATM   27  O8  UNL     1     -22.905 -21.428 -21.242  1.00  0.00    -0.646 OA
ENDBRANCH   4  25
BRANCH   7  28
HETATM   28  N3  UNL     1     -18.166 -22.462 -19.302  1.00  0.00    -0.330 NA
ATOM     29  H32 UNL     1     -18.682 -23.025 -19.979  1.00  0.00     0.174 HD
ATOM     30  H31 UNL     1     -17.164 -22.352 -19.456  1.00  0.00     0.174 HD
ENDBRANCH   7  28
TORSDOF 9
ENDMDL
MODEL 5
REMARK VINA RESULT: -6.160242755      2.689      5.023
REMARK  9 active torsions:
REMARK  status: ('A' for Active; 'I' for Inactive)
REMARK    1  A    between atoms: C2_2  and  C3_4 
REMARK    2  A    between atoms: C3_4  and  O2_5 
REMARK    3  A    between atoms: C3_4  and  C4_7 
REMARK    4  A    between atoms: C4_7  and  O3_8 
REMARK    5  A    between atoms: C4_7  and  C5_10 
REMARK    6  A    between atoms: C6_12  and  O5_13 
REMARK    7  A    between atoms: C7_15  and  O6_16 
REMARK    8  A    between atoms: C7_15  and  C8_18 
REMARK    9  A    between atoms: N2_23  and  N3_24 
ROOT
HETATM    1  C5  UNL     1     -21.056 -18.324 -19.913  1.00  0.00     0.196 C 
HETATM    2  O4  UNL     1     -21.054 -19.070 -18.771  1.00  0.00    -0.332 OA
HETATM    3  C6  UNL     1     -19.937 -18.679 -18.029  1.00  0.00     0.306 C 
HETATM    4  C7  UNL     1     -19.711 -17.206 -18.344  1.00  0.00     0.218 C 
HETATM    5  C9  UNL     1     -20.708 -16.944 -19.392  1.00  0.00     0.194 C 
HETATM    6  N1  UNL     1     -20.383 -16.095 -20.473  1.00  0.00    -0.112 NA
HETATM    7  N2  UNL     1     -21.458 -16.022 -21.335  1.00  0.00    -0.049 NA
HETATM    8  N4  UNL     1     -22.569 -16.761 -21.014  1.00  0.00    -0.253 N 
ATOM      9  H4  UNL     1     -23.499 -16.365 -21.149  1.00  0.00     0.187 HD
HETATM   10  C10 UNL     1     -22.427 -18.082 -20.492  1.00  0.00     0.274 C 
HETATM   11  O9  UNL     1     -23.335 -18.912 -20.523  1.00  0.00    -0.268 OA
ENDROOT
BRANCH   1  12
HETATM   12  C4  UNL     1     -20.189 -18.831 -21.005  1.00  0.00     0.200 C 
BRANCH  12  13
HETATM   13  C3  UNL     1     -20.209 -20.366 -20.927  1.00  0.00     0.219 C 
BRANCH  13  14
HETATM   14  C2  UNL     1     -20.468 -20.808 -22.341  1.00  0.00     0.154 C 
HETATM   15  C1  UNL     1     -21.222 -22.027 -22.669  1.00  0.00     0.093 C 
HETATM   16  O1  UNL     1     -20.006 -20.080 -23.218  1.00  0.00    -0.295 OA
ENDBRANCH  13  14
BRANCH  13  17
HETATM   17  O2  UNL     1     -18.925 -20.743 -20.535  1.00  0.00    -0.385 OA
ATOM     18  H2  UNL     1     -18.515 -20.042 -20.042  1.00  0.00     0.210 HD
ENDBRANCH  13  17
ENDBRANCH  12  13
BRANCH  12  19
HETATM   19  O3  UNL     1     -18.845 -18.486 -20.903  1.00  0.00    -0.389 OA
ATOM     20  H3  UNL     1     -18.745 -18.152 -20.020  1.00  0.00     0.210 HD
ENDBRANCH  12  19
ENDBRANCH   1  12
BRANCH   3  21
HETATM   21  O5  UNL     1     -20.234 -18.887 -16.688  1.00  0.00    -0.368 OA
ATOM     22  H5  UNL     1     -19.833 -18.182 -16.194  1.00  0.00     0.212 HD
ENDBRANCH   3  21
BRANCH   4  23
HETATM   23  O6  UNL     1     -18.406 -16.940 -18.687  1.00  0.00    -0.373 OA
ATOM     24  H6  UNL     1     -18.280 -16.036 -18.951  1.00  0.00     0.211 HD
ENDBRANCH   4  23
BRANCH   4  25
HETATM   25  C8  UNL     1     -20.033 -16.452 -17.103  1.00  0.00     0.216 C 
HETATM   26  O7  UNL     1     -19.103 -16.164 -16.319  1.00  0.00    -0.646 OA
HETATM   27  O8  UNL     1     -21.323 -16.055 -16.779  1.00  0.00    -0.646 OA
ENDBRANCH   4  25
BRANCH   7  28
HETATM   28  N3  UNL     1     -21.771 -14.701 -21.641  1.00  0.00    -0.330 NA
ATOM     29  H32 UNL     1     -21.115 -14.291 -22.306  1.00  0.00     0.174 HD
ATOM     30  H31 UNL     1     -22.765 -14.593 -21.841  1.00  0.00     0.174 HD
ENDBRANCH   7  28
TORSDOF 9
ENDMDL
