MODEL 1
REMARK VINA RESULT: -6.891695604      0.000      0.000
REMARK  9 active torsions:
REMARK  status: ('A' for Active; 'I' for Inactive)
REMARK    1  A    between atoms: C1_2  and  C2_4 
REMARK    2  A    between atoms: N3_8  and  C4_9 
REMARK    3  A    between atoms: C5_11  and  C6_12 
REMARK    4  A    between atoms: C7_15  and  O4_16 
REMARK    5  A    between atoms: C7_15  and  C8_18 
REMARK    6  A    between atoms: C8_18  and  N5_19 
REMARK    7  A    between atoms: C8_18  and  O5_23 
REMARK    8  A    between atoms: C9_25  and  O6_26 
REMARK    9  A    between atoms: C10_28  and  O7_29 
ROOT
HETATM    1  C4  UNL     1     -21.561 -20.310 -18.588  1.00  0.00     0.277 C 
HETATM    2  O2  UNL     1     -21.593 -18.946 -18.470  1.00  0.00    -0.345 OA
HETATM    3  C5  UNL     1     -21.465 -18.229 -19.621  1.00  0.00     0.254 C 
HETATM    4  C7  UNL     1     -20.338 -18.712 -20.515  1.00  0.00     0.171 C 
HETATM    5  C9  UNL     1     -20.523 -20.162 -20.881  1.00  0.00     0.193 C 
HETATM    6  C10 UNL     1     -21.583 -20.800 -20.016  1.00  0.00     0.200 C 
ENDROOT
BRANCH   1   7
HETATM    7  N3  UNL     1     -22.583 -20.981 -17.811  1.00  0.00    -0.254 N 
HETATM    8  C3  UNL     1     -22.464 -21.867 -16.816  1.00  0.00     0.205 A 
HETATM    9  N2  UNL     1     -23.685 -22.228 -16.386  1.00  0.00    -0.332 N 
HETATM   10  C2  UNL     1     -24.581 -21.560 -17.121  1.00  0.00     0.187 A 
ATOM     11  H2  UNL     1     -23.891 -22.889 -15.637  1.00  0.00     0.168 HD
HETATM   12  N6  UNL     1     -23.883 -20.808 -17.982  1.00  0.00    -0.276 N 
ATOM     13  H6  UNL     1     -24.298 -20.186 -18.676  1.00  0.00     0.189 HD
BRANCH  10  14
HETATM   14  C1  UNL     1     -26.028 -21.648 -16.995  1.00  0.00     0.300 C 
HETATM   15  N1  UNL     1     -26.576 -22.249 -15.831  1.00  0.00    -0.054 NA
HETATM   16  O1  UNL     1     -26.822 -21.219 -17.866  1.00  0.00    -0.268 OA
ENDBRANCH  10  14
ENDBRANCH   1   7
BRANCH   6  17
HETATM   17  O7  UNL     1     -22.862 -20.718 -20.588  1.00  0.00    -0.388 OA
ATOM     18  H7  UNL     1     -23.018 -19.878 -21.003  1.00  0.00     0.210 HD
ENDBRANCH   6  17
BRANCH   3  19
HETATM   19  C6  UNL     1     -21.375 -16.799 -19.282  1.00  0.00     0.263 C 
HETATM   20  N4  UNL     1     -21.428 -16.286 -17.960  1.00  0.00    -0.060 NA
HETATM   21  O3  UNL     1     -21.242 -15.958 -20.202  1.00  0.00    -0.274 OA
ENDBRANCH   3  19
BRANCH   5  22
HETATM   22  O6  UNL     1     -19.365 -20.911 -20.829  1.00  0.00    -0.390 OA
ATOM     23  H6  UNL     1     -19.504 -21.829 -20.632  1.00  0.00     0.210 HD
ENDBRANCH   5  22
BRANCH   4  24
HETATM   24  O4  UNL     1     -20.290 -17.985 -21.702  1.00  0.00    -0.380 OA
ATOM     25  H4  UNL     1     -20.429 -18.548 -22.455  1.00  0.00     0.211 HD
ENDBRANCH   4  24
BRANCH   4  26
HETATM   26  C8  UNL     1     -18.985 -18.585 -19.857  1.00  0.00     0.356 C 
BRANCH  26  27
HETATM   27  N5  UNL     1     -18.939 -17.611 -18.792  1.00  0.00    -0.050 N 
ATOM     28  H53 UNL     1     -19.880 -17.297 -18.552  1.00  0.00     0.277 HD
ATOM     29  H52 UNL     1     -18.677 -18.054 -17.912  1.00  0.00     0.277 HD
ATOM     30  H51 UNL     1     -18.334 -16.813 -18.986  1.00  0.00     0.277 HD
ENDBRANCH  26  27
BRANCH  26  31
HETATM   31  O5  UNL     1     -18.129 -18.049 -20.854  1.00  0.00    -0.367 OA
ATOM     32  H5  UNL     1     -17.807 -17.229 -20.497  1.00  0.00     0.212 HD
ENDBRANCH  26  31
ENDBRANCH   4  26
TORSDOF 9
ENDMDL
MODEL 2
REMARK VINA RESULT: -6.744896171      1.497      1.960
REMARK  9 active torsions:
REMARK  status: ('A' for Active; 'I' for Inactive)
REMARK    1  A    between atoms: C1_2  and  C2_4 
REMARK    2  A    between atoms: N3_8  and  C4_9 
REMARK    3  A    between atoms: C5_11  and  C6_12 
REMARK    4  A    between atoms: C7_15  and  O4_16 
REMARK    5  A    between atoms: C7_15  and  C8_18 
REMARK    6  A    between atoms: C8_18  and  N5_19 
REMARK    7  A    between atoms: C8_18  and  O5_23 
REMARK    8  A    between atoms: C9_25  and  O6_26 
REMARK    9  A    between atoms: C10_28  and  O7_29 
ROOT
HETATM    1  C4  UNL     1     -21.734 -19.903 -19.479  1.00  0.00     0.277 C 
HETATM    2  O2  UNL     1     -21.366 -19.146 -18.399  1.00  0.00    -0.345 OA
HETATM    3  C5  UNL     1     -21.232 -17.807 -18.607  1.00  0.00     0.254 C 
HETATM    4  C7  UNL     1     -20.443 -17.463 -19.857  1.00  0.00     0.171 C 
HETATM    5  C9  UNL     1     -21.081 -18.068 -21.081  1.00  0.00     0.193 C 
HETATM    6  C10 UNL     1     -22.122 -19.089 -20.691  1.00  0.00     0.200 C 
ENDROOT
BRANCH   1   7
HETATM    7  N3  UNL     1     -22.763 -20.877 -19.179  1.00  0.00    -0.254 N 
HETATM    8  C3  UNL     1     -23.019 -22.060 -19.748  1.00  0.00     0.205 A 
HETATM    9  N2  UNL     1     -24.077 -22.630 -19.145  1.00  0.00    -0.332 N 
HETATM   10  C2  UNL     1     -24.488 -21.793 -18.186  1.00  0.00     0.187 A 
ATOM     11  H2  UNL     1     -24.490 -23.534 -19.376  1.00  0.00     0.168 HD
HETATM   12  N6  UNL     1     -23.671 -20.733 -18.228  1.00  0.00    -0.276 N 
ATOM     13  H6  UNL     1     -23.740 -19.924 -17.611  1.00  0.00     0.189 HD
BRANCH  10  14
HETATM   14  C1  UNL     1     -25.609 -22.011 -17.283  1.00  0.00     0.300 C 
HETATM   15  N1  UNL     1     -26.866 -21.436 -17.605  1.00  0.00    -0.054 NA
HETATM   16  O1  UNL     1     -25.521 -22.684 -16.227  1.00  0.00    -0.268 OA
ENDBRANCH  10  14
ENDBRANCH   1   7
BRANCH   6  17
HETATM   17  O7  UNL     1     -23.402 -18.528 -20.568  1.00  0.00    -0.388 OA
ATOM     18  H7  UNL     1     -23.420 -17.613 -20.821  1.00  0.00     0.210 HD
ENDBRANCH   6  17
BRANCH   3  19
HETATM   19  C6  UNL     1     -20.693 -17.188 -17.384  1.00  0.00     0.263 C 
HETATM   20  N4  UNL     1     -20.640 -15.789 -17.152  1.00  0.00    -0.060 NA
HETATM   21  O3  UNL     1     -20.246 -17.923 -16.471  1.00  0.00    -0.274 OA
ENDBRANCH   3  19
BRANCH   5  22
HETATM   22  O6  UNL     1     -20.184 -18.631 -21.967  1.00  0.00    -0.390 OA
ATOM     23  H6  UNL     1     -20.022 -19.555 -21.822  1.00  0.00     0.210 HD
ENDBRANCH   5  22
BRANCH   4  24
HETATM   24  O4  UNL     1     -20.388 -16.085 -20.054  1.00  0.00    -0.380 OA
ATOM     25  H4  UNL     1     -21.013 -15.633 -19.499  1.00  0.00     0.211 HD
ENDBRANCH   4  24
BRANCH   4  26
HETATM   26  C8  UNL     1     -19.020 -17.964 -19.798  1.00  0.00     0.356 C 
BRANCH  26  27
HETATM   27  N5  UNL     1     -18.364 -17.723 -18.534  1.00  0.00    -0.050 N 
ATOM     28  H53 UNL     1     -19.052 -17.574 -17.796  1.00  0.00     0.277 HD
ATOM     29  H52 UNL     1     -17.924 -18.576 -18.190  1.00  0.00     0.277 HD
ATOM     30  H51 UNL     1     -17.691 -16.957 -18.557  1.00  0.00     0.277 HD
ENDBRANCH  26  27
BRANCH  26  31
HETATM   31  O5  UNL     1     -18.298 -17.164 -20.721  1.00  0.00    -0.367 OA
ATOM     32  H5  UNL     1     -17.467 -16.979 -20.300  1.00  0.00     0.212 HD
ENDBRANCH  26  31
ENDBRANCH   4  26
TORSDOF 9
ENDMDL
MODEL 3
REMARK VINA RESULT: -6.679864048      1.671      1.829
REMARK  9 active torsions:
REMARK  status: ('A' for Active; 'I' for Inactive)
REMARK    1  A    between atoms: C1_2  and  C2_4 
REMARK    2  A    between atoms: N3_8  and  C4_9 
REMARK    3  A    between atoms: C5_11  and  C6_12 
REMARK    4  A    between atoms: C7_15  and  O4_16 
REMARK    5  A    between atoms: C7_15  and  C8_18 
REMARK    6  A    between atoms: C8_18  and  N5_19 
REMARK    7  A    between atoms: C8_18  and  O5_23 
REMARK    8  A    between atoms: C9_25  and  O6_26 
REMARK    9  A    between atoms: C10_28  and  O7_29 
ROOT
HETATM    1  C4  UNL     1     -21.372 -20.442 -17.140  1.00  0.00     0.277 C 
HETATM    2  O2  UNL     1     -21.583 -19.091 -17.215  1.00  0.00    -0.345 OA
HETATM    3  C5  UNL     1     -21.010 -18.439 -18.264  1.00  0.00     0.254 C 
HETATM    4  C7  UNL     1     -19.558 -18.816 -18.493  1.00  0.00     0.171 C 
HETATM    5  C9  UNL     1     -19.416 -20.298 -18.726  1.00  0.00     0.193 C 
HETATM    6  C10 UNL     1     -20.689 -21.021 -18.356  1.00  0.00     0.200 C 
ENDROOT
BRANCH   1   7
HETATM    7  N3  UNL     1     -22.567 -21.198 -16.829  1.00  0.00    -0.254 N 
HETATM    8  C3  UNL     1     -22.749 -22.200 -15.962  1.00  0.00     0.205 A 
HETATM    9  N2  UNL     1     -24.030 -22.605 -16.004  1.00  0.00    -0.332 N 
HETATM   10  C2  UNL     1     -24.659 -21.846 -16.908  1.00  0.00     0.187 A 
ATOM     11  H2  UNL     1     -24.447 -23.352 -15.449  1.00  0.00     0.168 HD
HETATM   12  N6  UNL     1     -23.744 -20.997 -17.396  1.00  0.00    -0.276 N 
ATOM     13  H6  UNL     1     -23.931 -20.292 -18.109  1.00  0.00     0.189 HD
BRANCH  10  14
HETATM   14  C1  UNL     1     -26.064 -21.940 -17.277  1.00  0.00     0.300 C 
HETATM   15  N1  UNL     1     -26.820 -23.046 -16.807  1.00  0.00    -0.054 NA
HETATM   16  O1  UNL     1     -26.646 -21.091 -17.994  1.00  0.00    -0.268 OA
ENDBRANCH  10  14
ENDBRANCH   1   7
BRANCH   6  17
HETATM   17  O7  UNL     1     -21.563 -21.154 -19.446  1.00  0.00    -0.388 OA
ATOM     18  H7  UNL     1     -21.101 -21.251 -20.269  1.00  0.00     0.210 HD
ENDBRANCH   6  17
BRANCH   3  19
HETATM   19  C6  UNL     1     -21.221 -16.991 -18.095  1.00  0.00     0.263 C 
HETATM   20  N4  UNL     1     -20.919 -16.018 -19.083  1.00  0.00    -0.060 NA
HETATM   21  O3  UNL     1     -21.699 -16.563 -17.017  1.00  0.00    -0.274 OA
ENDBRANCH   3  19
BRANCH   5  22
HETATM   22  O6  UNL     1     -18.345 -20.873 -18.071  1.00  0.00    -0.390 OA
ATOM     23  H6  UNL     1     -18.567 -21.267 -17.236  1.00  0.00     0.210 HD
ENDBRANCH   5  22
BRANCH   4  24
HETATM   24  O4  UNL     1     -19.039 -18.167 -19.611  1.00  0.00    -0.380 OA
ATOM     25  H4  UNL     1     -18.775 -17.279 -19.402  1.00  0.00     0.211 HD
ENDBRANCH   4  24
BRANCH   4  26
HETATM   26  C8  UNL     1     -18.676 -18.460 -17.320  1.00  0.00     0.356 C 
BRANCH  26  27
HETATM   27  N5  UNL     1     -18.986 -17.182 -16.720  1.00  0.00    -0.050 N 
ATOM     28  H53 UNL     1     -18.399 -16.448 -17.116  1.00  0.00     0.277 HD
ATOM     29  H52 UNL     1     -19.901 -16.855 -17.027  1.00  0.00     0.277 HD
ATOM     30  H51 UNL     1     -18.926 -17.178 -15.701  1.00  0.00     0.277 HD
ENDBRANCH  26  27
BRANCH  26  31
HETATM   31  O5  UNL     1     -17.378 -18.282 -17.863  1.00  0.00    -0.367 OA
ATOM     32  H5  UNL     1     -16.933 -19.111 -17.731  1.00  0.00     0.212 HD
ENDBRANCH  26  31
ENDBRANCH   4  26
TORSDOF 9
ENDMDL
MODEL 4
REMARK VINA RESULT: -6.648025727      2.005      3.060
REMARK  9 active torsions:
REMARK  status: ('A' for Active; 'I' for Inactive)
REMARK    1  A    between atoms: C1_2  and  C2_4 
REMARK    2  A    between atoms: N3_8  and  C4_9 
REMARK    3  A    between atoms: C5_11  and  C6_12 
REMARK    4  A    between atoms: C7_15  and  O4_16 
REMARK    5  A    between atoms: C7_15  and  C8_18 
REMARK    6  A    between atoms: C8_18  and  N5_19 
REMARK    7  A    between atoms: C8_18  and  O5_23 
REMARK    8  A    between atoms: C9_25  and  O6_26 
REMARK    9  A    between atoms: C10_28  and  O7_29 
ROOT
HETATM    1  C4  UNL     1     -23.394 -20.309 -18.181  1.00  0.00     0.277 C 
HETATM    2  O2  UNL     1     -23.207 -20.199 -19.534  1.00  0.00    -0.345 OA
HETATM    3  C5  UNL     1     -21.924 -20.045 -19.963  1.00  0.00     0.254 C 
HETATM    4  C7  UNL     1     -21.142 -19.007 -19.180  1.00  0.00     0.171 C 
HETATM    5  C9  UNL     1     -21.108 -19.351 -17.713  1.00  0.00     0.193 C 
HETATM    6  C10 UNL     1     -22.110 -20.434 -17.396  1.00  0.00     0.200 C 
ENDROOT
BRANCH   1   7
HETATM    7  N3  UNL     1     -24.316 -21.362 -17.808  1.00  0.00    -0.254 N 
HETATM    8  C3  UNL     1     -24.316 -22.659 -18.135  1.00  0.00     0.205 A 
HETATM    9  N2  UNL     1     -25.368 -23.267 -17.561  1.00  0.00    -0.332 N 
HETATM   10  C2  UNL     1     -26.035 -22.340 -16.865  1.00  0.00     0.187 A 
ATOM     11  H2  UNL     1     -25.613 -24.254 -17.640  1.00  0.00     0.168 HD
HETATM   12  N6  UNL     1     -25.372 -21.187 -17.033  1.00  0.00    -0.276 N 
ATOM     13  H6  UNL     1     -25.646 -20.296 -16.620  1.00  0.00     0.189 HD
BRANCH  10  14
HETATM   14  C1  UNL     1     -27.243 -22.559 -16.084  1.00  0.00     0.300 C 
HETATM   15  N1  UNL     1     -28.462 -22.810 -16.768  1.00  0.00    -0.054 NA
HETATM   16  O1  UNL     1     -27.266 -22.537 -14.830  1.00  0.00    -0.268 OA
ENDBRANCH  10  14
ENDBRANCH   1   7
BRANCH   6  17
HETATM   17  O7  UNL     1     -21.554 -21.720 -17.487  1.00  0.00    -0.388 OA
ATOM     18  H7  UNL     1     -21.229 -21.911 -18.358  1.00  0.00     0.210 HD
ENDBRANCH   6  17
BRANCH   3  19
HETATM   19  C6  UNL     1     -21.937 -19.799 -21.416  1.00  0.00     0.263 C 
HETATM   20  N4  UNL     1     -20.777 -19.554 -22.196  1.00  0.00    -0.060 NA
HETATM   21  O3  UNL     1     -23.032 -19.800 -22.028  1.00  0.00    -0.274 OA
ENDBRANCH   3  19
BRANCH   5  22
HETATM   22  O6  UNL     1     -21.307 -18.272 -16.875  1.00  0.00    -0.390 OA
ATOM     23  H6  UNL     1     -21.474 -18.508 -15.971  1.00  0.00     0.210 HD
ENDBRANCH   5  22
BRANCH   4  24
HETATM   24  O4  UNL     1     -19.822 -18.933 -19.621  1.00  0.00    -0.380 OA
ATOM     25  H4  UNL     1     -19.291 -18.411 -19.031  1.00  0.00     0.211 HD
ENDBRANCH   4  24
BRANCH   4  26
HETATM   26  C8  UNL     1     -21.733 -17.624 -19.304  1.00  0.00     0.356 C 
BRANCH  26  27
HETATM   27  N5  UNL     1     -22.517 -17.425 -20.501  1.00  0.00    -0.050 N 
ATOM     28  H53 UNL     1     -22.330 -18.164 -21.179  1.00  0.00     0.277 HD
ATOM     29  H52 UNL     1     -23.504 -17.606 -20.317  1.00  0.00     0.277 HD
ATOM     30  H51 UNL     1     -22.394 -16.507 -20.928  1.00  0.00     0.277 HD
ENDBRANCH  26  27
BRANCH  26  31
HETATM   31  O5  UNL     1     -20.626 -16.752 -19.466  1.00  0.00    -0.367 OA
ATOM     32  H5  UNL     1     -20.067 -17.170 -20.111  1.00  0.00     0.212 HD
ENDBRANCH  26  31
ENDBRANCH   4  26
TORSDOF 9
ENDMDL
MODEL 5
REMARK VINA RESULT: -6.563148861      2.622      6.778
REMARK  9 active torsions:
REMARK  status: ('A' for Active; 'I' for Inactive)
REMARK    1  A    between atoms: C1_2  and  C2_4 
REMARK    2  A    between atoms: N3_8  and  C4_9 
REMARK    3  A    between atoms: C5_11  and  C6_12 
REMARK    4  A    between atoms: C7_15  and  O4_16 
REMARK    5  A    between atoms: C7_15  and  C8_18 
REMARK    6  A    between atoms: C8_18  and  N5_19 
REMARK    7  A    between atoms: C8_18  and  O5_23 
REMARK    8  A    between atoms: C9_25  and  O6_26 
REMARK    9  A    between atoms: C10_28  and  O7_29 
ROOT
HETATM    1  C4  UNL     1     -20.581 -17.689 -19.765  1.00  0.00     0.277 C 
HETATM    2  O2  UNL     1     -20.028 -18.597 -18.901  1.00  0.00    -0.345 OA
HETATM    3  C5  UNL     1     -20.195 -19.913 -19.208  1.00  0.00     0.254 C 
HETATM    4  C7  UNL     1     -21.617 -20.270 -19.600  1.00  0.00     0.171 C 
HETATM    5  C9  UNL     1     -22.074 -19.450 -20.779  1.00  0.00     0.193 C 
HETATM    6  C10 UNL     1     -21.124 -18.304 -21.032  1.00  0.00     0.200 C 
ENDROOT
BRANCH   1   7
HETATM    7  N3  UNL     1     -19.701 -16.583 -20.081  1.00  0.00    -0.254 N 
HETATM    8  C3  UNL     1     -18.476 -16.302 -19.625  1.00  0.00     0.205 A 
HETATM    9  N2  UNL     1     -18.032 -15.167 -20.193  1.00  0.00    -0.332 N 
HETATM   10  C2  UNL     1     -18.992 -14.733 -21.017  1.00  0.00     0.187 A 
ATOM     11  H2  UNL     1     -17.130 -14.721 -20.028  1.00  0.00     0.168 HD
HETATM   12  N6  UNL     1     -19.998 -15.613 -20.929  1.00  0.00    -0.276 N 
ATOM     13  H6  UNL     1     -20.875 -15.544 -21.446  1.00  0.00     0.189 HD
BRANCH  10  14
HETATM   14  C1  UNL     1     -18.936 -13.533 -21.839  1.00  0.00     0.300 C 
HETATM   15  N1  UNL     1     -17.666 -13.026 -22.222  1.00  0.00    -0.054 NA
HETATM   16  O1  UNL     1     -19.958 -12.918 -22.230  1.00  0.00    -0.268 OA
ENDBRANCH  10  14
ENDBRANCH   1   7
BRANCH   6  17
HETATM   17  O7  UNL     1     -20.107 -18.642 -21.939  1.00  0.00    -0.388 OA
ATOM     18  H7  UNL     1     -20.424 -18.693 -22.832  1.00  0.00     0.210 HD
ENDBRANCH   6  17
BRANCH   3  19
HETATM   19  C6  UNL     1     -19.668 -20.729 -18.101  1.00  0.00     0.263 C 
HETATM   20  N4  UNL     1     -19.192 -20.200 -16.874  1.00  0.00    -0.060 NA
HETATM   21  O3  UNL     1     -19.626 -21.976 -18.225  1.00  0.00    -0.274 OA
ENDBRANCH   3  19
BRANCH   5  22
HETATM   22  O6  UNL     1     -23.364 -18.972 -20.669  1.00  0.00    -0.390 OA
ATOM     23  H6  UNL     1     -23.954 -19.287 -21.343  1.00  0.00     0.210 HD
ENDBRANCH   5  22
BRANCH   4  24
HETATM   24  O4  UNL     1     -21.718 -21.612 -19.962  1.00  0.00    -0.380 OA
ATOM     25  H4  UNL     1     -21.204 -22.164 -19.383  1.00  0.00     0.211 HD
ENDBRANCH   4  24
BRANCH   4  26
HETATM   26  C8  UNL     1     -22.601 -20.033 -18.480  1.00  0.00     0.356 C 
BRANCH  26  27
HETATM   27  N5  UNL     1     -22.129 -20.459 -17.184  1.00  0.00    -0.050 N 
ATOM     28  H53 UNL     1     -21.342 -21.101 -17.281  1.00  0.00     0.277 HD
ATOM     29  H52 UNL     1     -21.665 -19.690 -16.701  1.00  0.00     0.277 HD
ATOM     30  H51 UNL     1     -22.854 -20.868 -16.593  1.00  0.00     0.277 HD
ENDBRANCH  26  27
BRANCH  26  31
HETATM   31  O5  UNL     1     -23.696 -20.894 -18.751  1.00  0.00    -0.367 OA
ATOM     32  H5  UNL     1     -23.410 -21.450 -19.466  1.00  0.00     0.212 HD
ENDBRANCH  26  31
ENDBRANCH   4  26
TORSDOF 9
ENDMDL
