MODEL 1
REMARK VINA RESULT: -8.118137285      0.000      0.000
REMARK  17 active torsions:
REMARK  status: ('A' for Active; 'I' for Inactive)
REMARK    1  A    between atoms: N1_1  and  C1_4 
REMARK    2  A    between atoms: C3_8  and  C4_9 
REMARK    3  A    between atoms: C4_9  and  C5_10 
REMARK    4  A    between atoms: C5_10  and  C6_11 
REMARK    5  A    between atoms: C6_11  and  C7_12 
REMARK    6  A    between atoms: C7_12  and  C8_13 
REMARK    7  A    between atoms: C8_13  and  C9_14 
REMARK    8  A    between atoms: C9_14  and  C10_15 
REMARK    9  A    between atoms: C10_15  and  C11_16 
REMARK   10  A    between atoms: C11_16  and  C12_17 
REMARK   11  A    between atoms: C12_17  and  C13_18 
REMARK   12  A    between atoms: C13_18  and  C14_19 
REMARK   13  A    between atoms: C14_19  and  C15_20 
REMARK   14  A    between atoms: C15_20  and  C16_21 
REMARK   15  A    between atoms: C16_21  and  O1_22 
REMARK   16  A    between atoms: O1_22  and  C17_23 
REMARK   17  A    between atoms: C17_23  and  C18_24 
ROOT
HETATM    1  C8  UNL     1      -8.512   1.330  15.675  1.00  0.00     0.000 C 
ENDROOT
BRANCH   1   2
HETATM    2  C7  UNL     1      -9.605   2.278  15.479  1.00  0.00     0.000 C 
BRANCH   2   3
HETATM    3  C6  UNL     1      -9.507   3.122  14.262  1.00  0.00     0.000 C 
BRANCH   3   4
HETATM    4  C5  UNL     1     -10.464   2.665  13.167  1.00  0.00     0.006 C 
BRANCH   4   5
HETATM    5  C4  UNL     1      -9.885   1.766  12.152  1.00  0.00     0.067 C 
BRANCH   5   6
HETATM    6  C3  UNL     1     -10.215   0.332  12.323  1.00  0.00     0.072 A 
HETATM    7  C2  UNL     1     -11.072  -0.281  13.206  1.00  0.00     0.124 A 
HETATM    8  N2  UNL     1     -11.056  -1.615  12.991  1.00  0.00    -0.330 N 
HETATM    9  C1  UNL     1     -10.192  -1.800  11.986  1.00  0.00     0.222 A 
ATOM     10  H2  UNL     1     -11.588  -2.330  13.489  1.00  0.00     0.168 HD
HETATM   11  O2  UNL     1      -9.702  -0.666  11.596  1.00  0.00    -0.283 OA
BRANCH   9  12
HETATM   12  N1  UNL     1      -9.925  -2.995  11.508  1.00  0.00    -0.365 N 
ATOM     13  H12 UNL     1     -10.586  -3.681  11.143  1.00  0.00     0.159 HD
ATOM     14  H11 UNL     1      -8.974  -3.358  11.462  1.00  0.00     0.159 HD
ENDBRANCH   9  12
ENDBRANCH   5   6
ENDBRANCH   4   5
ENDBRANCH   3   4
ENDBRANCH   2   3
ENDBRANCH   1   2
BRANCH   1  15
HETATM   15  C9  UNL     1      -7.812   1.136  16.944  1.00  0.00     0.000 C 
BRANCH  15  16
HETATM   16  C10 UNL     1      -8.453   1.461  18.228  1.00  0.00     0.000 C 
BRANCH  16  17
HETATM   17  C11 UNL     1      -7.395   1.422  19.344  1.00  0.00     0.000 C 
BRANCH  17  18
HETATM   18  C12 UNL     1      -6.159   0.708  18.883  1.00  0.00     0.000 C 
BRANCH  18  19
HETATM   19  C13 UNL     1      -5.281   0.328  20.077  1.00  0.00     0.000 C 
BRANCH  19  20
HETATM   20  C14 UNL     1      -5.114  -1.156  20.116  1.00  0.00     0.002 C 
BRANCH  20  21
HETATM   21  C15 UNL     1      -3.845  -1.488  20.887  1.00  0.00     0.026 C 
BRANCH  21  22
HETATM   22  C16 UNL     1      -4.078  -1.435  22.364  1.00  0.00     0.167 C 
BRANCH  22  23
HETATM   23  O1  UNL     1      -3.169  -0.613  22.984  1.00  0.00    -0.391 OA
BRANCH  23  24
HETATM   24  C17 UNL     1      -1.960  -0.495  22.326  1.00  0.00     0.172 C 
BRANCH  24  25
HETATM   25  C18 UNL     1      -1.522   0.960  22.386  1.00  0.00     0.009 A 
HETATM   26  C19 UNL     1      -2.538   2.030  22.454  1.00  0.00     0.007 A 
HETATM   27  C20 UNL     1      -1.805   1.773  21.179  1.00  0.00     0.007 A 
ENDBRANCH  24  25
ENDBRANCH  23  24
ENDBRANCH  22  23
ENDBRANCH  21  22
ENDBRANCH  20  21
ENDBRANCH  19  20
ENDBRANCH  18  19
ENDBRANCH  17  18
ENDBRANCH  16  17
ENDBRANCH  15  16
ENDBRANCH   1  15
TORSDOF 17
ENDMDL
MODEL 2
REMARK VINA RESULT: -7.957544438      0.947      1.293
REMARK  17 active torsions:
REMARK  status: ('A' for Active; 'I' for Inactive)
REMARK    1  A    between atoms: N1_1  and  C1_4 
REMARK    2  A    between atoms: C3_8  and  C4_9 
REMARK    3  A    between atoms: C4_9  and  C5_10 
REMARK    4  A    between atoms: C5_10  and  C6_11 
REMARK    5  A    between atoms: C6_11  and  C7_12 
REMARK    6  A    between atoms: C7_12  and  C8_13 
REMARK    7  A    between atoms: C8_13  and  C9_14 
REMARK    8  A    between atoms: C9_14  and  C10_15 
REMARK    9  A    between atoms: C10_15  and  C11_16 
REMARK   10  A    between atoms: C11_16  and  C12_17 
REMARK   11  A    between atoms: C12_17  and  C13_18 
REMARK   12  A    between atoms: C13_18  and  C14_19 
REMARK   13  A    between atoms: C14_19  and  C15_20 
REMARK   14  A    between atoms: C15_20  and  C16_21 
REMARK   15  A    between atoms: C16_21  and  O1_22 
REMARK   16  A    between atoms: O1_22  and  C17_23 
REMARK   17  A    between atoms: C17_23  and  C18_24 
ROOT
HETATM    1  C8  UNL     1      -8.612   1.396  15.610  1.00  0.00     0.000 C 
ENDROOT
BRANCH   1   2
HETATM    2  C7  UNL     1      -9.642   2.412  15.408  1.00  0.00     0.000 C 
BRANCH   2   3
HETATM    3  C6  UNL     1      -9.532   3.190  14.149  1.00  0.00     0.000 C 
BRANCH   3   4
HETATM    4  C5  UNL     1     -10.483   2.677  13.073  1.00  0.00     0.006 C 
BRANCH   4   5
HETATM    5  C4  UNL     1      -9.889   1.760  12.085  1.00  0.00     0.067 C 
BRANCH   5   6
HETATM    6  C3  UNL     1     -10.204   0.326  12.291  1.00  0.00     0.072 A 
HETATM    7  C2  UNL     1     -11.045  -0.274  13.196  1.00  0.00     0.124 A 
HETATM    8  N2  UNL     1     -11.019  -1.613  13.011  1.00  0.00    -0.330 N 
HETATM    9  C1  UNL     1     -10.164  -1.812  12.001  1.00  0.00     0.222 A 
ATOM     10  H2  UNL     1     -11.540  -2.321  13.531  1.00  0.00     0.168 HD
HETATM   11  O2  UNL     1      -9.688  -0.683  11.581  1.00  0.00    -0.283 OA
BRANCH   9  12
HETATM   12  N1  UNL     1      -9.891  -3.015  11.548  1.00  0.00    -0.365 N 
ATOM     13  H12 UNL     1      -9.887  -3.891  12.071  1.00  0.00     0.159 HD
ATOM     14  H11 UNL     1      -9.644  -3.181  10.572  1.00  0.00     0.159 HD
ENDBRANCH   9  12
ENDBRANCH   5   6
ENDBRANCH   4   5
ENDBRANCH   3   4
ENDBRANCH   2   3
ENDBRANCH   1   2
BRANCH   1  15
HETATM   15  C9  UNL     1      -7.935   1.158  16.884  1.00  0.00     0.000 C 
BRANCH  15  16
HETATM   16  C10 UNL     1      -8.570   1.504  18.164  1.00  0.00     0.000 C 
BRANCH  16  17
HETATM   17  C11 UNL     1      -7.506   1.493  19.275  1.00  0.00     0.000 C 
BRANCH  17  18
HETATM   18  C12 UNL     1      -6.293   0.725  18.844  1.00  0.00     0.000 C 
BRANCH  18  19
HETATM   19  C13 UNL     1      -5.409   0.395  20.049  1.00  0.00     0.000 C 
BRANCH  19  20
HETATM   20  C14 UNL     1      -5.152  -1.077  20.087  1.00  0.00     0.002 C 
BRANCH  20  21
HETATM   21  C15 UNL     1      -3.846  -1.330  20.825  1.00  0.00     0.026 C 
BRANCH  21  22
HETATM   22  C16 UNL     1      -3.259  -0.054  21.340  1.00  0.00     0.167 C 
BRANCH  22  23
HETATM   23  O1  UNL     1      -1.920  -0.192  21.610  1.00  0.00    -0.391 OA
BRANCH  23  24
HETATM   24  C17 UNL     1      -1.117   0.778  21.040  1.00  0.00     0.172 C 
BRANCH  24  25
HETATM   25  C18 UNL     1      -0.074   1.199  22.063  1.00  0.00     0.009 A 
HETATM   26  C19 UNL     1       1.173   0.419  22.204  1.00  0.00     0.007 A 
HETATM   27  C20 UNL     1       0.093   0.296  23.227  1.00  0.00     0.007 A 
ENDBRANCH  24  25
ENDBRANCH  23  24
ENDBRANCH  22  23
ENDBRANCH  21  22
ENDBRANCH  20  21
ENDBRANCH  19  20
ENDBRANCH  18  19
ENDBRANCH  17  18
ENDBRANCH  16  17
ENDBRANCH  15  16
ENDBRANCH   1  15
TORSDOF 17
ENDMDL
MODEL 3
REMARK VINA RESULT: -7.837827544      3.797     10.061
REMARK  17 active torsions:
REMARK  status: ('A' for Active; 'I' for Inactive)
REMARK    1  A    between atoms: N1_1  and  C1_4 
REMARK    2  A    between atoms: C3_8  and  C4_9 
REMARK    3  A    between atoms: C4_9  and  C5_10 
REMARK    4  A    between atoms: C5_10  and  C6_11 
REMARK    5  A    between atoms: C6_11  and  C7_12 
REMARK    6  A    between atoms: C7_12  and  C8_13 
REMARK    7  A    between atoms: C8_13  and  C9_14 
REMARK    8  A    between atoms: C9_14  and  C10_15 
REMARK    9  A    between atoms: C10_15  and  C11_16 
REMARK   10  A    between atoms: C11_16  and  C12_17 
REMARK   11  A    between atoms: C12_17  and  C13_18 
REMARK   12  A    between atoms: C13_18  and  C14_19 
REMARK   13  A    between atoms: C14_19  and  C15_20 
REMARK   14  A    between atoms: C15_20  and  C16_21 
REMARK   15  A    between atoms: C16_21  and  O1_22 
REMARK   16  A    between atoms: O1_22  and  C17_23 
REMARK   17  A    between atoms: C17_23  and  C18_24 
ROOT
HETATM    1  C8  UNL     1      -6.841   0.779  18.435  1.00  0.00     0.000 C 
ENDROOT
BRANCH   1   2
HETATM    2  C7  UNL     1      -5.695   0.797  19.340  1.00  0.00     0.000 C 
BRANCH   2   3
HETATM    3  C6  UNL     1      -5.980   0.385  20.737  1.00  0.00     0.000 C 
BRANCH   3   4
HETATM    4  C5  UNL     1      -4.709   0.032  21.502  1.00  0.00     0.006 C 
BRANCH   4   5
HETATM    5  C4  UNL     1      -3.779  -0.874  20.805  1.00  0.00     0.067 C 
BRANCH   5   6
HETATM    6  C3  UNL     1      -3.905  -2.305  21.169  1.00  0.00     0.072 A 
HETATM    7  C2  UNL     1      -4.734  -2.918  22.077  1.00  0.00     0.124 A 
HETATM    8  N2  UNL     1      -4.501  -4.249  22.067  1.00  0.00    -0.330 N 
HETATM    9  C1  UNL     1      -3.536  -4.431  21.158  1.00  0.00     0.222 A 
ATOM     10  H2  UNL     1      -4.962  -4.963  22.632  1.00  0.00     0.168 HD
HETATM   11  O2  UNL     1      -3.188  -3.299  20.634  1.00  0.00    -0.283 OA
BRANCH   9  12
HETATM   12  N1  UNL     1      -3.054  -5.623  20.884  1.00  0.00    -0.365 N 
ATOM     13  H12 UNL     1      -2.972  -6.421  21.514  1.00  0.00     0.159 HD
ATOM     14  H11 UNL     1      -2.698  -5.861  19.958  1.00  0.00     0.159 HD
ENDBRANCH   9  12
ENDBRANCH   5   6
ENDBRANCH   4   5
ENDBRANCH   3   4
ENDBRANCH   2   3
ENDBRANCH   1   2
BRANCH   1  15
HETATM   15  C9  UNL     1      -8.101   1.477  18.694  1.00  0.00     0.000 C 
BRANCH  15  16
HETATM   16  C10 UNL     1      -9.031   1.804  17.603  1.00  0.00     0.000 C 
BRANCH  16  17
HETATM   17  C11 UNL     1      -8.276   1.753  16.264  1.00  0.00     0.000 C 
BRANCH  17  18
HETATM   18  C12 UNL     1      -9.124   1.124  15.198  1.00  0.00     0.000 C 
BRANCH  18  19
HETATM   19  C13 UNL     1     -10.602   1.448  15.426  1.00  0.00     0.000 C 
BRANCH  19  20
HETATM   20  C14 UNL     1     -11.251   1.751  14.115  1.00  0.00     0.002 C 
BRANCH  20  21
HETATM   21  C15 UNL     1     -10.283   2.556  13.261  1.00  0.00     0.026 C 
BRANCH  21  22
HETATM   22  C16 UNL     1     -10.266   2.061  11.849  1.00  0.00     0.167 C 
BRANCH  22  23
HETATM   23  O1  UNL     1      -9.209   1.213  11.628  1.00  0.00    -0.391 OA
BRANCH  23  24
HETATM   24  C17 UNL     1      -9.565  -0.043  11.176  1.00  0.00     0.172 C 
BRANCH  24  25
HETATM   25  C18 UNL     1      -9.413  -1.027  12.324  1.00  0.00     0.009 A 
HETATM   26  C19 UNL     1      -9.665  -2.465  12.098  1.00  0.00     0.007 A 
HETATM   27  C20 UNL     1     -10.668  -1.635  12.829  1.00  0.00     0.007 A 
ENDBRANCH  24  25
ENDBRANCH  23  24
ENDBRANCH  22  23
ENDBRANCH  21  22
ENDBRANCH  20  21
ENDBRANCH  19  20
ENDBRANCH  18  19
ENDBRANCH  17  18
ENDBRANCH  16  17
ENDBRANCH  15  16
ENDBRANCH   1  15
TORSDOF 17
ENDMDL
MODEL 4
REMARK VINA RESULT: -7.712932646      4.084     10.629
REMARK  17 active torsions:
REMARK  status: ('A' for Active; 'I' for Inactive)
REMARK    1  A    between atoms: N1_1  and  C1_4 
REMARK    2  A    between atoms: C3_8  and  C4_9 
REMARK    3  A    between atoms: C4_9  and  C5_10 
REMARK    4  A    between atoms: C5_10  and  C6_11 
REMARK    5  A    between atoms: C6_11  and  C7_12 
REMARK    6  A    between atoms: C7_12  and  C8_13 
REMARK    7  A    between atoms: C8_13  and  C9_14 
REMARK    8  A    between atoms: C9_14  and  C10_15 
REMARK    9  A    between atoms: C10_15  and  C11_16 
REMARK   10  A    between atoms: C11_16  and  C12_17 
REMARK   11  A    between atoms: C12_17  and  C13_18 
REMARK   12  A    between atoms: C13_18  and  C14_19 
REMARK   13  A    between atoms: C14_19  and  C15_20 
REMARK   14  A    between atoms: C15_20  and  C16_21 
REMARK   15  A    between atoms: C16_21  and  O1_22 
REMARK   16  A    between atoms: O1_22  and  C17_23 
REMARK   17  A    between atoms: C17_23  and  C18_24 
ROOT
HETATM    1  C8  UNL     1      -6.440   0.831  18.789  1.00  0.00     0.000 C 
ENDROOT
BRANCH   1   2
HETATM    2  C7  UNL     1      -5.603   0.356  19.888  1.00  0.00     0.000 C 
BRANCH   2   3
HETATM    3  C6  UNL     1      -5.270  -1.090  19.857  1.00  0.00     0.000 C 
BRANCH   3   4
HETATM    4  C5  UNL     1      -4.479  -1.524  21.087  1.00  0.00     0.006 C 
BRANCH   4   5
HETATM    5  C4  UNL     1      -3.062  -1.120  21.106  1.00  0.00     0.067 C 
BRANCH   5   6
HETATM    6  C3  UNL     1      -2.800   0.222  21.678  1.00  0.00     0.072 A 
HETATM    7  C2  UNL     1      -2.068   1.270  21.175  1.00  0.00     0.124 A 
HETATM    8  N2  UNL     1      -2.111   2.303  22.047  1.00  0.00    -0.330 N 
HETATM    9  C1  UNL     1      -2.864   1.873  23.066  1.00  0.00     0.222 A 
ATOM     10  H2  UNL     1      -1.665   3.216  21.948  1.00  0.00     0.168 HD
HETATM   11  O2  UNL     1      -3.266   0.660  22.851  1.00  0.00    -0.283 OA
BRANCH   9  12
HETATM   12  N1  UNL     1      -3.122   2.630  24.109  1.00  0.00    -0.365 N 
ATOM     13  H12 UNL     1      -2.494   2.866  24.877  1.00  0.00     0.159 HD
ATOM     14  H11 UNL     1      -4.031   3.072  24.243  1.00  0.00     0.159 HD
ENDBRANCH   9  12
ENDBRANCH   5   6
ENDBRANCH   4   5
ENDBRANCH   3   4
ENDBRANCH   2   3
ENDBRANCH   1   2
BRANCH   1  15
HETATM   15  C9  UNL     1      -7.731   1.494  18.970  1.00  0.00     0.000 C 
BRANCH  15  16
HETATM   16  C10 UNL     1      -8.731   1.528  17.892  1.00  0.00     0.000 C 
BRANCH  16  17
HETATM   17  C11 UNL     1      -8.041   1.207  16.555  1.00  0.00     0.000 C 
BRANCH  17  18
HETATM   18  C12 UNL     1      -8.794   1.813  15.408  1.00  0.00     0.000 C 
BRANCH  18  19
HETATM   19  C13 UNL     1     -10.290   1.511  15.528  1.00  0.00     0.000 C 
BRANCH  19  20
HETATM   20  C14 UNL     1     -10.958   1.789  14.221  1.00  0.00     0.002 C 
BRANCH  20  21
HETATM   21  C15 UNL     1     -10.114   2.784  13.438  1.00  0.00     0.026 C 
BRANCH  21  22
HETATM   22  C16 UNL     1      -9.879   2.311  12.038  1.00  0.00     0.167 C 
BRANCH  22  23
HETATM   23  O1  UNL     1     -10.342   1.030  11.858  1.00  0.00    -0.391 OA
BRANCH  23  24
HETATM   24  C17 UNL     1      -9.374   0.119  11.479  1.00  0.00     0.172 C 
BRANCH  24  25
HETATM   25  C18 UNL     1      -9.351  -1.008  12.499  1.00  0.00     0.009 A 
HETATM   26  C19 UNL     1      -9.637  -2.393  12.070  1.00  0.00     0.007 A 
HETATM   27  C20 UNL     1     -10.664  -1.615  12.824  1.00  0.00     0.007 A 
ENDBRANCH  24  25
ENDBRANCH  23  24
ENDBRANCH  22  23
ENDBRANCH  21  22
ENDBRANCH  20  21
ENDBRANCH  19  20
ENDBRANCH  18  19
ENDBRANCH  17  18
ENDBRANCH  16  17
ENDBRANCH  15  16
ENDBRANCH   1  15
TORSDOF 17
ENDMDL
MODEL 5
REMARK VINA RESULT: -7.657987212      1.376      2.224
REMARK  17 active torsions:
REMARK  status: ('A' for Active; 'I' for Inactive)
REMARK    1  A    between atoms: N1_1  and  C1_4 
REMARK    2  A    between atoms: C3_8  and  C4_9 
REMARK    3  A    between atoms: C4_9  and  C5_10 
REMARK    4  A    between atoms: C5_10  and  C6_11 
REMARK    5  A    between atoms: C6_11  and  C7_12 
REMARK    6  A    between atoms: C7_12  and  C8_13 
REMARK    7  A    between atoms: C8_13  and  C9_14 
REMARK    8  A    between atoms: C9_14  and  C10_15 
REMARK    9  A    between atoms: C10_15  and  C11_16 
REMARK   10  A    between atoms: C11_16  and  C12_17 
REMARK   11  A    between atoms: C12_17  and  C13_18 
REMARK   12  A    between atoms: C13_18  and  C14_19 
REMARK   13  A    between atoms: C14_19  and  C15_20 
REMARK   14  A    between atoms: C15_20  and  C16_21 
REMARK   15  A    between atoms: C16_21  and  O1_22 
REMARK   16  A    between atoms: O1_22  and  C17_23 
REMARK   17  A    between atoms: C17_23  and  C18_24 
ROOT
HETATM    1  C8  UNL     1      -8.682   1.302  15.653  1.00  0.00     0.000 C 
ENDROOT
BRANCH   1   2
HETATM    2  C7  UNL     1      -9.704   2.322  15.433  1.00  0.00     0.000 C 
BRANCH   2   3
HETATM    3  C6  UNL     1      -9.541   3.133  14.201  1.00  0.00     0.000 C 
BRANCH   3   4
HETATM    4  C5  UNL     1     -10.486   2.687  13.091  1.00  0.00     0.006 C 
BRANCH   4   5
HETATM    5  C4  UNL     1      -9.905   1.776  12.089  1.00  0.00     0.067 C 
BRANCH   5   6
HETATM    6  C3  UNL     1     -10.215   0.341  12.293  1.00  0.00     0.072 A 
HETATM    7  C2  UNL     1     -11.045  -0.265  13.205  1.00  0.00     0.124 A 
HETATM    8  N2  UNL     1     -11.019  -1.603  13.013  1.00  0.00    -0.330 N 
HETATM    9  C1  UNL     1     -10.175  -1.796  11.992  1.00  0.00     0.222 A 
ATOM     10  H2  UNL     1     -11.532  -2.314  13.535  1.00  0.00     0.168 HD
HETATM   11  O2  UNL     1      -9.707  -0.664  11.572  1.00  0.00    -0.283 OA
BRANCH   9  12
HETATM   12  N1  UNL     1      -9.906  -2.997  11.530  1.00  0.00    -0.365 N 
ATOM     13  H12 UNL     1     -10.268  -3.889  11.867  1.00  0.00     0.159 HD
ATOM     14  H11 UNL     1      -9.271  -3.143  10.746  1.00  0.00     0.159 HD
ENDBRANCH   9  12
ENDBRANCH   5   6
ENDBRANCH   4   5
ENDBRANCH   3   4
ENDBRANCH   2   3
ENDBRANCH   1   2
BRANCH   1  15
HETATM   15  C9  UNL     1      -7.924   1.156  16.896  1.00  0.00     0.000 C 
BRANCH  15  16
HETATM   16  C10 UNL     1      -8.523   1.479  18.199  1.00  0.00     0.000 C 
BRANCH  16  17
HETATM   17  C11 UNL     1      -7.434   1.415  19.284  1.00  0.00     0.000 C 
BRANCH  17  18
HETATM   18  C12 UNL     1      -6.201   0.739  18.764  1.00  0.00     0.000 C 
BRANCH  18  19
HETATM   19  C13 UNL     1      -5.634  -0.223  19.810  1.00  0.00     0.000 C 
BRANCH  19  20
HETATM   20  C14 UNL     1      -4.486   0.427  20.510  1.00  0.00     0.002 C 
BRANCH  20  21
HETATM   21  C15 UNL     1      -4.552   0.082  21.990  1.00  0.00     0.026 C 
BRANCH  21  22
HETATM   22  C16 UNL     1      -5.563  -0.990  22.251  1.00  0.00     0.167 C 
BRANCH  22  23
HETATM   23  O1  UNL     1      -4.979  -2.107  22.797  1.00  0.00    -0.391 OA
BRANCH  23  24
HETATM   24  C17 UNL     1      -3.601  -2.048  22.887  1.00  0.00     0.172 C 
BRANCH  24  25
HETATM   25  C18 UNL     1      -3.020  -3.240  22.146  1.00  0.00     0.009 A 
HETATM   26  C19 UNL     1      -3.464  -3.536  20.768  1.00  0.00     0.007 A 
HETATM   27  C20 UNL     1      -3.950  -4.370  21.906  1.00  0.00     0.007 A 
ENDBRANCH  24  25
ENDBRANCH  23  24
ENDBRANCH  22  23
ENDBRANCH  21  22
ENDBRANCH  20  21
ENDBRANCH  19  20
ENDBRANCH  18  19
ENDBRANCH  17  18
ENDBRANCH  16  17
ENDBRANCH  15  16
ENDBRANCH   1  15
TORSDOF 17
ENDMDL
