MODEL 1
REMARK VINA RESULT: -7.869543620      0.000      0.000
REMARK  17 active torsions:
REMARK  status: ('A' for Active; 'I' for Inactive)
REMARK    1  A    between atoms: N1_1  and  C1_5 
REMARK    2  A    between atoms: C1_5  and  C2_6 
REMARK    3  A    between atoms: C2_6  and  C3_7 
REMARK    4  A    between atoms: C3_7  and  C4_8 
REMARK    5  A    between atoms: C4_8  and  C5_9 
REMARK    6  A    between atoms: C5_9  and  C6_10 
REMARK    7  A    between atoms: C6_10  and  C7_11 
REMARK    8  A    between atoms: C7_11  and  C8_12 
REMARK    9  A    between atoms: C8_12  and  C9_13 
REMARK   10  A    between atoms: C9_13  and  C10_14 
REMARK   11  A    between atoms: C10_14  and  C11_15 
REMARK   12  A    between atoms: C11_15  and  C12_16 
REMARK   13  A    between atoms: C12_16  and  C13_17 
REMARK   14  A    between atoms: C13_17  and  N2_18 
REMARK   15  A    between atoms: N2_18  and  C14_21 
REMARK   16  A    between atoms: C14_21  and  C15_22 
REMARK   17  A    between atoms: C15_22  and  C16_23 
ROOT
HETATM    1  C10 UNL     1      -6.566   0.893  19.420  1.00  0.00    -0.031 C 
ENDROOT
BRANCH   1   2
HETATM    2  C9  UNL     1      -6.901   0.925  18.006  1.00  0.00    -0.031 C 
BRANCH   2   3
HETATM    3  C8  UNL     1      -8.214   1.322  17.481  1.00  0.00     0.027 C 
BRANCH   3   4
HETATM    4  C7  UNL     1      -8.306   1.464  16.008  1.00  0.00     0.004 C 
BRANCH   4   5
HETATM    5  C6  UNL     1      -9.668   2.029  15.546  1.00  0.00     0.000 C 
BRANCH   5   6
HETATM    6  C5  UNL     1      -9.435   3.103  14.541  1.00  0.00     0.000 C 
BRANCH   6   7
HETATM    7  C4  UNL     1     -10.169   2.834  13.230  1.00  0.00     0.000 C 
BRANCH   7   8
HETATM    8  C3  UNL     1     -10.743   1.446  13.181  1.00  0.00     0.002 C 
BRANCH   8   9
HETATM    9  C2  UNL     1     -10.130   0.492  12.242  1.00  0.00     0.027 C 
BRANCH   9  10
HETATM   10  C1  UNL     1     -10.074  -0.939  12.597  1.00  0.00     0.229 C 
BRANCH  10  11
HETATM   11  N1  UNL     1     -11.262  -1.615  12.946  1.00  0.00    -0.079 N 
ATOM     12  H13 UNL     1     -12.046  -1.162  12.475  1.00  0.00     0.274 HD
ATOM     13  H12 UNL     1     -11.260  -2.531  12.496  1.00  0.00     0.274 HD
ATOM     14  H11 UNL     1     -11.500  -1.737  13.931  1.00  0.00     0.274 HD
ENDBRANCH  10  11
ENDBRANCH   9  10
ENDBRANCH   8   9
ENDBRANCH   7   8
ENDBRANCH   6   7
ENDBRANCH   5   6
ENDBRANCH   4   5
ENDBRANCH   3   4
ENDBRANCH   2   3
ENDBRANCH   1   2
BRANCH   1  15
HETATM   15  C11 UNL     1      -5.224   0.506  19.900  1.00  0.00     0.028 C 
BRANCH  15  16
HETATM   16  C12 UNL     1      -5.332  -0.723  20.856  1.00  0.00     0.031 C 
BRANCH  16  17
HETATM   17  C13 UNL     1      -6.099  -0.258  22.046  1.00  0.00     0.232 C 
BRANCH  17  18
HETATM   18  N2  UNL     1      -5.495   0.844  22.742  1.00  0.00    -0.075 N 
ATOM     19  H22 UNL     1      -5.290   1.610  22.100  1.00  0.00     0.277 HD
ATOM     20  H21 UNL     1      -6.174   1.308  23.345  1.00  0.00     0.277 HD
BRANCH  18  21
HETATM   21  C14 UNL     1      -4.316   0.469  23.488  1.00  0.00     0.232 C 
BRANCH  21  22
HETATM   22  C15 UNL     1      -3.173   1.296  23.036  1.00  0.00     0.032 C 
BRANCH  22  23
HETATM   23  C16 UNL     1      -2.116   0.643  22.238  1.00  0.00    -0.013 C 
HETATM   24  C17 UNL     1      -1.162  -0.064  23.185  1.00  0.00     0.005 C 
HETATM   25  C18 UNL     1       0.147   0.688  23.330  1.00  0.00     0.000 C 
HETATM   26  C19 UNL     1       0.932   0.682  22.036  1.00  0.00     0.000 C 
HETATM   27  C20 UNL     1      -0.074   0.720  20.912  1.00  0.00     0.000 C 
HETATM   28  C21 UNL     1      -1.334   1.497  21.317  1.00  0.00     0.005 C 
ENDBRANCH  22  23
ENDBRANCH  21  22
ENDBRANCH  18  21
ENDBRANCH  17  18
ENDBRANCH  16  17
ENDBRANCH  15  16
ENDBRANCH   1  15
TORSDOF 17
ENDMDL
MODEL 2
REMARK VINA RESULT: -7.868400102      1.202      2.058
REMARK  17 active torsions:
REMARK  status: ('A' for Active; 'I' for Inactive)
REMARK    1  A    between atoms: N1_1  and  C1_5 
REMARK    2  A    between atoms: C1_5  and  C2_6 
REMARK    3  A    between atoms: C2_6  and  C3_7 
REMARK    4  A    between atoms: C3_7  and  C4_8 
REMARK    5  A    between atoms: C4_8  and  C5_9 
REMARK    6  A    between atoms: C5_9  and  C6_10 
REMARK    7  A    between atoms: C6_10  and  C7_11 
REMARK    8  A    between atoms: C7_11  and  C8_12 
REMARK    9  A    between atoms: C8_12  and  C9_13 
REMARK   10  A    between atoms: C9_13  and  C10_14 
REMARK   11  A    between atoms: C10_14  and  C11_15 
REMARK   12  A    between atoms: C11_15  and  C12_16 
REMARK   13  A    between atoms: C12_16  and  C13_17 
REMARK   14  A    between atoms: C13_17  and  N2_18 
REMARK   15  A    between atoms: N2_18  and  C14_21 
REMARK   16  A    between atoms: C14_21  and  C15_22 
REMARK   17  A    between atoms: C15_22  and  C16_23 
ROOT
HETATM    1  C10 UNL     1      -8.360   1.492  18.129  1.00  0.00    -0.031 C 
ENDROOT
BRANCH   1   2
HETATM    2  C9  UNL     1      -7.889   1.134  16.801  1.00  0.00    -0.031 C 
BRANCH   2   3
HETATM    3  C8  UNL     1      -8.685   1.289  15.577  1.00  0.00     0.027 C 
BRANCH   3   4
HETATM    4  C7  UNL     1      -9.607   2.450  15.548  1.00  0.00     0.004 C 
BRANCH   4   5
HETATM    5  C6  UNL     1      -9.733   3.076  14.141  1.00  0.00     0.000 C 
BRANCH   5   6
HETATM    6  C5  UNL     1     -10.491   2.145  13.259  1.00  0.00     0.000 C 
BRANCH   6   7
HETATM    7  C4  UNL     1      -9.822   1.966  11.899  1.00  0.00     0.000 C 
BRANCH   7   8
HETATM    8  C3  UNL     1      -9.713   0.519  11.512  1.00  0.00     0.002 C 
BRANCH   8   9
HETATM    9  C2  UNL     1      -9.463  -0.454  12.589  1.00  0.00     0.027 C 
BRANCH   9  10
HETATM   10  C1  UNL     1     -10.272  -1.687  12.654  1.00  0.00     0.229 C 
BRANCH  10  11
HETATM   11  N1  UNL     1     -11.595  -1.625  13.139  1.00  0.00    -0.079 N 
ATOM     12  H13 UNL     1     -11.777  -0.677  13.470  1.00  0.00     0.274 HD
ATOM     13  H12 UNL     1     -12.236  -1.687  12.348  1.00  0.00     0.274 HD
ATOM     14  H11 UNL     1     -11.899  -2.284  13.856  1.00  0.00     0.274 HD
ENDBRANCH  10  11
ENDBRANCH   9  10
ENDBRANCH   8   9
ENDBRANCH   7   8
ENDBRANCH   6   7
ENDBRANCH   5   6
ENDBRANCH   4   5
ENDBRANCH   3   4
ENDBRANCH   2   3
ENDBRANCH   1   2
BRANCH   1  15
HETATM   15  C11 UNL     1      -7.478   1.447  19.313  1.00  0.00     0.028 C 
BRANCH  15  16
HETATM   16  C12 UNL     1      -6.154   0.698  18.966  1.00  0.00     0.031 C 
BRANCH  16  17
HETATM   17  C13 UNL     1      -5.545   0.305  20.268  1.00  0.00     0.232 C 
BRANCH  17  18
HETATM   18  N2  UNL     1      -5.145  -1.072  20.339  1.00  0.00    -0.075 N 
ATOM     19  H22 UNL     1      -5.934  -1.666  20.593  1.00  0.00     0.277 HD
ATOM     20  H21 UNL     1      -4.950  -1.442  19.409  1.00  0.00     0.277 HD
BRANCH  18  21
HETATM   21  C14 UNL     1      -4.027  -1.296  21.226  1.00  0.00     0.232 C 
BRANCH  21  22
HETATM   22  C15 UNL     1      -2.905  -0.416  20.824  1.00  0.00     0.032 C 
BRANCH  22  23
HETATM   23  C16 UNL     1      -2.186   0.322  21.883  1.00  0.00    -0.013 C 
HETATM   24  C17 UNL     1      -1.226   1.298  21.224  1.00  0.00     0.005 C 
HETATM   25  C18 UNL     1       0.211   0.821  21.315  1.00  0.00     0.000 C 
HETATM   26  C19 UNL     1       0.701   0.819  22.747  1.00  0.00     0.000 C 
HETATM   27  C20 UNL     1      -0.481   0.468  23.616  1.00  0.00     0.000 C 
HETATM   28  C21 UNL     1      -1.448  -0.475  22.887  1.00  0.00     0.005 C 
ENDBRANCH  22  23
ENDBRANCH  21  22
ENDBRANCH  18  21
ENDBRANCH  17  18
ENDBRANCH  16  17
ENDBRANCH  15  16
ENDBRANCH   1  15
TORSDOF 17
ENDMDL
MODEL 3
REMARK VINA RESULT: -7.857440877      2.874      3.755
REMARK  17 active torsions:
REMARK  status: ('A' for Active; 'I' for Inactive)
REMARK    1  A    between atoms: N1_1  and  C1_5 
REMARK    2  A    between atoms: C1_5  and  C2_6 
REMARK    3  A    between atoms: C2_6  and  C3_7 
REMARK    4  A    between atoms: C3_7  and  C4_8 
REMARK    5  A    between atoms: C4_8  and  C5_9 
REMARK    6  A    between atoms: C5_9  and  C6_10 
REMARK    7  A    between atoms: C6_10  and  C7_11 
REMARK    8  A    between atoms: C7_11  and  C8_12 
REMARK    9  A    between atoms: C8_12  and  C9_13 
REMARK   10  A    between atoms: C9_13  and  C10_14 
REMARK   11  A    between atoms: C10_14  and  C11_15 
REMARK   12  A    between atoms: C11_15  and  C12_16 
REMARK   13  A    between atoms: C12_16  and  C13_17 
REMARK   14  A    between atoms: C13_17  and  N2_18 
REMARK   15  A    between atoms: N2_18  and  C14_21 
REMARK   16  A    between atoms: C14_21  and  C15_22 
REMARK   17  A    between atoms: C15_22  and  C16_23 
ROOT
HETATM    1  C10 UNL     1      -9.638   2.418  17.794  1.00  0.00    -0.031 C 
ENDROOT
BRANCH   1   2
HETATM    2  C9  UNL     1     -10.682   1.839  16.964  1.00  0.00    -0.031 C 
BRANCH   2   3
HETATM    3  C8  UNL     1     -10.544   1.592  15.523  1.00  0.00     0.027 C 
BRANCH   3   4
HETATM    4  C7  UNL     1      -9.388   2.244  14.863  1.00  0.00     0.004 C 
BRANCH   4   5
HETATM    5  C6  UNL     1      -9.815   3.327  13.847  1.00  0.00     0.000 C 
BRANCH   5   6
HETATM    6  C5  UNL     1     -10.613   2.691  12.762  1.00  0.00     0.000 C 
BRANCH   6   7
HETATM    7  C4  UNL     1      -9.761   1.789  11.872  1.00  0.00     0.000 C 
BRANCH   7   8
HETATM    8  C3  UNL     1     -10.236   0.364  11.896  1.00  0.00     0.002 C 
BRANCH   8   9
HETATM    9  C2  UNL     1      -9.324  -0.645  12.458  1.00  0.00     0.027 C 
BRANCH   9  10
HETATM   10  C1  UNL     1      -9.775  -2.046  12.571  1.00  0.00     0.229 C 
BRANCH  10  11
HETATM   11  N1  UNL     1     -10.226  -2.726  11.420  1.00  0.00    -0.079 N 
ATOM     12  H13 UNL     1      -9.423  -3.152  10.958  1.00  0.00     0.274 HD
ATOM     13  H12 UNL     1     -10.749  -3.551  11.714  1.00  0.00     0.274 HD
ATOM     14  H11 UNL     1     -10.776  -2.224  10.723  1.00  0.00     0.274 HD
ENDBRANCH  10  11
ENDBRANCH   9  10
ENDBRANCH   8   9
ENDBRANCH   7   8
ENDBRANCH   6   7
ENDBRANCH   5   6
ENDBRANCH   4   5
ENDBRANCH   3   4
ENDBRANCH   2   3
ENDBRANCH   1   2
BRANCH   1  15
HETATM   15  C11 UNL     1      -8.720   1.585  18.596  1.00  0.00     0.028 C 
BRANCH  15  16
HETATM   16  C12 UNL     1      -7.455   1.225  17.757  1.00  0.00     0.031 C 
BRANCH  16  17
HETATM   17  C13 UNL     1      -6.397   0.853  18.739  1.00  0.00     0.232 C 
BRANCH  17  18
HETATM   18  N2  UNL     1      -6.771   1.054  20.111  1.00  0.00    -0.075 N 
ATOM     19  H22 UNL     1      -6.735   2.044  20.355  1.00  0.00     0.277 HD
ATOM     20  H21 UNL     1      -7.767   0.885  20.244  1.00  0.00     0.277 HD
BRANCH  18  21
HETATM   21  C14 UNL     1      -5.987   0.269  21.037  1.00  0.00     0.232 C 
BRANCH  21  22
HETATM   22  C15 UNL     1      -5.054  -0.593  20.273  1.00  0.00     0.032 C 
BRANCH  22  23
HETATM   23  C16 UNL     1      -5.020  -2.034  20.592  1.00  0.00    -0.013 C 
HETATM   24  C17 UNL     1      -5.562  -2.231  21.998  1.00  0.00     0.005 C 
HETATM   25  C18 UNL     1      -4.455  -2.523  22.992  1.00  0.00     0.000 C 
HETATM   26  C19 UNL     1      -3.809  -3.864  22.717  1.00  0.00     0.000 C 
HETATM   27  C20 UNL     1      -3.830  -4.064  21.222  1.00  0.00     0.000 C 
HETATM   28  C21 UNL     1      -3.718  -2.726  20.478  1.00  0.00     0.005 C 
ENDBRANCH  22  23
ENDBRANCH  21  22
ENDBRANCH  18  21
ENDBRANCH  17  18
ENDBRANCH  16  17
ENDBRANCH  15  16
ENDBRANCH   1  15
TORSDOF 17
ENDMDL
MODEL 4
REMARK VINA RESULT: -7.843106360      1.337      2.743
REMARK  17 active torsions:
REMARK  status: ('A' for Active; 'I' for Inactive)
REMARK    1  A    between atoms: N1_1  and  C1_5 
REMARK    2  A    between atoms: C1_5  and  C2_6 
REMARK    3  A    between atoms: C2_6  and  C3_7 
REMARK    4  A    between atoms: C3_7  and  C4_8 
REMARK    5  A    between atoms: C4_8  and  C5_9 
REMARK    6  A    between atoms: C5_9  and  C6_10 
REMARK    7  A    between atoms: C6_10  and  C7_11 
REMARK    8  A    between atoms: C7_11  and  C8_12 
REMARK    9  A    between atoms: C8_12  and  C9_13 
REMARK   10  A    between atoms: C9_13  and  C10_14 
REMARK   11  A    between atoms: C10_14  and  C11_15 
REMARK   12  A    between atoms: C11_15  and  C12_16 
REMARK   13  A    between atoms: C12_16  and  C13_17 
REMARK   14  A    between atoms: C13_17  and  N2_18 
REMARK   15  A    between atoms: N2_18  and  C14_21 
REMARK   16  A    between atoms: C14_21  and  C15_22 
REMARK   17  A    between atoms: C15_22  and  C16_23 
ROOT
HETATM    1  C10 UNL     1      -9.788   2.396  17.833  1.00  0.00    -0.031 C 
ENDROOT
BRANCH   1   2
HETATM    2  C9  UNL     1     -10.684   1.737  16.895  1.00  0.00    -0.031 C 
BRANCH   2   3
HETATM    3  C8  UNL     1     -10.469   1.699  15.442  1.00  0.00     0.027 C 
BRANCH   3   4
HETATM    4  C7  UNL     1      -9.296   2.455  14.942  1.00  0.00     0.004 C 
BRANCH   4   5
HETATM    5  C6  UNL     1      -9.682   3.544  13.915  1.00  0.00     0.000 C 
BRANCH   5   6
HETATM    6  C5  UNL     1     -10.512   2.929  12.842  1.00  0.00     0.000 C 
BRANCH   6   7
HETATM    7  C4  UNL     1      -9.676   2.103  11.868  1.00  0.00     0.000 C 
BRANCH   7   8
HETATM    8  C3  UNL     1     -10.220   0.712  11.699  1.00  0.00     0.002 C 
BRANCH   8   9
HETATM    9  C2  UNL     1      -9.451  -0.393  12.295  1.00  0.00     0.027 C 
BRANCH   9  10
HETATM   10  C1  UNL     1     -10.127  -1.674  12.580  1.00  0.00     0.229 C 
BRANCH  10  11
HETATM   11  N1  UNL     1     -10.200  -2.661  11.575  1.00  0.00    -0.079 N 
ATOM     12  H13 UNL     1     -10.761  -3.439  11.922  1.00  0.00     0.274 HD
ATOM     13  H12 UNL     1     -10.787  -2.311  10.818  1.00  0.00     0.274 HD
ATOM     14  H11 UNL     1      -9.339  -3.034  11.174  1.00  0.00     0.274 HD
ENDBRANCH  10  11
ENDBRANCH   9  10
ENDBRANCH   8   9
ENDBRANCH   7   8
ENDBRANCH   6   7
ENDBRANCH   5   6
ENDBRANCH   4   5
ENDBRANCH   3   4
ENDBRANCH   2   3
ENDBRANCH   1   2
BRANCH   1  15
HETATM   15  C11 UNL     1      -8.803   1.644  18.637  1.00  0.00     0.028 C 
BRANCH  15  16
HETATM   16  C12 UNL     1      -7.614   1.188  17.735  1.00  0.00     0.031 C 
BRANCH  16  17
HETATM   17  C13 UNL     1      -6.502   0.834  18.662  1.00  0.00     0.232 C 
BRANCH  17  18
HETATM   18  N2  UNL     1      -6.743   1.189  20.033  1.00  0.00    -0.075 N 
ATOM     19  H22 UNL     1      -6.550   2.177  20.192  1.00  0.00     0.277 HD
ATOM     20  H21 UNL     1      -7.741   1.178  20.240  1.00  0.00     0.277 HD
BRANCH  18  21
HETATM   21  C14 UNL     1      -6.015   0.365  20.971  1.00  0.00     0.232 C 
BRANCH  21  22
HETATM   22  C15 UNL     1      -4.574   0.394  20.625  1.00  0.00     0.032 C 
BRANCH  22  23
HETATM   23  C16 UNL     1      -3.594   0.388  21.729  1.00  0.00    -0.013 C 
HETATM   24  C17 UNL     1      -2.726   1.629  21.612  1.00  0.00     0.005 C 
HETATM   25  C18 UNL     1      -1.342   1.301  21.085  1.00  0.00     0.000 C 
HETATM   26  C19 UNL     1      -0.560   0.466  22.075  1.00  0.00     0.000 C 
HETATM   27  C20 UNL     1      -1.552  -0.425  22.780  1.00  0.00     0.000 C 
HETATM   28  C21 UNL     1      -2.720  -0.799  21.856  1.00  0.00     0.005 C 
ENDBRANCH  22  23
ENDBRANCH  21  22
ENDBRANCH  18  21
ENDBRANCH  17  18
ENDBRANCH  16  17
ENDBRANCH  15  16
ENDBRANCH   1  15
TORSDOF 17
ENDMDL
MODEL 5
REMARK VINA RESULT: -7.809990901      0.721      1.499
REMARK  17 active torsions:
REMARK  status: ('A' for Active; 'I' for Inactive)
REMARK    1  A    between atoms: N1_1  and  C1_5 
REMARK    2  A    between atoms: C1_5  and  C2_6 
REMARK    3  A    between atoms: C2_6  and  C3_7 
REMARK    4  A    between atoms: C3_7  and  C4_8 
REMARK    5  A    between atoms: C4_8  and  C5_9 
REMARK    6  A    between atoms: C5_9  and  C6_10 
REMARK    7  A    between atoms: C6_10  and  C7_11 
REMARK    8  A    between atoms: C7_11  and  C8_12 
REMARK    9  A    between atoms: C8_12  and  C9_13 
REMARK   10  A    between atoms: C9_13  and  C10_14 
REMARK   11  A    between atoms: C10_14  and  C11_15 
REMARK   12  A    between atoms: C11_15  and  C12_16 
REMARK   13  A    between atoms: C12_16  and  C13_17 
REMARK   14  A    between atoms: C13_17  and  N2_18 
REMARK   15  A    between atoms: N2_18  and  C14_21 
REMARK   16  A    between atoms: C14_21  and  C15_22 
REMARK   17  A    between atoms: C15_22  and  C16_23 
ROOT
HETATM    1  C10 UNL     1      -7.437   1.174  17.623  1.00  0.00    -0.031 C 
ENDROOT
BRANCH   1   2
HETATM    2  C9  UNL     1      -8.745   1.466  17.059  1.00  0.00    -0.031 C 
BRANCH   2   3
HETATM    3  C8  UNL     1      -8.998   1.657  15.625  1.00  0.00     0.027 C 
BRANCH   3   4
HETATM    4  C7  UNL     1      -9.186   3.060  15.183  1.00  0.00     0.004 C 
BRANCH   4   5
HETATM    5  C6  UNL     1      -9.816   3.162  13.776  1.00  0.00     0.000 C 
BRANCH   5   6
HETATM    6  C5  UNL     1     -10.321   1.821  13.369  1.00  0.00     0.000 C 
BRANCH   6   7
HETATM    7  C4  UNL     1     -10.195   1.589  11.865  1.00  0.00     0.000 C 
BRANCH   7   8
HETATM    8  C3  UNL     1      -9.452   0.322  11.551  1.00  0.00     0.002 C 
BRANCH   8   9
HETATM    9  C2  UNL     1      -9.345  -0.684  12.621  1.00  0.00     0.027 C 
BRANCH   9  10
HETATM   10  C1  UNL     1     -10.206  -1.882  12.578  1.00  0.00     0.229 C 
BRANCH  10  11
HETATM   11  N1  UNL     1     -11.549  -1.789  13.000  1.00  0.00    -0.079 N 
ATOM     12  H13 UNL     1     -11.691  -2.432  13.778  1.00  0.00     0.274 HD
ATOM     13  H12 UNL     1     -11.685  -0.886  13.457  1.00  0.00     0.274 HD
ATOM     14  H11 UNL     1     -12.299  -1.926  12.322  1.00  0.00     0.274 HD
ENDBRANCH  10  11
ENDBRANCH   9  10
ENDBRANCH   8   9
ENDBRANCH   7   8
ENDBRANCH   6   7
ENDBRANCH   5   6
ENDBRANCH   4   5
ENDBRANCH   3   4
ENDBRANCH   2   3
ENDBRANCH   1   2
BRANCH   1  15
HETATM   15  C11 UNL     1      -7.194   1.164  19.080  1.00  0.00     0.028 C 
BRANCH  15  16
HETATM   16  C12 UNL     1      -5.708   0.788  19.372  1.00  0.00     0.031 C 
BRANCH  16  17
HETATM   17  C13 UNL     1      -5.723  -0.023  20.623  1.00  0.00     0.232 C 
BRANCH  17  18
HETATM   18  N2  UNL     1      -5.751   0.756  21.829  1.00  0.00    -0.075 N 
ATOM     19  H22 UNL     1      -5.620   1.747  21.624  1.00  0.00     0.277 HD
ATOM     20  H21 UNL     1      -6.693   0.789  22.219  1.00  0.00     0.277 HD
BRANCH  18  21
HETATM   21  C14 UNL     1      -4.800   0.306  22.820  1.00  0.00     0.232 C 
BRANCH  21  22
HETATM   22  C15 UNL     1      -3.585   1.150  22.745  1.00  0.00     0.032 C 
BRANCH  22  23
HETATM   23  C16 UNL     1      -2.392   0.595  22.075  1.00  0.00    -0.013 C 
HETATM   24  C17 UNL     1      -1.518  -0.075  23.122  1.00  0.00     0.005 C 
HETATM   25  C18 UNL     1      -0.295   0.758  23.450  1.00  0.00     0.000 C 
HETATM   26  C19 UNL     1       0.646   0.845  22.267  1.00  0.00     0.000 C 
HETATM   27  C20 UNL     1      -0.209   0.848  21.024  1.00  0.00     0.000 C 
HETATM   28  C21 UNL     1      -1.563   1.527  21.280  1.00  0.00     0.005 C 
ENDBRANCH  22  23
ENDBRANCH  21  22
ENDBRANCH  18  21
ENDBRANCH  17  18
ENDBRANCH  16  17
ENDBRANCH  15  16
ENDBRANCH   1  15
TORSDOF 17
ENDMDL
