MODEL 1
REMARK VINA RESULT: -7.507624051      0.000      0.000
REMARK  18 active torsions:
REMARK  status: ('A' for Active; 'I' for Inactive)
REMARK    1  A    between atoms: N1_1  and  C1_5 
REMARK    2  A    between atoms: C1_5  and  C2_6 
REMARK    3  A    between atoms: C2_6  and  C3_7 
REMARK    4  A    between atoms: C3_7  and  C4_8 
REMARK    5  A    between atoms: C4_8  and  C5_9 
REMARK    6  A    between atoms: C5_9  and  C6_10 
REMARK    7  A    between atoms: C6_10  and  C7_11 
REMARK    8  A    between atoms: C7_11  and  C8_12 
REMARK    9  A    between atoms: C8_12  and  C9_13 
REMARK   10  A    between atoms: C9_13  and  C10_14 
REMARK   11  A    between atoms: C10_14  and  C11_15 
REMARK   12  A    between atoms: C11_15  and  C12_16 
REMARK   13  A    between atoms: C12_16  and  C13_17 
REMARK   14  A    between atoms: C13_17  and  C14_18 
REMARK   15  A    between atoms: C14_18  and  C15_19 
REMARK   16  A    between atoms: C15_19  and  C16_20 
REMARK   17  A    between atoms: C16_20  and  N2_21 
REMARK   18  A    between atoms: N2_21  and  C17_23 
ROOT
HETATM    1  C10 UNL     1      -8.466   1.197  15.599  1.00  0.00     0.000 C 
ENDROOT
BRANCH   1   2
HETATM    2  C9  UNL     1      -9.522   2.268  15.582  1.00  0.00     0.000 C 
BRANCH   2   3
HETATM    3  C8  UNL     1     -10.867   1.625  15.347  1.00  0.00     0.000 C 
BRANCH   3   4
HETATM    4  C7  UNL     1     -11.273   1.694  13.914  1.00  0.00     0.000 C 
BRANCH   4   5
HETATM    5  C6  UNL     1     -10.594   2.832  13.182  1.00  0.00     0.000 C 
BRANCH   5   6
HETATM    6  C5  UNL     1      -9.862   2.392  11.949  1.00  0.00     0.000 C 
BRANCH   6   7
HETATM    7  C4  UNL     1     -10.274   0.978  11.599  1.00  0.00     0.000 C 
BRANCH   7   8
HETATM    8  C3  UNL     1      -9.101   0.045  11.524  1.00  0.00     0.002 C 
BRANCH   8   9
HETATM    9  C2  UNL     1      -9.099  -0.976  12.635  1.00  0.00     0.027 C 
BRANCH   9  10
HETATM   10  C1  UNL     1     -10.345  -1.829  12.632  1.00  0.00     0.229 C 
BRANCH  10  11
HETATM   11  N1  UNL     1     -10.222  -2.784  11.545  1.00  0.00    -0.079 N 
ATOM     12  H13 UNL     1     -11.031  -3.400  11.466  1.00  0.00     0.274 HD
ATOM     13  H12 UNL     1     -10.293  -2.349  10.625  1.00  0.00     0.274 HD
ATOM     14  H11 UNL     1      -9.348  -3.293  11.677  1.00  0.00     0.274 HD
ENDBRANCH  10  11
ENDBRANCH   9  10
ENDBRANCH   8   9
ENDBRANCH   7   8
ENDBRANCH   6   7
ENDBRANCH   5   6
ENDBRANCH   4   5
ENDBRANCH   3   4
ENDBRANCH   2   3
ENDBRANCH   1   2
BRANCH   1  15
HETATM   15  C11 UNL     1      -7.654   1.120  16.830  1.00  0.00     0.000 C 
BRANCH  15  16
HETATM   16  C12 UNL     1      -8.155   1.462  18.143  1.00  0.00     0.000 C 
BRANCH  16  17
HETATM   17  C13 UNL     1      -7.323   1.269  19.354  1.00  0.00     0.000 C 
BRANCH  17  18
HETATM   18  C14 UNL     1      -6.017   0.630  19.124  1.00  0.00     0.002 C 
BRANCH  18  19
HETATM   19  C15 UNL     1      -5.277   0.128  20.326  1.00  0.00     0.020 C 
BRANCH  19  20
HETATM   20  C16 UNL     1      -4.936  -1.312  20.275  1.00  0.00     0.121 C 
BRANCH  20  21
HETATM   21  N2  UNL     1      -3.661  -1.592  20.853  1.00  0.00    -0.370 N 
ATOM     22  H2  UNL     1      -2.987  -0.838  20.991  1.00  0.00     0.161 HD
BRANCH  21  23
HETATM   23  C17 UNL     1      -3.352  -2.821  21.209  1.00  0.00     0.144 A 
HETATM   24  N3  UNL     1      -3.445  -3.939  20.492  1.00  0.00    -0.346 N 
HETATM   25  C18 UNL     1      -3.083  -5.066  21.034  1.00  0.00     0.097 A 
ATOM     26  H3  UNL     1      -3.795  -3.913  19.535  1.00  0.00     0.167 HD
HETATM   27  C19 UNL     1      -2.621  -5.038  22.324  1.00  0.00     0.070 A 
HETATM   28  S1  UNL     1      -2.729  -3.379  22.701  1.00  0.00    -0.065 SA
ENDBRANCH  21  23
ENDBRANCH  20  21
ENDBRANCH  19  20
ENDBRANCH  18  19
ENDBRANCH  17  18
ENDBRANCH  16  17
ENDBRANCH  15  16
ENDBRANCH   1  15
TORSDOF 18
ENDMDL
MODEL 2
REMARK VINA RESULT: -7.395642382      2.440      3.097
REMARK  18 active torsions:
REMARK  status: ('A' for Active; 'I' for Inactive)
REMARK    1  A    between atoms: N1_1  and  C1_5 
REMARK    2  A    between atoms: C1_5  and  C2_6 
REMARK    3  A    between atoms: C2_6  and  C3_7 
REMARK    4  A    between atoms: C3_7  and  C4_8 
REMARK    5  A    between atoms: C4_8  and  C5_9 
REMARK    6  A    between atoms: C5_9  and  C6_10 
REMARK    7  A    between atoms: C6_10  and  C7_11 
REMARK    8  A    between atoms: C7_11  and  C8_12 
REMARK    9  A    between atoms: C8_12  and  C9_13 
REMARK   10  A    between atoms: C9_13  and  C10_14 
REMARK   11  A    between atoms: C10_14  and  C11_15 
REMARK   12  A    between atoms: C11_15  and  C12_16 
REMARK   13  A    between atoms: C12_16  and  C13_17 
REMARK   14  A    between atoms: C13_17  and  C14_18 
REMARK   15  A    between atoms: C14_18  and  C15_19 
REMARK   16  A    between atoms: C15_19  and  C16_20 
REMARK   17  A    between atoms: C16_20  and  N2_21 
REMARK   18  A    between atoms: N2_21  and  C17_23 
ROOT
HETATM    1  C10 UNL     1      -8.516   1.508  17.852  1.00  0.00     0.000 C 
ENDROOT
BRANCH   1   2
HETATM    2  C9  UNL     1      -7.936   1.125  16.518  1.00  0.00     0.000 C 
BRANCH   2   3
HETATM    3  C8  UNL     1      -8.991   1.310  15.455  1.00  0.00     0.000 C 
BRANCH   3   4
HETATM    4  C7  UNL     1      -9.420   2.733  15.339  1.00  0.00     0.000 C 
BRANCH   4   5
HETATM    5  C6  UNL     1      -9.805   3.101  13.921  1.00  0.00     0.000 C 
BRANCH   5   6
HETATM    6  C5  UNL     1     -10.546   2.010  13.207  1.00  0.00     0.000 C 
BRANCH   6   7
HETATM    7  C4  UNL     1      -9.918   1.782  11.849  1.00  0.00     0.000 C 
BRANCH   7   8
HETATM    8  C3  UNL     1      -9.561   0.342  11.620  1.00  0.00     0.002 C 
BRANCH   8   9
HETATM    9  C2  UNL     1     -10.260  -0.589  12.579  1.00  0.00     0.027 C 
BRANCH   9  10
HETATM   10  C1  UNL     1      -9.684  -1.984  12.546  1.00  0.00     0.229 C 
BRANCH  10  11
HETATM   11  N1  UNL     1     -10.302  -2.690  11.438  1.00  0.00    -0.079 N 
ATOM     12  H13 UNL     1     -11.314  -2.769  11.534  1.00  0.00     0.274 HD
ATOM     13  H12 UNL     1     -10.290  -2.154  10.570  1.00  0.00     0.274 HD
ATOM     14  H11 UNL     1      -9.840  -3.595  11.352  1.00  0.00     0.274 HD
ENDBRANCH  10  11
ENDBRANCH   9  10
ENDBRANCH   8   9
ENDBRANCH   7   8
ENDBRANCH   6   7
ENDBRANCH   5   6
ENDBRANCH   4   5
ENDBRANCH   3   4
ENDBRANCH   2   3
ENDBRANCH   1   2
BRANCH   1  15
HETATM   15  C11 UNL     1      -7.580   1.459  18.994  1.00  0.00     0.000 C 
BRANCH  15  16
HETATM   16  C12 UNL     1      -6.325   0.741  18.971  1.00  0.00     0.000 C 
BRANCH  16  17
HETATM   17  C13 UNL     1      -5.626   0.381  20.227  1.00  0.00     0.000 C 
BRANCH  17  18
HETATM   18  C14 UNL     1      -4.971  -0.937  20.226  1.00  0.00     0.002 C 
BRANCH  18  19
HETATM   19  C15 UNL     1      -3.634  -1.040  20.896  1.00  0.00     0.020 C 
BRANCH  19  20
HETATM   20  C16 UNL     1      -3.033   0.262  21.262  1.00  0.00     0.121 C 
BRANCH  20  21
HETATM   21  N2  UNL     1      -2.428   0.241  22.555  1.00  0.00    -0.370 N 
ATOM     22  H2  UNL     1      -3.013   0.280  23.391  1.00  0.00     0.161 HD
BRANCH  21  23
HETATM   23  C17 UNL     1      -1.120   0.172  22.673  1.00  0.00     0.144 A 
HETATM   24  N3  UNL     1      -0.190   0.825  21.979  1.00  0.00    -0.346 N 
HETATM   25  C18 UNL     1       1.065   0.613  22.254  1.00  0.00     0.097 A 
ATOM     26  H3  UNL     1      -0.456   1.481  21.245  1.00  0.00     0.167 HD
HETATM   27  C19 UNL     1       1.362  -0.279  23.251  1.00  0.00     0.070 A 
HETATM   28  S1  UNL     1      -0.190  -0.776  23.752  1.00  0.00    -0.065 SA
ENDBRANCH  21  23
ENDBRANCH  20  21
ENDBRANCH  19  20
ENDBRANCH  18  19
ENDBRANCH  17  18
ENDBRANCH  16  17
ENDBRANCH  15  16
ENDBRANCH   1  15
TORSDOF 18
ENDMDL
MODEL 3
REMARK VINA RESULT: -7.370216552      2.506      2.798
REMARK  18 active torsions:
REMARK  status: ('A' for Active; 'I' for Inactive)
REMARK    1  A    between atoms: N1_1  and  C1_5 
REMARK    2  A    between atoms: C1_5  and  C2_6 
REMARK    3  A    between atoms: C2_6  and  C3_7 
REMARK    4  A    between atoms: C3_7  and  C4_8 
REMARK    5  A    between atoms: C4_8  and  C5_9 
REMARK    6  A    between atoms: C5_9  and  C6_10 
REMARK    7  A    between atoms: C6_10  and  C7_11 
REMARK    8  A    between atoms: C7_11  and  C8_12 
REMARK    9  A    between atoms: C8_12  and  C9_13 
REMARK   10  A    between atoms: C9_13  and  C10_14 
REMARK   11  A    between atoms: C10_14  and  C11_15 
REMARK   12  A    between atoms: C11_15  and  C12_16 
REMARK   13  A    between atoms: C12_16  and  C13_17 
REMARK   14  A    between atoms: C13_17  and  C14_18 
REMARK   15  A    between atoms: C14_18  and  C15_19 
REMARK   16  A    between atoms: C15_19  and  C16_20 
REMARK   17  A    between atoms: C16_20  and  N2_21 
REMARK   18  A    between atoms: N2_21  and  C17_23 
ROOT
HETATM    1  C10 UNL     1      -8.583   0.862  15.598  1.00  0.00     0.000 C 
ENDROOT
BRANCH   1   2
HETATM    2  C9  UNL     1      -9.795   1.737  15.434  1.00  0.00     0.000 C 
BRANCH   2   3
HETATM    3  C8  UNL     1      -9.345   3.134  15.081  1.00  0.00     0.000 C 
BRANCH   3   4
HETATM    4  C7  UNL     1      -9.675   3.484  13.670  1.00  0.00     0.000 C 
BRANCH   4   5
HETATM    5  C6  UNL     1     -10.802   2.635  13.119  1.00  0.00     0.000 C 
BRANCH   5   6
HETATM    6  C5  UNL     1     -10.532   2.115  11.738  1.00  0.00     0.000 C 
BRANCH   6   7
HETATM    7  C4  UNL     1      -9.426   1.083  11.798  1.00  0.00     0.000 C 
BRANCH   7   8
HETATM    8  C3  UNL     1      -9.922  -0.301  11.495  1.00  0.00     0.002 C 
BRANCH   8   9
HETATM    9  C2  UNL     1      -9.424  -1.325  12.484  1.00  0.00     0.027 C 
BRANCH   9  10
HETATM   10  C1  UNL     1      -9.666  -2.739  12.014  1.00  0.00     0.229 C 
BRANCH  10  11
HETATM   11  N1  UNL     1      -9.064  -3.636  12.985  1.00  0.00    -0.079 N 
ATOM     12  H13 UNL     1      -8.958  -3.209  13.906  1.00  0.00     0.274 HD
ATOM     13  H12 UNL     1      -9.684  -4.397  13.259  1.00  0.00     0.274 HD
ATOM     14  H11 UNL     1      -8.180  -3.965  12.597  1.00  0.00     0.274 HD
ENDBRANCH  10  11
ENDBRANCH   9  10
ENDBRANCH   8   9
ENDBRANCH   7   8
ENDBRANCH   6   7
ENDBRANCH   5   6
ENDBRANCH   4   5
ENDBRANCH   3   4
ENDBRANCH   2   3
ENDBRANCH   1   2
BRANCH   1  15
HETATM   15  C11 UNL     1      -7.729   1.165  16.765  1.00  0.00     0.000 C 
BRANCH  15  16
HETATM   16  C12 UNL     1      -8.247   1.457  18.083  1.00  0.00     0.000 C 
BRANCH  16  17
HETATM   17  C13 UNL     1      -7.401   1.303  19.290  1.00  0.00     0.000 C 
BRANCH  17  18
HETATM   18  C14 UNL     1      -6.080   0.697  19.058  1.00  0.00     0.002 C 
BRANCH  18  19
HETATM   19  C15 UNL     1      -5.241   0.397  20.263  1.00  0.00     0.020 C 
BRANCH  19  20
HETATM   20  C16 UNL     1      -6.016   0.052  21.476  1.00  0.00     0.121 C 
BRANCH  20  21
HETATM   21  N2  UNL     1      -5.503   0.681  22.650  1.00  0.00    -0.370 N 
ATOM     22  H2  UNL     1      -6.144   1.107  23.321  1.00  0.00     0.161 HD
BRANCH  21  23
HETATM   23  C17 UNL     1      -4.206   0.714  22.870  1.00  0.00     0.144 A 
HETATM   24  N3  UNL     1      -3.444   1.762  23.176  1.00  0.00    -0.346 N 
HETATM   25  C18 UNL     1      -2.168   1.581  23.357  1.00  0.00     0.097 A 
ATOM     26  H3  UNL     1      -3.854   2.692  23.266  1.00  0.00     0.167 HD
HETATM   27  C19 UNL     1      -1.675   0.310  23.221  1.00  0.00     0.070 A 
HETATM   28  S1  UNL     1      -3.081  -0.575  22.838  1.00  0.00    -0.065 SA
ENDBRANCH  21  23
ENDBRANCH  20  21
ENDBRANCH  19  20
ENDBRANCH  18  19
ENDBRANCH  17  18
ENDBRANCH  16  17
ENDBRANCH  15  16
ENDBRANCH   1  15
TORSDOF 18
ENDMDL
MODEL 4
REMARK VINA RESULT: -7.326409099      2.021      2.926
REMARK  18 active torsions:
REMARK  status: ('A' for Active; 'I' for Inactive)
REMARK    1  A    between atoms: N1_1  and  C1_5 
REMARK    2  A    between atoms: C1_5  and  C2_6 
REMARK    3  A    between atoms: C2_6  and  C3_7 
REMARK    4  A    between atoms: C3_7  and  C4_8 
REMARK    5  A    between atoms: C4_8  and  C5_9 
REMARK    6  A    between atoms: C5_9  and  C6_10 
REMARK    7  A    between atoms: C6_10  and  C7_11 
REMARK    8  A    between atoms: C7_11  and  C8_12 
REMARK    9  A    between atoms: C8_12  and  C9_13 
REMARK   10  A    between atoms: C9_13  and  C10_14 
REMARK   11  A    between atoms: C10_14  and  C11_15 
REMARK   12  A    between atoms: C11_15  and  C12_16 
REMARK   13  A    between atoms: C12_16  and  C13_17 
REMARK   14  A    between atoms: C13_17  and  C14_18 
REMARK   15  A    between atoms: C14_18  and  C15_19 
REMARK   16  A    between atoms: C15_19  and  C16_20 
REMARK   17  A    between atoms: C16_20  and  N2_21 
REMARK   18  A    between atoms: N2_21  and  C17_23 
ROOT
HETATM    1  C10 UNL     1      -8.365   1.521  17.903  1.00  0.00     0.000 C 
ENDROOT
BRANCH   1   2
HETATM    2  C9  UNL     1      -7.783   1.134  16.572  1.00  0.00     0.000 C 
BRANCH   2   3
HETATM    3  C8  UNL     1      -8.865   1.221  15.522  1.00  0.00     0.000 C 
BRANCH   3   4
HETATM    4  C7  UNL     1      -9.534   2.554  15.523  1.00  0.00     0.000 C 
BRANCH   4   5
HETATM    5  C6  UNL     1      -9.719   3.102  14.123  1.00  0.00     0.000 C 
BRANCH   5   6
HETATM    6  C5  UNL     1     -10.577   2.232  13.254  1.00  0.00     0.000 C 
BRANCH   6   7
HETATM    7  C4  UNL     1      -9.894   2.024  11.921  1.00  0.00     0.000 C 
BRANCH   7   8
HETATM    8  C3  UNL     1      -9.645   0.573  11.628  1.00  0.00     0.002 C 
BRANCH   8   9
HETATM    9  C2  UNL     1     -10.298  -0.343  12.633  1.00  0.00     0.027 C 
BRANCH   9  10
HETATM   10  C1  UNL     1      -9.717  -1.736  12.601  1.00  0.00     0.229 C 
BRANCH  10  11
HETATM   11  N1  UNL     1     -10.352  -2.453  11.511  1.00  0.00    -0.079 N 
ATOM     12  H13 UNL     1     -10.742  -3.351  11.801  1.00  0.00     0.274 HD
ATOM     13  H12 UNL     1     -11.224  -2.020  11.205  1.00  0.00     0.274 HD
ATOM     14  H11 UNL     1      -9.669  -2.543  10.758  1.00  0.00     0.274 HD
ENDBRANCH  10  11
ENDBRANCH   9  10
ENDBRANCH   8   9
ENDBRANCH   7   8
ENDBRANCH   6   7
ENDBRANCH   5   6
ENDBRANCH   4   5
ENDBRANCH   3   4
ENDBRANCH   2   3
ENDBRANCH   1   2
BRANCH   1  15
HETATM   15  C11 UNL     1      -7.468   1.353  19.066  1.00  0.00     0.000 C 
BRANCH  15  16
HETATM   16  C12 UNL     1      -6.178   0.705  18.995  1.00  0.00     0.000 C 
BRANCH  16  17
HETATM   17  C13 UNL     1      -5.485   0.243  20.221  1.00  0.00     0.000 C 
BRANCH  17  18
HETATM   18  C14 UNL     1      -4.984  -1.140  20.176  1.00  0.00     0.002 C 
BRANCH  18  19
HETATM   19  C15 UNL     1      -4.924  -1.891  21.472  1.00  0.00     0.020 C 
BRANCH  19  20
HETATM   20  C16 UNL     1      -3.554  -2.118  21.982  1.00  0.00     0.121 C 
BRANCH  20  21
HETATM   21  N2  UNL     1      -3.084  -1.036  22.788  1.00  0.00    -0.370 N 
ATOM     22  H2  UNL     1      -3.580  -0.787  23.645  1.00  0.00     0.161 HD
BRANCH  21  23
HETATM   23  C17 UNL     1      -2.015  -0.360  22.429  1.00  0.00     0.144 A 
HETATM   24  N3  UNL     1      -1.811   0.336  21.312  1.00  0.00    -0.346 N 
HETATM   25  C18 UNL     1      -0.670   0.941  21.147  1.00  0.00     0.097 A 
ATOM     26  H3  UNL     1      -2.536   0.393  20.597  1.00  0.00     0.167 HD
HETATM   27  C19 UNL     1       0.266   0.828  22.141  1.00  0.00     0.070 A 
HETATM   28  S1  UNL     1      -0.544  -0.151  23.278  1.00  0.00    -0.065 SA
ENDBRANCH  21  23
ENDBRANCH  20  21
ENDBRANCH  19  20
ENDBRANCH  18  19
ENDBRANCH  17  18
ENDBRANCH  16  17
ENDBRANCH  15  16
ENDBRANCH   1  15
TORSDOF 18
ENDMDL
MODEL 5
REMARK VINA RESULT: -7.313304629      1.091      1.801
REMARK  18 active torsions:
REMARK  status: ('A' for Active; 'I' for Inactive)
REMARK    1  A    between atoms: N1_1  and  C1_5 
REMARK    2  A    between atoms: C1_5  and  C2_6 
REMARK    3  A    between atoms: C2_6  and  C3_7 
REMARK    4  A    between atoms: C3_7  and  C4_8 
REMARK    5  A    between atoms: C4_8  and  C5_9 
REMARK    6  A    between atoms: C5_9  and  C6_10 
REMARK    7  A    between atoms: C6_10  and  C7_11 
REMARK    8  A    between atoms: C7_11  and  C8_12 
REMARK    9  A    between atoms: C8_12  and  C9_13 
REMARK   10  A    between atoms: C9_13  and  C10_14 
REMARK   11  A    between atoms: C10_14  and  C11_15 
REMARK   12  A    between atoms: C11_15  and  C12_16 
REMARK   13  A    between atoms: C12_16  and  C13_17 
REMARK   14  A    between atoms: C13_17  and  C14_18 
REMARK   15  A    between atoms: C14_18  and  C15_19 
REMARK   16  A    between atoms: C15_19  and  C16_20 
REMARK   17  A    between atoms: C16_20  and  N2_21 
REMARK   18  A    between atoms: N2_21  and  C17_23 
ROOT
HETATM    1  C10 UNL     1      -8.028   1.288  17.697  1.00  0.00     0.000 C 
ENDROOT
BRANCH   1   2
HETATM    2  C9  UNL     1      -8.137   1.249  16.197  1.00  0.00     0.000 C 
BRANCH   2   3
HETATM    3  C8  UNL     1      -9.519   1.705  15.795  1.00  0.00     0.000 C 
BRANCH   3   4
HETATM    4  C7  UNL     1      -9.515   3.104  15.282  1.00  0.00     0.000 C 
BRANCH   4   5
HETATM    5  C6  UNL     1      -9.709   3.164  13.782  1.00  0.00     0.000 C 
BRANCH   5   6
HETATM    6  C5  UNL     1     -10.410   1.961  13.226  1.00  0.00     0.000 C 
BRANCH   6   7
HETATM    7  C4  UNL     1      -9.943   1.718  11.808  1.00  0.00     0.000 C 
BRANCH   7   8
HETATM    8  C3  UNL     1      -9.537   0.291  11.578  1.00  0.00     0.002 C 
BRANCH   8   9
HETATM    9  C2  UNL     1     -10.137  -0.654  12.588  1.00  0.00     0.027 C 
BRANCH   9  10
HETATM   10  C1  UNL     1      -9.543  -2.039  12.500  1.00  0.00     0.229 C 
BRANCH  10  11
HETATM   11  N1  UNL     1     -10.305  -2.784  11.515  1.00  0.00    -0.079 N 
ATOM     12  H13 UNL     1     -11.220  -3.077  11.860  1.00  0.00     0.274 HD
ATOM     13  H12 UNL     1     -10.632  -2.202  10.744  1.00  0.00     0.274 HD
ATOM     14  H11 UNL     1      -9.730  -3.567  11.205  1.00  0.00     0.274 HD
ENDBRANCH  10  11
ENDBRANCH   9  10
ENDBRANCH   8   9
ENDBRANCH   7   8
ENDBRANCH   6   7
ENDBRANCH   5   6
ENDBRANCH   4   5
ENDBRANCH   3   4
ENDBRANCH   2   3
ENDBRANCH   1   2
BRANCH   1  15
HETATM   15  C11 UNL     1      -6.721   0.886  18.254  1.00  0.00     0.000 C 
BRANCH  15  16
HETATM   16  C12 UNL     1      -6.401   0.934  19.663  1.00  0.00     0.000 C 
BRANCH  16  17
HETATM   17  C13 UNL     1      -5.193   0.264  20.198  1.00  0.00     0.000 C 
BRANCH  17  18
HETATM   18  C14 UNL     1      -5.183  -1.203  20.079  1.00  0.00     0.002 C 
BRANCH  18  19
HETATM   19  C15 UNL     1      -4.203  -1.955  20.929  1.00  0.00     0.020 C 
BRANCH  19  20
HETATM   20  C16 UNL     1      -4.791  -2.566  22.142  1.00  0.00     0.121 C 
BRANCH  20  21
HETATM   21  N2  UNL     1      -4.685  -3.990  22.143  1.00  0.00    -0.370 N 
ATOM     22  H2  UNL     1      -5.518  -4.562  22.281  1.00  0.00     0.161 HD
BRANCH  21  23
HETATM   23  C17 UNL     1      -3.515  -4.565  21.968  1.00  0.00     0.144 A 
HETATM   24  N3  UNL     1      -3.132  -5.382  20.988  1.00  0.00    -0.346 N 
HETATM   25  C18 UNL     1      -1.917  -5.848  20.997  1.00  0.00     0.097 A 
ATOM     26  H3  UNL     1      -3.780  -5.637  20.243  1.00  0.00     0.167 HD
HETATM   27  C19 UNL     1      -1.091  -5.471  22.023  1.00  0.00     0.070 A 
HETATM   28  S1  UNL     1      -2.109  -4.452  22.936  1.00  0.00    -0.065 SA
ENDBRANCH  21  23
ENDBRANCH  20  21
ENDBRANCH  19  20
ENDBRANCH  18  19
ENDBRANCH  17  18
ENDBRANCH  16  17
ENDBRANCH  15  16
ENDBRANCH   1  15
TORSDOF 18
ENDMDL
