MODEL 1
REMARK VINA RESULT: -7.982799914      0.000      0.000
REMARK  17 active torsions:
REMARK  status: ('A' for Active; 'I' for Inactive)
REMARK    1  A    between atoms: N1_1  and  C1_5 
REMARK    2  A    between atoms: C1_5  and  C2_6 
REMARK    3  A    between atoms: C2_6  and  C3_7 
REMARK    4  A    between atoms: C3_7  and  C4_8 
REMARK    5  A    between atoms: C4_8  and  C5_9 
REMARK    6  A    between atoms: C5_9  and  C6_10 
REMARK    7  A    between atoms: C6_10  and  C7_11 
REMARK    8  A    between atoms: C7_11  and  C8_12 
REMARK    9  A    between atoms: C8_12  and  C9_13 
REMARK   10  A    between atoms: C9_13  and  C10_14 
REMARK   11  A    between atoms: C10_14  and  C11_15 
REMARK   12  A    between atoms: C12_16  and  C13_17 
REMARK   13  A    between atoms: C13_17  and  C14_18 
REMARK   14  A    between atoms: C14_18  and  C15_19 
REMARK   15  A    between atoms: C15_19  and  C16_20 
REMARK   16  A    between atoms: C16_20  and  N2_21 
REMARK   17  A    between atoms: N2_21  and  C17_23 
ROOT
HETATM    1  C11 UNL     1      -6.171   0.819  18.966  1.00  0.00    -0.031 C 
HETATM    2  C12 UNL     1      -5.248   0.356  19.977  1.00  0.00    -0.031 C 
ENDROOT
BRANCH   1   3
HETATM    3  C10 UNL     1      -7.547   1.233  19.215  1.00  0.00     0.027 C 
BRANCH   3   4
HETATM    4  C9  UNL     1      -8.387   1.573  18.046  1.00  0.00     0.004 C 
BRANCH   4   5
HETATM    5  C8  UNL     1      -7.754   1.157  16.752  1.00  0.00     0.000 C 
BRANCH   5   6
HETATM    6  C7  UNL     1      -8.729   1.143  15.611  1.00  0.00     0.000 C 
BRANCH   6   7
HETATM    7  C6  UNL     1      -9.535   2.445  15.622  1.00  0.00     0.000 C 
BRANCH   7   8
HETATM    8  C5  UNL     1      -9.605   2.981  14.242  1.00  0.00     0.000 C 
BRANCH   8   9
HETATM    9  C4  UNL     1     -10.641   2.228  13.376  1.00  0.00     0.000 C 
BRANCH   9  10
HETATM   10  C3  UNL     1     -10.012   1.788  12.098  1.00  0.00     0.002 C 
BRANCH  10  11
HETATM   11  C2  UNL     1      -9.913   0.304  11.947  1.00  0.00     0.027 C 
BRANCH  11  12
HETATM   12  C1  UNL     1     -10.614  -0.536  12.950  1.00  0.00     0.229 C 
BRANCH  12  13
HETATM   13  N1  UNL     1     -10.939  -1.868  12.583  1.00  0.00    -0.079 N 
ATOM     14  H13 UNL     1     -10.749  -1.998  11.588  1.00  0.00     0.274 HD
ATOM     15  H12 UNL     1     -10.258  -2.506  12.994  1.00  0.00     0.274 HD
ATOM     16  H11 UNL     1     -11.881  -2.200  12.791  1.00  0.00     0.274 HD
ENDBRANCH  12  13
ENDBRANCH  11  12
ENDBRANCH  10  11
ENDBRANCH   9  10
ENDBRANCH   8   9
ENDBRANCH   7   8
ENDBRANCH   6   7
ENDBRANCH   5   6
ENDBRANCH   4   5
ENDBRANCH   3   4
ENDBRANCH   1   3
BRANCH   2  17
HETATM   17  C13 UNL     1      -5.478  -0.869  20.784  1.00  0.00     0.027 C 
BRANCH  17  18
HETATM   18  C14 UNL     1      -5.103  -2.136  20.125  1.00  0.00     0.005 C 
BRANCH  18  19
HETATM   19  C15 UNL     1      -3.884  -2.808  20.723  1.00  0.00     0.020 C 
BRANCH  19  20
HETATM   20  C16 UNL     1      -3.759  -2.390  22.160  1.00  0.00     0.121 C 
BRANCH  20  21
HETATM   21  N2  UNL     1      -2.539  -1.709  22.448  1.00  0.00    -0.376 N 
ATOM     22  H2  UNL     1      -1.721  -2.246  22.738  1.00  0.00     0.161 HD
BRANCH  21  23
HETATM   23  C17 UNL     1      -2.454  -0.437  22.350  1.00  0.00     0.100 A 
HETATM   24  C18 UNL     1      -1.806   0.146  21.300  1.00  0.00     0.048 A 
HETATM   25  C19 UNL     1      -1.756   1.538  21.264  1.00  0.00     0.005 A 
HETATM   26  C20 UNL     1      -2.343   2.290  22.256  1.00  0.00     0.017 A 
HETATM   27  C21 UNL     1      -2.976   1.622  23.279  1.00  0.00     0.089 A 
HETATM   28  N3  UNL     1      -3.037   0.284  23.335  1.00  0.00    -0.353 N 
ATOM     29  H3  UNL     1      -3.514  -0.183  24.107  1.00  0.00     0.166 HD
ENDBRANCH  21  23
ENDBRANCH  20  21
ENDBRANCH  19  20
ENDBRANCH  18  19
ENDBRANCH  17  18
ENDBRANCH   2  17
TORSDOF 17
ENDMDL
MODEL 2
REMARK VINA RESULT: -7.908101377      2.429      3.788
REMARK  17 active torsions:
REMARK  status: ('A' for Active; 'I' for Inactive)
REMARK    1  A    between atoms: N1_1  and  C1_5 
REMARK    2  A    between atoms: C1_5  and  C2_6 
REMARK    3  A    between atoms: C2_6  and  C3_7 
REMARK    4  A    between atoms: C3_7  and  C4_8 
REMARK    5  A    between atoms: C4_8  and  C5_9 
REMARK    6  A    between atoms: C5_9  and  C6_10 
REMARK    7  A    between atoms: C6_10  and  C7_11 
REMARK    8  A    between atoms: C7_11  and  C8_12 
REMARK    9  A    between atoms: C8_12  and  C9_13 
REMARK   10  A    between atoms: C9_13  and  C10_14 
REMARK   11  A    between atoms: C10_14  and  C11_15 
REMARK   12  A    between atoms: C12_16  and  C13_17 
REMARK   13  A    between atoms: C13_17  and  C14_18 
REMARK   14  A    between atoms: C14_18  and  C15_19 
REMARK   15  A    between atoms: C15_19  and  C16_20 
REMARK   16  A    between atoms: C16_20  and  N2_21 
REMARK   17  A    between atoms: N2_21  and  C17_23 
ROOT
HETATM    1  C11 UNL     1      -6.422   0.902  18.643  1.00  0.00    -0.031 C 
HETATM    2  C12 UNL     1      -5.396   0.504  19.579  1.00  0.00    -0.031 C 
ENDROOT
BRANCH   1   3
HETATM    3  C10 UNL     1      -7.736   1.417  19.010  1.00  0.00     0.027 C 
BRANCH   3   4
HETATM    4  C9  UNL     1      -8.750   1.547  17.940  1.00  0.00     0.004 C 
BRANCH   4   5
HETATM    5  C8  UNL     1      -8.198   1.197  16.590  1.00  0.00     0.000 C 
BRANCH   5   6
HETATM    6  C7  UNL     1      -8.930   1.881  15.473  1.00  0.00     0.000 C 
BRANCH   6   7
HETATM    7  C6  UNL     1     -10.419   1.532  15.559  1.00  0.00     0.000 C 
BRANCH   7   8
HETATM    8  C5  UNL     1     -11.018   1.638  14.209  1.00  0.00     0.000 C 
BRANCH   8   9
HETATM    9  C4  UNL     1      -9.949   1.831  13.110  1.00  0.00     0.000 C 
BRANCH   9  10
HETATM   10  C3  UNL     1     -10.164   0.846  12.011  1.00  0.00     0.002 C 
BRANCH  10  11
HETATM   11  C2  UNL     1      -9.335  -0.392  12.132  1.00  0.00     0.027 C 
BRANCH  11  12
HETATM   12  C1  UNL     1     -10.048  -1.694  12.177  1.00  0.00     0.229 C 
BRANCH  12  13
HETATM   13  N1  UNL     1     -11.242  -1.765  12.939  1.00  0.00    -0.079 N 
ATOM     14  H13 UNL     1     -11.033  -1.544  13.913  1.00  0.00     0.274 HD
ATOM     15  H12 UNL     1     -11.847  -0.983  12.690  1.00  0.00     0.274 HD
ATOM     16  H11 UNL     1     -11.779  -2.632  12.899  1.00  0.00     0.274 HD
ENDBRANCH  12  13
ENDBRANCH  11  12
ENDBRANCH  10  11
ENDBRANCH   9  10
ENDBRANCH   8   9
ENDBRANCH   7   8
ENDBRANCH   6   7
ENDBRANCH   5   6
ENDBRANCH   4   5
ENDBRANCH   3   4
ENDBRANCH   1   3
BRANCH   2  17
HETATM   17  C13 UNL     1      -5.569  -0.610  20.545  1.00  0.00     0.027 C 
BRANCH  17  18
HETATM   18  C14 UNL     1      -5.060  -1.920  20.094  1.00  0.00     0.005 C 
BRANCH  18  19
HETATM   19  C15 UNL     1      -3.767  -2.345  20.760  1.00  0.00     0.020 C 
BRANCH  19  20
HETATM   20  C16 UNL     1      -3.983  -3.670  21.431  1.00  0.00     0.121 C 
BRANCH  20  21
HETATM   21  N2  UNL     1      -3.462  -4.773  20.690  1.00  0.00    -0.376 N 
ATOM     22  H2  UNL     1      -4.041  -5.217  19.977  1.00  0.00     0.161 HD
BRANCH  21  23
HETATM   23  C17 UNL     1      -2.282  -5.214  20.907  1.00  0.00     0.100 A 
HETATM   24  C18 UNL     1      -1.841  -5.454  22.175  1.00  0.00     0.048 A 
HETATM   25  C19 UNL     1      -0.541  -5.934  22.329  1.00  0.00     0.005 A 
HETATM   26  C20 UNL     1       0.262  -6.154  21.234  1.00  0.00     0.017 A 
HETATM   27  C21 UNL     1      -0.261  -5.886  19.989  1.00  0.00     0.089 A 
HETATM   28  N3  UNL     1      -1.508  -5.424  19.817  1.00  0.00    -0.353 N 
ATOM     29  H3  UNL     1      -1.867  -5.235  18.881  1.00  0.00     0.166 HD
ENDBRANCH  21  23
ENDBRANCH  20  21
ENDBRANCH  19  20
ENDBRANCH  18  19
ENDBRANCH  17  18
ENDBRANCH   2  17
TORSDOF 17
ENDMDL
MODEL 3
REMARK VINA RESULT: -7.769231916      1.514      1.918
REMARK  17 active torsions:
REMARK  status: ('A' for Active; 'I' for Inactive)
REMARK    1  A    between atoms: N1_1  and  C1_5 
REMARK    2  A    between atoms: C1_5  and  C2_6 
REMARK    3  A    between atoms: C2_6  and  C3_7 
REMARK    4  A    between atoms: C3_7  and  C4_8 
REMARK    5  A    between atoms: C4_8  and  C5_9 
REMARK    6  A    between atoms: C5_9  and  C6_10 
REMARK    7  A    between atoms: C6_10  and  C7_11 
REMARK    8  A    between atoms: C7_11  and  C8_12 
REMARK    9  A    between atoms: C8_12  and  C9_13 
REMARK   10  A    between atoms: C9_13  and  C10_14 
REMARK   11  A    between atoms: C10_14  and  C11_15 
REMARK   12  A    between atoms: C12_16  and  C13_17 
REMARK   13  A    between atoms: C13_17  and  C14_18 
REMARK   14  A    between atoms: C14_18  and  C15_19 
REMARK   15  A    between atoms: C15_19  and  C16_20 
REMARK   16  A    between atoms: C16_20  and  N2_21 
REMARK   17  A    between atoms: N2_21  and  C17_23 
ROOT
HETATM    1  C11 UNL     1      -7.166   0.979  18.221  1.00  0.00    -0.031 C 
HETATM    2  C12 UNL     1      -5.931   0.954  18.973  1.00  0.00    -0.031 C 
ENDROOT
BRANCH   1   3
HETATM    3  C10 UNL     1      -8.408   1.598  18.671  1.00  0.00     0.027 C 
BRANCH   3   4
HETATM    4  C9  UNL     1      -9.420   1.936  17.648  1.00  0.00     0.004 C 
BRANCH   4   5
HETATM    5  C8  UNL     1      -8.947   1.628  16.258  1.00  0.00     0.000 C 
BRANCH   5   6
HETATM    6  C7  UNL     1      -9.973   1.958  15.214  1.00  0.00     0.000 C 
BRANCH   6   7
HETATM    7  C6  UNL     1      -9.498   3.170  14.406  1.00  0.00     0.000 C 
BRANCH   7   8
HETATM    8  C5  UNL     1      -9.918   3.004  12.995  1.00  0.00     0.000 C 
BRANCH   8   9
HETATM    9  C4  UNL     1     -10.679   1.678  12.765  1.00  0.00     0.000 C 
BRANCH   9  10
HETATM   10  C3  UNL     1      -9.891   0.787  11.866  1.00  0.00     0.002 C 
BRANCH  10  11
HETATM   11  C2  UNL     1      -9.366  -0.443  12.535  1.00  0.00     0.027 C 
BRANCH  11  12
HETATM   12  C1  UNL     1     -10.146  -1.696  12.375  1.00  0.00     0.229 C 
BRANCH  12  13
HETATM   13  N1  UNL     1     -11.424  -1.760  12.990  1.00  0.00    -0.079 N 
ATOM     14  H13 UNL     1     -11.361  -1.380  13.935  1.00  0.00     0.274 HD
ATOM     15  H12 UNL     1     -12.043  -1.079  12.549  1.00  0.00     0.274 HD
ATOM     16  H11 UNL     1     -11.889  -2.667  13.022  1.00  0.00     0.274 HD
ENDBRANCH  12  13
ENDBRANCH  11  12
ENDBRANCH  10  11
ENDBRANCH   9  10
ENDBRANCH   8   9
ENDBRANCH   7   8
ENDBRANCH   6   7
ENDBRANCH   5   6
ENDBRANCH   4   5
ENDBRANCH   3   4
ENDBRANCH   1   3
BRANCH   2  17
HETATM   17  C13 UNL     1      -5.798   0.280  20.289  1.00  0.00     0.027 C 
BRANCH  17  18
HETATM   18  C14 UNL     1      -4.992  -0.956  20.283  1.00  0.00     0.005 C 
BRANCH  18  19
HETATM   19  C15 UNL     1      -3.602  -0.792  20.865  1.00  0.00     0.020 C 
BRANCH  19  20
HETATM   20  C16 UNL     1      -3.652   0.246  21.948  1.00  0.00     0.121 C 
BRANCH  20  21
HETATM   21  N2  UNL     1      -2.572   1.177  21.892  1.00  0.00    -0.376 N 
ATOM     22  H2  UNL     1      -2.744   2.125  21.557  1.00  0.00     0.161 HD
BRANCH  21  23
HETATM   23  C17 UNL     1      -1.393   0.843  22.256  1.00  0.00     0.100 A 
HETATM   24  C18 UNL     1      -0.329   0.984  21.413  1.00  0.00     0.048 A 
HETATM   25  C19 UNL     1       0.924   0.596  21.884  1.00  0.00     0.005 A 
HETATM   26  C20 UNL     1       1.074   0.090  23.154  1.00  0.00     0.017 A 
HETATM   27  C21 UNL     1      -0.051  -0.019  23.939  1.00  0.00     0.089 A 
HETATM   28  N3  UNL     1      -1.267   0.347  23.509  1.00  0.00    -0.353 N 
ATOM     29  H3  UNL     1      -2.083   0.254  24.115  1.00  0.00     0.166 HD
ENDBRANCH  21  23
ENDBRANCH  20  21
ENDBRANCH  19  20
ENDBRANCH  18  19
ENDBRANCH  17  18
ENDBRANCH   2  17
TORSDOF 17
ENDMDL
MODEL 4
REMARK VINA RESULT: -7.731804343      1.259      1.710
REMARK  17 active torsions:
REMARK  status: ('A' for Active; 'I' for Inactive)
REMARK    1  A    between atoms: N1_1  and  C1_5 
REMARK    2  A    between atoms: C1_5  and  C2_6 
REMARK    3  A    between atoms: C2_6  and  C3_7 
REMARK    4  A    between atoms: C3_7  and  C4_8 
REMARK    5  A    between atoms: C4_8  and  C5_9 
REMARK    6  A    between atoms: C5_9  and  C6_10 
REMARK    7  A    between atoms: C6_10  and  C7_11 
REMARK    8  A    between atoms: C7_11  and  C8_12 
REMARK    9  A    between atoms: C8_12  and  C9_13 
REMARK   10  A    between atoms: C9_13  and  C10_14 
REMARK   11  A    between atoms: C10_14  and  C11_15 
REMARK   12  A    between atoms: C12_16  and  C13_17 
REMARK   13  A    between atoms: C13_17  and  C14_18 
REMARK   14  A    between atoms: C14_18  and  C15_19 
REMARK   15  A    between atoms: C15_19  and  C16_20 
REMARK   16  A    between atoms: C16_20  and  N2_21 
REMARK   17  A    between atoms: N2_21  and  C17_23 
ROOT
HETATM    1  C11 UNL     1      -6.403   0.806  18.708  1.00  0.00    -0.031 C 
HETATM    2  C12 UNL     1      -5.401   0.486  19.699  1.00  0.00    -0.031 C 
ENDROOT
BRANCH   1   3
HETATM    3  C10 UNL     1      -7.726   1.347  19.000  1.00  0.00     0.027 C 
BRANCH   3   4
HETATM    4  C9  UNL     1      -8.642   1.583  17.863  1.00  0.00     0.004 C 
BRANCH   4   5
HETATM    5  C8  UNL     1      -8.022   1.206  16.549  1.00  0.00     0.000 C 
BRANCH   5   6
HETATM    6  C7  UNL     1      -9.004   1.256  15.414  1.00  0.00     0.000 C 
BRANCH   6   7
HETATM    7  C6  UNL     1      -9.478   2.700  15.222  1.00  0.00     0.000 C 
BRANCH   7   8
HETATM    8  C5  UNL     1      -9.856   2.898  13.803  1.00  0.00     0.000 C 
BRANCH   8   9
HETATM    9  C4  UNL     1     -10.523   1.643  13.196  1.00  0.00     0.000 C 
BRANCH   9  10
HETATM   10  C3  UNL     1      -9.923   1.341  11.865  1.00  0.00     0.002 C 
BRANCH  10  11
HETATM   11  C2  UNL     1      -9.695  -0.116  11.616  1.00  0.00     0.027 C 
BRANCH  11  12
HETATM   12  C1  UNL     1     -10.334  -1.079  12.547  1.00  0.00     0.229 C 
BRANCH  12  13
HETATM   13  N1  UNL     1     -10.522  -2.410  12.092  1.00  0.00    -0.079 N 
ATOM     14  H13 UNL     1      -9.942  -2.568  11.267  1.00  0.00     0.274 HD
ATOM     15  H12 UNL     1     -10.092  -3.056  12.755  1.00  0.00     0.274 HD
ATOM     16  H11 UNL     1     -11.475  -2.714  11.896  1.00  0.00     0.274 HD
ENDBRANCH  12  13
ENDBRANCH  11  12
ENDBRANCH  10  11
ENDBRANCH   9  10
ENDBRANCH   8   9
ENDBRANCH   7   8
ENDBRANCH   6   7
ENDBRANCH   5   6
ENDBRANCH   4   5
ENDBRANCH   3   4
ENDBRANCH   1   3
BRANCH   2  17
HETATM   17  C13 UNL     1      -5.598  -0.546  20.748  1.00  0.00     0.027 C 
BRANCH  17  18
HETATM   18  C14 UNL     1      -5.995  -0.030  22.072  1.00  0.00     0.005 C 
BRANCH  18  19
HETATM   19  C15 UNL     1      -5.280  -0.690  23.233  1.00  0.00     0.020 C 
BRANCH  19  20
HETATM   20  C16 UNL     1      -4.544   0.364  24.009  1.00  0.00     0.121 C 
BRANCH  20  21
HETATM   21  N2  UNL     1      -3.936   1.356  23.182  1.00  0.00    -0.376 N 
ATOM     22  H2  UNL     1      -4.465   2.190  22.927  1.00  0.00     0.161 HD
BRANCH  21  23
HETATM   23  C17 UNL     1      -2.738   1.217  22.758  1.00  0.00     0.100 A 
HETATM   24  C18 UNL     1      -2.408   1.521  21.469  1.00  0.00     0.048 A 
HETATM   25  C19 UNL     1      -1.080   1.342  21.083  1.00  0.00     0.005 A 
HETATM   26  C20 UNL     1      -0.144   0.874  21.975  1.00  0.00     0.017 A 
HETATM   27  C21 UNL     1      -0.561   0.591  23.256  1.00  0.00     0.089 A 
HETATM   28  N3  UNL     1      -1.832   0.755  23.650  1.00  0.00    -0.353 N 
ATOM     29  H3  UNL     1      -2.111   0.537  24.607  1.00  0.00     0.166 HD
ENDBRANCH  21  23
ENDBRANCH  20  21
ENDBRANCH  19  20
ENDBRANCH  18  19
ENDBRANCH  17  18
ENDBRANCH   2  17
TORSDOF 17
ENDMDL
MODEL 5
REMARK VINA RESULT: -7.685194375      1.384      2.336
REMARK  17 active torsions:
REMARK  status: ('A' for Active; 'I' for Inactive)
REMARK    1  A    between atoms: N1_1  and  C1_5 
REMARK    2  A    between atoms: C1_5  and  C2_6 
REMARK    3  A    between atoms: C2_6  and  C3_7 
REMARK    4  A    between atoms: C3_7  and  C4_8 
REMARK    5  A    between atoms: C4_8  and  C5_9 
REMARK    6  A    between atoms: C5_9  and  C6_10 
REMARK    7  A    between atoms: C6_10  and  C7_11 
REMARK    8  A    between atoms: C7_11  and  C8_12 
REMARK    9  A    between atoms: C8_12  and  C9_13 
REMARK   10  A    between atoms: C9_13  and  C10_14 
REMARK   11  A    between atoms: C10_14  and  C11_15 
REMARK   12  A    between atoms: C12_16  and  C13_17 
REMARK   13  A    between atoms: C13_17  and  C14_18 
REMARK   14  A    between atoms: C14_18  and  C15_19 
REMARK   15  A    between atoms: C15_19  and  C16_20 
REMARK   16  A    between atoms: C16_20  and  N2_21 
REMARK   17  A    between atoms: N2_21  and  C17_23 
ROOT
HETATM    1  C11 UNL     1      -8.084   1.181  17.369  1.00  0.00    -0.031 C 
HETATM    2  C12 UNL     1      -6.834   1.238  18.091  1.00  0.00    -0.031 C 
ENDROOT
BRANCH   1   3
HETATM    3  C10 UNL     1      -9.286   1.932  17.714  1.00  0.00     0.027 C 
BRANCH   3   4
HETATM    4  C9  UNL     1     -10.404   1.929  16.746  1.00  0.00     0.004 C 
BRANCH   4   5
HETATM    5  C8  UNL     1      -9.938   1.674  15.342  1.00  0.00     0.000 C 
BRANCH   5   6
HETATM    6  C7  UNL     1      -9.491   2.927  14.648  1.00  0.00     0.000 C 
BRANCH   6   7
HETATM    7  C6  UNL     1     -10.238   3.060  13.318  1.00  0.00     0.000 C 
BRANCH   7   8
HETATM    8  C5  UNL     1     -10.589   1.709  12.824  1.00  0.00     0.000 C 
BRANCH   8   9
HETATM    9  C4  UNL     1      -9.541   1.161  11.829  1.00  0.00     0.000 C 
BRANCH   9  10
HETATM   10  C3  UNL     1      -9.867  -0.249  11.469  1.00  0.00     0.002 C 
BRANCH  10  11
HETATM   11  C2  UNL     1      -9.457  -1.251  12.499  1.00  0.00     0.027 C 
BRANCH  11  12
HETATM   12  C1  UNL     1      -9.738  -2.681  12.215  1.00  0.00     0.229 C 
BRANCH  12  13
HETATM   13  N1  UNL     1      -9.013  -3.654  12.952  1.00  0.00    -0.079 N 
ATOM     14  H13 UNL     1      -8.681  -4.379  12.315  1.00  0.00     0.274 HD
ATOM     15  H12 UNL     1      -8.129  -3.250  13.262  1.00  0.00     0.274 HD
ATOM     16  H11 UNL     1      -9.480  -4.092  13.746  1.00  0.00     0.274 HD
ENDBRANCH  12  13
ENDBRANCH  11  12
ENDBRANCH  10  11
ENDBRANCH   9  10
ENDBRANCH   8   9
ENDBRANCH   7   8
ENDBRANCH   6   7
ENDBRANCH   5   6
ENDBRANCH   4   5
ENDBRANCH   3   4
ENDBRANCH   1   3
BRANCH   2  17
HETATM   17  C13 UNL     1      -6.697   0.818  19.508  1.00  0.00     0.027 C 
BRANCH  17  18
HETATM   18  C14 UNL     1      -5.329   0.454  19.928  1.00  0.00     0.005 C 
BRANCH  18  19
HETATM   19  C15 UNL     1      -5.276  -0.585  21.029  1.00  0.00     0.020 C 
BRANCH  19  20
HETATM   20  C16 UNL     1      -5.166   0.118  22.351  1.00  0.00     0.121 C 
BRANCH  20  21
HETATM   21  N2  UNL     1      -4.242   1.207  22.340  1.00  0.00    -0.376 N 
ATOM     22  H2  UNL     1      -4.595   2.164  22.344  1.00  0.00     0.161 HD
BRANCH  21  23
HETATM   23  C17 UNL     1      -2.980   1.001  22.326  1.00  0.00     0.100 A 
HETATM   24  C18 UNL     1      -2.194   1.519  21.339  1.00  0.00     0.048 A 
HETATM   25  C19 UNL     1      -0.827   1.250  21.394  1.00  0.00     0.005 A 
HETATM   26  C20 UNL     1      -0.299   0.489  22.411  1.00  0.00     0.017 A 
HETATM   27  C21 UNL     1      -1.164   0.005  23.367  1.00  0.00     0.089 A 
HETATM   28  N3  UNL     1      -2.481   0.250  23.335  1.00  0.00    -0.353 N 
ATOM     29  H3  UNL     1      -3.097  -0.122  24.058  1.00  0.00     0.166 HD
ENDBRANCH  21  23
ENDBRANCH  20  21
ENDBRANCH  19  20
ENDBRANCH  18  19
ENDBRANCH  17  18
ENDBRANCH   2  17
TORSDOF 17
ENDMDL
