MODEL 1
REMARK VINA RESULT: -7.976649520      0.000      0.000
REMARK  18 active torsions:
REMARK  status: ('A' for Active; 'I' for Inactive)
REMARK    1  A    between atoms: N1_1  and  C1_5 
REMARK    2  A    between atoms: C1_5  and  C2_6 
REMARK    3  A    between atoms: C2_6  and  C3_7 
REMARK    4  A    between atoms: C3_7  and  C4_8 
REMARK    5  A    between atoms: C4_8  and  C5_9 
REMARK    6  A    between atoms: C5_9  and  C6_10 
REMARK    7  A    between atoms: C6_10  and  C7_11 
REMARK    8  A    between atoms: C7_11  and  C8_12 
REMARK    9  A    between atoms: C8_12  and  C9_13 
REMARK   10  A    between atoms: C9_13  and  C10_14 
REMARK   11  A    between atoms: C10_14  and  C11_15 
REMARK   12  A    between atoms: C11_15  and  C12_16 
REMARK   13  A    between atoms: C12_16  and  C13_17 
REMARK   14  A    between atoms: C13_17  and  C14_18 
REMARK   15  A    between atoms: C14_18  and  C15_19 
REMARK   16  A    between atoms: C15_19  and  C16_20 
REMARK   17  A    between atoms: C16_20  and  N2_21 
REMARK   18  A    between atoms: N2_21  and  C17_23 
ROOT
HETATM    1  C11 UNL     1      -7.673   1.520  19.173  1.00  0.00     0.000 C 
ENDROOT
BRANCH   1   2
HETATM    2  C10 UNL     1      -8.589   1.513  17.986  1.00  0.00     0.000 C 
BRANCH   2   3
HETATM    3  C9  UNL     1      -7.895   1.169  16.697  1.00  0.00     0.004 C 
BRANCH   3   4
HETATM    4  C8  UNL     1      -8.792   1.295  15.495  1.00  0.00     0.027 C 
BRANCH   4   5
HETATM    5  C7  UNL     1      -9.518   2.559  15.352  1.00  0.00    -0.031 C 
BRANCH   5   6
HETATM    6  C6  UNL     1      -9.569   3.313  14.101  1.00  0.00    -0.031 C 
BRANCH   6   7
HETATM    7  C5  UNL     1     -10.420   2.910  12.966  1.00  0.00     0.027 C 
BRANCH   7   8
HETATM    8  C4  UNL     1      -9.879   1.965  11.979  1.00  0.00     0.004 C 
BRANCH   8   9
HETATM    9  C3  UNL     1     -10.356   0.530  12.230  1.00  0.00     0.002 C 
BRANCH   9  10
HETATM   10  C2  UNL     1      -9.399  -0.491  11.709  1.00  0.00     0.027 C 
BRANCH  10  11
HETATM   11  C1  UNL     1      -9.858  -1.842  12.260  1.00  0.00     0.229 C 
BRANCH  11  12
HETATM   12  N1  UNL     1     -11.173  -1.739  12.853  1.00  0.00    -0.079 N 
ATOM     13  H13 UNL     1     -11.146  -1.241  13.743  1.00  0.00     0.274 HD
ATOM     14  H12 UNL     1     -11.771  -1.098  12.333  1.00  0.00     0.274 HD
ATOM     15  H11 UNL     1     -11.603  -2.659  12.950  1.00  0.00     0.274 HD
ENDBRANCH  11  12
ENDBRANCH  10  11
ENDBRANCH   9  10
ENDBRANCH   8   9
ENDBRANCH   7   8
ENDBRANCH   6   7
ENDBRANCH   5   6
ENDBRANCH   4   5
ENDBRANCH   3   4
ENDBRANCH   2   3
ENDBRANCH   1   2
BRANCH   1  16
HETATM   16  C12 UNL     1      -6.398   0.780  18.735  1.00  0.00     0.000 C 
BRANCH  16  17
HETATM   17  C13 UNL     1      -5.591   0.353  19.916  1.00  0.00     0.000 C 
BRANCH  17  18
HETATM   18  C14 UNL     1      -5.271  -1.101  19.847  1.00  0.00     0.002 C 
BRANCH  18  19
HETATM   19  C15 UNL     1      -5.314  -1.759  21.185  1.00  0.00     0.020 C 
BRANCH  19  20
HETATM   20  C16 UNL     1      -5.893  -0.803  22.210  1.00  0.00     0.121 C 
BRANCH  20  21
HETATM   21  N2  UNL     1      -4.948  -0.502  23.257  1.00  0.00    -0.380 N 
ATOM     22  H2  UNL     1      -5.123  -0.839  24.204  1.00  0.00     0.160 HD
BRANCH  21  23
HETATM   23  C17 UNL     1      -3.777   0.257  22.989  1.00  0.00     0.072 C 
HETATM   24  N3  UNL     1      -3.807   1.556  23.063  1.00  0.00    -0.380 N 
HETATM   25  C18 UNL     1      -2.600   2.273  22.784  1.00  0.00     0.121 C 
ATOM     26  H3  UNL     1      -4.665   2.049  23.312  1.00  0.00     0.160 HD
HETATM   27  C19 UNL     1      -1.913   1.831  21.533  1.00  0.00     0.020 C 
HETATM   28  C20 UNL     1      -1.807   0.336  21.484  1.00  0.00     0.009 C 
HETATM   29  C21 UNL     1      -2.484  -0.362  22.619  1.00  0.00     0.076 C 
ENDBRANCH  21  23
ENDBRANCH  20  21
ENDBRANCH  19  20
ENDBRANCH  18  19
ENDBRANCH  17  18
ENDBRANCH  16  17
ENDBRANCH   1  16
TORSDOF 18
ENDMDL
MODEL 2
REMARK VINA RESULT: -7.876718668      0.637      1.264
REMARK  18 active torsions:
REMARK  status: ('A' for Active; 'I' for Inactive)
REMARK    1  A    between atoms: N1_1  and  C1_5 
REMARK    2  A    between atoms: C1_5  and  C2_6 
REMARK    3  A    between atoms: C2_6  and  C3_7 
REMARK    4  A    between atoms: C3_7  and  C4_8 
REMARK    5  A    between atoms: C4_8  and  C5_9 
REMARK    6  A    between atoms: C5_9  and  C6_10 
REMARK    7  A    between atoms: C6_10  and  C7_11 
REMARK    8  A    between atoms: C7_11  and  C8_12 
REMARK    9  A    between atoms: C8_12  and  C9_13 
REMARK   10  A    between atoms: C9_13  and  C10_14 
REMARK   11  A    between atoms: C10_14  and  C11_15 
REMARK   12  A    between atoms: C11_15  and  C12_16 
REMARK   13  A    between atoms: C12_16  and  C13_17 
REMARK   14  A    between atoms: C13_17  and  C14_18 
REMARK   15  A    between atoms: C14_18  and  C15_19 
REMARK   16  A    between atoms: C15_19  and  C16_20 
REMARK   17  A    between atoms: C16_20  and  N2_21 
REMARK   18  A    between atoms: N2_21  and  C17_23 
ROOT
HETATM    1  C11 UNL     1      -6.306   0.772  18.765  1.00  0.00     0.000 C 
ENDROOT
BRANCH   1   2
HETATM    2  C10 UNL     1      -7.579   1.472  19.135  1.00  0.00     0.000 C 
BRANCH   2   3
HETATM    3  C9  UNL     1      -8.583   1.517  18.016  1.00  0.00     0.004 C 
BRANCH   3   4
HETATM    4  C8  UNL     1      -7.989   1.161  16.680  1.00  0.00     0.027 C 
BRANCH   4   5
HETATM    5  C7  UNL     1      -8.831   1.398  15.506  1.00  0.00    -0.031 C 
BRANCH   5   6
HETATM    6  C6  UNL     1      -9.417   2.699  15.192  1.00  0.00    -0.031 C 
BRANCH   6   7
HETATM    7  C5  UNL     1      -9.791   3.090  13.820  1.00  0.00     0.027 C 
BRANCH   7   8
HETATM    8  C4  UNL     1     -10.658   2.193  13.042  1.00  0.00     0.004 C 
BRANCH   8   9
HETATM    9  C3  UNL     1      -9.888   1.456  11.941  1.00  0.00     0.002 C 
BRANCH   9  10
HETATM   10  C2  UNL     1      -9.908  -0.026  12.122  1.00  0.00     0.027 C 
BRANCH  10  11
HETATM   11  C1  UNL     1     -11.018  -0.329  13.129  1.00  0.00     0.229 C 
BRANCH  11  12
HETATM   12  N1  UNL     1     -11.451  -1.705  13.025  1.00  0.00    -0.079 N 
ATOM     13  H13 UNL     1     -11.039  -2.168  12.215  1.00  0.00     0.274 HD
ATOM     14  H12 UNL     1     -11.043  -2.284  13.759  1.00  0.00     0.274 HD
ATOM     15  H11 UNL     1     -12.469  -1.769  13.018  1.00  0.00     0.274 HD
ENDBRANCH  11  12
ENDBRANCH  10  11
ENDBRANCH   9  10
ENDBRANCH   8   9
ENDBRANCH   7   8
ENDBRANCH   6   7
ENDBRANCH   5   6
ENDBRANCH   4   5
ENDBRANCH   3   4
ENDBRANCH   2   3
ENDBRANCH   1   2
BRANCH   1  16
HETATM   16  C12 UNL     1      -5.609   0.417  20.089  1.00  0.00     0.000 C 
BRANCH  16  17
HETATM   17  C13 UNL     1      -5.177  -1.012  20.103  1.00  0.00     0.000 C 
BRANCH  17  18
HETATM   18  C14 UNL     1      -5.511  -1.659  21.403  1.00  0.00     0.002 C 
BRANCH  18  19
HETATM   19  C15 UNL     1      -6.163  -0.717  22.359  1.00  0.00     0.020 C 
BRANCH  19  20
HETATM   20  C16 UNL     1      -5.675  -0.995  23.766  1.00  0.00     0.121 C 
BRANCH  20  21
HETATM   21  N2  UNL     1      -4.900   0.103  24.292  1.00  0.00    -0.380 N 
ATOM     22  H2  UNL     1      -5.182   0.542  25.169  1.00  0.00     0.160 HD
BRANCH  21  23
HETATM   23  C17 UNL     1      -3.750   0.580  23.607  1.00  0.00     0.072 C 
HETATM   24  N3  UNL     1      -3.668   1.831  23.258  1.00  0.00    -0.380 N 
HETATM   25  C18 UNL     1      -2.488   2.260  22.571  1.00  0.00     0.121 C 
ATOM     26  H3  UNL     1      -4.421   2.486  23.468  1.00  0.00     0.160 HD
HETATM   27  C19 UNL     1      -2.094   1.369  21.439  1.00  0.00     0.020 C 
HETATM   28  C20 UNL     1      -2.111  -0.069  21.862  1.00  0.00     0.009 C 
HETATM   29  C21 UNL     1      -2.604  -0.289  23.256  1.00  0.00     0.076 C 
ENDBRANCH  21  23
ENDBRANCH  20  21
ENDBRANCH  19  20
ENDBRANCH  18  19
ENDBRANCH  17  18
ENDBRANCH  16  17
ENDBRANCH   1  16
TORSDOF 18
ENDMDL
MODEL 3
REMARK VINA RESULT: -7.844902716      0.922      1.357
REMARK  18 active torsions:
REMARK  status: ('A' for Active; 'I' for Inactive)
REMARK    1  A    between atoms: N1_1  and  C1_5 
REMARK    2  A    between atoms: C1_5  and  C2_6 
REMARK    3  A    between atoms: C2_6  and  C3_7 
REMARK    4  A    between atoms: C3_7  and  C4_8 
REMARK    5  A    between atoms: C4_8  and  C5_9 
REMARK    6  A    between atoms: C5_9  and  C6_10 
REMARK    7  A    between atoms: C6_10  and  C7_11 
REMARK    8  A    between atoms: C7_11  and  C8_12 
REMARK    9  A    between atoms: C8_12  and  C9_13 
REMARK   10  A    between atoms: C9_13  and  C10_14 
REMARK   11  A    between atoms: C10_14  and  C11_15 
REMARK   12  A    between atoms: C11_15  and  C12_16 
REMARK   13  A    between atoms: C12_16  and  C13_17 
REMARK   14  A    between atoms: C13_17  and  C14_18 
REMARK   15  A    between atoms: C14_18  and  C15_19 
REMARK   16  A    between atoms: C15_19  and  C16_20 
REMARK   17  A    between atoms: C16_20  and  N2_21 
REMARK   18  A    between atoms: N2_21  and  C17_23 
ROOT
HETATM    1  C11 UNL     1      -8.697   1.567  17.815  1.00  0.00     0.000 C 
ENDROOT
BRANCH   1   2
HETATM    2  C10 UNL     1      -7.919   1.165  16.598  1.00  0.00     0.000 C 
BRANCH   2   3
HETATM    3  C9  UNL     1      -8.731   1.203  15.331  1.00  0.00     0.004 C 
BRANCH   3   4
HETATM    4  C8  UNL     1     -10.185   1.507  15.575  1.00  0.00     0.027 C 
BRANCH   4   5
HETATM    5  C7  UNL     1     -11.043   1.591  14.392  1.00  0.00    -0.031 C 
BRANCH   5   6
HETATM    6  C6  UNL     1     -10.796   2.518  13.290  1.00  0.00    -0.031 C 
BRANCH   6   7
HETATM    7  C5  UNL     1     -10.467   2.061  11.927  1.00  0.00     0.027 C 
BRANCH   7   8
HETATM    8  C4  UNL     1      -9.347   1.126  11.748  1.00  0.00     0.004 C 
BRANCH   8   9
HETATM    9  C3  UNL     1      -9.825  -0.312  11.516  1.00  0.00     0.002 C 
BRANCH   9  10
HETATM   10  C2  UNL     1      -9.405  -1.239  12.608  1.00  0.00     0.027 C 
BRANCH  10  11
HETATM   11  C1  UNL     1      -9.744  -2.654  12.136  1.00  0.00     0.229 C 
BRANCH  11  12
HETATM   12  N1  UNL     1      -9.062  -3.644  12.939  1.00  0.00    -0.079 N 
ATOM     13  H13 UNL     1      -9.041  -4.554  12.477  1.00  0.00     0.274 HD
ATOM     14  H12 UNL     1      -8.059  -3.469  12.982  1.00  0.00     0.274 HD
ATOM     15  H11 UNL     1      -9.473  -3.705  13.871  1.00  0.00     0.274 HD
ENDBRANCH  11  12
ENDBRANCH  10  11
ENDBRANCH   9  10
ENDBRANCH   8   9
ENDBRANCH   7   8
ENDBRANCH   6   7
ENDBRANCH   5   6
ENDBRANCH   4   5
ENDBRANCH   3   4
ENDBRANCH   2   3
ENDBRANCH   1   2
BRANCH   1  16
HETATM   16  C12 UNL     1      -7.730   1.439  19.004  1.00  0.00     0.000 C 
BRANCH  16  17
HETATM   17  C13 UNL     1      -6.476   0.734  18.604  1.00  0.00     0.000 C 
BRANCH  17  18
HETATM   18  C14 UNL     1      -5.510   0.676  19.737  1.00  0.00     0.002 C 
BRANCH  18  19
HETATM   19  C15 UNL     1      -5.270  -0.717  20.213  1.00  0.00     0.020 C 
BRANCH  19  20
HETATM   20  C16 UNL     1      -5.679  -0.841  21.667  1.00  0.00     0.121 C 
BRANCH  20  21
HETATM   21  N2  UNL     1      -4.537  -0.978  22.536  1.00  0.00    -0.380 N 
ATOM     22  H2  UNL     1      -4.482  -1.773  23.174  1.00  0.00     0.160 HD
BRANCH  21  23
HETATM   23  C17 UNL     1      -3.486  -0.021  22.518  1.00  0.00     0.072 C 
HETATM   24  N3  UNL     1      -3.720   1.216  22.847  1.00  0.00    -0.380 N 
HETATM   25  C18 UNL     1      -2.626   2.139  22.813  1.00  0.00     0.121 C 
ATOM     26  H3  UNL     1      -4.654   1.519  23.122  1.00  0.00     0.160 HD
HETATM   27  C19 UNL     1      -1.822   2.071  21.556  1.00  0.00     0.020 C 
HETATM   28  C20 UNL     1      -1.483   0.650  21.217  1.00  0.00     0.009 C 
HETATM   29  C21 UNL     1      -2.096  -0.359  22.134  1.00  0.00     0.076 C 
ENDBRANCH  21  23
ENDBRANCH  20  21
ENDBRANCH  19  20
ENDBRANCH  18  19
ENDBRANCH  17  18
ENDBRANCH  16  17
ENDBRANCH   1  16
TORSDOF 18
ENDMDL
MODEL 4
REMARK VINA RESULT: -7.730762926      1.137      2.053
REMARK  18 active torsions:
REMARK  status: ('A' for Active; 'I' for Inactive)
REMARK    1  A    between atoms: N1_1  and  C1_5 
REMARK    2  A    between atoms: C1_5  and  C2_6 
REMARK    3  A    between atoms: C2_6  and  C3_7 
REMARK    4  A    between atoms: C3_7  and  C4_8 
REMARK    5  A    between atoms: C4_8  and  C5_9 
REMARK    6  A    between atoms: C5_9  and  C6_10 
REMARK    7  A    between atoms: C6_10  and  C7_11 
REMARK    8  A    between atoms: C7_11  and  C8_12 
REMARK    9  A    between atoms: C8_12  and  C9_13 
REMARK   10  A    between atoms: C9_13  and  C10_14 
REMARK   11  A    between atoms: C10_14  and  C11_15 
REMARK   12  A    between atoms: C11_15  and  C12_16 
REMARK   13  A    between atoms: C12_16  and  C13_17 
REMARK   14  A    between atoms: C13_17  and  C14_18 
REMARK   15  A    between atoms: C14_18  and  C15_19 
REMARK   16  A    between atoms: C15_19  and  C16_20 
REMARK   17  A    between atoms: C16_20  and  N2_21 
REMARK   18  A    between atoms: N2_21  and  C17_23 
ROOT
HETATM    1  C11 UNL     1      -7.734   1.131  16.795  1.00  0.00     0.000 C 
ENDROOT
BRANCH   1   2
HETATM    2  C10 UNL     1      -8.557   1.707  15.682  1.00  0.00     0.000 C 
BRANCH   2   3
HETATM    3  C9  UNL     1     -10.037   1.508  15.868  1.00  0.00     0.004 C 
BRANCH   3   4
HETATM    4  C8  UNL     1     -10.835   1.860  14.642  1.00  0.00     0.027 C 
BRANCH   4   5
HETATM    5  C7  UNL     1     -10.223   2.816  13.716  1.00  0.00    -0.031 C 
BRANCH   5   6
HETATM    6  C6  UNL     1     -10.095   2.568  12.282  1.00  0.00    -0.031 C 
BRANCH   6   7
HETATM    7  C5  UNL     1     -10.276   1.230  11.689  1.00  0.00     0.027 C 
BRANCH   7   8
HETATM    8  C4  UNL     1      -9.109   0.343  11.580  1.00  0.00     0.004 C 
BRANCH   8   9
HETATM    9  C3  UNL     1      -9.120  -0.761  12.643  1.00  0.00     0.002 C 
BRANCH   9  10
HETATM   10  C2  UNL     1     -10.218  -1.750  12.429  1.00  0.00     0.027 C 
BRANCH  10  11
HETATM   11  C1  UNL     1      -9.555  -3.045  11.956  1.00  0.00     0.229 C 
BRANCH  11  12
HETATM   12  N1  UNL     1      -9.001  -3.780  13.071  1.00  0.00    -0.079 N 
ATOM     13  H13 UNL     1      -7.998  -3.622  13.165  1.00  0.00     0.274 HD
ATOM     14  H12 UNL     1      -9.304  -3.393  13.965  1.00  0.00     0.274 HD
ATOM     15  H11 UNL     1      -9.220  -4.774  12.999  1.00  0.00     0.274 HD
ENDBRANCH  11  12
ENDBRANCH  10  11
ENDBRANCH   9  10
ENDBRANCH   8   9
ENDBRANCH   7   8
ENDBRANCH   6   7
ENDBRANCH   5   6
ENDBRANCH   4   5
ENDBRANCH   3   4
ENDBRANCH   2   3
ENDBRANCH   1   2
BRANCH   1  16
HETATM   16  C12 UNL     1      -8.488   1.451  18.097  1.00  0.00     0.000 C 
BRANCH  16  17
HETATM   17  C13 UNL     1      -7.554   1.504  19.260  1.00  0.00     0.000 C 
BRANCH  17  18
HETATM   18  C14 UNL     1      -6.294   0.764  18.968  1.00  0.00     0.002 C 
BRANCH  18  19
HETATM   19  C15 UNL     1      -5.589   0.327  20.208  1.00  0.00     0.020 C 
BRANCH  19  20
HETATM   20  C16 UNL     1      -5.098  -1.098  20.046  1.00  0.00     0.121 C 
BRANCH  20  21
HETATM   21  N2  UNL     1      -4.235  -1.496  21.131  1.00  0.00    -0.380 N 
ATOM     22  H2  UNL     1      -4.217  -2.472  21.427  1.00  0.00     0.160 HD
BRANCH  21  23
HETATM   23  C17 UNL     1      -3.409  -0.548  21.793  1.00  0.00     0.072 C 
HETATM   24  N3  UNL     1      -3.660  -0.207  23.024  1.00  0.00    -0.380 N 
HETATM   25  C18 UNL     1      -2.797   0.752  23.645  1.00  0.00     0.121 C 
ATOM     26  H3  UNL     1      -4.448  -0.610  23.531  1.00  0.00     0.160 HD
HETATM   27  C19 UNL     1      -2.536   1.959  22.805  1.00  0.00     0.020 C 
HETATM   28  C20 UNL     1      -2.169   1.566  21.406  1.00  0.00     0.009 C 
HETATM   29  C21 UNL     1      -2.243   0.096  21.146  1.00  0.00     0.076 C 
ENDBRANCH  21  23
ENDBRANCH  20  21
ENDBRANCH  19  20
ENDBRANCH  18  19
ENDBRANCH  17  18
ENDBRANCH  16  17
ENDBRANCH   1  16
TORSDOF 18
ENDMDL
MODEL 5
REMARK VINA RESULT: -7.725058796      1.970      3.136
REMARK  18 active torsions:
REMARK  status: ('A' for Active; 'I' for Inactive)
REMARK    1  A    between atoms: N1_1  and  C1_5 
REMARK    2  A    between atoms: C1_5  and  C2_6 
REMARK    3  A    between atoms: C2_6  and  C3_7 
REMARK    4  A    between atoms: C3_7  and  C4_8 
REMARK    5  A    between atoms: C4_8  and  C5_9 
REMARK    6  A    between atoms: C5_9  and  C6_10 
REMARK    7  A    between atoms: C6_10  and  C7_11 
REMARK    8  A    between atoms: C7_11  and  C8_12 
REMARK    9  A    between atoms: C8_12  and  C9_13 
REMARK   10  A    between atoms: C9_13  and  C10_14 
REMARK   11  A    between atoms: C10_14  and  C11_15 
REMARK   12  A    between atoms: C11_15  and  C12_16 
REMARK   13  A    between atoms: C12_16  and  C13_17 
REMARK   14  A    between atoms: C13_17  and  C14_18 
REMARK   15  A    between atoms: C14_18  and  C15_19 
REMARK   16  A    between atoms: C15_19  and  C16_20 
REMARK   17  A    between atoms: C16_20  and  N2_21 
REMARK   18  A    between atoms: N2_21  and  C17_23 
ROOT
HETATM    1  C11 UNL     1      -7.897   1.108  16.703  1.00  0.00     0.000 C 
ENDROOT
BRANCH   1   2
HETATM    2  C10 UNL     1      -8.700   1.759  15.618  1.00  0.00     0.000 C 
BRANCH   2   3
HETATM    3  C9  UNL     1     -10.181   1.528  15.751  1.00  0.00     0.004 C 
BRANCH   3   4
HETATM    4  C8  UNL     1     -10.942   1.858  14.495  1.00  0.00     0.027 C 
BRANCH   4   5
HETATM    5  C7  UNL     1     -10.336   2.850  13.605  1.00  0.00    -0.031 C 
BRANCH   5   6
HETATM    6  C6  UNL     1      -9.923   2.549  12.237  1.00  0.00    -0.031 C 
BRANCH   6   7
HETATM    7  C5  UNL     1     -10.188   1.247  11.597  1.00  0.00     0.027 C 
BRANCH   7   8
HETATM    8  C4  UNL     1      -9.103   0.256  11.538  1.00  0.00     0.004 C 
BRANCH   8   9
HETATM    9  C3  UNL     1      -9.170  -0.742  12.699  1.00  0.00     0.002 C 
BRANCH   9  10
HETATM   10  C2  UNL     1     -10.247  -1.760  12.518  1.00  0.00     0.027 C 
BRANCH  10  11
HETATM   11  C1  UNL     1      -9.567  -3.030  12.002  1.00  0.00     0.229 C 
BRANCH  11  12
HETATM   12  N1  UNL     1      -8.955  -3.766  13.086  1.00  0.00    -0.079 N 
ATOM     13  H13 UNL     1      -8.594  -3.143  13.808  1.00  0.00     0.274 HD
ATOM     14  H12 UNL     1      -9.651  -4.262  13.643  1.00  0.00     0.274 HD
ATOM     15  H11 UNL     1      -8.233  -4.397  12.738  1.00  0.00     0.274 HD
ENDBRANCH  11  12
ENDBRANCH  10  11
ENDBRANCH   9  10
ENDBRANCH   8   9
ENDBRANCH   7   8
ENDBRANCH   6   7
ENDBRANCH   5   6
ENDBRANCH   4   5
ENDBRANCH   3   4
ENDBRANCH   2   3
ENDBRANCH   1   2
BRANCH   1  16
HETATM   16  C12 UNL     1      -8.577   1.488  18.029  1.00  0.00     0.000 C 
BRANCH  16  17
HETATM   17  C13 UNL     1      -7.600   1.479  19.157  1.00  0.00     0.000 C 
BRANCH  17  18
HETATM   18  C14 UNL     1      -6.367   0.727  18.791  1.00  0.00     0.002 C 
BRANCH  18  19
HETATM   19  C15 UNL     1      -5.339   0.757  19.871  1.00  0.00     0.020 C 
BRANCH  19  20
HETATM   20  C16 UNL     1      -5.921   0.194  21.152  1.00  0.00     0.121 C 
BRANCH  20  21
HETATM   21  N2  UNL     1      -4.938  -0.538  21.913  1.00  0.00    -0.380 N 
ATOM     22  H2  UNL     1      -4.333  -0.038  22.565  1.00  0.00     0.160 HD
BRANCH  21  23
HETATM   23  C17 UNL     1      -4.800  -1.945  21.767  1.00  0.00     0.072 C 
HETATM   24  N3  UNL     1      -4.773  -2.712  22.818  1.00  0.00    -0.380 N 
HETATM   25  C18 UNL     1      -4.633  -4.122  22.616  1.00  0.00     0.121 C 
ATOM     26  H3  UNL     1      -4.848  -2.321  23.757  1.00  0.00     0.160 HD
HETATM   27  C19 UNL     1      -3.541  -4.489  21.666  1.00  0.00     0.020 C 
HETATM   28  C20 UNL     1      -3.619  -3.659  20.419  1.00  0.00     0.009 C 
HETATM   29  C21 UNL     1      -4.683  -2.611  20.450  1.00  0.00     0.076 C 
ENDBRANCH  21  23
ENDBRANCH  20  21
ENDBRANCH  19  20
ENDBRANCH  18  19
ENDBRANCH  17  18
ENDBRANCH  16  17
ENDBRANCH   1  16
TORSDOF 18
ENDMDL
