MODEL 1
REMARK VINA RESULT: -8.550677857      0.000      0.000
REMARK  13 active torsions:
REMARK  status: ('A' for Active; 'I' for Inactive)
REMARK    1  A    between atoms: C2_2  and  C3_3 
REMARK    2  A    between atoms: C3_3  and  C4_4 
REMARK    3  A    between atoms: C4_4  and  C15_19 
REMARK    4  A    between atoms: C5_5  and  C6_6 
REMARK    5  A    between atoms: C6_6  and  C7_7 
REMARK    6  A    between atoms: C7_7  and  C8_8 
REMARK    7  A    between atoms: C8_8  and  C10_10 
REMARK    8  A    between atoms: C10_10  and  C11_12 
REMARK    9  A    between atoms: C11_12  and  O2_13 
REMARK   10  A    between atoms: C11_12  and  C13_15 
REMARK   11  A    between atoms: C13_15  and  O3_17 
REMARK   12  A    between atoms: C15_19  and  C16_20 
REMARK   13  A    between atoms: C16_20  and  C17_21 
ROOT
HETATM    1  C6  UNL     1      -7.108   0.982  19.073  1.00  0.00     0.028 C 
ENDROOT
BRANCH   1   2
HETATM    2  C5  UNL     1      -7.372   0.960  17.630  1.00  0.00    -0.024 C 
HETATM    3  C4  UNL     1      -8.550   1.171  17.057  1.00  0.00    -0.080 C 
BRANCH   3   4
HETATM    4  C3  UNL     1      -9.728   1.459  17.900  1.00  0.00     0.060 C 
BRANCH   4   5
HETATM    5  C2  UNL     1      -9.944   2.953  17.895  1.00  0.00    -0.033 C 
HETATM    6  C1  UNL     1     -11.098   3.472  18.262  1.00  0.00     0.007 C 
ENDBRANCH   4   5
ENDBRANCH   3   4
BRANCH   3   7
HETATM    7  C15 UNL     1      -8.629   1.026  15.589  1.00  0.00     0.038 C 
BRANCH   7   8
HETATM    8  C16 UNL     1      -9.954   0.892  14.970  1.00  0.00     0.031 C 
BRANCH   8   9
HETATM    9  C17 UNL     1     -10.389   1.980  14.098  1.00  0.00    -0.024 C 
HETATM   10  C18 UNL     1     -10.387   1.845  12.755  1.00  0.00    -0.091 C 
HETATM   11  C19 UNL     1     -10.836   2.971  11.916  1.00  0.00     0.042 C 
HETATM   12  C20 UNL     1      -9.930   0.560  12.183  1.00  0.00     0.042 C 
ENDBRANCH   8   9
ENDBRANCH   7   8
ENDBRANCH   3   7
ENDBRANCH   1   2
BRANCH   1  13
HETATM   13  C7  UNL     1      -5.789   0.244  19.392  1.00  0.00     0.015 C 
BRANCH  13  14
HETATM   14  C8  UNL     1      -5.556   0.515  20.878  1.00  0.00     0.054 C 
HETATM   15  C9  UNL     1      -4.127   0.998  20.982  1.00  0.00     0.018 C 
BRANCH  14  16
HETATM   16  C10 UNL     1      -5.709  -0.684  21.697  1.00  0.00     0.161 C 
HETATM   17  O1  UNL     1      -6.798  -0.936  22.184  1.00  0.00    -0.295 OA
BRANCH  16  18
HETATM   18  C11 UNL     1      -4.624  -1.652  21.999  1.00  0.00     0.218 C 
BRANCH  18  19
HETATM   19  O2  UNL     1      -4.393  -1.816  23.337  1.00  0.00    -0.381 OA
HETATM   20  C12 UNL     1      -3.151  -1.367  23.761  1.00  0.00     0.202 C 
ENDBRANCH  18  19
BRANCH  18  21
HETATM   21  C13 UNL     1      -4.855  -2.995  21.362  1.00  0.00     0.150 C 
HETATM   22  C14 UNL     1      -3.699  -3.462  20.531  1.00  0.00     0.042 C 
BRANCH  21  23
HETATM   23  O3  UNL     1      -5.967  -2.895  20.524  1.00  0.00    -0.393 OA
ATOM     24  H3  UNL     1      -6.735  -3.155  21.017  1.00  0.00     0.210 HD
ENDBRANCH  21  23
ENDBRANCH  18  21
ENDBRANCH  16  18
ENDBRANCH  14  16
ENDBRANCH  13  14
ENDBRANCH   1  13
TORSDOF 13
ENDMDL
MODEL 2
REMARK VINA RESULT: -8.433319049      1.027      1.343
REMARK  13 active torsions:
REMARK  status: ('A' for Active; 'I' for Inactive)
REMARK    1  A    between atoms: C2_2  and  C3_3 
REMARK    2  A    between atoms: C3_3  and  C4_4 
REMARK    3  A    between atoms: C4_4  and  C15_19 
REMARK    4  A    between atoms: C5_5  and  C6_6 
REMARK    5  A    between atoms: C6_6  and  C7_7 
REMARK    6  A    between atoms: C7_7  and  C8_8 
REMARK    7  A    between atoms: C8_8  and  C10_10 
REMARK    8  A    between atoms: C10_10  and  C11_12 
REMARK    9  A    between atoms: C11_12  and  O2_13 
REMARK   10  A    between atoms: C11_12  and  C13_15 
REMARK   11  A    between atoms: C13_15  and  O3_17 
REMARK   12  A    between atoms: C15_19  and  C16_20 
REMARK   13  A    between atoms: C16_20  and  C17_21 
ROOT
HETATM    1  C6  UNL     1      -7.117   0.841  19.296  1.00  0.00     0.028 C 
ENDROOT
BRANCH   1   2
HETATM    2  C5  UNL     1      -7.236   0.899  17.834  1.00  0.00    -0.024 C 
HETATM    3  C4  UNL     1      -8.350   1.149  17.160  1.00  0.00    -0.080 C 
BRANCH   3   4
HETATM    4  C3  UNL     1      -9.606   1.400  17.896  1.00  0.00     0.060 C 
BRANCH   4   5
HETATM    5  C2  UNL     1      -9.864   2.886  17.876  1.00  0.00    -0.033 C 
HETATM    6  C1  UNL     1     -11.018   3.380  18.278  1.00  0.00     0.007 C 
ENDBRANCH   4   5
ENDBRANCH   3   4
BRANCH   3   7
HETATM    7  C15 UNL     1      -8.283   1.085  15.685  1.00  0.00     0.038 C 
BRANCH   7   8
HETATM    8  C16 UNL     1      -9.520   0.822  14.940  1.00  0.00     0.031 C 
BRANCH   8   9
HETATM    9  C17 UNL     1     -10.059   1.922  14.144  1.00  0.00    -0.024 C 
HETATM   10  C18 UNL     1     -10.254   1.796  12.814  1.00  0.00    -0.091 C 
HETATM   11  C19 UNL     1     -10.800   2.934  12.054  1.00  0.00     0.042 C 
HETATM   12  C20 UNL     1      -9.906   0.507  12.178  1.00  0.00     0.042 C 
ENDBRANCH   8   9
ENDBRANCH   7   8
ENDBRANCH   3   7
ENDBRANCH   1   2
BRANCH   1  13
HETATM   13  C7  UNL     1      -5.856   0.046  19.704  1.00  0.00     0.015 C 
BRANCH  13  14
HETATM   14  C8  UNL     1      -5.415   0.688  21.018  1.00  0.00     0.054 C 
HETATM   15  C9  UNL     1      -3.976   1.101  20.805  1.00  0.00     0.018 C 
BRANCH  14  16
HETATM   16  C10 UNL     1      -5.478  -0.240  22.144  1.00  0.00     0.161 C 
HETATM   17  O1  UNL     1      -5.666   0.198  23.266  1.00  0.00    -0.295 OA
BRANCH  16  18
HETATM   18  C11 UNL     1      -5.327  -1.714  22.040  1.00  0.00     0.218 C 
BRANCH  18  19
HETATM   19  O2  UNL     1      -4.027  -2.136  22.095  1.00  0.00    -0.381 OA
HETATM   20  C12 UNL     1      -3.502  -2.525  20.871  1.00  0.00     0.202 C 
ENDBRANCH  18  19
BRANCH  18  21
HETATM   21  C13 UNL     1      -6.138  -2.450  23.071  1.00  0.00     0.150 C 
HETATM   22  C14 UNL     1      -5.886  -3.927  23.075  1.00  0.00     0.042 C 
BRANCH  21  23
HETATM   23  O3  UNL     1      -7.490  -2.252  22.787  1.00  0.00    -0.393 OA
ATOM     24  H3  UNL     1      -7.609  -1.346  22.526  1.00  0.00     0.210 HD
ENDBRANCH  21  23
ENDBRANCH  18  21
ENDBRANCH  16  18
ENDBRANCH  14  16
ENDBRANCH  13  14
ENDBRANCH   1  13
TORSDOF 13
ENDMDL
MODEL 3
REMARK VINA RESULT: -8.413308500      1.221      1.430
REMARK  13 active torsions:
REMARK  status: ('A' for Active; 'I' for Inactive)
REMARK    1  A    between atoms: C2_2  and  C3_3 
REMARK    2  A    between atoms: C3_3  and  C4_4 
REMARK    3  A    between atoms: C4_4  and  C15_19 
REMARK    4  A    between atoms: C5_5  and  C6_6 
REMARK    5  A    between atoms: C6_6  and  C7_7 
REMARK    6  A    between atoms: C7_7  and  C8_8 
REMARK    7  A    between atoms: C8_8  and  C10_10 
REMARK    8  A    between atoms: C10_10  and  C11_12 
REMARK    9  A    between atoms: C11_12  and  O2_13 
REMARK   10  A    between atoms: C11_12  and  C13_15 
REMARK   11  A    between atoms: C13_15  and  O3_17 
REMARK   12  A    between atoms: C15_19  and  C16_20 
REMARK   13  A    between atoms: C16_20  and  C17_21 
ROOT
HETATM    1  C6  UNL     1      -6.999   0.752  19.143  1.00  0.00     0.028 C 
ENDROOT
BRANCH   1   2
HETATM    2  C5  UNL     1      -7.217   0.867  17.697  1.00  0.00    -0.024 C 
HETATM    3  C4  UNL     1      -8.368   1.173  17.112  1.00  0.00    -0.080 C 
BRANCH   3   4
HETATM    4  C3  UNL     1      -9.561   1.429  17.943  1.00  0.00     0.060 C 
BRANCH   4   5
HETATM    5  C2  UNL     1      -9.912   2.891  17.808  1.00  0.00    -0.033 C 
HETATM    6  C1  UNL     1     -11.041   3.365  18.294  1.00  0.00     0.007 C 
ENDBRANCH   4   5
ENDBRANCH   3   4
BRANCH   3   7
HETATM    7  C15 UNL     1      -8.405   1.162  15.635  1.00  0.00     0.038 C 
BRANCH   7   8
HETATM    8  C16 UNL     1      -9.689   0.907  14.970  1.00  0.00     0.031 C 
BRANCH   8   9
HETATM    9  C17 UNL     1     -10.231   1.984  14.145  1.00  0.00    -0.024 C 
HETATM   10  C18 UNL     1     -10.347   1.852  12.807  1.00  0.00    -0.091 C 
HETATM   11  C19 UNL     1     -10.901   2.966  12.017  1.00  0.00     0.042 C 
HETATM   12  C20 UNL     1      -9.908   0.581  12.191  1.00  0.00     0.042 C 
ENDBRANCH   8   9
ENDBRANCH   7   8
ENDBRANCH   3   7
ENDBRANCH   1   2
BRANCH   1  13
HETATM   13  C7  UNL     1      -5.819  -0.202  19.437  1.00  0.00     0.015 C 
BRANCH  13  14
HETATM   14  C8  UNL     1      -5.502   0.035  20.912  1.00  0.00     0.054 C 
HETATM   15  C9  UNL     1      -4.347   1.012  20.927  1.00  0.00     0.018 C 
BRANCH  14  16
HETATM   16  C10 UNL     1      -5.094  -1.186  21.601  1.00  0.00     0.161 C 
HETATM   17  O1  UNL     1      -4.403  -1.999  21.011  1.00  0.00    -0.295 OA
BRANCH  16  18
HETATM   18  C11 UNL     1      -5.459  -1.538  22.997  1.00  0.00     0.218 C 
BRANCH  18  19
HETATM   19  O2  UNL     1      -6.059  -0.516  23.680  1.00  0.00    -0.381 OA
HETATM   20  C12 UNL     1      -6.165  -0.728  25.047  1.00  0.00     0.202 C 
ENDBRANCH  18  19
BRANCH  18  21
HETATM   21  C13 UNL     1      -6.323  -2.768  23.075  1.00  0.00     0.150 C 
HETATM   22  C14 UNL     1      -5.556  -4.006  23.425  1.00  0.00     0.042 C 
BRANCH  21  23
HETATM   23  O3  UNL     1      -6.907  -2.971  21.824  1.00  0.00    -0.393 OA
ATOM     24  H3  UNL     1      -6.624  -2.272  21.247  1.00  0.00     0.210 HD
ENDBRANCH  21  23
ENDBRANCH  18  21
ENDBRANCH  16  18
ENDBRANCH  14  16
ENDBRANCH  13  14
ENDBRANCH   1  13
TORSDOF 13
ENDMDL
MODEL 4
REMARK VINA RESULT: -8.357612618      1.770      2.406
REMARK  13 active torsions:
REMARK  status: ('A' for Active; 'I' for Inactive)
REMARK    1  A    between atoms: C2_2  and  C3_3 
REMARK    2  A    between atoms: C3_3  and  C4_4 
REMARK    3  A    between atoms: C4_4  and  C15_19 
REMARK    4  A    between atoms: C5_5  and  C6_6 
REMARK    5  A    between atoms: C6_6  and  C7_7 
REMARK    6  A    between atoms: C7_7  and  C8_8 
REMARK    7  A    between atoms: C8_8  and  C10_10 
REMARK    8  A    between atoms: C10_10  and  C11_12 
REMARK    9  A    between atoms: C11_12  and  O2_13 
REMARK   10  A    between atoms: C11_12  and  C13_15 
REMARK   11  A    between atoms: C13_15  and  O3_17 
REMARK   12  A    between atoms: C15_19  and  C16_20 
REMARK   13  A    between atoms: C16_20  and  C17_21 
ROOT
HETATM    1  C6  UNL     1      -7.043   0.758  19.235  1.00  0.00     0.028 C 
ENDROOT
BRANCH   1   2
HETATM    2  C5  UNL     1      -7.202   0.880  17.781  1.00  0.00    -0.024 C 
HETATM    3  C4  UNL     1      -8.332   1.171  17.150  1.00  0.00    -0.080 C 
BRANCH   3   4
HETATM    4  C3  UNL     1      -9.563   1.405  17.930  1.00  0.00     0.060 C 
BRANCH   4   5
HETATM    5  C2  UNL     1      -9.869   2.882  17.878  1.00  0.00    -0.033 C 
HETATM    6  C1  UNL     1     -11.051   3.343  18.235  1.00  0.00     0.007 C 
ENDBRANCH   4   5
ENDBRANCH   3   4
BRANCH   3   7
HETATM    7  C15 UNL     1      -8.306   1.169  15.672  1.00  0.00     0.038 C 
BRANCH   7   8
HETATM    8  C16 UNL     1      -9.553   0.882  14.953  1.00  0.00     0.031 C 
BRANCH   8   9
HETATM    9  C17 UNL     1     -10.117   1.965  14.150  1.00  0.00    -0.024 C 
HETATM   10  C18 UNL     1     -10.291   1.835  12.818  1.00  0.00    -0.091 C 
HETATM   11  C19 UNL     1     -10.865   2.955  12.051  1.00  0.00     0.042 C 
HETATM   12  C20 UNL     1      -9.894   0.558  12.185  1.00  0.00     0.042 C 
ENDBRANCH   8   9
ENDBRANCH   7   8
ENDBRANCH   3   7
ENDBRANCH   1   2
BRANCH   1  13
HETATM   13  C7  UNL     1      -5.592   1.089  19.649  1.00  0.00     0.015 C 
BRANCH  13  14
HETATM   14  C8  UNL     1      -5.296   0.118  20.791  1.00  0.00     0.054 C 
HETATM   15  C9  UNL     1      -6.586   0.009  21.575  1.00  0.00     0.018 C 
BRANCH  14  16
HETATM   16  C10 UNL     1      -4.244   0.602  21.680  1.00  0.00     0.161 C 
HETATM   17  O1  UNL     1      -4.502   1.485  22.481  1.00  0.00    -0.295 OA
BRANCH  16  18
HETATM   18  C11 UNL     1      -2.846   0.102  21.695  1.00  0.00     0.218 C 
BRANCH  18  19
HETATM   19  O2  UNL     1      -2.734  -1.220  21.363  1.00  0.00    -0.381 OA
HETATM   20  C12 UNL     1      -2.855  -2.090  22.436  1.00  0.00     0.202 C 
ENDBRANCH  18  19
BRANCH  18  21
HETATM   21  C13 UNL     1      -1.932   0.918  20.821  1.00  0.00     0.150 C 
HETATM   22  C14 UNL     1      -0.495   0.847  21.240  1.00  0.00     0.042 C 
BRANCH  21  23
HETATM   23  O3  UNL     1      -2.330   2.253  20.900  1.00  0.00    -0.393 OA
ATOM     24  H3  UNL     1      -2.862   2.451  20.138  1.00  0.00     0.210 HD
ENDBRANCH  21  23
ENDBRANCH  18  21
ENDBRANCH  16  18
ENDBRANCH  14  16
ENDBRANCH  13  14
ENDBRANCH   1  13
TORSDOF 13
ENDMDL
MODEL 5
REMARK VINA RESULT: -8.293698825      1.100      1.431
REMARK  13 active torsions:
REMARK  status: ('A' for Active; 'I' for Inactive)
REMARK    1  A    between atoms: C2_2  and  C3_3 
REMARK    2  A    between atoms: C3_3  and  C4_4 
REMARK    3  A    between atoms: C4_4  and  C15_19 
REMARK    4  A    between atoms: C5_5  and  C6_6 
REMARK    5  A    between atoms: C6_6  and  C7_7 
REMARK    6  A    between atoms: C7_7  and  C8_8 
REMARK    7  A    between atoms: C8_8  and  C10_10 
REMARK    8  A    between atoms: C10_10  and  C11_12 
REMARK    9  A    between atoms: C11_12  and  O2_13 
REMARK   10  A    between atoms: C11_12  and  C13_15 
REMARK   11  A    between atoms: C13_15  and  O3_17 
REMARK   12  A    between atoms: C15_19  and  C16_20 
REMARK   13  A    between atoms: C16_20  and  C17_21 
ROOT
HETATM    1  C6  UNL     1      -7.164   0.978  19.163  1.00  0.00     0.028 C 
ENDROOT
BRANCH   1   2
HETATM    2  C5  UNL     1      -7.348   0.953  17.708  1.00  0.00    -0.024 C 
HETATM    3  C4  UNL     1      -8.495   1.151  17.072  1.00  0.00    -0.080 C 
BRANCH   3   4
HETATM    4  C3  UNL     1      -9.721   1.426  17.848  1.00  0.00     0.060 C 
BRANCH   4   5
HETATM    5  C2  UNL     1      -9.910   2.923  17.897  1.00  0.00    -0.033 C 
HETATM    6  C1  UNL     1     -11.056   3.449  18.280  1.00  0.00     0.007 C 
ENDBRANCH   4   5
ENDBRANCH   3   4
BRANCH   3   7
HETATM    7  C15 UNL     1      -8.492   1.007  15.601  1.00  0.00     0.038 C 
BRANCH   7   8
HETATM    8  C16 UNL     1      -9.775   0.813  14.915  1.00  0.00     0.031 C 
BRANCH   8   9
HETATM    9  C17 UNL     1     -10.269   1.928  14.110  1.00  0.00    -0.024 C 
HETATM   10  C18 UNL     1     -10.336   1.846  12.764  1.00  0.00    -0.091 C 
HETATM   11  C19 UNL     1     -10.841   2.996  11.994  1.00  0.00     0.042 C 
HETATM   12  C20 UNL     1      -9.893   0.590  12.120  1.00  0.00     0.042 C 
ENDBRANCH   8   9
ENDBRANCH   7   8
ENDBRANCH   3   7
ENDBRANCH   1   2
BRANCH   1  13
HETATM   13  C7  UNL     1      -5.662   0.907  19.519  1.00  0.00     0.015 C 
BRANCH  13  14
HETATM   14  C8  UNL     1      -5.623   0.138  20.839  1.00  0.00     0.054 C 
HETATM   15  C9  UNL     1      -4.387   0.630  21.558  1.00  0.00     0.018 C 
BRANCH  14  16
HETATM   16  C10 UNL     1      -5.512  -1.305  20.643  1.00  0.00     0.161 C 
HETATM   17  O1  UNL     1      -5.542  -1.755  19.511  1.00  0.00    -0.295 OA
BRANCH  16  18
HETATM   18  C11 UNL     1      -5.362  -2.302  21.734  1.00  0.00     0.218 C 
BRANCH  18  19
HETATM   19  O2  UNL     1      -6.554  -2.744  22.239  1.00  0.00    -0.381 OA
HETATM   20  C12 UNL     1      -6.905  -2.175  23.454  1.00  0.00     0.202 C 
ENDBRANCH  18  19
BRANCH  18  21
HETATM   21  C13 UNL     1      -4.522  -3.480  21.326  1.00  0.00     0.150 C 
HETATM   22  C14 UNL     1      -4.191  -4.394  22.466  1.00  0.00     0.042 C 
BRANCH  21  23
HETATM   23  O3  UNL     1      -3.319  -3.000  20.806  1.00  0.00    -0.393 OA
ATOM     24  H3  UNL     1      -3.198  -3.374  19.941  1.00  0.00     0.210 HD
ENDBRANCH  21  23
ENDBRANCH  18  21
ENDBRANCH  16  18
ENDBRANCH  14  16
ENDBRANCH  13  14
ENDBRANCH   1  13
TORSDOF 13
ENDMDL
