MODEL 1
REMARK VINA RESULT: -9.276799635      0.000      0.000
REMARK  12 active torsions:
REMARK  status: ('A' for Active; 'I' for Inactive)
REMARK    1  A    between atoms: C2_2  and  C3_3 
REMARK    2  A    between atoms: C3_3  and  N1_4 
REMARK    3  A    between atoms: N1_4  and  C4_7 
REMARK    4  A    between atoms: C4_7  and  C5_8 
REMARK    5  A    between atoms: C5_8  and  O1_9 
REMARK    6  A    between atoms: O1_9  and  C6_10 
REMARK    7  A    between atoms: C10_14  and  C11_15 
REMARK    8  A    between atoms: C11_15  and  C12_16 
REMARK    9  A    between atoms: C12_16  and  C13_17 
REMARK   10  A    between atoms: C13_17  and  C14_18 
REMARK   11  A    between atoms: C14_18  and  C15_19 
REMARK   12  A    between atoms: C15_19  and  C16_20 
ROOT
HETATM    1  C6  UNL     1      -4.262  -1.986  20.724  1.00  0.00     0.069 A 
HETATM    2  C7  UNL     1      -3.179  -1.382  21.335  1.00  0.00     0.037 A 
HETATM    3  C8  UNL     1      -3.118  -0.010  21.445  1.00  0.00     0.003 A 
HETATM    4  C9  UNL     1      -4.145   0.780  20.941  1.00  0.00     0.007 A 
HETATM    5  C10 UNL     1      -5.255   0.203  20.317  1.00  0.00    -0.056 A 
HETATM    6  C22 UNL     1      -5.274  -1.168  20.230  1.00  0.00     0.044 A 
ENDROOT
BRANCH   5   7
HETATM    7  C11 UNL     1      -6.341   1.062  19.788  1.00  0.00     0.038 C 
BRANCH   7   8
HETATM    8  C12 UNL     1      -6.786   0.682  18.398  1.00  0.00     0.005 C 
BRANCH   8   9
HETATM    9  C13 UNL     1      -8.173   1.156  18.090  1.00  0.00     0.001 C 
BRANCH   9  10
HETATM   10  C14 UNL     1      -8.564   0.998  16.663  1.00  0.00     0.005 C 
BRANCH  10  11
HETATM   11  C15 UNL     1      -9.408   2.084  16.094  1.00  0.00     0.038 C 
BRANCH  11  12
HETATM   12  C16 UNL     1      -9.685   1.937  14.637  1.00  0.00    -0.058 A 
HETATM   13  C17 UNL     1      -9.871   2.982  13.769  1.00  0.00     0.007 A 
HETATM   14  C18 UNL     1     -10.136   2.771  12.412  1.00  0.00     0.001 A 
HETATM   15  C19 UNL     1     -10.222   1.504  11.881  1.00  0.00     0.000 A 
HETATM   16  C20 UNL     1     -10.035   0.449  12.749  1.00  0.00     0.001 A 
HETATM   17  C21 UNL     1      -9.774   0.650  14.086  1.00  0.00     0.007 A 
ENDBRANCH  11  12
ENDBRANCH  10  11
ENDBRANCH   9  10
ENDBRANCH   8   9
ENDBRANCH   7   8
ENDBRANCH   5   7
BRANCH   1  18
HETATM   18  O1  UNL     1      -4.356  -3.357  20.597  1.00  0.00    -0.349 OA
BRANCH  18  19
HETATM   19  C5  UNL     1      -3.137  -4.099  20.459  1.00  0.00     0.203 C 
BRANCH  19  20
HETATM   20  C4  UNL     1      -3.181  -5.330  21.349  1.00  0.00     0.259 C 
BRANCH  20  21
HETATM   21  N1  UNL     1      -2.489  -5.054  22.581  1.00  0.00    -0.070 N 
ATOM     22  H12 UNL     1      -3.147  -4.878  23.340  1.00  0.00     0.277 HD
ATOM     23  H11 UNL     1      -2.030  -4.143  22.547  1.00  0.00     0.277 HD
BRANCH  21  24
HETATM   24  C3  UNL     1      -1.549  -6.098  22.938  1.00  0.00     0.259 C 
BRANCH  24  25
HETATM   25  C2  UNL     1      -0.179  -5.645  22.590  1.00  0.00    -0.010 C 
HETATM   26  C1  UNL     1       0.536  -6.323  21.716  1.00  0.00     0.008 C 
ENDBRANCH  24  25
ENDBRANCH  21  24
ENDBRANCH  20  21
ENDBRANCH  19  20
ENDBRANCH  18  19
ENDBRANCH   1  18
TORSDOF 12
ENDMDL
MODEL 2
REMARK VINA RESULT: -9.124637071      1.686      2.740
REMARK  12 active torsions:
REMARK  status: ('A' for Active; 'I' for Inactive)
REMARK    1  A    between atoms: C2_2  and  C3_3 
REMARK    2  A    between atoms: C3_3  and  N1_4 
REMARK    3  A    between atoms: N1_4  and  C4_7 
REMARK    4  A    between atoms: C4_7  and  C5_8 
REMARK    5  A    between atoms: C5_8  and  O1_9 
REMARK    6  A    between atoms: O1_9  and  C6_10 
REMARK    7  A    between atoms: C10_14  and  C11_15 
REMARK    8  A    between atoms: C11_15  and  C12_16 
REMARK    9  A    between atoms: C12_16  and  C13_17 
REMARK   10  A    between atoms: C13_17  and  C14_18 
REMARK   11  A    between atoms: C14_18  and  C15_19 
REMARK   12  A    between atoms: C15_19  and  C16_20 
ROOT
HETATM    1  C6  UNL     1      -3.760  -1.550  20.870  1.00  0.00     0.069 A 
HETATM    2  C7  UNL     1      -2.754  -0.734  21.358  1.00  0.00     0.037 A 
HETATM    3  C8  UNL     1      -2.912   0.634  21.367  1.00  0.00     0.003 A 
HETATM    4  C9  UNL     1      -4.083   1.208  20.885  1.00  0.00     0.007 A 
HETATM    5  C10 UNL     1      -5.119   0.415  20.384  1.00  0.00    -0.056 A 
HETATM    6  C22 UNL     1      -4.919  -0.944  20.395  1.00  0.00     0.044 A 
ENDROOT
BRANCH   5   7
HETATM    7  C11 UNL     1      -6.360   1.046  19.877  1.00  0.00     0.038 C 
BRANCH   7   8
HETATM    8  C12 UNL     1      -6.695   0.660  18.457  1.00  0.00     0.005 C 
BRANCH   8   9
HETATM    9  C13 UNL     1      -8.097   1.025  18.079  1.00  0.00     0.001 C 
BRANCH   9  10
HETATM   10  C14 UNL     1      -8.354   1.005  16.613  1.00  0.00     0.005 C 
BRANCH  10  11
HETATM   11  C15 UNL     1      -9.534   1.783  16.147  1.00  0.00     0.038 C 
BRANCH  11  12
HETATM   12  C16 UNL     1      -9.723   1.769  14.669  1.00  0.00    -0.058 A 
HETATM   13  C17 UNL     1      -9.821   2.889  13.884  1.00  0.00     0.007 A 
HETATM   14  C18 UNL     1     -10.008   2.802  12.501  1.00  0.00     0.001 A 
HETATM   15  C19 UNL     1     -10.102   1.588  11.859  1.00  0.00     0.000 A 
HETATM   16  C20 UNL     1     -10.005   0.458  12.643  1.00  0.00     0.001 A 
HETATM   17  C21 UNL     1      -9.821   0.537  14.005  1.00  0.00     0.007 A 
ENDBRANCH  11  12
ENDBRANCH  10  11
ENDBRANCH   9  10
ENDBRANCH   8   9
ENDBRANCH   7   8
ENDBRANCH   5   7
BRANCH   1  18
HETATM   18  O1  UNL     1      -3.636  -2.924  20.847  1.00  0.00    -0.349 OA
BRANCH  18  19
HETATM   19  C5  UNL     1      -3.335  -3.587  22.082  1.00  0.00     0.203 C 
BRANCH  19  20
HETATM   20  C4  UNL     1      -4.451  -4.561  22.426  1.00  0.00     0.259 C 
BRANCH  20  21
HETATM   21  N1  UNL     1      -5.662  -3.827  22.685  1.00  0.00    -0.070 N 
ATOM     22  H12 UNL     1      -6.467  -4.452  22.728  1.00  0.00     0.277 HD
ATOM     23  H11 UNL     1      -5.932  -3.267  21.876  1.00  0.00     0.277 HD
BRANCH  21  24
HETATM   24  C3  UNL     1      -5.573  -3.010  23.878  1.00  0.00     0.259 C 
BRANCH  24  25
HETATM   25  C2  UNL     1      -6.337  -1.756  23.656  1.00  0.00    -0.010 C 
HETATM   26  C1  UNL     1      -5.821  -0.599  24.012  1.00  0.00     0.008 C 
ENDBRANCH  24  25
ENDBRANCH  21  24
ENDBRANCH  20  21
ENDBRANCH  19  20
ENDBRANCH  18  19
ENDBRANCH   1  18
TORSDOF 12
ENDMDL
MODEL 3
REMARK VINA RESULT: -9.116802552      2.447      3.002
REMARK  12 active torsions:
REMARK  status: ('A' for Active; 'I' for Inactive)
REMARK    1  A    between atoms: C2_2  and  C3_3 
REMARK    2  A    between atoms: C3_3  and  N1_4 
REMARK    3  A    between atoms: N1_4  and  C4_7 
REMARK    4  A    between atoms: C4_7  and  C5_8 
REMARK    5  A    between atoms: C5_8  and  O1_9 
REMARK    6  A    between atoms: O1_9  and  C6_10 
REMARK    7  A    between atoms: C10_14  and  C11_15 
REMARK    8  A    between atoms: C11_15  and  C12_16 
REMARK    9  A    between atoms: C12_16  and  C13_17 
REMARK   10  A    between atoms: C13_17  and  C14_18 
REMARK   11  A    between atoms: C14_18  and  C15_19 
REMARK   12  A    between atoms: C15_19  and  C16_20 
ROOT
HETATM    1  C6  UNL     1      -5.712   0.174  22.441  1.00  0.00     0.069 A 
HETATM    2  C7  UNL     1      -4.409   0.529  22.146  1.00  0.00     0.037 A 
HETATM    3  C8  UNL     1      -4.090   1.032  20.903  1.00  0.00     0.003 A 
HETATM    4  C9  UNL     1      -5.076   1.184  19.934  1.00  0.00     0.007 A 
HETATM    5  C10 UNL     1      -6.404   0.835  20.199  1.00  0.00    -0.056 A 
HETATM    6  C22 UNL     1      -6.676   0.339  21.451  1.00  0.00     0.044 A 
ENDROOT
BRANCH   5   7
HETATM    7  C11 UNL     1      -7.440   1.007  19.154  1.00  0.00     0.038 C 
BRANCH   7   8
HETATM    8  C12 UNL     1      -6.962   0.657  17.767  1.00  0.00     0.005 C 
BRANCH   8   9
HETATM    9  C13 UNL     1      -8.011   0.885  16.724  1.00  0.00     0.001 C 
BRANCH   9  10
HETATM   10  C14 UNL     1      -9.200   1.634  17.215  1.00  0.00     0.005 C 
BRANCH  10  11
HETATM   11  C15 UNL     1     -10.454   1.452  16.434  1.00  0.00     0.038 C 
BRANCH  11  12
HETATM   12  C16 UNL     1     -10.294   1.675  14.969  1.00  0.00    -0.058 A 
HETATM   13  C17 UNL     1      -9.920   2.864  14.398  1.00  0.00     0.007 A 
HETATM   14  C18 UNL     1      -9.797   3.006  13.011  1.00  0.00     0.001 A 
HETATM   15  C19 UNL     1     -10.046   1.959  12.154  1.00  0.00     0.000 A 
HETATM   16  C20 UNL     1     -10.423   0.761  12.722  1.00  0.00     0.001 A 
HETATM   17  C21 UNL     1     -10.545   0.615  14.086  1.00  0.00     0.007 A 
ENDBRANCH  11  12
ENDBRANCH  10  11
ENDBRANCH   9  10
ENDBRANCH   8   9
ENDBRANCH   7   8
ENDBRANCH   5   7
BRANCH   1  18
HETATM   18  O1  UNL     1      -6.067  -0.332  23.676  1.00  0.00    -0.349 OA
BRANCH  18  19
HETATM   19  C5  UNL     1      -5.559  -1.623  24.038  1.00  0.00     0.203 C 
BRANCH  19  20
HETATM   20  C4  UNL     1      -6.576  -2.694  23.674  1.00  0.00     0.259 C 
BRANCH  20  21
HETATM   21  N1  UNL     1      -6.246  -3.247  22.386  1.00  0.00    -0.070 N 
ATOM     22  H12 UNL     1      -6.507  -2.608  21.635  1.00  0.00     0.277 HD
ATOM     23  H11 UNL     1      -6.858  -4.030  22.155  1.00  0.00     0.277 HD
BRANCH  21  24
HETATM   24  C3  UNL     1      -4.851  -3.628  22.285  1.00  0.00     0.259 C 
BRANCH  24  25
HETATM   25  C2  UNL     1      -4.343  -3.228  20.949  1.00  0.00    -0.010 C 
HETATM   26  C1  UNL     1      -5.146  -2.636  20.089  1.00  0.00     0.008 C 
ENDBRANCH  24  25
ENDBRANCH  21  24
ENDBRANCH  20  21
ENDBRANCH  19  20
ENDBRANCH  18  19
ENDBRANCH   1  18
TORSDOF 12
ENDMDL
MODEL 4
REMARK VINA RESULT: -8.977005592      2.834      4.036
REMARK  12 active torsions:
REMARK  status: ('A' for Active; 'I' for Inactive)
REMARK    1  A    between atoms: C2_2  and  C3_3 
REMARK    2  A    between atoms: C3_3  and  N1_4 
REMARK    3  A    between atoms: N1_4  and  C4_7 
REMARK    4  A    between atoms: C4_7  and  C5_8 
REMARK    5  A    between atoms: C5_8  and  O1_9 
REMARK    6  A    between atoms: O1_9  and  C6_10 
REMARK    7  A    between atoms: C10_14  and  C11_15 
REMARK    8  A    between atoms: C11_15  and  C12_16 
REMARK    9  A    between atoms: C12_16  and  C13_17 
REMARK   10  A    between atoms: C13_17  and  C14_18 
REMARK   11  A    between atoms: C14_18  and  C15_19 
REMARK   12  A    between atoms: C15_19  and  C16_20 
ROOT
HETATM    1  C6  UNL     1      -3.135   0.299  21.645  1.00  0.00     0.069 A 
HETATM    2  C7  UNL     1      -3.041  -1.069  21.460  1.00  0.00     0.037 A 
HETATM    3  C8  UNL     1      -4.025  -1.746  20.773  1.00  0.00     0.003 A 
HETATM    4  C9  UNL     1      -5.121  -1.062  20.261  1.00  0.00     0.007 A 
HETATM    5  C10 UNL     1      -5.248   0.320  20.429  1.00  0.00    -0.056 A 
HETATM    6  C22 UNL     1      -4.244   0.955  21.119  1.00  0.00     0.044 A 
ENDROOT
BRANCH   5   7
HETATM    7  C11 UNL     1      -6.423   1.032  19.874  1.00  0.00     0.038 C 
BRANCH   7   8
HETATM    8  C12 UNL     1      -6.751   0.637  18.455  1.00  0.00     0.005 C 
BRANCH   8   9
HETATM    9  C13 UNL     1      -8.136   1.042  18.053  1.00  0.00     0.001 C 
BRANCH   9  10
HETATM   10  C14 UNL     1      -8.373   1.011  16.584  1.00  0.00     0.005 C 
BRANCH  10  11
HETATM   11  C15 UNL     1      -9.543   1.791  16.096  1.00  0.00     0.038 C 
BRANCH  11  12
HETATM   12  C16 UNL     1      -9.760   1.700  14.625  1.00  0.00    -0.058 A 
HETATM   13  C17 UNL     1      -9.867   0.527  13.923  1.00  0.00     0.007 A 
HETATM   14  C18 UNL     1     -10.063   0.514  12.538  1.00  0.00     0.001 A 
HETATM   15  C19 UNL     1     -10.159   1.679  11.812  1.00  0.00     0.000 A 
HETATM   16  C20 UNL     1     -10.053   2.862  12.512  1.00  0.00     0.001 A 
HETATM   17  C21 UNL     1      -9.860   2.881  13.875  1.00  0.00     0.007 A 
ENDBRANCH  11  12
ENDBRANCH  10  11
ENDBRANCH   9  10
ENDBRANCH   8   9
ENDBRANCH   7   8
ENDBRANCH   5   7
BRANCH   1  18
HETATM   18  O1  UNL     1      -2.168   1.009  22.326  1.00  0.00    -0.349 OA
BRANCH  18  19
HETATM   19  C5  UNL     1      -2.593   1.829  23.424  1.00  0.00     0.203 C 
BRANCH  19  20
HETATM   20  C4  UNL     1      -2.676   0.988  24.689  1.00  0.00     0.259 C 
BRANCH  20  21
HETATM   21  N1  UNL     1      -4.050   0.888  25.106  1.00  0.00    -0.070 N 
ATOM     22  H12 UNL     1      -4.641   1.531  24.579  1.00  0.00     0.277 HD
ATOM     23  H11 UNL     1      -4.179   1.275  26.041  1.00  0.00     0.277 HD
BRANCH  21  24
HETATM   24  C3  UNL     1      -4.558  -0.468  25.028  1.00  0.00     0.259 C 
BRANCH  24  25
HETATM   25  C2  UNL     1      -5.794  -0.467  24.207  1.00  0.00    -0.010 C 
HETATM   26  C1  UNL     1      -6.290  -1.604  23.763  1.00  0.00     0.008 C 
ENDBRANCH  24  25
ENDBRANCH  21  24
ENDBRANCH  20  21
ENDBRANCH  19  20
ENDBRANCH  18  19
ENDBRANCH   1  18
TORSDOF 12
ENDMDL
MODEL 5
REMARK VINA RESULT: -8.842079929      0.663      1.292
REMARK  12 active torsions:
REMARK  status: ('A' for Active; 'I' for Inactive)
REMARK    1  A    between atoms: C2_2  and  C3_3 
REMARK    2  A    between atoms: C3_3  and  N1_4 
REMARK    3  A    between atoms: N1_4  and  C4_7 
REMARK    4  A    between atoms: C4_7  and  C5_8 
REMARK    5  A    between atoms: C5_8  and  O1_9 
REMARK    6  A    between atoms: O1_9  and  C6_10 
REMARK    7  A    between atoms: C10_14  and  C11_15 
REMARK    8  A    between atoms: C11_15  and  C12_16 
REMARK    9  A    between atoms: C12_16  and  C13_17 
REMARK   10  A    between atoms: C13_17  and  C14_18 
REMARK   11  A    between atoms: C14_18  and  C15_19 
REMARK   12  A    between atoms: C15_19  and  C16_20 
ROOT
HETATM    1  C6  UNL     1      -4.206  -1.826  21.034  1.00  0.00     0.069 A 
HETATM    2  C7  UNL     1      -3.092  -1.172  21.528  1.00  0.00     0.037 A 
HETATM    3  C8  UNL     1      -3.009   0.202  21.470  1.00  0.00     0.003 A 
HETATM    4  C9  UNL     1      -4.045   0.944  20.912  1.00  0.00     0.007 A 
HETATM    5  C10 UNL     1      -5.185   0.316  20.403  1.00  0.00    -0.056 A 
HETATM    6  C22 UNL     1      -5.225  -1.055  20.482  1.00  0.00     0.044 A 
ENDROOT
BRANCH   5   7
HETATM    7  C11 UNL     1      -6.279   1.124  19.814  1.00  0.00     0.038 C 
BRANCH   7   8
HETATM    8  C12 UNL     1      -6.721   0.641  18.456  1.00  0.00     0.005 C 
BRANCH   8   9
HETATM    9  C13 UNL     1      -8.092   1.123  18.094  1.00  0.00     0.001 C 
BRANCH   9  10
HETATM   10  C14 UNL     1      -8.430   0.961  16.653  1.00  0.00     0.005 C 
BRANCH  10  11
HETATM   11  C15 UNL     1      -9.649   1.674  16.185  1.00  0.00     0.038 C 
BRANCH  11  12
HETATM   12  C16 UNL     1      -9.825   1.668  14.706  1.00  0.00    -0.058 A 
HETATM   13  C17 UNL     1      -9.953   0.538  13.940  1.00  0.00     0.007 A 
HETATM   14  C18 UNL     1     -10.107   0.605  12.551  1.00  0.00     0.001 A 
HETATM   15  C19 UNL     1     -10.137   1.809  11.885  1.00  0.00     0.000 A 
HETATM   16  C20 UNL     1     -10.009   2.949  12.650  1.00  0.00     0.001 A 
HETATM   17  C21 UNL     1      -9.857   2.890  14.017  1.00  0.00     0.007 A 
ENDBRANCH  11  12
ENDBRANCH  10  11
ENDBRANCH   9  10
ENDBRANCH   8   9
ENDBRANCH   7   8
ENDBRANCH   5   7
BRANCH   1  18
HETATM   18  O1  UNL     1      -4.322  -3.200  21.077  1.00  0.00    -0.349 OA
BRANCH  18  19
HETATM   19  C5  UNL     1      -3.232  -3.977  20.564  1.00  0.00     0.203 C 
BRANCH  19  20
HETATM   20  C4  UNL     1      -3.199  -5.332  21.254  1.00  0.00     0.259 C 
BRANCH  20  21
HETATM   21  N1  UNL     1      -2.738  -5.167  22.608  1.00  0.00    -0.070 N 
ATOM     22  H12 UNL     1      -3.412  -5.545  23.274  1.00  0.00     0.277 HD
ATOM     23  H11 UNL     1      -2.764  -4.185  22.887  1.00  0.00     0.277 HD
BRANCH  21  24
HETATM   24  C3  UNL     1      -1.421  -5.734  22.821  1.00  0.00     0.259 C 
BRANCH  24  25
HETATM   25  C2  UNL     1      -0.767  -5.013  23.942  1.00  0.00    -0.010 C 
HETATM   26  C1  UNL     1      -0.837  -3.700  24.010  1.00  0.00     0.008 C 
ENDBRANCH  24  25
ENDBRANCH  21  24
ENDBRANCH  20  21
ENDBRANCH  19  20
ENDBRANCH  18  19
ENDBRANCH   1  18
TORSDOF 12
ENDMDL
