MODEL 1
REMARK VINA RESULT: -8.499404147      0.000      0.000
REMARK  12 active torsions:
REMARK  status: ('A' for Active; 'I' for Inactive)
REMARK    1  A    between atoms: C2_2  and  C3_3 
REMARK    2  A    between atoms: C3_3  and  N1_4 
REMARK    3  A    between atoms: N1_4  and  C4_5 
REMARK    4  A    between atoms: N1_4  and  C6_7 
REMARK    5  A    between atoms: C6_7  and  C7_11 
REMARK    6  A    between atoms: C7_11  and  C8_12 
REMARK    7  A    between atoms: C8_12  and  C9_13 
REMARK    8  A    between atoms: C9_13  and  C10_14 
REMARK    9  A    between atoms: C10_14  and  C11_15 
REMARK   10  A    between atoms: C11_15  and  C12_17 
REMARK   11  A    between atoms: C12_17  and  O2_19 
REMARK   12  A    between atoms: O2_19  and  C14_20 
ROOT
HETATM    1  C9  UNL     1      -6.842   0.685  18.472  1.00  0.00     0.008 C 
ENDROOT
BRANCH   1   2
HETATM    2  C8  UNL     1      -6.507   0.750  19.949  1.00  0.00     0.008 C 
BRANCH   2   3
HETATM    3  C7  UNL     1      -5.058   1.095  20.162  1.00  0.00     0.076 C 
BRANCH   3   4
HETATM    4  C6  UNL     1      -4.526   0.703  21.488  1.00  0.00     0.072 C 
HETATM    5  N2  UNL     1      -5.150   1.082  22.571  1.00  0.00    -0.389 N 
ATOM      6  H22 UNL     1      -4.784   0.812  23.483  1.00  0.00     0.157 HD
ATOM      7  H21 UNL     1      -5.997   1.645  22.489  1.00  0.00     0.157 HD
BRANCH   4   8
HETATM    8  N1  UNL     1      -3.335  -0.090  21.602  1.00  0.00    -0.368 N 
BRANCH   8   9
HETATM    9  C3  UNL     1      -3.466  -1.486  21.915  1.00  0.00     0.150 C 
BRANCH   9  10
HETATM   10  C2  UNL     1      -3.734  -2.371  20.786  1.00  0.00    -0.017 C 
HETATM   11  C1  UNL     1      -4.944  -2.673  20.328  1.00  0.00     0.008 C 
ENDBRANCH   9  10
ENDBRANCH   8   9
BRANCH   8  12
HETATM   12  C4  UNL     1      -2.040   0.478  21.374  1.00  0.00     0.120 C 
HETATM   13  C5  UNL     1      -1.988   1.935  21.079  1.00  0.00     0.026 C 
ENDBRANCH   8  12
ENDBRANCH   4   8
ENDBRANCH   3   4
ENDBRANCH   2   3
ENDBRANCH   1   2
BRANCH   1  14
HETATM   14  C10 UNL     1      -8.259   1.118  18.255  1.00  0.00     0.081 C 
BRANCH  14  15
HETATM   15  C11 UNL     1      -8.571   1.453  16.863  1.00  0.00     0.155 C 
HETATM   16  O1  UNL     1      -7.627   1.376  16.067  1.00  0.00    -0.295 OA
BRANCH  15  17
HETATM   17  C12 UNL     1      -9.851   1.866  16.309  1.00  0.00     0.187 C 
HETATM   18  C13 UNL     1     -10.909   2.185  17.349  1.00  0.00     0.048 C 
BRANCH  17  19
HETATM   19  O2  UNL     1     -10.414   0.941  15.450  1.00  0.00    -0.373 OA
BRANCH  19  20
HETATM   20  C14 UNL     1     -10.961   1.431  14.289  1.00  0.00     0.122 C 
HETATM   21  C15 UNL     1     -10.080   2.461  13.615  1.00  0.00     0.032 C 
HETATM   22  C16 UNL     1     -10.238   2.308  12.120  1.00  0.00     0.002 C 
HETATM   23  C17 UNL     1      -9.519   1.051  11.660  1.00  0.00     0.000 C 
HETATM   24  C18 UNL     1      -9.718  -0.013  12.688  1.00  0.00     0.002 C 
HETATM   25  C19 UNL     1     -11.086   0.266  13.335  1.00  0.00     0.032 C 
ENDBRANCH  19  20
ENDBRANCH  17  19
ENDBRANCH  15  17
ENDBRANCH  14  15
ENDBRANCH   1  14
TORSDOF 12
ENDMDL
MODEL 2
REMARK VINA RESULT: -8.377388937      0.592      1.946
REMARK  12 active torsions:
REMARK  status: ('A' for Active; 'I' for Inactive)
REMARK    1  A    between atoms: C2_2  and  C3_3 
REMARK    2  A    between atoms: C3_3  and  N1_4 
REMARK    3  A    between atoms: N1_4  and  C4_5 
REMARK    4  A    between atoms: N1_4  and  C6_7 
REMARK    5  A    between atoms: C6_7  and  C7_11 
REMARK    6  A    between atoms: C7_11  and  C8_12 
REMARK    7  A    between atoms: C8_12  and  C9_13 
REMARK    8  A    between atoms: C9_13  and  C10_14 
REMARK    9  A    between atoms: C10_14  and  C11_15 
REMARK   10  A    between atoms: C11_15  and  C12_17 
REMARK   11  A    between atoms: C12_17  and  O2_19 
REMARK   12  A    between atoms: O2_19  and  C14_20 
ROOT
HETATM    1  C9  UNL     1      -6.759   0.676  18.435  1.00  0.00     0.008 C 
ENDROOT
BRANCH   1   2
HETATM    2  C8  UNL     1      -6.314   0.975  19.853  1.00  0.00     0.008 C 
BRANCH   2   3
HETATM    3  C7  UNL     1      -5.610  -0.207  20.463  1.00  0.00     0.076 C 
BRANCH   3   4
HETATM    4  C6  UNL     1      -4.968   0.072  21.768  1.00  0.00     0.072 C 
HETATM    5  N2  UNL     1      -5.519   0.927  22.588  1.00  0.00    -0.389 N 
ATOM      6  H22 UNL     1      -5.076   1.118  23.486  1.00  0.00     0.157 HD
ATOM      7  H21 UNL     1      -6.385   1.393  22.318  1.00  0.00     0.157 HD
BRANCH   4   8
HETATM    8  N1  UNL     1      -3.749  -0.584  22.149  1.00  0.00    -0.368 N 
BRANCH   8   9
HETATM    9  C3  UNL     1      -2.586   0.220  22.402  1.00  0.00     0.150 C 
BRANCH   9  10
HETATM   10  C2  UNL     1      -2.033   0.923  21.250  1.00  0.00    -0.017 C 
HETATM   11  C1  UNL     1      -2.246   2.203  20.966  1.00  0.00     0.008 C 
ENDBRANCH   9  10
ENDBRANCH   8   9
BRANCH   8  12
HETATM   12  C4  UNL     1      -3.691  -2.006  22.314  1.00  0.00     0.120 C 
HETATM   13  C5  UNL     1      -3.300  -2.805  21.122  1.00  0.00     0.026 C 
ENDBRANCH   8  12
ENDBRANCH   4   8
ENDBRANCH   3   4
ENDBRANCH   2   3
ENDBRANCH   1   2
BRANCH   1  14
HETATM   14  C10 UNL     1      -8.181   1.108  18.249  1.00  0.00     0.081 C 
BRANCH  14  15
HETATM   15  C11 UNL     1      -8.516   1.463  16.868  1.00  0.00     0.155 C 
HETATM   16  O1  UNL     1      -7.583   1.411  16.057  1.00  0.00    -0.295 OA
BRANCH  15  17
HETATM   17  C12 UNL     1      -9.811   1.868  16.339  1.00  0.00     0.187 C 
HETATM   18  C13 UNL     1     -10.849   2.179  17.400  1.00  0.00     0.048 C 
BRANCH  17  19
HETATM   19  O2  UNL     1     -10.383   0.940  15.490  1.00  0.00    -0.373 OA
BRANCH  19  20
HETATM   20  C14 UNL     1     -10.942   1.427  14.332  1.00  0.00     0.122 C 
HETATM   21  C15 UNL     1     -10.065   2.452  13.645  1.00  0.00     0.032 C 
HETATM   22  C16 UNL     1     -10.239   2.292  12.152  1.00  0.00     0.002 C 
HETATM   23  C17 UNL     1      -9.528   1.032  11.691  1.00  0.00     0.000 C 
HETATM   24  C18 UNL     1      -9.719  -0.028  12.725  1.00  0.00     0.002 C 
HETATM   25  C19 UNL     1     -11.079   0.259  13.385  1.00  0.00     0.032 C 
ENDBRANCH  19  20
ENDBRANCH  17  19
ENDBRANCH  15  17
ENDBRANCH  14  15
ENDBRANCH   1  14
TORSDOF 12
ENDMDL
MODEL 3
REMARK VINA RESULT: -8.306401918      3.301      9.318
REMARK  12 active torsions:
REMARK  status: ('A' for Active; 'I' for Inactive)
REMARK    1  A    between atoms: C2_2  and  C3_3 
REMARK    2  A    between atoms: C3_3  and  N1_4 
REMARK    3  A    between atoms: N1_4  and  C4_5 
REMARK    4  A    between atoms: N1_4  and  C6_7 
REMARK    5  A    between atoms: C6_7  and  C7_11 
REMARK    6  A    between atoms: C7_11  and  C8_12 
REMARK    7  A    between atoms: C8_12  and  C9_13 
REMARK    8  A    between atoms: C9_13  and  C10_14 
REMARK    9  A    between atoms: C10_14  and  C11_15 
REMARK   10  A    between atoms: C11_15  and  C12_17 
REMARK   11  A    between atoms: C12_17  and  O2_19 
REMARK   12  A    between atoms: O2_19  and  C14_20 
ROOT
HETATM    1  C9  UNL     1      -6.900   0.685  18.014  1.00  0.00     0.008 C 
ENDROOT
BRANCH   1   2
HETATM    2  C8  UNL     1      -8.308   1.082  17.616  1.00  0.00     0.008 C 
BRANCH   2   3
HETATM    3  C7  UNL     1      -8.473   1.072  16.121  1.00  0.00     0.076 C 
BRANCH   3   4
HETATM    4  C6  UNL     1      -9.841   1.403  15.656  1.00  0.00     0.072 C 
HETATM    5  N2  UNL     1     -10.780   1.638  16.532  1.00  0.00    -0.389 N 
ATOM      6  H22 UNL     1     -11.721   1.866  16.212  1.00  0.00     0.157 HD
ATOM      7  H21 UNL     1     -10.560   1.589  17.527  1.00  0.00     0.157 HD
BRANCH   4   8
HETATM    8  N1  UNL     1     -10.150   1.472  14.256  1.00  0.00    -0.368 N 
BRANCH   8   9
HETATM    9  C3  UNL     1     -10.680   0.303  13.611  1.00  0.00     0.150 C 
BRANCH   9  10
HETATM   10  C2  UNL     1      -9.726  -0.496  12.852  1.00  0.00    -0.017 C 
HETATM   11  C1  UNL     1      -9.605  -0.483  11.529  1.00  0.00     0.008 C 
ENDBRANCH   9  10
ENDBRANCH   8   9
BRANCH   8  12
HETATM   12  C4  UNL     1      -9.974   2.686  13.515  1.00  0.00     0.120 C 
HETATM   13  C5  UNL     1     -10.908   2.921  12.381  1.00  0.00     0.026 C 
ENDBRANCH   8  12
ENDBRANCH   4   8
ENDBRANCH   3   4
ENDBRANCH   2   3
ENDBRANCH   1   2
BRANCH   1  14
HETATM   14  C10 UNL     1      -6.713   0.890  19.486  1.00  0.00     0.081 C 
BRANCH  14  15
HETATM   15  C11 UNL     1      -5.932  -0.164  20.137  1.00  0.00     0.155 C 
HETATM   16  O1  UNL     1      -5.689  -1.160  19.443  1.00  0.00    -0.295 OA
BRANCH  15  17
HETATM   17  C12 UNL     1      -5.412  -0.181  21.496  1.00  0.00     0.187 C 
HETATM   18  C13 UNL     1      -6.460  -0.435  22.563  1.00  0.00     0.048 C 
BRANCH  17  19
HETATM   19  O2  UNL     1      -4.756   0.979  21.858  1.00  0.00    -0.373 OA
BRANCH  19  20
HETATM   20  C14 UNL     1      -3.571   0.830  22.538  1.00  0.00     0.122 C 
HETATM   21  C15 UNL     1      -2.731  -0.311  22.008  1.00  0.00     0.032 C 
HETATM   22  C16 UNL     1      -1.276   0.081  22.128  1.00  0.00     0.002 C 
HETATM   23  C17 UNL     1      -0.943   1.122  21.074  1.00  0.00     0.000 C 
HETATM   24  C18 UNL     1      -2.104   2.051  20.939  1.00  0.00     0.002 C 
HETATM   25  C19 UNL     1      -2.778   2.098  22.322  1.00  0.00     0.032 C 
ENDBRANCH  19  20
ENDBRANCH  17  19
ENDBRANCH  15  17
ENDBRANCH  14  15
ENDBRANCH   1  14
TORSDOF 12
ENDMDL
MODEL 4
REMARK VINA RESULT: -8.228976029      1.144      1.864
REMARK  12 active torsions:
REMARK  status: ('A' for Active; 'I' for Inactive)
REMARK    1  A    between atoms: C2_2  and  C3_3 
REMARK    2  A    between atoms: C3_3  and  N1_4 
REMARK    3  A    between atoms: N1_4  and  C4_5 
REMARK    4  A    between atoms: N1_4  and  C6_7 
REMARK    5  A    between atoms: C6_7  and  C7_11 
REMARK    6  A    between atoms: C7_11  and  C8_12 
REMARK    7  A    between atoms: C8_12  and  C9_13 
REMARK    8  A    between atoms: C9_13  and  C10_14 
REMARK    9  A    between atoms: C10_14  and  C11_15 
REMARK   10  A    between atoms: C11_15  and  C12_17 
REMARK   11  A    between atoms: C12_17  and  O2_19 
REMARK   12  A    between atoms: O2_19  and  C14_20 
ROOT
HETATM    1  C9  UNL     1      -6.732   0.686  18.552  1.00  0.00     0.008 C 
ENDROOT
BRANCH   1   2
HETATM    2  C8  UNL     1      -6.329   1.058  19.966  1.00  0.00     0.008 C 
BRANCH   2   3
HETATM    3  C7  UNL     1      -5.107   0.295  20.401  1.00  0.00     0.076 C 
BRANCH   3   4
HETATM    4  C6  UNL     1      -4.662   0.592  21.782  1.00  0.00     0.072 C 
HETATM    5  N2  UNL     1      -5.540   0.951  22.679  1.00  0.00    -0.389 N 
ATOM      6  H22 UNL     1      -5.234   1.155  23.630  1.00  0.00     0.157 HD
ATOM      7  H21 UNL     1      -6.524   1.022  22.417  1.00  0.00     0.157 HD
BRANCH   4   8
HETATM    8  N1  UNL     1      -3.279   0.492  22.151  1.00  0.00    -0.368 N 
BRANCH   8   9
HETATM    9  C3  UNL     1      -2.950  -0.017  23.454  1.00  0.00     0.150 C 
BRANCH   9  10
HETATM   10  C2  UNL     1      -2.202   0.885  24.322  1.00  0.00    -0.017 C 
HETATM   11  C1  UNL     1      -2.651   2.049  24.776  1.00  0.00     0.008 C 
ENDBRANCH   9  10
ENDBRANCH   8   9
BRANCH   8  12
HETATM   12  C4  UNL     1      -2.238   0.851  21.235  1.00  0.00     0.120 C 
HETATM   13  C5  UNL     1      -2.101   2.295  20.907  1.00  0.00     0.026 C 
ENDBRANCH   8  12
ENDBRANCH   4   8
ENDBRANCH   3   4
ENDBRANCH   2   3
ENDBRANCH   1   2
BRANCH   1  14
HETATM   14  C10 UNL     1      -8.162   1.066  18.317  1.00  0.00     0.081 C 
BRANCH  14  15
HETATM   15  C11 UNL     1      -8.461   1.419  16.928  1.00  0.00     0.155 C 
HETATM   16  O1  UNL     1      -7.513   1.338  16.136  1.00  0.00    -0.295 OA
BRANCH  15  17
HETATM   17  C12 UNL     1      -9.734   1.853  16.370  1.00  0.00     0.187 C 
HETATM   18  C13 UNL     1     -10.788   2.191  17.407  1.00  0.00     0.048 C 
BRANCH  17  19
HETATM   19  O2  UNL     1     -10.309   0.936  15.511  1.00  0.00    -0.373 OA
BRANCH  19  20
HETATM   20  C14 UNL     1     -10.892   1.441  14.373  1.00  0.00     0.122 C 
HETATM   21  C15 UNL     1     -10.026   2.469  13.677  1.00  0.00     0.032 C 
HETATM   22  C16 UNL     1     -10.237   2.329  12.187  1.00  0.00     0.002 C 
HETATM   23  C17 UNL     1      -9.545   1.071  11.693  1.00  0.00     0.000 C 
HETATM   24  C18 UNL     1      -9.718  -0.001  12.718  1.00  0.00     0.002 C 
HETATM   25  C19 UNL     1     -11.060   0.285  13.415  1.00  0.00     0.032 C 
ENDBRANCH  19  20
ENDBRANCH  17  19
ENDBRANCH  15  17
ENDBRANCH  14  15
ENDBRANCH   1  14
TORSDOF 12
ENDMDL
MODEL 5
REMARK VINA RESULT: -8.177167354      3.312      9.180
REMARK  12 active torsions:
REMARK  status: ('A' for Active; 'I' for Inactive)
REMARK    1  A    between atoms: C2_2  and  C3_3 
REMARK    2  A    between atoms: C3_3  and  N1_4 
REMARK    3  A    between atoms: N1_4  and  C4_5 
REMARK    4  A    between atoms: N1_4  and  C6_7 
REMARK    5  A    between atoms: C6_7  and  C7_11 
REMARK    6  A    between atoms: C7_11  and  C8_12 
REMARK    7  A    between atoms: C8_12  and  C9_13 
REMARK    8  A    between atoms: C9_13  and  C10_14 
REMARK    9  A    between atoms: C10_14  and  C11_15 
REMARK   10  A    between atoms: C11_15  and  C12_17 
REMARK   11  A    between atoms: C12_17  and  O2_19 
REMARK   12  A    between atoms: O2_19  and  C14_20 
ROOT
HETATM    1  C9  UNL     1      -6.789   0.458  18.209  1.00  0.00     0.008 C 
ENDROOT
BRANCH   1   2
HETATM    2  C8  UNL     1      -8.120   1.064  17.808  1.00  0.00     0.008 C 
BRANCH   2   3
HETATM    3  C7  UNL     1      -8.296   1.047  16.314  1.00  0.00     0.076 C 
BRANCH   3   4
HETATM    4  C6  UNL     1      -9.659   1.406  15.857  1.00  0.00     0.072 C 
HETATM    5  N2  UNL     1     -10.593   1.644  16.738  1.00  0.00    -0.389 N 
ATOM      6  H22 UNL     1     -11.531   1.891  16.422  1.00  0.00     0.157 HD
ATOM      7  H21 UNL     1     -10.372   1.578  17.732  1.00  0.00     0.157 HD
BRANCH   4   8
HETATM    8  N1  UNL     1      -9.969   1.499  14.458  1.00  0.00    -0.368 N 
BRANCH   8   9
HETATM    9  C3  UNL     1     -10.495   0.339  13.793  1.00  0.00     0.150 C 
BRANCH   9  10
HETATM   10  C2  UNL     1      -9.551  -0.407  12.968  1.00  0.00    -0.017 C 
HETATM   11  C1  UNL     1      -9.629  -0.532  11.648  1.00  0.00     0.008 C 
ENDBRANCH   9  10
ENDBRANCH   8   9
BRANCH   8  12
HETATM   12  C4  UNL     1      -9.799   2.726  13.740  1.00  0.00     0.120 C 
HETATM   13  C5  UNL     1     -10.690   2.947  12.569  1.00  0.00     0.026 C 
ENDBRANCH   8  12
ENDBRANCH   4   8
ENDBRANCH   3   4
ENDBRANCH   2   3
ENDBRANCH   1   2
BRANCH   1  14
HETATM   14  C10 UNL     1      -6.330   1.057  19.503  1.00  0.00     0.081 C 
BRANCH  14  15
HETATM   15  C11 UNL     1      -6.090   0.072  20.560  1.00  0.00     0.155 C 
HETATM   16  O1  UNL     1      -6.944   0.024  21.454  1.00  0.00    -0.295 OA
BRANCH  15  17
HETATM   17  C12 UNL     1      -4.972  -0.852  20.684  1.00  0.00     0.187 C 
HETATM   18  C13 UNL     1      -5.292  -2.278  20.273  1.00  0.00     0.048 C 
BRANCH  17  19
HETATM   19  O2  UNL     1      -4.442  -0.922  21.958  1.00  0.00    -0.373 OA
BRANCH  19  20
HETATM   20  C14 UNL     1      -3.095  -0.678  22.078  1.00  0.00     0.122 C 
HETATM   21  C15 UNL     1      -2.423  -0.433  20.745  1.00  0.00     0.032 C 
HETATM   22  C16 UNL     1      -1.329   0.590  20.952  1.00  0.00     0.002 C 
HETATM   23  C17 UNL     1      -1.948   1.962  21.155  1.00  0.00     0.000 C 
HETATM   24  C18 UNL     1      -3.187   1.807  21.975  1.00  0.00     0.002 C 
HETATM   25  C19 UNL     1      -2.948   0.590  22.886  1.00  0.00     0.032 C 
ENDBRANCH  19  20
ENDBRANCH  17  19
ENDBRANCH  15  17
ENDBRANCH  14  15
ENDBRANCH   1  14
TORSDOF 12
ENDMDL
