MODEL 1
REMARK VINA RESULT: -7.504947636      0.000      0.000
REMARK  15 active torsions:
REMARK  status: ('A' for Active; 'I' for Inactive)
REMARK    1  A    between atoms: C2_2  and  O2_4 
REMARK    2  A    between atoms: O2_4  and  C3_5 
REMARK    3  A    between atoms: C3_5  and  C4_6 
REMARK    4  A    between atoms: C5_8  and  C6_9 
REMARK    5  A    between atoms: C6_9  and  C7_10 
REMARK    6  A    between atoms: C8_11  and  C10_13 
REMARK    7  A    between atoms: C10_13  and  C12_15 
REMARK    8  A    between atoms: C12_15  and  O4_16 
REMARK    9  A    between atoms: C12_15  and  C13_18 
REMARK   10  A    between atoms: C14_21  and  O7_22 
REMARK   11  A    between atoms: O7_22  and  C15_23 
REMARK   12  A    between atoms: C17_26  and  O9_27 
REMARK   13  A    between atoms: O9_27  and  C18_28 
REMARK   14  A    between atoms: C20_31  and  O11_32 
REMARK   15  A    between atoms: O11_32  and  C21_33 
ROOT
HETATM    1  C4  UNL     1      -0.980   3.030  11.107  1.00  0.00     0.178 C 
HETATM    2  O3  UNL     1      -1.786   3.404  12.215  1.00  0.00    -0.373 OA
HETATM    3  C5  UNL     1      -1.655   4.713  12.579  1.00  0.00     0.158 C 
HETATM    4  C14 UNL     1      -2.337   5.535  11.493  1.00  0.00     0.193 C 
HETATM    5  C17 UNL     1      -1.860   5.159  10.116  1.00  0.00     0.196 C 
HETATM    6  C20 UNL     1      -0.752   4.119  10.177  1.00  0.00     0.195 C 
ENDROOT
BRANCH   3   7
HETATM    7  C6  UNL     1      -2.520   4.914  13.828  1.00  0.00     0.062 C 
BRANCH   7   8
HETATM    8  C7  UNL     1      -3.053   3.596  14.277  1.00  0.00    -0.021 C 
HETATM    9  C8  UNL     1      -4.326   3.332  14.404  1.00  0.00    -0.081 C 
HETATM   10  C9  UNL     1      -5.283   4.452  14.069  1.00  0.00     0.043 C 
BRANCH   9  11
HETATM   11  C10 UNL     1      -4.927   2.058  14.835  1.00  0.00     0.049 C 
HETATM   12  C11 UNL     1      -4.572   0.910  13.911  1.00  0.00     0.018 C 
BRANCH  11  13
HETATM   13  C12 UNL     1      -4.639   1.657  16.240  1.00  0.00     0.226 C 
BRANCH  13  14
HETATM   14  O4  UNL     1      -3.530   0.823  16.343  1.00  0.00    -0.384 OA
ATOM     15  H4  UNL     1      -3.481   0.381  17.183  1.00  0.00     0.210 HD
ENDBRANCH  13  14
BRANCH  13  16
HETATM   16  C13 UNL     1      -5.842   0.993  16.832  1.00  0.00     0.203 C 
HETATM   17  O5  UNL     1      -6.941   1.589  16.849  1.00  0.00    -0.646 OA
HETATM   18  O6  UNL     1      -5.750  -0.276  17.364  1.00  0.00    -0.646 OA
ENDBRANCH  13  16
ENDBRANCH  11  13
ENDBRANCH   9  11
ENDBRANCH   7   8
ENDBRANCH   3   7
BRANCH   4  19
HETATM   19  O7  UNL     1      -2.132   6.921  11.699  1.00  0.00    -0.311 OA
BRANCH  19  20
HETATM   20  C15 UNL     1      -3.209   7.791  11.645  1.00  0.00     0.255 C 
HETATM   21  C16 UNL     1      -4.614   7.346  11.841  1.00  0.00     0.126 C 
HETATM   22  O8  UNL     1      -3.020   9.015  11.421  1.00  0.00    -0.266 OA
ENDBRANCH  19  20
ENDBRANCH   4  19
BRANCH   1  23
HETATM   23  C3  UNL     1      -1.601   1.771  10.621  1.00  0.00     0.213 C 
BRANCH  23  24
HETATM   24  O2  UNL     1      -2.905   1.514  10.592  1.00  0.00    -0.319 OA
BRANCH  24  25
HETATM   25  C2  UNL     1      -3.673   0.441  10.489  1.00  0.00     0.254 C 
HETATM   26  C1  UNL     1      -3.262  -0.950  10.930  1.00  0.00     0.126 C 
HETATM   27  O1  UNL     1      -4.814   0.511  10.007  1.00  0.00    -0.266 OA
ENDBRANCH  24  25
ENDBRANCH  23  24
ENDBRANCH   1  23
BRANCH   5  28
HETATM   28  O9  UNL     1      -2.980   4.688   9.409  1.00  0.00    -0.311 OA
BRANCH  28  29
HETATM   29  C18 UNL     1      -3.378   5.231   8.202  1.00  0.00     0.255 C 
HETATM   30  C19 UNL     1      -4.293   6.367   8.190  1.00  0.00     0.126 C 
HETATM   31  O10 UNL     1      -2.916   4.697   7.167  1.00  0.00    -0.266 OA
ENDBRANCH  28  29
ENDBRANCH   5  28
BRANCH   6  32
HETATM   32  O11 UNL     1       0.475   4.814  10.591  1.00  0.00    -0.311 OA
BRANCH  32  33
HETATM   33  C21 UNL     1       1.722   4.380  10.272  1.00  0.00     0.255 C 
HETATM   34  C22 UNL     1       2.060   3.846   8.927  1.00  0.00     0.126 C 
HETATM   35  O12 UNL     1       2.629   4.423  11.119  1.00  0.00    -0.266 OA
ENDBRANCH  32  33
ENDBRANCH   6  32
TORSDOF 15
ENDMDL
MODEL 2
REMARK VINA RESULT: -7.451761285      1.530      1.940
REMARK  15 active torsions:
REMARK  status: ('A' for Active; 'I' for Inactive)
REMARK    1  A    between atoms: C2_2  and  O2_4 
REMARK    2  A    between atoms: O2_4  and  C3_5 
REMARK    3  A    between atoms: C3_5  and  C4_6 
REMARK    4  A    between atoms: C5_8  and  C6_9 
REMARK    5  A    between atoms: C6_9  and  C7_10 
REMARK    6  A    between atoms: C8_11  and  C10_13 
REMARK    7  A    between atoms: C10_13  and  C12_15 
REMARK    8  A    between atoms: C12_15  and  O4_16 
REMARK    9  A    between atoms: C12_15  and  C13_18 
REMARK   10  A    between atoms: C14_21  and  O7_22 
REMARK   11  A    between atoms: O7_22  and  C15_23 
REMARK   12  A    between atoms: C17_26  and  O9_27 
REMARK   13  A    between atoms: O9_27  and  C18_28 
REMARK   14  A    between atoms: C20_31  and  O11_32 
REMARK   15  A    between atoms: O11_32  and  C21_33 
ROOT
HETATM    1  C4  UNL     1      -1.020   4.634  11.926  1.00  0.00     0.178 C 
HETATM    2  O3  UNL     1      -2.107   4.551  12.836  1.00  0.00    -0.373 OA
HETATM    3  C5  UNL     1      -2.730   5.745  13.065  1.00  0.00     0.158 C 
HETATM    4  C14 UNL     1      -3.500   6.082  11.795  1.00  0.00     0.193 C 
HETATM    5  C17 UNL     1      -2.634   5.989  10.567  1.00  0.00     0.196 C 
HETATM    6  C20 UNL     1      -1.191   5.672  10.929  1.00  0.00     0.195 C 
ENDROOT
BRANCH   3   7
HETATM    7  C6  UNL     1      -3.809   5.486  14.124  1.00  0.00     0.062 C 
BRANCH   7   8
HETATM    8  C7  UNL     1      -3.879   4.024  14.409  1.00  0.00    -0.021 C 
HETATM    9  C8  UNL     1      -4.995   3.375  14.603  1.00  0.00    -0.081 C 
HETATM   10  C9  UNL     1      -6.268   4.185  14.526  1.00  0.00     0.043 C 
BRANCH   9  11
HETATM   11  C10 UNL     1      -5.146   1.936  14.883  1.00  0.00     0.049 C 
HETATM   12  C11 UNL     1      -4.406   1.072  13.883  1.00  0.00     0.018 C 
BRANCH  11  13
HETATM   13  C12 UNL     1      -4.774   1.510  16.261  1.00  0.00     0.226 C 
BRANCH  13  14
HETATM   14  O4  UNL     1      -3.575   0.806  16.299  1.00  0.00    -0.384 OA
ATOM     15  H4  UNL     1      -3.380   0.370  15.477  1.00  0.00     0.210 HD
ENDBRANCH  13  14
BRANCH  13  16
HETATM   16  C13 UNL     1      -5.875   0.688  16.850  1.00  0.00     0.203 C 
HETATM   17  O5  UNL     1      -5.618  -0.418  17.377  1.00  0.00    -0.646 OA
HETATM   18  O6  UNL     1      -7.178   1.137  16.817  1.00  0.00    -0.646 OA
ENDBRANCH  13  16
ENDBRANCH  11  13
ENDBRANCH   9  11
ENDBRANCH   7   8
ENDBRANCH   3   7
BRANCH   4  19
HETATM   19  O7  UNL     1      -4.068   7.376  11.872  1.00  0.00    -0.311 OA
BRANCH  19  20
HETATM   20  C15 UNL     1      -5.366   7.586  11.437  1.00  0.00     0.255 C 
HETATM   21  C16 UNL     1      -5.798   8.842  10.770  1.00  0.00     0.126 C 
HETATM   22  O8  UNL     1      -6.237   6.692  11.599  1.00  0.00    -0.266 OA
ENDBRANCH  19  20
ENDBRANCH   4  19
BRANCH   1  23
HETATM   23  C3  UNL     1      -0.810   3.228  11.492  1.00  0.00     0.213 C 
BRANCH  23  24
HETATM   24  O2  UNL     1      -1.648   2.219  11.708  1.00  0.00    -0.319 OA
BRANCH  24  25
HETATM   25  C2  UNL     1      -2.484   1.490  10.987  1.00  0.00     0.254 C 
HETATM   26  C1  UNL     1      -2.354  -0.006  10.781  1.00  0.00     0.126 C 
HETATM   27  O1  UNL     1      -3.458   2.004  10.416  1.00  0.00    -0.266 OA
ENDBRANCH  24  25
ENDBRANCH  23  24
ENDBRANCH   1  23
BRANCH   5  28
HETATM   28  O9  UNL     1      -3.196   4.997   9.745  1.00  0.00    -0.311 OA
BRANCH  28  29
HETATM   29  C18 UNL     1      -3.486   5.217   8.411  1.00  0.00     0.255 C 
HETATM   30  C19 UNL     1      -4.440   6.256   8.041  1.00  0.00     0.126 C 
HETATM   31  O10 UNL     1      -2.894   4.487   7.581  1.00  0.00    -0.266 OA
ENDBRANCH  28  29
ENDBRANCH   5  28
BRANCH   6  32
HETATM   32  O11 UNL     1      -0.594   6.906  11.457  1.00  0.00    -0.311 OA
BRANCH  32  33
HETATM   33  C21 UNL     1       0.732   7.190  11.370  1.00  0.00     0.255 C 
HETATM   34  C22 UNL     1       1.395   8.180  12.259  1.00  0.00     0.126 C 
HETATM   35  O12 UNL     1       1.435   6.614  10.525  1.00  0.00    -0.266 OA
ENDBRANCH  32  33
ENDBRANCH   6  32
TORSDOF 15
ENDMDL
MODEL 3
REMARK VINA RESULT: -7.233941428      1.236      1.626
REMARK  15 active torsions:
REMARK  status: ('A' for Active; 'I' for Inactive)
REMARK    1  A    between atoms: C2_2  and  O2_4 
REMARK    2  A    between atoms: O2_4  and  C3_5 
REMARK    3  A    between atoms: C3_5  and  C4_6 
REMARK    4  A    between atoms: C5_8  and  C6_9 
REMARK    5  A    between atoms: C6_9  and  C7_10 
REMARK    6  A    between atoms: C8_11  and  C10_13 
REMARK    7  A    between atoms: C10_13  and  C12_15 
REMARK    8  A    between atoms: C12_15  and  O4_16 
REMARK    9  A    between atoms: C12_15  and  C13_18 
REMARK   10  A    between atoms: C14_21  and  O7_22 
REMARK   11  A    between atoms: O7_22  and  C15_23 
REMARK   12  A    between atoms: C17_26  and  O9_27 
REMARK   13  A    between atoms: O9_27  and  C18_28 
REMARK   14  A    between atoms: C20_31  and  O11_32 
REMARK   15  A    between atoms: O11_32  and  C21_33 
ROOT
HETATM    1  C4  UNL     1      -0.855   2.623  10.738  1.00  0.00     0.178 C 
HETATM    2  O3  UNL     1      -1.395   3.319  11.851  1.00  0.00    -0.373 OA
HETATM    3  C5  UNL     1      -0.973   4.614  11.953  1.00  0.00     0.158 C 
HETATM    4  C14 UNL     1      -1.658   5.382  10.830  1.00  0.00     0.193 C 
HETATM    5  C17 UNL     1      -1.480   4.709   9.495  1.00  0.00     0.196 C 
HETATM    6  C20 UNL     1      -0.584   3.486   9.605  1.00  0.00     0.195 C 
ENDROOT
BRANCH   3   7
HETATM    7  C6  UNL     1      -1.580   5.178  13.243  1.00  0.00     0.062 C 
BRANCH   7   8
HETATM    8  C7  UNL     1      -2.521   4.178  13.824  1.00  0.00    -0.021 C 
HETATM    9  C8  UNL     1      -3.722   4.470  14.245  1.00  0.00    -0.081 C 
HETATM   10  C9  UNL     1      -4.146   5.915  14.121  1.00  0.00     0.043 C 
BRANCH   9  11
HETATM   11  C10 UNL     1      -4.709   3.541  14.823  1.00  0.00     0.049 C 
HETATM   12  C11 UNL     1      -6.136   3.961  14.535  1.00  0.00     0.018 C 
BRANCH  11  13
HETATM   13  C12 UNL     1      -4.539   2.111  14.445  1.00  0.00     0.226 C 
BRANCH  13  14
HETATM   14  O4  UNL     1      -5.510   1.673  13.550  1.00  0.00    -0.384 OA
ATOM     15  H4  UNL     1      -5.896   0.843  13.806  1.00  0.00     0.210 HD
ENDBRANCH  13  14
BRANCH  13  16
HETATM   16  C13 UNL     1      -4.548   1.259  15.675  1.00  0.00     0.203 C 
HETATM   17  O5  UNL     1      -3.502   1.115  16.345  1.00  0.00    -0.646 OA
HETATM   18  O6  UNL     1      -5.705   0.627  16.079  1.00  0.00    -0.646 OA
ENDBRANCH  13  16
ENDBRANCH  11  13
ENDBRANCH   9  11
ENDBRANCH   7   8
ENDBRANCH   3   7
BRANCH   4  19
HETATM   19  O7  UNL     1      -1.175   6.711  10.754  1.00  0.00    -0.311 OA
BRANCH  19  20
HETATM   20  C15 UNL     1      -2.047   7.743  10.447  1.00  0.00     0.255 C 
HETATM   21  C16 UNL     1      -3.094   8.218  11.388  1.00  0.00     0.126 C 
HETATM   22  O8  UNL     1      -1.972   8.320   9.330  1.00  0.00    -0.266 OA
ENDBRANCH  19  20
ENDBRANCH   4  19
BRANCH   1  23
HETATM   23  C3  UNL     1      -1.763   1.459  10.569  1.00  0.00     0.213 C 
BRANCH  23  24
HETATM   24  O2  UNL     1      -3.091   1.514  10.527  1.00  0.00    -0.319 OA
BRANCH  24  25
HETATM   25  C2  UNL     1      -4.099   0.717  10.843  1.00  0.00     0.254 C 
HETATM   26  C1  UNL     1      -3.939  -0.691  11.380  1.00  0.00     0.126 C 
HETATM   27  O1  UNL     1      -5.276   1.087  10.713  1.00  0.00    -0.266 OA
ENDBRANCH  24  25
ENDBRANCH  23  24
ENDBRANCH   1  23
BRANCH   5  28
HETATM   28  O9  UNL     1      -2.764   4.375   9.031  1.00  0.00    -0.311 OA
BRANCH  28  29
HETATM   29  C18 UNL     1      -3.384   5.062   8.004  1.00  0.00     0.255 C 
HETATM   30  C19 UNL     1      -4.466   5.993   8.308  1.00  0.00     0.126 C 
HETATM   31  O10 UNL     1      -2.965   4.835   6.845  1.00  0.00    -0.266 OA
ENDBRANCH  28  29
ENDBRANCH   5  28
BRANCH   6  32
HETATM   32  O11 UNL     1       0.799   3.969   9.730  1.00  0.00    -0.311 OA
BRANCH  32  33
HETATM   33  C21 UNL     1       1.726   3.839   8.746  1.00  0.00     0.255 C 
HETATM   34  C22 UNL     1       1.643   4.593   7.468  1.00  0.00     0.126 C 
HETATM   35  O12 UNL     1       2.688   3.068   8.898  1.00  0.00    -0.266 OA
ENDBRANCH  32  33
ENDBRANCH   6  32
TORSDOF 15
ENDMDL
MODEL 4
REMARK VINA RESULT: -7.072469581      2.608      6.455
REMARK  15 active torsions:
REMARK  status: ('A' for Active; 'I' for Inactive)
REMARK    1  A    between atoms: C2_2  and  O2_4 
REMARK    2  A    between atoms: O2_4  and  C3_5 
REMARK    3  A    between atoms: C3_5  and  C4_6 
REMARK    4  A    between atoms: C5_8  and  C6_9 
REMARK    5  A    between atoms: C6_9  and  C7_10 
REMARK    6  A    between atoms: C8_11  and  C10_13 
REMARK    7  A    between atoms: C10_13  and  C12_15 
REMARK    8  A    between atoms: C12_15  and  O4_16 
REMARK    9  A    between atoms: C12_15  and  C13_18 
REMARK   10  A    between atoms: C14_21  and  O7_22 
REMARK   11  A    between atoms: O7_22  and  C15_23 
REMARK   12  A    between atoms: C17_26  and  O9_27 
REMARK   13  A    between atoms: O9_27  and  C18_28 
REMARK   14  A    between atoms: C20_31  and  O11_32 
REMARK   15  A    between atoms: O11_32  and  C21_33 
ROOT
HETATM    1  C4  UNL     1      -4.716   2.924  12.843  1.00  0.00     0.178 C 
HETATM    2  O3  UNL     1      -5.262   4.202  12.549  1.00  0.00    -0.373 OA
HETATM    3  C5  UNL     1      -4.895   5.178  13.431  1.00  0.00     0.158 C 
HETATM    4  C14 UNL     1      -3.425   5.473  13.162  1.00  0.00     0.193 C 
HETATM    5  C17 UNL     1      -2.591   4.220  13.145  1.00  0.00     0.196 C 
HETATM    6  C20 UNL     1      -3.422   2.996  13.493  1.00  0.00     0.195 C 
ENDROOT
BRANCH   3   7
HETATM    7  C6  UNL     1      -5.636   6.454  13.014  1.00  0.00     0.062 C 
BRANCH   7   8
HETATM    8  C7  UNL     1      -5.469   6.664  11.547  1.00  0.00    -0.021 C 
HETATM    9  C8  UNL     1      -6.265   7.407  10.825  1.00  0.00    -0.081 C 
HETATM   10  C9  UNL     1      -7.410   8.072  11.552  1.00  0.00     0.043 C 
BRANCH   9  11
HETATM   11  C10 UNL     1      -6.163   7.667   9.378  1.00  0.00     0.049 C 
HETATM   12  C11 UNL     1      -4.803   7.299   8.820  1.00  0.00     0.018 C 
BRANCH  11  13
HETATM   13  C12 UNL     1      -7.219   7.037   8.538  1.00  0.00     0.226 C 
BRANCH  13  14
HETATM   14  O4  UNL     1      -6.707   6.097   7.650  1.00  0.00    -0.384 OA
ATOM     15  H4  UNL     1      -7.358   5.465   7.370  1.00  0.00     0.210 HD
ENDBRANCH  13  14
BRANCH  13  16
HETATM   16  C13 UNL     1      -7.971   8.095   7.795  1.00  0.00     0.203 C 
HETATM   17  O5  UNL     1      -9.146   8.373   8.120  1.00  0.00    -0.646 OA
HETATM   18  O6  UNL     1      -7.378   8.769   6.748  1.00  0.00    -0.646 OA
ENDBRANCH  13  16
ENDBRANCH  11  13
ENDBRANCH   9  11
ENDBRANCH   7   8
ENDBRANCH   3   7
BRANCH   4  19
HETATM   19  O7  UNL     1      -2.903   6.372  14.123  1.00  0.00    -0.311 OA
BRANCH  19  20
HETATM   20  C15 UNL     1      -2.317   7.558  13.709  1.00  0.00     0.255 C 
HETATM   21  C16 UNL     1      -2.047   8.688  14.635  1.00  0.00     0.126 C 
HETATM   22  O8  UNL     1      -1.990   7.712  12.503  1.00  0.00    -0.266 OA
ENDBRANCH  19  20
ENDBRANCH   4  19
BRANCH   1  23
HETATM   23  C3  UNL     1      -4.855   2.174  11.569  1.00  0.00     0.213 C 
BRANCH  23  24
HETATM   24  O2  UNL     1      -4.949   0.852  11.456  1.00  0.00    -0.319 OA
BRANCH  24  25
HETATM   25  C2  UNL     1      -4.276  -0.201  11.891  1.00  0.00     0.254 C 
HETATM   26  C1  UNL     1      -3.292  -0.992  11.052  1.00  0.00     0.126 C 
HETATM   27  O1  UNL     1      -4.415  -0.620  13.050  1.00  0.00    -0.266 OA
ENDBRANCH  24  25
ENDBRANCH  23  24
ENDBRANCH   1  23
BRANCH   5  28
HETATM   28  O9  UNL     1      -2.028   4.122  11.861  1.00  0.00    -0.311 OA
BRANCH  28  29
HETATM   29  C18 UNL     1      -1.187   3.087  11.497  1.00  0.00     0.255 C 
HETATM   30  C19 UNL     1      -1.472   2.314  10.292  1.00  0.00     0.126 C 
HETATM   31  O10 UNL     1      -0.206   2.871  12.247  1.00  0.00    -0.266 OA
ENDBRANCH  28  29
ENDBRANCH   5  28
BRANCH   6  32
HETATM   32  O11 UNL     1      -3.648   3.021  14.945  1.00  0.00    -0.311 OA
BRANCH  32  33
HETATM   33  C21 UNL     1      -4.227   2.000  15.627  1.00  0.00     0.255 C 
HETATM   34  C22 UNL     1      -5.690   1.944  15.888  1.00  0.00     0.126 C 
HETATM   35  O12 UNL     1      -3.530   1.067  16.058  1.00  0.00    -0.266 OA
ENDBRANCH  32  33
ENDBRANCH   6  32
TORSDOF 15
ENDMDL
MODEL 5
REMARK VINA RESULT: -7.040855855      2.357      6.329
REMARK  15 active torsions:
REMARK  status: ('A' for Active; 'I' for Inactive)
REMARK    1  A    between atoms: C2_2  and  O2_4 
REMARK    2  A    between atoms: O2_4  and  C3_5 
REMARK    3  A    between atoms: C3_5  and  C4_6 
REMARK    4  A    between atoms: C5_8  and  C6_9 
REMARK    5  A    between atoms: C6_9  and  C7_10 
REMARK    6  A    between atoms: C8_11  and  C10_13 
REMARK    7  A    between atoms: C10_13  and  C12_15 
REMARK    8  A    between atoms: C12_15  and  O4_16 
REMARK    9  A    between atoms: C12_15  and  C13_18 
REMARK   10  A    between atoms: C14_21  and  O7_22 
REMARK   11  A    between atoms: O7_22  and  C15_23 
REMARK   12  A    between atoms: C17_26  and  O9_27 
REMARK   13  A    between atoms: O9_27  and  C18_28 
REMARK   14  A    between atoms: C20_31  and  O11_32 
REMARK   15  A    between atoms: O11_32  and  C21_33 
ROOT
HETATM    1  C4  UNL     1      -4.831   2.767  13.124  1.00  0.00     0.178 C 
HETATM    2  O3  UNL     1      -5.537   3.973  12.873  1.00  0.00    -0.373 OA
HETATM    3  C5  UNL     1      -5.291   4.959  13.785  1.00  0.00     0.158 C 
HETATM    4  C14 UNL     1      -3.873   5.448  13.522  1.00  0.00     0.193 C 
HETATM    5  C17 UNL     1      -2.885   4.313  13.461  1.00  0.00     0.196 C 
HETATM    6  C20 UNL     1      -3.551   2.982  13.771  1.00  0.00     0.195 C 
ENDROOT
BRANCH   3   7
HETATM    7  C6  UNL     1      -6.192   6.143  13.411  1.00  0.00     0.062 C 
BRANCH   7   8
HETATM    8  C7  UNL     1      -5.656   6.804  12.187  1.00  0.00    -0.021 C 
HETATM    9  C8  UNL     1      -6.347   7.627  11.445  1.00  0.00    -0.081 C 
HETATM   10  C9  UNL     1      -7.767   7.899  11.884  1.00  0.00     0.043 C 
BRANCH   9  11
HETATM   11  C10 UNL     1      -5.889   8.321  10.229  1.00  0.00     0.049 C 
HETATM   12  C11 UNL     1      -4.753   9.285  10.508  1.00  0.00     0.018 C 
BRANCH  11  13
HETATM   13  C12 UNL     1      -5.507   7.437   9.093  1.00  0.00     0.226 C 
BRANCH  13  14
HETATM   14  O4  UNL     1      -4.590   8.035   8.234  1.00  0.00    -0.384 OA
ATOM     15  H4  UNL     1      -4.745   7.814   7.323  1.00  0.00     0.210 HD
ENDBRANCH  13  14
BRANCH  13  16
HETATM   16  C13 UNL     1      -6.731   7.027   8.338  1.00  0.00     0.203 C 
HETATM   17  O5  UNL     1      -7.272   5.924   8.574  1.00  0.00    -0.646 OA
HETATM   18  O6  UNL     1      -7.273   7.857   7.380  1.00  0.00    -0.646 OA
ENDBRANCH  13  16
ENDBRANCH  11  13
ENDBRANCH   9  11
ENDBRANCH   7   8
ENDBRANCH   3   7
BRANCH   4  19
HETATM   19  O7  UNL     1      -3.462   6.375  14.510  1.00  0.00    -0.311 OA
BRANCH  19  20
HETATM   20  C15 UNL     1      -2.789   7.527  14.135  1.00  0.00     0.255 C 
HETATM   21  C16 UNL     1      -2.487   8.627  15.088  1.00  0.00     0.126 C 
HETATM   22  O8  UNL     1      -2.407   7.674  12.945  1.00  0.00    -0.266 OA
ENDBRANCH  19  20
ENDBRANCH   4  19
BRANCH   1  23
HETATM   23  C3  UNL     1      -4.882   2.046  11.825  1.00  0.00     0.213 C 
BRANCH  23  24
HETATM   24  O2  UNL     1      -4.916   0.725  11.676  1.00  0.00    -0.319 OA
BRANCH  24  25
HETATM   25  C2  UNL     1      -4.035  -0.249  11.513  1.00  0.00     0.254 C 
HETATM   26  C1  UNL     1      -2.668  -0.068  10.883  1.00  0.00     0.126 C 
HETATM   27  O1  UNL     1      -4.282  -1.408  11.878  1.00  0.00    -0.266 OA
ENDBRANCH  24  25
ENDBRANCH  23  24
ENDBRANCH   1  23
BRANCH   5  28
HETATM   28  O9  UNL     1      -2.323   4.328  12.173  1.00  0.00    -0.311 OA
BRANCH  28  29
HETATM   29  C18 UNL     1      -0.975   4.123  11.950  1.00  0.00     0.255 C 
HETATM   30  C19 UNL     1      -0.093   5.269  11.753  1.00  0.00     0.126 C 
HETATM   31  O10 UNL     1      -0.585   2.932  11.928  1.00  0.00    -0.266 OA
ENDBRANCH  28  29
ENDBRANCH   5  28
BRANCH   6  32
HETATM   32  O11 UNL     1      -3.769   2.932  15.224  1.00  0.00    -0.311 OA
BRANCH  32  33
HETATM   33  C21 UNL     1      -4.278   1.848  15.865  1.00  0.00     0.255 C 
HETATM   34  C22 UNL     1      -5.709   1.751  16.253  1.00  0.00     0.126 C 
HETATM   35  O12 UNL     1      -3.540   0.890  16.146  1.00  0.00    -0.266 OA
ENDBRANCH  32  33
ENDBRANCH   6  32
TORSDOF 15
ENDMDL
