MODEL 1
REMARK VINA RESULT: -7.189429983      0.000      0.000
REMARK  15 active torsions:
REMARK  status: ('A' for Active; 'I' for Inactive)
REMARK    1  A    between atoms: C2_2  and  C3_3 
REMARK    2  A    between atoms: C3_3  and  C4_4 
REMARK    3  A    between atoms: C4_4  and  C5_5 
REMARK    4  A    between atoms: C5_5  and  C6_6 
REMARK    5  A    between atoms: C6_6  and  C7_7 
REMARK    6  A    between atoms: C7_7  and  C8_8 
REMARK    7  A    between atoms: C8_8  and  O2_10 
REMARK    8  A    between atoms: O2_10  and  C9_11 
REMARK    9  A    between atoms: C10_12  and  O3_13 
REMARK   10  A    between atoms: C16_23  and  C17_24 
REMARK   11  A    between atoms: C17_24  and  O8_25 
REMARK   12  A    between atoms: C17_24  and  C18_27 
REMARK   13  A    between atoms: C18_27  and  O9_28 
REMARK   14  A    between atoms: C19_30  and  O10_31 
REMARK   15  A    between atoms: C21_33  and  O11_35 
ROOT
HETATM    1  C9  UNL     1      -3.890   2.292  12.005  1.00  0.00     0.218 C 
HETATM    2  C10 UNL     1      -2.732   1.363  11.569  1.00  0.00     0.291 C 
HETATM    3  O4  UNL     1      -1.612   2.112  11.813  1.00  0.00    -0.348 OA
HETATM    4  C12 UNL     1      -1.909   3.452  11.795  1.00  0.00     0.180 C 
HETATM    5  C13 UNL     1      -1.112   4.171  10.732  1.00  0.00     0.208 C 
HETATM    6  O5  UNL     1      -1.926   5.186  10.235  1.00  0.00    -0.328 OA
HETATM    7  C14 UNL     1      -2.911   4.571   9.446  1.00  0.00     0.318 C 
HETATM    8  O6  UNL     1      -3.494   3.504  10.081  1.00  0.00    -0.319 OA
HETATM    9  C15 UNL     1      -3.384   3.564  11.494  1.00  0.00     0.193 C 
HETATM   10  O7  UNL     1      -2.350   4.094   8.264  1.00  0.00    -0.319 OA
HETATM   11  C16 UNL     1      -2.524   5.053   7.280  1.00  0.00     0.190 C 
HETATM   12  C19 UNL     1      -3.816   5.693   7.588  1.00  0.00     0.194 C 
HETATM   13  C21 UNL     1      -3.918   5.622   9.086  1.00  0.00     0.166 C 
HETATM   14  C22 UNL     1      -3.631   6.970   9.674  1.00  0.00     0.057 C 
ENDROOT
BRANCH  13  15
HETATM   15  O11 UNL     1      -5.221   5.228   9.462  1.00  0.00    -0.379 OA
ATOM     16  H11 UNL     1      -5.364   4.306   9.282  1.00  0.00     0.211 HD
ENDBRANCH  13  15
BRANCH  11  17
HETATM   17  C17 UNL     1      -1.313   5.919   7.252  1.00  0.00     0.173 C 
BRANCH  17  18
HETATM   18  O8  UNL     1      -0.224   5.072   7.591  1.00  0.00    -0.391 OA
ATOM     19  H8  UNL     1       0.146   5.432   8.388  1.00  0.00     0.210 HD
ENDBRANCH  17  18
BRANCH  17  20
HETATM   20  C18 UNL     1      -0.955   6.454   5.881  1.00  0.00     0.198 C 
BRANCH  20  21
HETATM   21  O9  UNL     1      -1.583   7.663   5.675  1.00  0.00    -0.398 OA
ATOM     22  H9  UNL     1      -0.937   8.333   5.487  1.00  0.00     0.209 HD
ENDBRANCH  20  21
ENDBRANCH  17  20
ENDBRANCH  11  17
BRANCH  12  23
HETATM   23  O10 UNL     1      -4.056   6.931   7.070  1.00  0.00    -0.385 OA
HETATM   24  C20 UNL     1      -5.202   6.974   6.253  1.00  0.00     0.202 C 
ENDBRANCH  12  23
BRANCH   1  25
HETATM   25  O2  UNL     1      -4.092   2.066  13.319  1.00  0.00    -0.308 OA
BRANCH  25  26
HETATM   26  C8  UNL     1      -4.362   2.905  14.359  1.00  0.00     0.259 C 
HETATM   27  O1  UNL     1      -3.451   2.973  15.216  1.00  0.00    -0.265 OA
BRANCH  26  28
HETATM   28  C7  UNL     1      -5.616   3.696  14.508  1.00  0.00     0.111 C 
BRANCH  28  29
HETATM   29  C6  UNL     1      -5.254   5.171  14.276  1.00  0.00     0.010 C 
BRANCH  29  30
HETATM   30  C5  UNL     1      -6.406   5.971  13.776  1.00  0.00     0.000 C 
BRANCH  30  31
HETATM   31  C4  UNL     1      -5.927   6.717  12.536  1.00  0.00     0.000 C 
BRANCH  31  32
HETATM   32  C3  UNL     1      -7.124   7.456  11.995  1.00  0.00    -0.000 C 
BRANCH  32  33
HETATM   33  C2  UNL     1      -6.698   8.520  10.980  1.00  0.00    -0.005 C 
HETATM   34  C1  UNL     1      -7.311   8.177   9.650  1.00  0.00     0.005 C 
ENDBRANCH  32  33
ENDBRANCH  31  32
ENDBRANCH  30  31
ENDBRANCH  29  30
ENDBRANCH  28  29
ENDBRANCH  26  28
ENDBRANCH  25  26
ENDBRANCH   1  25
BRANCH   2  35
HETATM   35  O3  UNL     1      -2.883   1.031  10.239  1.00  0.00    -0.363 OA
HETATM   36  C11 UNL     1      -3.310  -0.276  10.145  1.00  0.00     0.204 C 
ENDBRANCH   2  35
TORSDOF 15
ENDMDL
MODEL 2
REMARK VINA RESULT: -7.188230534      2.407      3.963
REMARK  15 active torsions:
REMARK  status: ('A' for Active; 'I' for Inactive)
REMARK    1  A    between atoms: C2_2  and  C3_3 
REMARK    2  A    between atoms: C3_3  and  C4_4 
REMARK    3  A    between atoms: C4_4  and  C5_5 
REMARK    4  A    between atoms: C5_5  and  C6_6 
REMARK    5  A    between atoms: C6_6  and  C7_7 
REMARK    6  A    between atoms: C7_7  and  C8_8 
REMARK    7  A    between atoms: C8_8  and  O2_10 
REMARK    8  A    between atoms: O2_10  and  C9_11 
REMARK    9  A    between atoms: C10_12  and  O3_13 
REMARK   10  A    between atoms: C16_23  and  C17_24 
REMARK   11  A    between atoms: C17_24  and  O8_25 
REMARK   12  A    between atoms: C17_24  and  C18_27 
REMARK   13  A    between atoms: C18_27  and  O9_28 
REMARK   14  A    between atoms: C19_30  and  O10_31 
REMARK   15  A    between atoms: C21_33  and  O11_35 
ROOT
HETATM    1  C9  UNL     1      -4.152   2.888  11.072  1.00  0.00     0.218 C 
HETATM    2  C10 UNL     1      -3.327   1.617  11.386  1.00  0.00     0.291 C 
HETATM    3  O4  UNL     1      -2.229   2.103  12.044  1.00  0.00    -0.348 OA
HETATM    4  C12 UNL     1      -1.999   3.414  11.707  1.00  0.00     0.180 C 
HETATM    5  C13 UNL     1      -0.632   3.582  11.084  1.00  0.00     0.208 C 
HETATM    6  O5  UNL     1      -0.747   4.583  10.123  1.00  0.00    -0.328 OA
HETATM    7  C14 UNL     1      -1.455   4.033   9.043  1.00  0.00     0.318 C 
HETATM    8  O6  UNL     1      -2.585   3.369   9.446  1.00  0.00    -0.319 OA
HETATM    9  C15 UNL     1      -3.066   3.797  10.710  1.00  0.00     0.193 C 
HETATM   10  O7  UNL     1      -0.657   3.119   8.362  1.00  0.00    -0.319 OA
HETATM   11  C16 UNL     1      -0.051   3.772   7.301  1.00  0.00     0.190 C 
HETATM   12  C19 UNL     1      -1.035   4.772   6.850  1.00  0.00     0.194 C 
HETATM   13  C21 UNL     1      -1.776   5.155   8.101  1.00  0.00     0.166 C 
HETATM   14  C22 UNL     1      -1.309   6.500   8.569  1.00  0.00     0.057 C 
ENDROOT
BRANCH  13  15
HETATM   15  O11 UNL     1      -3.162   5.218   7.839  1.00  0.00    -0.379 OA
ATOM     16  H11 UNL     1      -3.402   6.059   7.468  1.00  0.00     0.211 HD
ENDBRANCH  13  15
BRANCH  11  17
HETATM   17  C17 UNL     1       1.278   4.267   7.756  1.00  0.00     0.173 C 
BRANCH  17  18
HETATM   18  O8  UNL     1       1.693   3.377   8.782  1.00  0.00    -0.391 OA
ATOM     19  H8  UNL     1       1.709   2.513   8.385  1.00  0.00     0.210 HD
ENDBRANCH  17  18
BRANCH  17  20
HETATM   20  C18 UNL     1       2.374   4.169   6.714  1.00  0.00     0.198 C 
BRANCH  20  21
HETATM   21  O9  UNL     1       2.112   3.122   5.859  1.00  0.00    -0.398 OA
ATOM     22  H9  UNL     1       2.612   3.227   5.058  1.00  0.00     0.209 HD
ENDBRANCH  20  21
ENDBRANCH  17  20
ENDBRANCH  11  17
BRANCH  12  23
HETATM   23  O10 UNL     1      -0.583   5.831   6.121  1.00  0.00    -0.385 OA
HETATM   24  C20 UNL     1      -0.617   5.602   4.733  1.00  0.00     0.202 C 
ENDBRANCH  12  23
BRANCH   1  25
HETATM   25  O2  UNL     1      -4.953   3.101  12.135  1.00  0.00    -0.308 OA
BRANCH  25  26
HETATM   26  C8  UNL     1      -4.849   3.942  13.203  1.00  0.00     0.259 C 
HETATM   27  O1  UNL     1      -5.252   5.108  12.980  1.00  0.00    -0.265 OA
BRANCH  26  28
HETATM   28  C7  UNL     1      -4.314   3.557  14.539  1.00  0.00     0.111 C 
BRANCH  28  29
HETATM   29  C6  UNL     1      -4.491   2.038  14.679  1.00  0.00     0.010 C 
BRANCH  29  30
HETATM   30  C5  UNL     1      -4.064   1.533  16.013  1.00  0.00     0.000 C 
BRANCH  30  31
HETATM   31  C4  UNL     1      -5.022   0.410  16.392  1.00  0.00     0.000 C 
BRANCH  31  32
HETATM   32  C3  UNL     1      -5.864   0.933  17.528  1.00  0.00    -0.000 C 
BRANCH  32  33
HETATM   33  C2  UNL     1      -7.282   1.262  17.054  1.00  0.00    -0.005 C 
HETATM   34  C1  UNL     1      -7.326   2.717  16.671  1.00  0.00     0.005 C 
ENDBRANCH  32  33
ENDBRANCH  31  32
ENDBRANCH  30  31
ENDBRANCH  29  30
ENDBRANCH  28  29
ENDBRANCH  26  28
ENDBRANCH  25  26
ENDBRANCH   1  25
BRANCH   2  35
HETATM   35  O3  UNL     1      -3.010   0.970  10.209  1.00  0.00    -0.363 OA
HETATM   36  C11 UNL     1      -3.270  -0.376  10.349  1.00  0.00     0.204 C 
ENDBRANCH   2  35
TORSDOF 15
ENDMDL
MODEL 3
REMARK VINA RESULT: -7.099168653      1.122      1.726
REMARK  15 active torsions:
REMARK  status: ('A' for Active; 'I' for Inactive)
REMARK    1  A    between atoms: C2_2  and  C3_3 
REMARK    2  A    between atoms: C3_3  and  C4_4 
REMARK    3  A    between atoms: C4_4  and  C5_5 
REMARK    4  A    between atoms: C5_5  and  C6_6 
REMARK    5  A    between atoms: C6_6  and  C7_7 
REMARK    6  A    between atoms: C7_7  and  C8_8 
REMARK    7  A    between atoms: C8_8  and  O2_10 
REMARK    8  A    between atoms: O2_10  and  C9_11 
REMARK    9  A    between atoms: C10_12  and  O3_13 
REMARK   10  A    between atoms: C16_23  and  C17_24 
REMARK   11  A    between atoms: C17_24  and  O8_25 
REMARK   12  A    between atoms: C17_24  and  C18_27 
REMARK   13  A    between atoms: C18_27  and  O9_28 
REMARK   14  A    between atoms: C19_30  and  O10_31 
REMARK   15  A    between atoms: C21_33  and  O11_35 
ROOT
HETATM    1  C9  UNL     1      -4.047   2.215  12.096  1.00  0.00     0.218 C 
HETATM    2  C10 UNL     1      -2.896   1.305  11.605  1.00  0.00     0.291 C 
HETATM    3  O4  UNL     1      -1.772   2.048  11.853  1.00  0.00    -0.348 OA
HETATM    4  C12 UNL     1      -2.072   3.387  11.889  1.00  0.00     0.180 C 
HETATM    5  C13 UNL     1      -1.298   4.146  10.837  1.00  0.00     0.208 C 
HETATM    6  O5  UNL     1      -2.123   5.176  10.393  1.00  0.00    -0.328 OA
HETATM    7  C14 UNL     1      -3.122   4.587   9.602  1.00  0.00     0.318 C 
HETATM    8  O6  UNL     1      -3.691   3.496  10.210  1.00  0.00    -0.319 OA
HETATM    9  C15 UNL     1      -3.553   3.506  11.621  1.00  0.00     0.193 C 
HETATM   10  O7  UNL     1      -2.584   4.154   8.393  1.00  0.00    -0.319 OA
HETATM   11  C16 UNL     1      -2.779   5.147   7.447  1.00  0.00     0.190 C 
HETATM   12  C19 UNL     1      -4.066   5.772   7.803  1.00  0.00     0.194 C 
HETATM   13  C21 UNL     1      -4.138   5.648   9.300  1.00  0.00     0.166 C 
HETATM   14  C22 UNL     1      -3.843   6.975   9.929  1.00  0.00     0.057 C 
ENDROOT
BRANCH  13  15
HETATM   15  O11 UNL     1      -5.433   5.237   9.687  1.00  0.00    -0.379 OA
ATOM     16  H11 UNL     1      -5.875   5.919  10.179  1.00  0.00     0.211 HD
ENDBRANCH  13  15
BRANCH  11  17
HETATM   17  C17 UNL     1      -1.570   6.017   7.427  1.00  0.00     0.173 C 
BRANCH  17  18
HETATM   18  O8  UNL     1      -0.472   5.158   7.695  1.00  0.00    -0.391 OA
ATOM     19  H8  UNL     1      -0.237   5.312   8.603  1.00  0.00     0.210 HD
ENDBRANCH  17  18
BRANCH  17  20
HETATM   20  C18 UNL     1      -1.251   6.617   6.073  1.00  0.00     0.198 C 
BRANCH  20  21
HETATM   21  O9  UNL     1      -1.808   7.873   5.978  1.00  0.00    -0.398 OA
ATOM     22  H9  UNL     1      -1.316   8.396   5.356  1.00  0.00     0.209 HD
ENDBRANCH  20  21
ENDBRANCH  17  20
ENDBRANCH  11  17
BRANCH  12  23
HETATM   23  O10 UNL     1      -4.319   7.027   7.335  1.00  0.00    -0.385 OA
HETATM   24  C20 UNL     1      -5.264   7.047   6.292  1.00  0.00     0.202 C 
ENDBRANCH  12  23
BRANCH   1  25
HETATM   25  O2  UNL     1      -4.222   1.942  13.405  1.00  0.00    -0.308 OA
BRANCH  25  26
HETATM   26  C8  UNL     1      -4.421   2.746  14.487  1.00  0.00     0.259 C 
HETATM   27  O1  UNL     1      -3.367   3.102  15.064  1.00  0.00    -0.265 OA
BRANCH  26  28
HETATM   28  C7  UNL     1      -5.754   3.193  14.980  1.00  0.00     0.111 C 
BRANCH  28  29
HETATM   29  C6  UNL     1      -6.176   4.396  14.121  1.00  0.00     0.010 C 
BRANCH  29  30
HETATM   30  C5  UNL     1      -5.654   5.687  14.650  1.00  0.00     0.000 C 
BRANCH  30  31
HETATM   31  C4  UNL     1      -4.914   6.370  13.505  1.00  0.00     0.000 C 
BRANCH  31  32
HETATM   32  C3  UNL     1      -3.474   6.481  13.935  1.00  0.00    -0.000 C 
BRANCH  32  33
HETATM   33  C2  UNL     1      -2.926   7.884  13.663  1.00  0.00    -0.005 C 
HETATM   34  C1  UNL     1      -2.557   8.511  14.979  1.00  0.00     0.005 C 
ENDBRANCH  32  33
ENDBRANCH  31  32
ENDBRANCH  30  31
ENDBRANCH  29  30
ENDBRANCH  28  29
ENDBRANCH  26  28
ENDBRANCH  25  26
ENDBRANCH   1  25
BRANCH   2  35
HETATM   35  O3  UNL     1      -3.072   1.020  10.266  1.00  0.00    -0.363 OA
HETATM   36  C11 UNL     1      -3.269  -0.335  10.114  1.00  0.00     0.204 C 
ENDBRANCH   2  35
TORSDOF 15
ENDMDL
MODEL 4
REMARK VINA RESULT: -6.947575909      1.621      2.198
REMARK  15 active torsions:
REMARK  status: ('A' for Active; 'I' for Inactive)
REMARK    1  A    between atoms: C2_2  and  C3_3 
REMARK    2  A    between atoms: C3_3  and  C4_4 
REMARK    3  A    between atoms: C4_4  and  C5_5 
REMARK    4  A    between atoms: C5_5  and  C6_6 
REMARK    5  A    between atoms: C6_6  and  C7_7 
REMARK    6  A    between atoms: C7_7  and  C8_8 
REMARK    7  A    between atoms: C8_8  and  O2_10 
REMARK    8  A    between atoms: O2_10  and  C9_11 
REMARK    9  A    between atoms: C10_12  and  O3_13 
REMARK   10  A    between atoms: C16_23  and  C17_24 
REMARK   11  A    between atoms: C17_24  and  O8_25 
REMARK   12  A    between atoms: C17_24  and  C18_27 
REMARK   13  A    between atoms: C18_27  and  O9_28 
REMARK   14  A    between atoms: C19_30  and  O10_31 
REMARK   15  A    between atoms: C21_33  and  O11_35 
ROOT
HETATM    1  C9  UNL     1      -4.399   2.883  11.380  1.00  0.00     0.218 C 
HETATM    2  C10 UNL     1      -3.595   1.578  11.592  1.00  0.00     0.291 C 
HETATM    3  O4  UNL     1      -2.456   2.003  12.222  1.00  0.00    -0.348 OA
HETATM    4  C12 UNL     1      -2.206   3.323  11.939  1.00  0.00     0.180 C 
HETATM    5  C13 UNL     1      -0.865   3.489  11.263  1.00  0.00     0.208 C 
HETATM    6  O5  UNL     1      -0.996   4.540  10.359  1.00  0.00    -0.328 OA
HETATM    7  C14 UNL     1      -1.766   4.063   9.287  1.00  0.00     0.318 C 
HETATM    8  O6  UNL     1      -2.895   3.406   9.709  1.00  0.00    -0.319 OA
HETATM    9  C15 UNL     1      -3.307   3.782  11.013  1.00  0.00     0.193 C 
HETATM   10  O7  UNL     1      -1.024   3.164   8.526  1.00  0.00    -0.319 OA
HETATM   11  C16 UNL     1      -0.449   3.854   7.471  1.00  0.00     0.190 C 
HETATM   12  C19 UNL     1      -1.426   4.900   7.116  1.00  0.00     0.194 C 
HETATM   13  C21 UNL     1      -2.099   5.238   8.417  1.00  0.00     0.166 C 
HETATM   14  C22 UNL     1      -1.576   6.545   8.928  1.00  0.00     0.057 C 
ENDROOT
BRANCH  13  15
HETATM   15  O11 UNL     1      -3.494   5.348   8.224  1.00  0.00    -0.379 OA
ATOM     16  H11 UNL     1      -3.942   5.497   9.048  1.00  0.00     0.211 HD
ENDBRANCH  13  15
BRANCH  11  17
HETATM   17  C17 UNL     1       0.912   4.293   7.888  1.00  0.00     0.173 C 
BRANCH  17  18
HETATM   18  O8  UNL     1       1.347   3.344   8.850  1.00  0.00    -0.391 OA
ATOM     19  H8  UNL     1       2.222   3.088   8.584  1.00  0.00     0.210 HD
ENDBRANCH  17  18
BRANCH  17  20
HETATM   20  C18 UNL     1       1.957   4.219   6.794  1.00  0.00     0.198 C 
BRANCH  20  21
HETATM   21  O9  UNL     1       1.637   3.210   5.912  1.00  0.00    -0.398 OA
ATOM     22  H9  UNL     1       2.300   3.155   5.233  1.00  0.00     0.209 HD
ENDBRANCH  20  21
ENDBRANCH  17  20
ENDBRANCH  11  17
BRANCH  12  23
HETATM   23  O10 UNL     1      -0.979   5.984   6.420  1.00  0.00    -0.385 OA
HETATM   24  C20 UNL     1      -1.162   5.862   5.030  1.00  0.00     0.202 C 
ENDBRANCH  12  23
BRANCH   1  25
HETATM   25  O2  UNL     1      -5.145   3.061  12.488  1.00  0.00    -0.308 OA
BRANCH  25  26
HETATM   26  C8  UNL     1      -5.024   3.916  13.543  1.00  0.00     0.259 C 
HETATM   27  O1  UNL     1      -4.467   3.417  14.549  1.00  0.00    -0.265 OA
BRANCH  26  28
HETATM   28  C7  UNL     1      -5.493   5.330  13.549  1.00  0.00     0.111 C 
BRANCH  28  29
HETATM   29  C6  UNL     1      -4.305   6.202  13.985  1.00  0.00     0.010 C 
BRANCH  29  30
HETATM   30  C5  UNL     1      -3.772   7.039  12.874  1.00  0.00     0.000 C 
BRANCH  30  31
HETATM   31  C4  UNL     1      -4.844   7.074  11.790  1.00  0.00     0.000 C 
BRANCH  31  32
HETATM   32  C3  UNL     1      -4.777   8.447  11.171  1.00  0.00    -0.000 C 
BRANCH  32  33
HETATM   33  C2  UNL     1      -6.171   8.936  10.768  1.00  0.00    -0.005 C 
HETATM   34  C1  UNL     1      -7.192   8.053  11.432  1.00  0.00     0.005 C 
ENDBRANCH  32  33
ENDBRANCH  31  32
ENDBRANCH  30  31
ENDBRANCH  29  30
ENDBRANCH  28  29
ENDBRANCH  26  28
ENDBRANCH  25  26
ENDBRANCH   1  25
BRANCH   2  35
HETATM   35  O3  UNL     1      -3.349   0.984  10.372  1.00  0.00    -0.363 OA
HETATM   36  C11 UNL     1      -3.298  -0.384  10.537  1.00  0.00     0.204 C 
ENDBRANCH   2  35
TORSDOF 15
ENDMDL
MODEL 5
REMARK VINA RESULT: -6.946538733      1.922      2.782
REMARK  15 active torsions:
REMARK  status: ('A' for Active; 'I' for Inactive)
REMARK    1  A    between atoms: C2_2  and  C3_3 
REMARK    2  A    between atoms: C3_3  and  C4_4 
REMARK    3  A    between atoms: C4_4  and  C5_5 
REMARK    4  A    between atoms: C5_5  and  C6_6 
REMARK    5  A    between atoms: C6_6  and  C7_7 
REMARK    6  A    between atoms: C7_7  and  C8_8 
REMARK    7  A    between atoms: C8_8  and  O2_10 
REMARK    8  A    between atoms: O2_10  and  C9_11 
REMARK    9  A    between atoms: C10_12  and  O3_13 
REMARK   10  A    between atoms: C16_23  and  C17_24 
REMARK   11  A    between atoms: C17_24  and  O8_25 
REMARK   12  A    between atoms: C17_24  and  C18_27 
REMARK   13  A    between atoms: C18_27  and  O9_28 
REMARK   14  A    between atoms: C19_30  and  O10_31 
REMARK   15  A    between atoms: C21_33  and  O11_35 
ROOT
HETATM    1  C9  UNL     1      -3.063   3.193  11.042  1.00  0.00     0.218 C 
HETATM    2  C10 UNL     1      -2.129   2.014  11.405  1.00  0.00     0.291 C 
HETATM    3  O4  UNL     1      -0.970   2.630  11.795  1.00  0.00    -0.348 OA
HETATM    4  C12 UNL     1      -0.869   3.878  11.232  1.00  0.00     0.180 C 
HETATM    5  C13 UNL     1       0.372   3.988  10.377  1.00  0.00     0.208 C 
HETATM    6  O5  UNL     1       0.053   4.822   9.308  1.00  0.00    -0.328 OA
HETATM    7  C14 UNL     1      -0.784   4.088   8.453  1.00  0.00     0.318 C 
HETATM    8  O6  UNL     1      -1.798   3.461   9.130  1.00  0.00    -0.319 OA
HETATM    9  C15 UNL     1      -2.099   4.067  10.376  1.00  0.00     0.193 C 
HETATM   10  O7  UNL     1      -0.052   3.103   7.796  1.00  0.00    -0.319 OA
HETATM   11  C16 UNL     1       0.344   3.599   6.565  1.00  0.00     0.190 C 
HETATM   12  C19 UNL     1      -0.753   4.486   6.135  1.00  0.00     0.194 C 
HETATM   13  C21 UNL     1      -1.309   5.038   7.418  1.00  0.00     0.166 C 
HETATM   14  C22 UNL     1      -0.851   6.453   7.596  1.00  0.00     0.057 C 
ENDROOT
BRANCH  13  15
HETATM   15  O11 UNL     1      -2.721   5.016   7.379  1.00  0.00    -0.379 OA
ATOM     16  H11 UNL     1      -3.041   4.180   7.063  1.00  0.00     0.211 HD
ENDBRANCH  13  15
BRANCH  11  17
HETATM   17  C17 UNL     1       1.698   4.200   6.717  1.00  0.00     0.173 C 
BRANCH  17  18
HETATM   18  O8  UNL     1       2.301   3.524   7.811  1.00  0.00    -0.391 OA
ATOM     19  H8  UNL     1       2.506   4.197   8.449  1.00  0.00     0.210 HD
ENDBRANCH  17  18
BRANCH  17  20
HETATM   20  C18 UNL     1       2.635   3.938   5.556  1.00  0.00     0.198 C 
BRANCH  20  21
HETATM   21  O9  UNL     1       2.685   2.587   5.294  1.00  0.00    -0.398 OA
ATOM     22  H9  UNL     1       3.277   2.422   4.570  1.00  0.00     0.209 HD
ENDBRANCH  20  21
ENDBRANCH  17  20
ENDBRANCH  11  17
BRANCH  12  23
HETATM   23  O10 UNL     1      -0.480   5.431   5.192  1.00  0.00    -0.385 OA
HETATM   24  C20 UNL     1      -0.818   5.025   3.887  1.00  0.00     0.202 C 
ENDBRANCH  12  23
BRANCH   1  25
HETATM   25  O2  UNL     1      -3.698   3.545  12.178  1.00  0.00    -0.308 OA
BRANCH  25  26
HETATM   26  C8  UNL     1      -4.727   2.973  12.865  1.00  0.00     0.259 C 
HETATM   27  O1  UNL     1      -5.465   2.238  12.167  1.00  0.00    -0.265 OA
BRANCH  26  28
HETATM   28  C7  UNL     1      -4.993   3.171  14.317  1.00  0.00     0.111 C 
BRANCH  28  29
HETATM   29  C6  UNL     1      -6.176   4.144  14.434  1.00  0.00     0.010 C 
BRANCH  29  30
HETATM   30  C5  UNL     1      -5.742   5.568  14.492  1.00  0.00     0.000 C 
BRANCH  30  31
HETATM   31  C4  UNL     1      -6.478   6.303  13.377  1.00  0.00     0.000 C 
BRANCH  31  32
HETATM   32  C3  UNL     1      -5.427   6.735  12.387  1.00  0.00    -0.000 C 
BRANCH  32  33
HETATM   33  C2  UNL     1      -6.060   7.128  11.050  1.00  0.00    -0.005 C 
HETATM   34  C1  UNL     1      -7.087   8.197  11.310  1.00  0.00     0.005 C 
ENDBRANCH  32  33
ENDBRANCH  31  32
ENDBRANCH  30  31
ENDBRANCH  29  30
ENDBRANCH  28  29
ENDBRANCH  26  28
ENDBRANCH  25  26
ENDBRANCH   1  25
BRANCH   2  35
HETATM   35  O3  UNL     1      -1.965   1.200  10.303  1.00  0.00    -0.363 OA
HETATM   36  C11 UNL     1      -2.671   0.032  10.493  1.00  0.00     0.204 C 
ENDBRANCH   2  35
TORSDOF 15
ENDMDL
