MODEL 1
REMARK VINA RESULT: -7.327764395      0.000      0.000
REMARK  17 active torsions:
REMARK  status: ('A' for Active; 'I' for Inactive)
REMARK    1  A    between atoms: C2_2  and  O1_3 
REMARK    2  A    between atoms: O1_3  and  C3_4 
REMARK    3  A    between atoms: C3_4  and  C4_6 
REMARK    4  A    between atoms: C4_6  and  C5_7 
REMARK    5  A    between atoms: C5_7  and  C6_8 
REMARK    6  A    between atoms: C5_7  and  C15_27 
REMARK    7  A    between atoms: C6_8  and  O3_9 
REMARK    8  A    between atoms: C6_8  and  C7_11 
REMARK    9  A    between atoms: C8_13  and  O5_14 
REMARK   10  A    between atoms: C9_16  and  C10_17 
REMARK   11  A    between atoms: C10_17  and  O7_19 
REMARK   12  A    between atoms: C12_21  and  O8_22 
REMARK   13  A    between atoms: O8_22  and  C13_23 
REMARK   14  A    between atoms: C15_27  and  O11_28 
REMARK   15  A    between atoms: C15_27  and  C18_32 
REMARK   16  A    between atoms: O11_28  and  C16_29 
REMARK   17  A    between atoms: C18_32  and  C20_34 
ROOT
HETATM    1  C6  UNL     1      -3.294   4.164  13.812  1.00  0.00     0.180 C 
ENDROOT
BRANCH   1   2
HETATM    2  C5  UNL     1      -4.050   5.375  14.106  1.00  0.00     0.058 C 
BRANCH   2   3
HETATM    3  C4  UNL     1      -5.302   5.190  14.880  1.00  0.00     0.121 C 
BRANCH   3   4
HETATM    4  C3  UNL     1      -6.104   3.982  14.730  1.00  0.00     0.259 C 
HETATM    5  O2  UNL     1      -6.930   3.868  13.794  1.00  0.00    -0.265 OA
BRANCH   4   6
HETATM    6  O1  UNL     1      -5.975   2.920  15.620  1.00  0.00    -0.322 OA
BRANCH   6   7
HETATM    7  C2  UNL     1      -6.962   2.445  16.487  1.00  0.00     0.174 C 
HETATM    8  C1  UNL     1      -6.531   1.136  17.087  1.00  0.00     0.034 C 
ENDBRANCH   6   7
ENDBRANCH   4   6
ENDBRANCH   3   4
ENDBRANCH   2   3
BRANCH   2   9
HETATM    9  C15 UNL     1      -4.280   6.283  12.905  1.00  0.00     0.142 C 
BRANCH   9  10
HETATM   10  O11 UNL     1      -5.604   6.586  12.662  1.00  0.00    -0.315 OA
BRANCH  10  11
HETATM   11  C16 UNL     1      -6.146   6.980  11.492  1.00  0.00     0.255 C 
HETATM   12  C17 UNL     1      -6.997   8.207  11.314  1.00  0.00     0.126 C 
HETATM   13  O12 UNL     1      -5.931   6.282  10.482  1.00  0.00    -0.266 OA
ENDBRANCH  10  11
ENDBRANCH   9  10
BRANCH   9  14
HETATM   14  C18 UNL     1      -3.269   7.344  12.682  1.00  0.00     0.011 C 
HETATM   15  C19 UNL     1      -2.701   8.047  13.854  1.00  0.00     0.012 C 
BRANCH  14  16
HETATM   16  C20 UNL     1      -2.080   6.893  11.816  1.00  0.00     0.002 C 
HETATM   17  C21 UNL     1      -2.480   6.297  10.516  1.00  0.00     0.005 C 
ENDBRANCH  14  16
ENDBRANCH   9  14
ENDBRANCH   2   9
ENDBRANCH   1   2
BRANCH   1  18
HETATM   18  O3  UNL     1      -3.088   3.343  14.959  1.00  0.00    -0.390 OA
ATOM     19  H3  UNL     1      -2.234   3.466  15.355  1.00  0.00     0.210 HD
ENDBRANCH   1  18
BRANCH   1  20
HETATM   20  C7  UNL     1      -3.663   3.201  12.747  1.00  0.00     0.295 C 
HETATM   21  O4  UNL     1      -3.944   1.973  13.336  1.00  0.00    -0.328 OA
HETATM   22  C8  UNL     1      -4.205   0.966  12.433  1.00  0.00     0.278 C 
HETATM   23  C9  UNL     1      -2.938   0.794  11.601  1.00  0.00     0.196 C 
HETATM   24  C12 UNL     1      -2.689   2.126  10.945  1.00  0.00     0.291 C 
HETATM   25  O10 UNL     1      -2.484   3.071  11.950  1.00  0.00    -0.327 OA
BRANCH  22  26
HETATM   26  O5  UNL     1      -4.433  -0.201  13.151  1.00  0.00    -0.370 OA
ATOM     27  H5  UNL     1      -4.619  -0.895  12.529  1.00  0.00     0.212 HD
ENDBRANCH  22  26
BRANCH  23  28
HETATM   28  C10 UNL     1      -3.022  -0.345  10.693  1.00  0.00     0.272 C 
HETATM   29  O6  UNL     1      -3.544  -0.395   9.570  1.00  0.00    -0.265 OA
BRANCH  28  30
HETATM   30  O7  UNL     1      -2.434  -1.540  11.153  1.00  0.00    -0.326 OA
HETATM   31  C11 UNL     1      -3.127  -2.753  11.172  1.00  0.00     0.213 C 
ENDBRANCH  28  30
ENDBRANCH  23  28
BRANCH  24  32
HETATM   32  O8  UNL     1      -1.460   2.037  10.253  1.00  0.00    -0.289 OA
BRANCH  32  33
HETATM   33  C13 UNL     1      -0.899   3.086   9.568  1.00  0.00     0.257 C 
HETATM   34  C14 UNL     1       0.358   3.686  10.094  1.00  0.00     0.126 C 
HETATM   35  O9  UNL     1      -1.448   3.505   8.536  1.00  0.00    -0.266 OA
ENDBRANCH  32  33
ENDBRANCH  24  32
ENDBRANCH   1  20
TORSDOF 17
ENDMDL
MODEL 2
REMARK VINA RESULT: -7.003528550      1.943      5.036
REMARK  17 active torsions:
REMARK  status: ('A' for Active; 'I' for Inactive)
REMARK    1  A    between atoms: C2_2  and  O1_3 
REMARK    2  A    between atoms: O1_3  and  C3_4 
REMARK    3  A    between atoms: C3_4  and  C4_6 
REMARK    4  A    between atoms: C4_6  and  C5_7 
REMARK    5  A    between atoms: C5_7  and  C6_8 
REMARK    6  A    between atoms: C5_7  and  C15_27 
REMARK    7  A    between atoms: C6_8  and  O3_9 
REMARK    8  A    between atoms: C6_8  and  C7_11 
REMARK    9  A    between atoms: C8_13  and  O5_14 
REMARK   10  A    between atoms: C9_16  and  C10_17 
REMARK   11  A    between atoms: C10_17  and  O7_19 
REMARK   12  A    between atoms: C12_21  and  O8_22 
REMARK   13  A    between atoms: O8_22  and  C13_23 
REMARK   14  A    between atoms: C15_27  and  O11_28 
REMARK   15  A    between atoms: C15_27  and  C18_32 
REMARK   16  A    between atoms: O11_28  and  C16_29 
REMARK   17  A    between atoms: C18_32  and  C20_34 
ROOT
HETATM    1  C6  UNL     1      -5.187   5.783  13.448  1.00  0.00     0.180 C 
ENDROOT
BRANCH   1   2
HETATM    2  C5  UNL     1      -4.978   7.042  12.743  1.00  0.00     0.058 C 
BRANCH   2   3
HETATM    3  C4  UNL     1      -5.457   7.091  11.339  1.00  0.00     0.121 C 
BRANCH   3   4
HETATM    4  C3  UNL     1      -6.680   7.802  10.989  1.00  0.00     0.259 C 
HETATM    5  O2  UNL     1      -7.583   7.988  11.838  1.00  0.00    -0.265 OA
BRANCH   4   6
HETATM    6  O1  UNL     1      -6.880   8.296   9.703  1.00  0.00    -0.322 OA
BRANCH   6   7
HETATM    7  C2  UNL     1      -7.859   7.875   8.800  1.00  0.00     0.174 C 
HETATM    8  C1  UNL     1      -7.425   6.602   8.130  1.00  0.00     0.034 C 
ENDBRANCH   6   7
ENDBRANCH   4   6
ENDBRANCH   3   4
ENDBRANCH   2   3
BRANCH   2   9
HETATM    9  C15 UNL     1      -3.566   7.604  12.857  1.00  0.00     0.142 C 
BRANCH   9  10
HETATM   10  O11 UNL     1      -2.999   7.471  14.107  1.00  0.00    -0.315 OA
BRANCH  10  11
HETATM   11  C16 UNL     1      -2.544   8.462  14.901  1.00  0.00     0.255 C 
HETATM   12  C17 UNL     1      -1.334   9.306  14.608  1.00  0.00     0.126 C 
HETATM   13  O12 UNL     1      -3.165   8.700  15.956  1.00  0.00    -0.266 OA
ENDBRANCH  10  11
ENDBRANCH   9  10
BRANCH   9  14
HETATM   14  C18 UNL     1      -2.694   7.430  11.672  1.00  0.00     0.011 C 
HETATM   15  C19 UNL     1      -2.168   8.634  10.989  1.00  0.00     0.012 C 
BRANCH  14  16
HETATM   16  C20 UNL     1      -1.492   6.501  11.920  1.00  0.00     0.002 C 
HETATM   17  C21 UNL     1      -1.332   5.443  10.890  1.00  0.00     0.005 C 
ENDBRANCH  14  16
ENDBRANCH   9  14
ENDBRANCH   2   9
ENDBRANCH   1   2
BRANCH   1  18
HETATM   18  O3  UNL     1      -6.536   5.326  13.384  1.00  0.00    -0.390 OA
ATOM     19  H3  UNL     1      -6.970   5.333  14.229  1.00  0.00     0.210 HD
ENDBRANCH   1  18
BRANCH   1  20
HETATM   20  C7  UNL     1      -4.385   4.560  13.204  1.00  0.00     0.295 C 
HETATM   21  O4  UNL     1      -4.564   4.167  11.882  1.00  0.00    -0.328 OA
HETATM   22  C8  UNL     1      -3.944   2.979  11.562  1.00  0.00     0.278 C 
HETATM   23  C9  UNL     1      -4.578   1.910  12.446  1.00  0.00     0.196 C 
HETATM   24  C12 UNL     1      -4.329   2.344  13.866  1.00  0.00     0.291 C 
HETATM   25  O10 UNL     1      -4.962   3.572  14.060  1.00  0.00    -0.327 OA
BRANCH  22  26
HETATM   26  O5  UNL     1      -4.231   2.693  10.234  1.00  0.00    -0.370 OA
ATOM     27  H5  UNL     1      -5.175   2.614  10.151  1.00  0.00     0.212 HD
ENDBRANCH  22  26
BRANCH  23  28
HETATM   28  C10 UNL     1      -4.115   0.568  12.111  1.00  0.00     0.272 C 
HETATM   29  O6  UNL     1      -4.631  -0.519  12.411  1.00  0.00    -0.265 OA
BRANCH  28  30
HETATM   30  O7  UNL     1      -2.933   0.500  11.350  1.00  0.00    -0.326 OA
HETATM   31  C11 UNL     1      -2.744  -0.458  10.350  1.00  0.00     0.213 C 
ENDBRANCH  28  30
ENDBRANCH  23  28
BRANCH  24  32
HETATM   32  O8  UNL     1      -5.000   1.435  14.715  1.00  0.00    -0.289 OA
BRANCH  32  33
HETATM   33  C13 UNL     1      -4.633   1.201  16.016  1.00  0.00     0.257 C 
HETATM   34  C14 UNL     1      -5.704   0.996  17.029  1.00  0.00     0.126 C 
HETATM   35  O9  UNL     1      -3.427   1.166  16.314  1.00  0.00    -0.266 OA
ENDBRANCH  32  33
ENDBRANCH  24  32
ENDBRANCH   1  20
TORSDOF 17
ENDMDL
MODEL 3
REMARK VINA RESULT: -6.887327873      2.170      7.413
REMARK  17 active torsions:
REMARK  status: ('A' for Active; 'I' for Inactive)
REMARK    1  A    between atoms: C2_2  and  O1_3 
REMARK    2  A    between atoms: O1_3  and  C3_4 
REMARK    3  A    between atoms: C3_4  and  C4_6 
REMARK    4  A    between atoms: C4_6  and  C5_7 
REMARK    5  A    between atoms: C5_7  and  C6_8 
REMARK    6  A    between atoms: C5_7  and  C15_27 
REMARK    7  A    between atoms: C6_8  and  O3_9 
REMARK    8  A    between atoms: C6_8  and  C7_11 
REMARK    9  A    between atoms: C8_13  and  O5_14 
REMARK   10  A    between atoms: C9_16  and  C10_17 
REMARK   11  A    between atoms: C10_17  and  O7_19 
REMARK   12  A    between atoms: C12_21  and  O8_22 
REMARK   13  A    between atoms: O8_22  and  C13_23 
REMARK   14  A    between atoms: C15_27  and  O11_28 
REMARK   15  A    between atoms: C15_27  and  C18_32 
REMARK   16  A    between atoms: O11_28  and  C16_29 
REMARK   17  A    between atoms: C18_32  and  C20_34 
ROOT
HETATM    1  C6  UNL     1      -3.558   3.895  10.495  1.00  0.00     0.180 C 
ENDROOT
BRANCH   1   2
HETATM    2  C5  UNL     1      -3.037   3.446  11.780  1.00  0.00     0.058 C 
BRANCH   2   3
HETATM    3  C4  UNL     1      -1.676   2.856  11.762  1.00  0.00     0.121 C 
BRANCH   3   4
HETATM    4  C3  UNL     1      -1.094   2.352  10.524  1.00  0.00     0.259 C 
HETATM    5  O2  UNL     1      -1.537   1.314   9.979  1.00  0.00    -0.265 OA
BRANCH   4   6
HETATM    6  O1  UNL     1      -0.032   3.010   9.910  1.00  0.00    -0.322 OA
BRANCH   6   7
HETATM    7  C2  UNL     1      -0.103   4.217   9.210  1.00  0.00     0.174 C 
HETATM    8  C1  UNL     1      -0.705   3.986   7.852  1.00  0.00     0.034 C 
ENDBRANCH   6   7
ENDBRANCH   4   6
ENDBRANCH   3   4
ENDBRANCH   2   3
BRANCH   2   9
HETATM    9  C15 UNL     1      -3.998   2.576  12.581  1.00  0.00     0.142 C 
BRANCH   9  10
HETATM   10  O11 UNL     1      -3.736   1.223  12.514  1.00  0.00    -0.315 OA
BRANCH  10  11
HETATM   11  C16 UNL     1      -4.364   0.312  11.744  1.00  0.00     0.255 C 
HETATM   12  C17 UNL     1      -4.111  -1.170  11.793  1.00  0.00     0.126 C 
HETATM   13  O12 UNL     1      -5.217   0.719  10.930  1.00  0.00    -0.266 OA
ENDBRANCH  10  11
ENDBRANCH   9  10
BRANCH   9  14
HETATM   14  C18 UNL     1      -4.464   3.133  13.874  1.00  0.00     0.011 C 
HETATM   15  C19 UNL     1      -4.384   2.287  15.086  1.00  0.00     0.012 C 
BRANCH  14  16
HETATM   16  C20 UNL     1      -3.821   4.484  14.232  1.00  0.00     0.002 C 
HETATM   17  C21 UNL     1      -4.794   5.601  14.333  1.00  0.00     0.005 C 
ENDBRANCH  14  16
ENDBRANCH   9  14
ENDBRANCH   2   9
ENDBRANCH   1   2
BRANCH   1  18
HETATM   18  O3  UNL     1      -4.792   3.271  10.145  1.00  0.00    -0.390 OA
ATOM     19  H3  UNL     1      -4.859   3.074   9.219  1.00  0.00     0.210 HD
ENDBRANCH   1  18
BRANCH   1  20
HETATM   20  C7  UNL     1      -3.769   5.319  10.144  1.00  0.00     0.295 C 
HETATM   21  O4  UNL     1      -3.420   6.104  11.237  1.00  0.00    -0.328 OA
HETATM   22  C8  UNL     1      -3.669   7.448  11.065  1.00  0.00     0.278 C 
HETATM   23  C9  UNL     1      -5.174   7.586  10.864  1.00  0.00     0.196 C 
HETATM   24  C12 UNL     1      -5.509   6.762   9.650  1.00  0.00     0.291 C 
HETATM   25  O10 UNL     1      -5.176   5.435   9.923  1.00  0.00    -0.327 OA
BRANCH  22  26
HETATM   26  O5  UNL     1      -3.309   8.101  12.236  1.00  0.00    -0.370 OA
ATOM     27  H5  UNL     1      -4.033   8.661  12.491  1.00  0.00     0.212 HD
ENDBRANCH  22  26
BRANCH  23  28
HETATM   28  C10 UNL     1      -5.601   8.980  10.812  1.00  0.00     0.272 C 
HETATM   29  O6  UNL     1      -6.703   9.458  11.119  1.00  0.00    -0.265 OA
BRANCH  28  30
HETATM   30  O7  UNL     1      -4.637   9.899  10.353  1.00  0.00    -0.326 OA
HETATM   31  C11 UNL     1      -4.689  10.458   9.074  1.00  0.00     0.213 C 
ENDBRANCH  28  30
ENDBRANCH  23  28
BRANCH  24  32
HETATM   32  O8  UNL     1      -6.914   6.775   9.498  1.00  0.00    -0.289 OA
BRANCH  32  33
HETATM   33  C13 UNL     1      -7.545   7.025   8.306  1.00  0.00     0.257 C 
HETATM   34  C14 UNL     1      -8.495   8.168   8.231  1.00  0.00     0.126 C 
HETATM   35  O9  UNL     1      -7.312   6.296   7.327  1.00  0.00    -0.266 OA
ENDBRANCH  32  33
ENDBRANCH  24  32
ENDBRANCH   1  20
TORSDOF 17
ENDMDL
MODEL 4
REMARK VINA RESULT: -6.884058034      2.465      4.995
REMARK  17 active torsions:
REMARK  status: ('A' for Active; 'I' for Inactive)
REMARK    1  A    between atoms: C2_2  and  O1_3 
REMARK    2  A    between atoms: O1_3  and  C3_4 
REMARK    3  A    between atoms: C3_4  and  C4_6 
REMARK    4  A    between atoms: C4_6  and  C5_7 
REMARK    5  A    between atoms: C5_7  and  C6_8 
REMARK    6  A    between atoms: C5_7  and  C15_27 
REMARK    7  A    between atoms: C6_8  and  O3_9 
REMARK    8  A    between atoms: C6_8  and  C7_11 
REMARK    9  A    between atoms: C8_13  and  O5_14 
REMARK   10  A    between atoms: C9_16  and  C10_17 
REMARK   11  A    between atoms: C10_17  and  O7_19 
REMARK   12  A    between atoms: C12_21  and  O8_22 
REMARK   13  A    between atoms: O8_22  and  C13_23 
REMARK   14  A    between atoms: C15_27  and  O11_28 
REMARK   15  A    between atoms: C15_27  and  C18_32 
REMARK   16  A    between atoms: O11_28  and  C16_29 
REMARK   17  A    between atoms: C18_32  and  C20_34 
ROOT
HETATM    1  C6  UNL     1      -2.859   3.845  10.518  1.00  0.00     0.180 C 
ENDROOT
BRANCH   1   2
HETATM    2  C5  UNL     1      -3.283   4.229  11.858  1.00  0.00     0.058 C 
BRANCH   2   3
HETATM    3  C4  UNL     1      -4.107   3.237  12.592  1.00  0.00     0.121 C 
BRANCH   3   4
HETATM    4  C3  UNL     1      -4.511   1.986  11.962  1.00  0.00     0.259 C 
HETATM    5  O2  UNL     1      -5.474   1.950  11.160  1.00  0.00    -0.265 OA
BRANCH   4   6
HETATM    6  O1  UNL     1      -3.838   0.798  12.229  1.00  0.00    -0.322 OA
BRANCH   6   7
HETATM    7  C2  UNL     1      -3.328  -0.093  11.281  1.00  0.00     0.174 C 
HETATM    8  C1  UNL     1      -2.082   0.475  10.662  1.00  0.00     0.034 C 
ENDBRANCH   6   7
ENDBRANCH   4   6
ENDBRANCH   3   4
ENDBRANCH   2   3
BRANCH   2   9
HETATM    9  C15 UNL     1      -3.895   5.622  11.952  1.00  0.00     0.142 C 
BRANCH   9  10
HETATM   10  O11 UNL     1      -5.232   5.682  11.620  1.00  0.00    -0.315 OA
BRANCH  10  11
HETATM   11  C16 UNL     1      -5.821   6.553  10.776  1.00  0.00     0.255 C 
HETATM   12  C17 UNL     1      -6.302   7.926  11.162  1.00  0.00     0.126 C 
HETATM   13  O12 UNL     1      -5.983   6.204   9.590  1.00  0.00    -0.266 OA
ENDBRANCH  10  11
ENDBRANCH   9  10
BRANCH   9  14
HETATM   14  C18 UNL     1      -3.412   6.477  13.062  1.00  0.00     0.011 C 
HETATM   15  C19 UNL     1      -4.206   6.543  14.310  1.00  0.00     0.012 C 
BRANCH  14  16
HETATM   16  C20 UNL     1      -1.958   6.188  13.476  1.00  0.00     0.002 C 
HETATM   17  C21 UNL     1      -0.959   7.043  12.787  1.00  0.00     0.005 C 
ENDBRANCH  14  16
ENDBRANCH   9  14
ENDBRANCH   2   9
ENDBRANCH   1   2
BRANCH   1  18
HETATM   18  O3  UNL     1      -3.902   3.949   9.552  1.00  0.00    -0.390 OA
ATOM     19  H3  UNL     1      -3.756   3.405   8.787  1.00  0.00     0.210 HD
ENDBRANCH   1  18
BRANCH   1  20
HETATM   20  C7  UNL     1      -1.679   4.422   9.830  1.00  0.00     0.295 C 
HETATM   21  O4  UNL     1      -1.455   3.709   8.658  1.00  0.00    -0.328 OA
HETATM   22  C8  UNL     1      -0.319   4.091   7.978  1.00  0.00     0.278 C 
HETATM   23  C9  UNL     1       0.855   3.817   8.912  1.00  0.00     0.196 C 
HETATM   24  C12 UNL     1       0.602   4.636  10.149  1.00  0.00     0.291 C 
HETATM   25  O10 UNL     1      -0.589   4.193  10.725  1.00  0.00    -0.327 OA
BRANCH  22  26
HETATM   26  O5  UNL     1      -0.201   3.281   6.857  1.00  0.00    -0.370 OA
ATOM     27  H5  UNL     1       0.717   3.253   6.613  1.00  0.00     0.212 HD
ENDBRANCH  22  26
BRANCH  23  28
HETATM   28  C10 UNL     1       2.143   4.042   8.264  1.00  0.00     0.272 C 
HETATM   29  O6  UNL     1       2.468   4.964   7.503  1.00  0.00    -0.265 OA
BRANCH  28  30
HETATM   30  O7  UNL     1       3.143   3.089   8.540  1.00  0.00    -0.326 OA
HETATM   31  C11 UNL     1       4.470   3.263   8.139  1.00  0.00     0.213 C 
ENDBRANCH  28  30
ENDBRANCH  23  28
BRANCH  24  32
HETATM   32  O8  UNL     1       1.614   4.321  11.084  1.00  0.00    -0.289 OA
BRANCH  32  33
HETATM   33  C13 UNL     1       2.657   5.161  11.384  1.00  0.00     0.257 C 
HETATM   34  C14 UNL     1       2.416   6.630  11.355  1.00  0.00     0.126 C 
HETATM   35  O9  UNL     1       3.766   4.681  11.668  1.00  0.00    -0.266 OA
ENDBRANCH  32  33
ENDBRANCH  24  32
ENDBRANCH   1  20
TORSDOF 17
ENDMDL
MODEL 5
REMARK VINA RESULT: -6.874535024      1.781      4.688
REMARK  17 active torsions:
REMARK  status: ('A' for Active; 'I' for Inactive)
REMARK    1  A    between atoms: C2_2  and  O1_3 
REMARK    2  A    between atoms: O1_3  and  C3_4 
REMARK    3  A    between atoms: C3_4  and  C4_6 
REMARK    4  A    between atoms: C4_6  and  C5_7 
REMARK    5  A    between atoms: C5_7  and  C6_8 
REMARK    6  A    between atoms: C5_7  and  C15_27 
REMARK    7  A    between atoms: C6_8  and  O3_9 
REMARK    8  A    between atoms: C6_8  and  C7_11 
REMARK    9  A    between atoms: C8_13  and  O5_14 
REMARK   10  A    between atoms: C9_16  and  C10_17 
REMARK   11  A    between atoms: C10_17  and  O7_19 
REMARK   12  A    between atoms: C12_21  and  O8_22 
REMARK   13  A    between atoms: O8_22  and  C13_23 
REMARK   14  A    between atoms: C15_27  and  O11_28 
REMARK   15  A    between atoms: C15_27  and  C18_32 
REMARK   16  A    between atoms: O11_28  and  C16_29 
REMARK   17  A    between atoms: C18_32  and  C20_34 
ROOT
HETATM    1  C6  UNL     1      -3.164   3.892  10.764  1.00  0.00     0.180 C 
ENDROOT
BRANCH   1   2
HETATM    2  C5  UNL     1      -2.963   5.086  11.576  1.00  0.00     0.058 C 
BRANCH   2   3
HETATM    3  C4  UNL     1      -1.875   5.015  12.582  1.00  0.00     0.121 C 
BRANCH   3   4
HETATM    4  C3  UNL     1      -0.782   5.980  12.573  1.00  0.00     0.259 C 
HETATM    5  O2  UNL     1       0.292   5.732  11.977  1.00  0.00    -0.265 OA
BRANCH   4   6
HETATM    6  O1  UNL     1      -0.900   7.205  13.224  1.00  0.00    -0.322 OA
BRANCH   6   7
HETATM    7  C2  UNL     1      -1.735   7.486  14.309  1.00  0.00     0.174 C 
HETATM    8  C1  UNL     1      -2.081   8.948  14.324  1.00  0.00     0.034 C 
ENDBRANCH   6   7
ENDBRANCH   4   6
ENDBRANCH   3   4
ENDBRANCH   2   3
BRANCH   2   9
HETATM    9  C15 UNL     1      -4.237   5.655  12.189  1.00  0.00     0.142 C 
BRANCH   9  10
HETATM   10  O11 UNL     1      -4.443   5.303  13.506  1.00  0.00    -0.315 OA
BRANCH  10  11
HETATM   11  C16 UNL     1      -5.609   5.342  14.184  1.00  0.00     0.255 C 
HETATM   12  C17 UNL     1      -5.936   6.334  15.267  1.00  0.00     0.126 C 
HETATM   13  O12 UNL     1      -6.482   4.499  13.898  1.00  0.00    -0.266 OA
ENDBRANCH  10  11
ENDBRANCH   9  10
BRANCH   9  14
HETATM   14  C18 UNL     1      -4.613   7.025  11.765  1.00  0.00     0.011 C 
HETATM   15  C19 UNL     1      -3.617   7.848  11.042  1.00  0.00     0.012 C 
BRANCH  14  16
HETATM   16  C20 UNL     1      -5.914   7.082  10.945  1.00  0.00     0.002 C 
HETATM   17  C21 UNL     1      -6.994   7.868  11.592  1.00  0.00     0.005 C 
ENDBRANCH  14  16
ENDBRANCH   9  14
ENDBRANCH   2   9
ENDBRANCH   1   2
BRANCH   1  18
HETATM   18  O3  UNL     1      -2.530   3.972   9.490  1.00  0.00    -0.390 OA
ATOM     19  H3  UNL     1      -1.585   4.051   9.550  1.00  0.00     0.210 HD
ENDBRANCH   1  18
BRANCH   1  20
HETATM   20  C7  UNL     1      -2.857   2.519  11.229  1.00  0.00     0.295 C 
HETATM   21  O4  UNL     1      -3.003   1.643  10.159  1.00  0.00    -0.328 OA
HETATM   22  C8  UNL     1      -2.839   0.317  10.494  1.00  0.00     0.278 C 
HETATM   23  C9  UNL     1      -3.933  -0.011  11.505  1.00  0.00     0.196 C 
HETATM   24  C12 UNL     1      -3.717   0.924  12.666  1.00  0.00     0.291 C 
HETATM   25  O10 UNL     1      -3.863   2.231  12.202  1.00  0.00    -0.327 OA
BRANCH  22  26
HETATM   26  O5  UNL     1      -3.045  -0.440   9.348  1.00  0.00    -0.370 OA
ATOM     27  H5  UNL     1      -3.853  -0.928   9.462  1.00  0.00     0.212 HD
ENDBRANCH  22  26
BRANCH  23  28
HETATM   28  C10 UNL     1      -3.969  -1.430  11.842  1.00  0.00     0.272 C 
HETATM   29  O6  UNL     1      -4.894  -2.072  12.360  1.00  0.00    -0.265 OA
BRANCH  28  30
HETATM   30  O7  UNL     1      -2.804  -2.161  11.539  1.00  0.00    -0.326 OA
HETATM   31  C11 UNL     1      -2.848  -3.497  11.131  1.00  0.00     0.213 C 
ENDBRANCH  28  30
ENDBRANCH  23  28
BRANCH  24  32
HETATM   32  O8  UNL     1      -4.780   0.725  13.576  1.00  0.00    -0.289 OA
BRANCH  32  33
HETATM   33  C13 UNL     1      -4.606   0.613  14.933  1.00  0.00     0.257 C 
HETATM   34  C14 UNL     1      -4.231   1.830  15.704  1.00  0.00     0.126 C 
HETATM   35  O9  UNL     1      -4.762  -0.492  15.479  1.00  0.00    -0.266 OA
ENDBRANCH  32  33
ENDBRANCH  24  32
ENDBRANCH   1  20
TORSDOF 17
ENDMDL
