MODEL 1
REMARK VINA RESULT: -8.635383933      0.000      0.000
REMARK  5 active torsions:
REMARK  status: ('A' for Active; 'I' for Inactive)
REMARK    1  A    between atoms: O1_2  and  C2_3 
REMARK    2  A    between atoms: C2_3  and  C3_5 
REMARK    3  A    between atoms: C4_8  and  C5_9 
REMARK    4  A    between atoms: C7_11  and  N1_12 
REMARK    5  A    between atoms: C8_17  and  O5_18 
ROOT
HETATM    1  C5  UNL     1      23.983  24.765 108.740  1.00  0.00     0.029 A 
HETATM    2  C6  UNL     1      22.652  24.573 109.003  1.00  0.00     0.062 A 
HETATM    3  C7  UNL     1      22.100  24.988 110.197  1.00  0.00     0.101 A 
HETATM    4  N2  UNL     1      22.913  25.587 111.092  1.00  0.00    -0.322 N 
ATOM      5  H2  UNL     1      22.512  25.896 111.978  1.00  0.00     0.169 HD
HETATM    6  C8  UNL     1      24.220  25.796 110.880  1.00  0.00     0.164 A 
HETATM    7  C9  UNL     1      24.774  25.382 109.687  1.00  0.00     0.096 A 
HETATM    8 CL1  UNL     1      26.465  25.619 109.338  1.00  0.00    -0.079 Cl
ENDROOT
BRANCH   1   9
HETATM    9  C4  UNL     1      24.514  24.300 107.447  1.00  0.00     0.336 C 
HETATM   10  O4  UNL     1      25.675  23.575 107.538  1.00  0.00    -0.200 OA
HETATM   11  O3  UNL     1      26.367  23.798 106.434  1.00  0.00    -0.194 OA
HETATM   12  C3  UNL     1      25.625  24.653 105.650  1.00  0.00     0.400 C 
HETATM   13  O6  UNL     1      24.921  25.383 106.632  1.00  0.00    -0.312 OA
BRANCH  12  14
HETATM   14  C2  UNL     1      26.458  25.535 104.805  1.00  0.00     0.317 C 
HETATM   15  O2  UNL     1      27.502  26.022 105.260  1.00  0.00    -0.260 OA
BRANCH  14  16
HETATM   16  O1  UNL     1      26.096  25.832 103.501  1.00  0.00    -0.323 OA
HETATM   17  C1  UNL     1      25.446  24.933 102.646  1.00  0.00     0.213 C 
ENDBRANCH  14  16
ENDBRANCH  12  14
ENDBRANCH   1   9
BRANCH   3  18
HETATM   18  N1  UNL     1      20.835  24.804 110.441  1.00  0.00    -0.385 N 
ATOM     19  H12 UNL     1      20.330  24.001 110.064  1.00  0.00     0.157 HD
ATOM     20  H11 UNL     1      20.317  25.465 111.020  1.00  0.00     0.157 HD
ENDBRANCH   3  18
BRANCH   6  21
HETATM   21  O5  UNL     1      25.018  26.418 111.833  1.00  0.00    -0.345 OA
ATOM     22  H5  UNL     1      25.495  27.215 111.635  1.00  0.00     0.219 HD
ENDBRANCH   6  21
TORSDOF 5
ENDMDL
MODEL 2
REMARK VINA RESULT: -8.632931469      0.623      1.319
REMARK  5 active torsions:
REMARK  status: ('A' for Active; 'I' for Inactive)
REMARK    1  A    between atoms: O1_2  and  C2_3 
REMARK    2  A    between atoms: C2_3  and  C3_5 
REMARK    3  A    between atoms: C4_8  and  C5_9 
REMARK    4  A    between atoms: C7_11  and  N1_12 
REMARK    5  A    between atoms: C8_17  and  O5_18 
ROOT
HETATM    1  C5  UNL     1      24.016  24.753 108.717  1.00  0.00     0.029 A 
HETATM    2  C6  UNL     1      22.683  24.588 108.986  1.00  0.00     0.062 A 
HETATM    3  C7  UNL     1      22.139  25.041 110.169  1.00  0.00     0.101 A 
HETATM    4  N2  UNL     1      22.961  25.650 111.048  1.00  0.00    -0.322 N 
ATOM      5  H2  UNL     1      22.566  25.988 111.926  1.00  0.00     0.169 HD
HETATM    6  C8  UNL     1      24.271  25.836 110.829  1.00  0.00     0.164 A 
HETATM    7  C9  UNL     1      24.818  25.383 109.647  1.00  0.00     0.096 A 
HETATM    8 CL1  UNL     1      26.512  25.587 109.290  1.00  0.00    -0.079 Cl
ENDROOT
BRANCH   1   9
HETATM    9  C4  UNL     1      24.539  24.248 107.436  1.00  0.00     0.336 C 
HETATM   10  O4  UNL     1      25.672  23.483 107.547  1.00  0.00    -0.200 OA
HETATM   11  O3  UNL     1      26.379  23.662 106.445  1.00  0.00    -0.194 OA
HETATM   12  C3  UNL     1      25.674  24.530 105.641  1.00  0.00     0.400 C 
HETATM   13  O6  UNL     1      24.991  25.302 106.606  1.00  0.00    -0.312 OA
BRANCH  12  14
HETATM   14  C2  UNL     1      26.545  25.367 104.788  1.00  0.00     0.317 C 
HETATM   15  O2  UNL     1      26.052  26.042 103.874  1.00  0.00    -0.260 OA
BRANCH  14  16
HETATM   16  O1  UNL     1      27.915  25.417 104.990  1.00  0.00    -0.323 OA
HETATM   17  C1  UNL     1      28.558  26.412 105.738  1.00  0.00     0.213 C 
ENDBRANCH  14  16
ENDBRANCH  12  14
ENDBRANCH   1   9
BRANCH   3  18
HETATM   18  N1  UNL     1      20.872  24.881 110.419  1.00  0.00    -0.385 N 
ATOM     19  H12 UNL     1      20.200  24.697 109.674  1.00  0.00     0.157 HD
ATOM     20  H11 UNL     1      20.521  24.936 111.376  1.00  0.00     0.157 HD
ENDBRANCH   3  18
BRANCH   6  21
HETATM   21  O5  UNL     1      25.079  26.470 111.766  1.00  0.00    -0.345 OA
ATOM     22  H5  UNL     1      25.618  27.215 111.530  1.00  0.00     0.219 HD
ENDBRANCH   6  21
TORSDOF 5
ENDMDL
MODEL 3
REMARK VINA RESULT: -8.333070764      4.661      6.282
REMARK  5 active torsions:
REMARK  status: ('A' for Active; 'I' for Inactive)
REMARK    1  A    between atoms: O1_2  and  C2_3 
REMARK    2  A    between atoms: C2_3  and  C3_5 
REMARK    3  A    between atoms: C4_8  and  C5_9 
REMARK    4  A    between atoms: C7_11  and  N1_12 
REMARK    5  A    between atoms: C8_17  and  O5_18 
ROOT
HETATM    1  C5  UNL     1      27.767  23.936 104.317  1.00  0.00     0.029 A 
HETATM    2  C6  UNL     1      28.523  23.763 105.447  1.00  0.00     0.062 A 
HETATM    3  C7  UNL     1      27.991  24.003 106.697  1.00  0.00     0.101 A 
HETATM    4  N2  UNL     1      26.708  24.412 106.768  1.00  0.00    -0.322 N 
ATOM      5  H2  UNL     1      26.307  24.592 107.689  1.00  0.00     0.169 HD
HETATM    6  C8  UNL     1      25.929  24.594 105.691  1.00  0.00     0.164 A 
HETATM    7  C9  UNL     1      26.458  24.355 104.440  1.00  0.00     0.096 A 
HETATM    8 CL1  UNL     1      25.510  24.570 102.994  1.00  0.00    -0.079 Cl
ENDROOT
BRANCH   1   9
HETATM    9  C4  UNL     1      28.391  23.663 103.011  1.00  0.00     0.336 C 
HETATM   10  O4  UNL     1      29.365  22.698 103.037  1.00  0.00    -0.200 OA
HETATM   11  O3  UNL     1      30.245  23.001 102.099  1.00  0.00    -0.194 OA
HETATM   12  C3  UNL     1      29.807  24.151 101.480  1.00  0.00     0.400 C 
HETATM   13  O6  UNL     1      29.115  24.783 102.536  1.00  0.00    -0.312 OA
BRANCH  12  14
HETATM   14  C2  UNL     1      30.911  24.992 100.970  1.00  0.00     0.317 C 
HETATM   15  O2  UNL     1      32.043  24.890 101.460  1.00  0.00    -0.260 OA
BRANCH  14  16
HETATM   16  O1  UNL     1      30.707  25.900  99.943  1.00  0.00    -0.323 OA
HETATM   17  C1  UNL     1      31.547  26.022  98.829  1.00  0.00     0.213 C 
ENDBRANCH  14  16
ENDBRANCH  12  14
ENDBRANCH   1   9
BRANCH   3  18
HETATM   18  N1  UNL     1      28.714  23.837 107.766  1.00  0.00    -0.385 N 
ATOM     19  H12 UNL     1      28.754  22.940 108.250  1.00  0.00     0.157 HD
ATOM     20  H11 UNL     1      29.262  24.609 108.146  1.00  0.00     0.157 HD
ENDBRANCH   3  18
BRANCH   6  21
HETATM   21  O5  UNL     1      24.611  25.017 105.814  1.00  0.00    -0.345 OA
ATOM     22  H5  UNL     1      24.294  25.423 106.611  1.00  0.00     0.219 HD
ENDBRANCH   6  21
TORSDOF 5
ENDMDL
MODEL 4
REMARK VINA RESULT: -8.228893639      4.962      6.911
REMARK  5 active torsions:
REMARK  status: ('A' for Active; 'I' for Inactive)
REMARK    1  A    between atoms: O1_2  and  C2_3 
REMARK    2  A    between atoms: C2_3  and  C3_5 
REMARK    3  A    between atoms: C4_8  and  C5_9 
REMARK    4  A    between atoms: C7_11  and  N1_12 
REMARK    5  A    between atoms: C8_17  and  O5_18 
ROOT
HETATM    1  C5  UNL     1      27.724  25.314 103.486  1.00  0.00     0.029 A 
HETATM    2  C6  UNL     1      28.539  25.625 104.543  1.00  0.00     0.062 A 
HETATM    3  C7  UNL     1      28.037  25.695 105.826  1.00  0.00     0.101 A 
HETATM    4  N2  UNL     1      26.722  25.447 106.002  1.00  0.00    -0.322 N 
ATOM      5  H2  UNL     1      26.344  25.497 106.948  1.00  0.00     0.169 HD
HETATM    6  C8  UNL     1      25.887  25.138 105.000  1.00  0.00     0.164 A 
HETATM    7  C9  UNL     1      26.386  25.067 103.716  1.00  0.00     0.096 A 
HETATM    8 CL1  UNL     1      25.363  24.673 102.362  1.00  0.00    -0.079 Cl
ENDROOT
BRANCH   1   9
HETATM    9  C4  UNL     1      28.318  25.254 102.139  1.00  0.00     0.336 C 
HETATM   10  O4  UNL     1      28.593  23.986 101.696  1.00  0.00    -0.200 OA
HETATM   11  O3  UNL     1      29.645  24.066 100.900  1.00  0.00    -0.194 OA
HETATM   12  C3  UNL     1      30.015  25.391 100.839  1.00  0.00     0.400 C 
HETATM   13  O6  UNL     1      29.603  25.848 102.110  1.00  0.00    -0.312 OA
BRANCH  12  14
HETATM   14  C2  UNL     1      31.467  25.579 100.636  1.00  0.00     0.317 C 
HETATM   15  O2  UNL     1      32.234  25.579 101.609  1.00  0.00    -0.260 OA
BRANCH  14  16
HETATM   16  O1  UNL     1      31.998  25.757  99.369  1.00  0.00    -0.323 OA
HETATM   17  C1  UNL     1      33.019  24.962  98.831  1.00  0.00     0.213 C 
ENDBRANCH  14  16
ENDBRANCH  12  14
ENDBRANCH   1   9
BRANCH   3  18
HETATM   18  N1  UNL     1      28.815  25.991 106.825  1.00  0.00    -0.385 N 
ATOM     19  H12 UNL     1      28.951  26.955 107.129  1.00  0.00     0.157 HD
ATOM     20  H11 UNL     1      29.311  25.257 107.332  1.00  0.00     0.157 HD
ENDBRANCH   3  18
BRANCH   6  21
HETATM   21  O5  UNL     1      24.539  24.890 105.231  1.00  0.00    -0.345 OA
ATOM     22  H5  UNL     1      23.871  25.179 104.621  1.00  0.00     0.219 HD
ENDBRANCH   6  21
TORSDOF 5
ENDMDL
MODEL 5
REMARK VINA RESULT: -8.110207205      3.441      6.033
REMARK  5 active torsions:
REMARK  status: ('A' for Active; 'I' for Inactive)
REMARK    1  A    between atoms: O1_2  and  C2_3 
REMARK    2  A    between atoms: C2_3  and  C3_5 
REMARK    3  A    between atoms: C4_8  and  C5_9 
REMARK    4  A    between atoms: C7_11  and  N1_12 
REMARK    5  A    between atoms: C8_17  and  O5_18 
ROOT
HETATM    1  C5  UNL     1      27.030  24.872 106.544  1.00  0.00     0.029 A 
HETATM    2  C6  UNL     1      26.009  25.149 105.673  1.00  0.00     0.062 A 
HETATM    3  C7  UNL     1      26.040  24.683 104.376  1.00  0.00     0.101 A 
HETATM    4  N2  UNL     1      27.106  23.948 103.996  1.00  0.00    -0.322 N 
ATOM      5  H2  UNL     1      27.137  23.600 103.037  1.00  0.00     0.169 HD
HETATM    6  C8  UNL     1      28.128  23.651 104.811  1.00  0.00     0.164 A 
HETATM    7  C9  UNL     1      28.099  24.115 106.110  1.00  0.00     0.096 A 
HETATM    8 CL1  UNL     1      29.390  23.771 107.229  1.00  0.00    -0.079 Cl
ENDROOT
BRANCH   1   9
HETATM    9  C4  UNL     1      26.940  25.397 107.917  1.00  0.00     0.336 C 
HETATM   10  O4  UNL     1      27.277  24.495 108.894  1.00  0.00    -0.200 OA
HETATM   11  O3  UNL     1      26.563  24.789 109.966  1.00  0.00    -0.194 OA
HETATM   12  C3  UNL     1      25.790  25.886 109.658  1.00  0.00     0.400 C 
HETATM   13  O6  UNL     1      25.604  25.708 108.269  1.00  0.00    -0.312 OA
BRANCH  12  14
HETATM   14  C2  UNL     1      24.502  25.911 110.383  1.00  0.00     0.317 C 
HETATM   15  O2  UNL     1      24.477  26.186 111.590  1.00  0.00    -0.260 OA
BRANCH  14  16
HETATM   16  O1  UNL     1      23.309  25.633 109.737  1.00  0.00    -0.323 OA
HETATM   17  C1  UNL     1      22.158  25.169 110.387  1.00  0.00     0.213 C 
ENDBRANCH  14  16
ENDBRANCH  12  14
ENDBRANCH   1   9
BRANCH   3  18
HETATM   18  N1  UNL     1      25.068  24.949 103.553  1.00  0.00    -0.385 N 
ATOM     19  H12 UNL     1      24.442  25.741 103.704  1.00  0.00     0.157 HD
ATOM     20  H11 UNL     1      24.909  24.365 102.731  1.00  0.00     0.157 HD
ENDBRANCH   3  18
BRANCH   6  21
HETATM   21  O5  UNL     1      29.205  22.889 104.374  1.00  0.00    -0.345 OA
ATOM     22  H5  UNL     1      29.874  23.256 103.809  1.00  0.00     0.219 HD
ENDBRANCH   6  21
TORSDOF 5
ENDMDL
