MODEL 1
REMARK VINA RESULT: -8.881891614      0.000      0.000
REMARK  3 active torsions:
REMARK  status: ('A' for Active; 'I' for Inactive)
REMARK    1  A    between atoms: C2_9  and  C3_10 
REMARK    2  A    between atoms: C5_15  and  N6_16 
REMARK    3  A    between atoms: C9_25  and  N9_26 
ROOT
HETATM    1  C3  UNL     1      27.278  25.157 104.772  1.00  0.00     0.094 A 
HETATM    2  C4  UNL     1      25.911  25.069 104.654  1.00  0.00     0.137 A 
HETATM    3 CL1  UNL     1      25.197  24.896 103.081  1.00  0.00    -0.063 Cl
HETATM    4  N5  UNL     1      25.109  25.113 105.737  1.00  0.00    -0.180 N 
ATOM      5  H5  UNL     1      24.099  25.045 105.617  1.00  0.00     0.185 HD
HETATM    6  C5  UNL     1      25.620  25.246 106.969  1.00  0.00     0.684 A 
HETATM    7  N8  UNL     1      26.969  25.334 107.113  1.00  0.00    -0.176 N 
ATOM      8  H8  UNL     1      27.368  25.435 108.047  1.00  0.00     0.186 HD
HETATM    9  C9  UNL     1      27.795  25.292 106.039  1.00  0.00     0.132 A 
ENDROOT
BRANCH   1  10
HETATM   10  C2  UNL     1      28.204  25.117 103.655  1.00  0.00     0.156 A 
HETATM   11  N1  UNL     1      28.584  24.015 102.995  1.00  0.00    -0.263 N 
HETATM   12  C1  UNL     1      28.123  22.652 103.292  1.00  0.00     0.181 C 
HETATM   13  N2  UNL     1      29.432  24.388 102.050  1.00  0.00    -0.225 N 
HETATM   14  N3  UNL     1      29.605  25.695 102.086  1.00  0.00    -0.226 N 
ATOM     15  H2  UNL     1      29.886  23.756 101.390  1.00  0.00     0.210 HD
HETATM   16  N4  UNL     1      28.856  26.162 103.071  1.00  0.00    -0.268 N 
ATOM     17  H3  UNL     1      30.204  26.243 101.470  1.00  0.00     0.210 HD
ATOM     18  H4  UNL     1      28.779  27.141 103.347  1.00  0.00     0.190 HD
ENDBRANCH   1  10
BRANCH   9  19
HETATM   19  N9  UNL     1      29.082  25.381 106.213  1.00  0.00    -0.384 N 
ATOM     20  H92 UNL     1      29.704  25.334 105.406  1.00  0.00     0.157 HD
ATOM     21  H91 UNL     1      29.464  25.496 107.152  1.00  0.00     0.157 HD
ENDBRANCH   9  19
BRANCH   6  22
HETATM   22  N6  UNL     1      24.787  25.295 108.124  1.00  0.00    -0.191 N 
HETATM   23  C6  UNL     1      23.390  24.924 108.238  1.00  0.00     0.170 C 
HETATM   24  C7  UNL     1      23.141  25.044 109.732  1.00  0.00     0.254 C 
HETATM   25  N7  UNL     1      23.997  26.171 110.059  1.00  0.00    -0.057 N 
HETATM   26  C8  UNL     1      25.248  25.749 109.422  1.00  0.00     0.374 C 
ATOM     27  H72 UNL     1      23.646  27.088 109.782  1.00  0.00     0.279 HD
ATOM     28  H71 UNL     1      24.062  26.402 111.051  1.00  0.00     0.279 HD
ENDBRANCH   6  22
TORSDOF 3
ENDMDL
MODEL 2
REMARK VINA RESULT: -8.744132305      1.757      2.523
REMARK  3 active torsions:
REMARK  status: ('A' for Active; 'I' for Inactive)
REMARK    1  A    between atoms: C2_9  and  C3_10 
REMARK    2  A    between atoms: C5_15  and  N6_16 
REMARK    3  A    between atoms: C9_25  and  N9_26 
ROOT
HETATM    1  C3  UNL     1      27.018  24.577 105.619  1.00  0.00     0.094 A 
HETATM    2  C4  UNL     1      27.523  24.414 106.887  1.00  0.00     0.137 A 
HETATM    3 CL1  UNL     1      29.193  23.990 107.095  1.00  0.00    -0.063 Cl
HETATM    4  N5  UNL     1      26.746  24.578 107.977  1.00  0.00    -0.180 N 
ATOM      5  H5  UNL     1      27.149  24.450 108.905  1.00  0.00     0.185 HD
HETATM    6  C5  UNL     1      25.452  24.905 107.860  1.00  0.00     0.684 A 
HETATM    7  N8  UNL     1      24.928  25.072 106.616  1.00  0.00    -0.176 N 
ATOM      8  H8  UNL     1      23.944  25.322 106.517  1.00  0.00     0.186 HD
HETATM    9  C9  UNL     1      25.689  24.913 105.506  1.00  0.00     0.132 A 
ENDROOT
BRANCH   1  10
HETATM   10  C2  UNL     1      27.790  24.418 104.400  1.00  0.00     0.156 A 
HETATM   11  N1  UNL     1      28.411  25.402 103.736  1.00  0.00    -0.263 N 
HETATM   12  C1  UNL     1      28.415  26.817 104.132  1.00  0.00     0.181 C 
HETATM   13  N2  UNL     1      29.001  24.861 102.682  1.00  0.00    -0.225 N 
HETATM   14  N3  UNL     1      28.777  23.562 102.653  1.00  0.00    -0.226 N 
ATOM     15  H2  UNL     1      29.550  25.375 101.992  1.00  0.00     0.210 HD
HETATM   16  N4  UNL     1      28.030  23.270 103.705  1.00  0.00    -0.268 N 
ATOM     17  H3  UNL     1      29.116  22.905 101.951  1.00  0.00     0.210 HD
ATOM     18  H4  UNL     1      27.691  22.341 103.955  1.00  0.00     0.190 HD
ENDBRANCH   1  10
BRANCH   9  19
HETATM   19  N9  UNL     1      25.155  25.080 104.330  1.00  0.00    -0.384 N 
ATOM     20  H92 UNL     1      25.702  24.873 103.495  1.00  0.00     0.157 HD
ATOM     21  H91 UNL     1      24.196  25.416 104.248  1.00  0.00     0.157 HD
ENDBRANCH   9  19
BRANCH   6  22
HETATM   22  N6  UNL     1      24.617  25.081 109.001  1.00  0.00    -0.191 N 
HETATM   23  C6  UNL     1      23.208  24.767 109.138  1.00  0.00     0.170 C 
HETATM   24  C7  UNL     1      22.957  25.025 110.614  1.00  0.00     0.254 C 
HETATM   25  N7  UNL     1      23.849  26.148 110.847  1.00  0.00    -0.057 N 
HETATM   26  C8  UNL     1      25.087  25.632 110.256  1.00  0.00     0.374 C 
ATOM     27  H72 UNL     1      23.529  27.048 110.488  1.00  0.00     0.279 HD
ATOM     28  H71 UNL     1      23.918  26.462 111.815  1.00  0.00     0.279 HD
ENDBRANCH   6  22
TORSDOF 3
ENDMDL
MODEL 3
REMARK VINA RESULT: -8.619564603      1.481      1.962
REMARK  3 active torsions:
REMARK  status: ('A' for Active; 'I' for Inactive)
REMARK    1  A    between atoms: C2_9  and  C3_10 
REMARK    2  A    between atoms: C5_15  and  N6_16 
REMARK    3  A    between atoms: C9_25  and  N9_26 
ROOT
HETATM    1  C3  UNL     1      27.172  25.049 105.186  1.00  0.00     0.094 A 
HETATM    2  C4  UNL     1      27.582  24.694 106.448  1.00  0.00     0.137 A 
HETATM    3 CL1  UNL     1      29.222  24.185 106.704  1.00  0.00    -0.063 Cl
HETATM    4  N5  UNL     1      26.736  24.732 107.497  1.00  0.00    -0.180 N 
ATOM      5  H5  UNL     1      27.070  24.462 108.423  1.00  0.00     0.185 HD
HETATM    6  C5  UNL     1      25.462  25.119 107.343  1.00  0.00     0.684 A 
HETATM    7  N8  UNL     1      25.031  25.477 106.104  1.00  0.00    -0.176 N 
ATOM      8  H8  UNL     1      24.064  25.773 105.977  1.00  0.00     0.186 HD
HETATM    9  C9  UNL     1      25.863  25.446 105.035  1.00  0.00     0.132 A 
ENDROOT
BRANCH   1  10
HETATM   10  C2  UNL     1      28.022  25.034 104.010  1.00  0.00     0.156 A 
HETATM   11  N1  UNL     1      28.193  23.994 103.183  1.00  0.00    -0.263 N 
HETATM   12  C1  UNL     1      27.543  22.684 103.328  1.00  0.00     0.181 C 
HETATM   13  N2  UNL     1      29.039  24.370 102.238  1.00  0.00    -0.225 N 
HETATM   14  N3  UNL     1      29.413  25.619 102.435  1.00  0.00    -0.226 N 
ATOM     15  H2  UNL     1      29.355  23.780 101.468  1.00  0.00     0.210 HD
HETATM   16  N4  UNL     1      28.797  26.046 103.524  1.00  0.00    -0.268 N 
ATOM     17  H3  UNL     1      30.058  26.156 101.855  1.00  0.00     0.210 HD
ATOM     18  H4  UNL     1      28.887  26.976 103.933  1.00  0.00     0.190 HD
ENDBRANCH   1  10
BRANCH   9  19
HETATM   19  N9  UNL     1      25.418  25.794 103.862  1.00  0.00    -0.384 N 
ATOM     20  H92 UNL     1      24.746  26.557 103.784  1.00  0.00     0.157 HD
ATOM     21  H91 UNL     1      25.741  25.305 103.027  1.00  0.00     0.157 HD
ENDBRANCH   9  19
BRANCH   6  22
HETATM   22  N6  UNL     1      24.555  25.165 108.441  1.00  0.00    -0.191 N 
HETATM   23  C6  UNL     1      23.168  24.743 108.476  1.00  0.00     0.170 C 
HETATM   24  C7  UNL     1      22.817  24.892 109.946  1.00  0.00     0.254 C 
HETATM   25  N7  UNL     1      23.607  26.060 110.295  1.00  0.00    -0.057 N 
HETATM   26  C8  UNL     1      24.912  25.672 109.751  1.00  0.00     0.374 C 
ATOM     27  H72 UNL     1      23.241  26.955 109.969  1.00  0.00     0.279 HD
ATOM     28  H71 UNL     1      23.599  26.319 111.282  1.00  0.00     0.279 HD
ENDBRANCH   6  22
TORSDOF 3
ENDMDL
MODEL 4
REMARK VINA RESULT: -8.600166776      0.567      1.360
REMARK  3 active torsions:
REMARK  status: ('A' for Active; 'I' for Inactive)
REMARK    1  A    between atoms: C2_9  and  C3_10 
REMARK    2  A    between atoms: C5_15  and  N6_16 
REMARK    3  A    between atoms: C9_25  and  N9_26 
ROOT
HETATM    1  C3  UNL     1      27.227  25.000 104.855  1.00  0.00     0.094 A 
HETATM    2  C4  UNL     1      25.859  24.916 104.753  1.00  0.00     0.137 A 
HETATM    3 CL1  UNL     1      25.130  24.680 103.196  1.00  0.00    -0.063 Cl
HETATM    4  N5  UNL     1      25.067  25.015 105.840  1.00  0.00    -0.180 N 
ATOM      5  H5  UNL     1      24.055  24.949 105.732  1.00  0.00     0.185 HD
HETATM    6  C5  UNL     1      25.590  25.198 107.061  1.00  0.00     0.684 A 
HETATM    7  N8  UNL     1      26.941  25.284 107.189  1.00  0.00    -0.176 N 
ATOM      8  H8  UNL     1      27.348  25.422 108.114  1.00  0.00     0.186 HD
HETATM    9  C9  UNL     1      27.756  25.188 106.111  1.00  0.00     0.132 A 
ENDROOT
BRANCH   1  10
HETATM   10  C2  UNL     1      28.143  24.904 103.733  1.00  0.00     0.156 A 
HETATM   11  N1  UNL     1      28.560  25.927 102.976  1.00  0.00    -0.263 N 
HETATM   12  C1  UNL     1      28.157  27.328 103.154  1.00  0.00     0.181 C 
HETATM   13  N2  UNL     1      29.381  25.438 102.061  1.00  0.00    -0.225 N 
HETATM   14  N3  UNL     1      29.503  24.133 102.212  1.00  0.00    -0.226 N 
ATOM     15  H2  UNL     1      29.852  25.989 101.344  1.00  0.00     0.210 HD
HETATM   16  N4  UNL     1      28.745  23.785 103.238  1.00  0.00    -0.268 N 
ATOM     17  H3  UNL     1      30.075  23.509 101.644  1.00  0.00     0.210 HD
ATOM     18  H4  UNL     1      28.630  22.838 103.600  1.00  0.00     0.190 HD
ENDBRANCH   1  10
BRANCH   9  19
HETATM   19  N9  UNL     1      29.046  25.275 106.269  1.00  0.00    -0.384 N 
ATOM     20  H92 UNL     1      29.543  24.539 106.770  1.00  0.00     0.157 HD
ATOM     21  H91 UNL     1      29.554  26.075 105.892  1.00  0.00     0.157 HD
ENDBRANCH   9  19
BRANCH   6  22
HETATM   22  N6  UNL     1      24.768  25.304 108.220  1.00  0.00    -0.191 N 
HETATM   23  C6  UNL     1      23.355  25.005 108.346  1.00  0.00     0.170 C 
HETATM   24  C7  UNL     1      23.121  25.158 109.840  1.00  0.00     0.254 C 
HETATM   25  N7  UNL     1      24.034  26.245 110.147  1.00  0.00    -0.057 N 
HETATM   26  C8  UNL     1      25.259  25.753 109.508  1.00  0.00     0.374 C 
ATOM     27  H72 UNL     1      23.728  27.174 109.858  1.00  0.00     0.279 HD
ATOM     28  H71 UNL     1      24.118  26.486 111.135  1.00  0.00     0.279 HD
ENDBRANCH   6  22
TORSDOF 3
ENDMDL
MODEL 5
REMARK VINA RESULT: -8.501227061      1.408      2.024
REMARK  3 active torsions:
REMARK  status: ('A' for Active; 'I' for Inactive)
REMARK    1  A    between atoms: C2_9  and  C3_10 
REMARK    2  A    between atoms: C5_15  and  N6_16 
REMARK    3  A    between atoms: C9_25  and  N9_26 
ROOT
HETATM    1  C3  UNL     1      26.944  25.373 104.412  1.00  0.00     0.094 A 
HETATM    2  C4  UNL     1      27.494  25.768 105.609  1.00  0.00     0.137 A 
HETATM    3 CL1  UNL     1      29.150  26.286 105.660  1.00  0.00    -0.063 Cl
HETATM    4  N5  UNL     1      26.773  25.761 106.748  1.00  0.00    -0.180 N 
ATOM      5  H5  UNL     1      27.209  26.059 107.621  1.00  0.00     0.185 HD
HETATM    6  C5  UNL     1      25.492  25.368 106.752  1.00  0.00     0.684 A 
HETATM    7  N8  UNL     1      24.923  24.974 105.581  1.00  0.00    -0.176 N 
ATOM      8  H8  UNL     1      23.949  24.674 105.574  1.00  0.00     0.186 HD
HETATM    9  C9  UNL     1      25.629  24.971 104.424  1.00  0.00     0.132 A 
ENDROOT
BRANCH   1  10
HETATM   10  C2  UNL     1      27.655  25.353 103.147  1.00  0.00     0.156 A 
HETATM   11  N1  UNL     1      28.321  24.306 102.642  1.00  0.00    -0.263 N 
HETATM   12  C1  UNL     1      28.445  22.993 103.289  1.00  0.00     0.181 C 
HETATM   13  N2  UNL     1      28.831  24.680 101.480  1.00  0.00    -0.225 N 
HETATM   14  N3  UNL     1      28.510  25.934 101.226  1.00  0.00    -0.226 N 
ATOM     15  H2  UNL     1      29.391  24.085 100.869  1.00  0.00     0.210 HD
HETATM   16  N4  UNL     1      27.785  26.366 102.244  1.00  0.00    -0.268 N 
ATOM     17  H3  UNL     1      28.771  26.470 100.399  1.00  0.00     0.210 HD
ATOM     18  H4  UNL     1      27.389  27.302 102.338  1.00  0.00     0.190 HD
ENDBRANCH   1  10
BRANCH   9  19
HETATM   19  N9  UNL     1      25.054  24.587 103.320  1.00  0.00    -0.384 N 
ATOM     20  H92 UNL     1      25.391  24.943 102.426  1.00  0.00     0.157 HD
ATOM     21  H91 UNL     1      24.272  23.933 103.353  1.00  0.00     0.157 HD
ENDBRANCH   9  19
BRANCH   6  22
HETATM   22  N6  UNL     1      24.715  25.355 107.947  1.00  0.00    -0.191 N 
HETATM   23  C6  UNL     1      23.325  24.977 108.108  1.00  0.00     0.170 C 
HETATM   24  C7  UNL     1      23.148  25.018 109.616  1.00  0.00     0.254 C 
HETATM   25  N7  UNL     1      24.020  26.126 109.961  1.00  0.00    -0.057 N 
HETATM   26  C8  UNL     1      25.238  25.741 109.242  1.00  0.00     0.374 C 
ATOM     27  H72 UNL     1      23.658  27.056 109.749  1.00  0.00     0.279 HD
ATOM     28  H71 UNL     1      24.134  26.305 110.959  1.00  0.00     0.279 HD
ENDBRANCH   6  22
TORSDOF 3
ENDMDL
