MODEL 1
REMARK VINA RESULT: -4.021626309      0.000      0.000
REMARK  1 active torsions:
REMARK  status: ('A' for Active; 'I' for Inactive)
REMARK    1  A    between atoms: C1_4  and  N2_5 
ROOT
HETATM    1  N2  UNL     1      28.744  15.314  16.058  1.00  0.00    -0.359 N 
HETATM    2  C2  UNL     1      27.880  15.685  17.235  1.00  0.00     0.161 A 
HETATM    3  C3  UNL     1      28.858  14.634  17.381  1.00  0.00     0.175 A 
HETATM    4 BR1  UNL     1      28.450  12.770  17.288  1.00  0.00    -0.067 Br
ENDROOT
BRANCH   1   5
HETATM    5  C1  UNL     1      29.139  15.483  14.726  1.00  0.00     0.172 C 
HETATM    6  N1  UNL     1      30.294  15.042  14.363  1.00  0.00    -0.395 N 
ATOM      7  H12 UNL     1      30.896  14.581  15.045  1.00  0.00     0.156 HD
ATOM      8  H11 UNL     1      30.582  15.165  13.392  1.00  0.00     0.156 HD
ENDBRANCH   1   5
TORSDOF 1
ENDMDL
MODEL 2
REMARK VINA RESULT: -3.928633354      1.661      1.912
REMARK  1 active torsions:
REMARK  status: ('A' for Active; 'I' for Inactive)
REMARK    1  A    between atoms: C1_4  and  N2_5 
ROOT
HETATM    1  N2  UNL     1      29.200  14.374  15.866  1.00  0.00    -0.359 N 
HETATM    2  C2  UNL     1      29.960  13.407  16.736  1.00  0.00     0.161 A 
HETATM    3  C3  UNL     1      28.545  13.586  16.951  1.00  0.00     0.175 A 
HETATM    4 BR1  UNL     1      27.800  14.693  18.318  1.00  0.00    -0.067 Br
ENDROOT
BRANCH   1   5
HETATM    5  C1  UNL     1      29.150  15.307  14.825  1.00  0.00     0.172 C 
HETATM    6  N1  UNL     1      29.038  16.556  15.120  1.00  0.00    -0.395 N 
ATOM      7  H12 UNL     1      28.988  16.842  16.098  1.00  0.00     0.156 HD
ATOM      8  H11 UNL     1      29.001  17.237  14.361  1.00  0.00     0.156 HD
ENDBRANCH   1   5
TORSDOF 1
ENDMDL
MODEL 3
REMARK VINA RESULT: -3.521820915      1.954      2.480
REMARK  1 active torsions:
REMARK  status: ('A' for Active; 'I' for Inactive)
REMARK    1  A    between atoms: C1_4  and  N2_5 
ROOT
HETATM    1  N2  UNL     1      28.684  14.239  16.916  1.00  0.00    -0.359 N 
HETATM    2  C2  UNL     1      29.091  12.864  16.452  1.00  0.00     0.161 A 
HETATM    3  C3  UNL     1      28.151  12.993  17.540  1.00  0.00     0.175 A 
HETATM    4 BR1  UNL     1      28.619  12.836  19.385  1.00  0.00    -0.067 Br
ENDROOT
BRANCH   1   5
HETATM    5  C1  UNL     1      28.756  15.633  16.826  1.00  0.00     0.172 C 
HETATM    6  N1  UNL     1      27.700  16.285  16.478  1.00  0.00    -0.395 N 
ATOM      7  H12 UNL     1      26.838  15.780  16.276  1.00  0.00     0.156 HD
ATOM      8  H11 UNL     1      27.752  17.302  16.412  1.00  0.00     0.156 HD
ENDBRANCH   1   5
TORSDOF 1
ENDMDL
MODEL 4
REMARK VINA RESULT: -3.477583653      2.609      3.612
REMARK  1 active torsions:
REMARK  status: ('A' for Active; 'I' for Inactive)
REMARK    1  A    between atoms: C1_4  and  N2_5 
ROOT
HETATM    1  N2  UNL     1      28.524  13.978  17.594  1.00  0.00    -0.359 N 
HETATM    2  C2  UNL     1      28.825  12.827  16.669  1.00  0.00     0.161 A 
HETATM    3  C3  UNL     1      29.543  14.068  16.508  1.00  0.00     0.175 A 
HETATM    4 BR1  UNL     1      29.113  15.394  15.203  1.00  0.00    -0.067 Br
ENDROOT
BRANCH   1   5
HETATM    5  C1  UNL     1      27.819  14.537  18.665  1.00  0.00     0.172 C 
HETATM    6  N1  UNL     1      28.410  14.646  19.805  1.00  0.00    -0.395 N 
ATOM      7  H12 UNL     1      29.372  14.326  19.908  1.00  0.00     0.156 HD
ATOM      8  H11 UNL     1      27.895  15.054  20.586  1.00  0.00     0.156 HD
ENDBRANCH   1   5
TORSDOF 1
ENDMDL
MODEL 5
REMARK VINA RESULT: -3.398945427      1.634      1.655
REMARK  1 active torsions:
REMARK  status: ('A' for Active; 'I' for Inactive)
REMARK    1  A    between atoms: C1_4  and  N2_5 
ROOT
HETATM    1  N2  UNL     1      28.495  14.703  17.242  1.00  0.00    -0.359 N 
HETATM    2  C2  UNL     1      27.620  14.681  18.468  1.00  0.00     0.161 A 
HETATM    3  C3  UNL     1      28.495  13.564  18.205  1.00  0.00     0.175 A 
HETATM    4 BR1  UNL     1      27.929  11.924  17.407  1.00  0.00    -0.067 Br
ENDROOT
BRANCH   1   5
HETATM    5  C1  UNL     1      28.956  15.326  16.077  1.00  0.00     0.172 C 
HETATM    6  N1  UNL     1      28.276  16.305  15.588  1.00  0.00    -0.395 N 
ATOM      7  H12 UNL     1      27.420  16.608  16.054  1.00  0.00     0.156 HD
ATOM      8  H11 UNL     1      28.612  16.759  14.739  1.00  0.00     0.156 HD
ENDBRANCH   1   5
TORSDOF 1
ENDMDL
