MODEL 1
REMARK VINA RESULT: -4.954549589      0.000      0.000
REMARK  2 active torsions:
REMARK  status: ('A' for Active; 'I' for Inactive)
REMARK    1  A    between atoms: N2_4  and  C1_6 
REMARK    2  A    between atoms: C2_7  and  O1_8 
ROOT
HETATM    1  C1  UNL     1      29.385  14.843  16.592  1.00  0.00     0.145 C 
HETATM    2  C2  UNL     1      28.537  15.787  17.451  1.00  0.00     0.144 C 
HETATM    3  C3  UNL     1      28.463  14.971  18.739  1.00  0.00     0.035 C 
HETATM    4  C4  UNL     1      28.408  13.530  18.275  1.00  0.00     0.025 C 
HETATM    5  C5  UNL     1      28.558  13.567  16.762  1.00  0.00     0.109 C 
HETATM    6 CL1  UNL     1      29.347  12.152  16.114  1.00  0.00    -0.123 Cl
ENDROOT
BRANCH   1   7
HETATM    7  N2  UNL     1      29.431  15.277  15.242  1.00  0.00    -0.334 N 
HETATM    8  N1  UNL     1      29.219  16.471  14.951  1.00  0.00    -0.349 N 
ATOM      9  H12 UNL     1      29.011  17.129  15.702  1.00  0.00     0.176 HD
ATOM     10  H11 UNL     1      29.252  16.784  13.980  1.00  0.00     0.176 HD
ATOM     11  H2  UNL     1      29.639  14.606  14.503  1.00  0.00     0.180 HD
ENDBRANCH   1   7
BRANCH   2  12
HETATM   12  O1  UNL     1      27.274  15.795  16.902  1.00  0.00    -0.393 OA
ATOM     13  H1  UNL     1      26.979  16.698  16.908  1.00  0.00     0.210 HD
ENDBRANCH   2  12
TORSDOF 2
ENDMDL
MODEL 2
REMARK VINA RESULT: -4.809994496      2.321      2.703
REMARK  2 active torsions:
REMARK  status: ('A' for Active; 'I' for Inactive)
REMARK    1  A    between atoms: N2_4  and  C1_6 
REMARK    2  A    between atoms: C2_7  and  O1_8 
ROOT
HETATM    1  C1  UNL     1      29.001  14.067  15.956  1.00  0.00     0.145 C 
HETATM    2  C2  UNL     1      29.468  12.725  16.531  1.00  0.00     0.144 C 
HETATM    3  C3  UNL     1      28.216  12.324  17.308  1.00  0.00     0.035 C 
HETATM    4  C4  UNL     1      27.658  13.632  17.832  1.00  0.00     0.025 C 
HETATM    5  C5  UNL     1      28.539  14.729  17.255  1.00  0.00     0.109 C 
HETATM    6 CL1  UNL     1      27.688  16.229  16.990  1.00  0.00    -0.123 Cl
ENDROOT
BRANCH   1   7
HETATM    7  N2  UNL     1      30.075  14.766  15.348  1.00  0.00    -0.334 N 
HETATM    8  N1  UNL     1      30.010  15.116  14.153  1.00  0.00    -0.349 N 
ATOM      9  H12 UNL     1      29.170  14.889  13.621  1.00  0.00     0.176 HD
ATOM     10  H11 UNL     1      30.782  15.620  13.715  1.00  0.00     0.176 HD
ATOM     11  H2  UNL     1      30.908  14.986  15.894  1.00  0.00     0.180 HD
ENDBRANCH   1   7
BRANCH   2  12
HETATM   12  O1  UNL     1      30.446  13.010  17.457  1.00  0.00    -0.393 OA
ATOM     13  H1  UNL     1      30.072  13.637  18.065  1.00  0.00     0.210 HD
ENDBRANCH   2  12
TORSDOF 2
ENDMDL
MODEL 3
REMARK VINA RESULT: -4.700092983      2.359      2.791
REMARK  2 active torsions:
REMARK  status: ('A' for Active; 'I' for Inactive)
REMARK    1  A    between atoms: N2_4  and  C1_6 
REMARK    2  A    between atoms: C2_7  and  O1_8 
ROOT
HETATM    1  C1  UNL     1      28.204  14.425  17.141  1.00  0.00     0.145 C 
HETATM    2  C2  UNL     1      29.009  13.266  16.544  1.00  0.00     0.144 C 
HETATM    3  C3  UNL     1      28.192  12.085  17.065  1.00  0.00     0.035 C 
HETATM    4  C4  UNL     1      27.714  12.526  18.433  1.00  0.00     0.025 C 
HETATM    5  C5  UNL     1      28.179  13.965  18.600  1.00  0.00     0.109 C 
HETATM    6 CL1  UNL     1      27.115  14.921  19.598  1.00  0.00    -0.123 Cl
ENDROOT
BRANCH   1   7
HETATM    7  N2  UNL     1      28.882  15.660  16.979  1.00  0.00    -0.334 N 
HETATM    8  N1  UNL     1      29.153  16.092  15.841  1.00  0.00    -0.349 N 
ATOM      9  H12 UNL     1      28.877  15.539  15.029  1.00  0.00     0.176 HD
ATOM     10  H11 UNL     1      29.641  16.980  15.724  1.00  0.00     0.176 HD
ATOM     11  H2  UNL     1      29.151  16.200  17.801  1.00  0.00     0.180 HD
ENDBRANCH   1   7
BRANCH   2  12
HETATM   12  O1  UNL     1      30.218  13.243  17.203  1.00  0.00    -0.393 OA
ATOM     13  H1  UNL     1      30.894  13.275  16.536  1.00  0.00     0.210 HD
ENDBRANCH   2  12
TORSDOF 2
ENDMDL
MODEL 4
REMARK VINA RESULT: -4.691558402      3.303      3.972
REMARK  2 active torsions:
REMARK  status: ('A' for Active; 'I' for Inactive)
REMARK    1  A    between atoms: N2_4  and  C1_6 
REMARK    2  A    between atoms: C2_7  and  O1_8 
ROOT
HETATM    1  C1  UNL     1      28.644  12.576  19.383  1.00  0.00     0.145 C 
HETATM    2  C2  UNL     1      27.457  11.741  19.877  1.00  0.00     0.144 C 
HETATM    3  C3  UNL     1      27.315  10.771  18.706  1.00  0.00     0.035 C 
HETATM    4  C4  UNL     1      27.672  11.594  17.485  1.00  0.00     0.025 C 
HETATM    5  C5  UNL     1      28.103  12.957  18.004  1.00  0.00     0.109 C 
HETATM    6 CL1  UNL     1      29.295  13.733  16.994  1.00  0.00    -0.123 Cl
ENDROOT
BRANCH   1   7
HETATM    7  N2  UNL     1      28.854  13.709  20.209  1.00  0.00    -0.334 N 
HETATM    8  N1  UNL     1      28.326  14.804  19.934  1.00  0.00    -0.349 N 
ATOM      9  H12 UNL     1      27.739  14.870  19.102  1.00  0.00     0.176 HD
ATOM     10  H11 UNL     1      28.477  15.620  20.529  1.00  0.00     0.176 HD
ATOM     11  H2  UNL     1      29.445  13.627  21.037  1.00  0.00     0.180 HD
ENDBRANCH   1   7
BRANCH   2  12
HETATM   12  O1  UNL     1      26.356  12.567  19.855  1.00  0.00    -0.393 OA
ATOM     13  H1  UNL     1      25.602  12.013  19.685  1.00  0.00     0.210 HD
ENDBRANCH   2  12
TORSDOF 2
ENDMDL
MODEL 5
REMARK VINA RESULT: -4.675482467      2.321      2.703
REMARK  2 active torsions:
REMARK  status: ('A' for Active; 'I' for Inactive)
REMARK    1  A    between atoms: N2_4  and  C1_6 
REMARK    2  A    between atoms: C2_7  and  O1_8 
ROOT
HETATM    1  C1  UNL     1      28.064  15.062  16.747  1.00  0.00     0.145 C 
HETATM    2  C2  UNL     1      29.025  14.455  15.720  1.00  0.00     0.144 C 
HETATM    3  C3  UNL     1      29.168  13.048  16.295  1.00  0.00     0.035 C 
HETATM    4  C4  UNL     1      29.114  13.243  17.797  1.00  0.00     0.025 C 
HETATM    5  C5  UNL     1      28.838  14.722  18.021  1.00  0.00     0.109 C 
HETATM    6 CL1  UNL     1      27.930  15.040  19.477  1.00  0.00    -0.123 Cl
ENDROOT
BRANCH   1   7
HETATM    7  N2  UNL     1      27.926  16.460  16.559  1.00  0.00    -0.334 N 
HETATM    8  N1  UNL     1      26.828  16.954  16.234  1.00  0.00    -0.349 N 
ATOM      9  H12 UNL     1      26.030  16.331  16.106  1.00  0.00     0.176 HD
ATOM     10  H11 UNL     1      26.728  17.960  16.098  1.00  0.00     0.176 HD
ATOM     11  H2  UNL     1      28.734  17.069  16.690  1.00  0.00     0.180 HD
ENDBRANCH   1   7
BRANCH   2  12
HETATM   12  O1  UNL     1      30.237  15.087  15.890  1.00  0.00    -0.393 OA
ATOM     13  H1  UNL     1      30.221  15.479  16.756  1.00  0.00     0.210 HD
ENDBRANCH   2  12
TORSDOF 2
ENDMDL
