MODEL 1
REMARK VINA RESULT: -4.351686958      0.000      0.000
REMARK  3 active torsions:
REMARK  status: ('A' for Active; 'I' for Inactive)
REMARK    1  A    between atoms: N2_4  and  C1_6 
REMARK    2  A    between atoms: C1_6  and  C2_7 
REMARK    3  A    between atoms: C3_8  and  C4_9 
ROOT
HETATM    1  N1  UNL     1      29.782  14.821  13.371  1.00  0.00    -0.349 N 
ATOM      2  H11 UNL     1      30.452  14.187  12.936  1.00  0.00     0.176 HD
ATOM      3  H12 UNL     1      29.027  15.193  12.794  1.00  0.00     0.176 HD
HETATM    4  N2  UNL     1      29.792  15.190  14.545  1.00  0.00    -0.332 N 
ATOM      5  H2  UNL     1      30.540  14.828  15.137  1.00  0.00     0.180 HD
ENDROOT
BRANCH   4   6
HETATM    6  C1  UNL     1      28.861  16.072  15.151  1.00  0.00     0.232 C 
BRANCH   6   7
HETATM    7  C2  UNL     1      28.578  15.561  16.495  1.00  0.00    -0.085 C 
HETATM    8  C3  UNL     1      28.326  15.149  17.602  1.00  0.00    -0.094 C 
BRANCH   8   9
HETATM    9  C4  UNL     1      28.004  14.658  18.960  1.00  0.00     0.178 C 
HETATM   10 BR1  UNL     1      28.643  12.831  19.185  1.00  0.00    -0.083 Br
ENDBRANCH   8   9
ENDBRANCH   6   7
ENDBRANCH   4   6
TORSDOF 3
ENDMDL
MODEL 2
REMARK VINA RESULT: -4.234842849      1.890      2.119
REMARK  3 active torsions:
REMARK  status: ('A' for Active; 'I' for Inactive)
REMARK    1  A    between atoms: N2_4  and  C1_6 
REMARK    2  A    between atoms: C1_6  and  C2_7 
REMARK    3  A    between atoms: C3_8  and  C4_9 
ROOT
HETATM    1  N1  UNL     1      26.769  17.268  16.012  1.00  0.00    -0.349 N 
ATOM      2  H11 UNL     1      26.049  17.950  15.774  1.00  0.00     0.176 HD
ATOM      3  H12 UNL     1      26.706  16.800  16.917  1.00  0.00     0.176 HD
HETATM    4  N2  UNL     1      27.722  16.945  15.305  1.00  0.00    -0.332 N 
ATOM      5  H2  UNL     1      27.801  17.402  14.396  1.00  0.00     0.180 HD
ENDROOT
BRANCH   4   6
HETATM    6  C1  UNL     1      28.723  15.995  15.636  1.00  0.00     0.232 C 
BRANCH   6   7
HETATM    7  C2  UNL     1      28.337  15.371  16.905  1.00  0.00    -0.085 C 
HETATM    8  C3  UNL     1      27.998  14.860  17.945  1.00  0.00    -0.094 C 
BRANCH   8   9
HETATM    9  C4  UNL     1      27.567  14.244  19.220  1.00  0.00     0.178 C 
HETATM   10 BR1  UNL     1      28.537  12.582  19.527  1.00  0.00    -0.083 Br
ENDBRANCH   8   9
ENDBRANCH   6   7
ENDBRANCH   4   6
TORSDOF 3
ENDMDL
MODEL 3
REMARK VINA RESULT: -4.220699556      1.756      1.949
REMARK  3 active torsions:
REMARK  status: ('A' for Active; 'I' for Inactive)
REMARK    1  A    between atoms: N2_4  and  C1_6 
REMARK    2  A    between atoms: C1_6  and  C2_7 
REMARK    3  A    between atoms: C3_8  and  C4_9 
ROOT
HETATM    1  N1  UNL     1      27.769  16.930  15.494  1.00  0.00    -0.349 N 
ATOM      2  H11 UNL     1      27.450  17.886  15.649  1.00  0.00     0.176 HD
ATOM      3  H12 UNL     1      27.115  16.169  15.681  1.00  0.00     0.176 HD
HETATM    4  N2  UNL     1      28.884  16.594  15.097  1.00  0.00    -0.332 N 
ATOM      5  H2  UNL     1      29.551  17.341  14.905  1.00  0.00     0.180 HD
ENDROOT
BRANCH   4   6
HETATM    6  C1  UNL     1      29.328  15.263  14.882  1.00  0.00     0.232 C 
BRANCH   6   7
HETATM    7  C2  UNL     1      29.217  14.549  16.156  1.00  0.00    -0.085 C 
HETATM    8  C3  UNL     1      29.104  13.962  17.206  1.00  0.00    -0.094 C 
BRANCH   8   9
HETATM    9  C4  UNL     1      28.949  13.251  18.494  1.00  0.00     0.178 C 
HETATM   10 BR1  UNL     1      27.464  11.993  18.395  1.00  0.00    -0.083 Br
ENDBRANCH   8   9
ENDBRANCH   6   7
ENDBRANCH   4   6
TORSDOF 3
ENDMDL
MODEL 4
REMARK VINA RESULT: -4.204899749      1.458      1.548
REMARK  3 active torsions:
REMARK  status: ('A' for Active; 'I' for Inactive)
REMARK    1  A    between atoms: N2_4  and  C1_6 
REMARK    2  A    between atoms: C1_6  and  C2_7 
REMARK    3  A    between atoms: C3_8  and  C4_9 
ROOT
HETATM    1  N1  UNL     1      29.497  14.793  12.014  1.00  0.00    -0.349 N 
ATOM      2  H11 UNL     1      29.975  14.248  11.296  1.00  0.00     0.176 HD
ATOM      3  H12 UNL     1      28.738  15.408  11.724  1.00  0.00     0.176 HD
HETATM    4  N2  UNL     1      29.750  14.782  13.219  1.00  0.00    -0.332 N 
ATOM      5  H2  UNL     1      30.507  14.172  13.527  1.00  0.00     0.180 HD
ENDROOT
BRANCH   4   6
HETATM    6  C1  UNL     1      29.085  15.540  14.217  1.00  0.00     0.232 C 
BRANCH   6   7
HETATM    7  C2  UNL     1      29.130  14.767  15.461  1.00  0.00    -0.085 C 
HETATM    8  C3  UNL     1      29.163  14.147  16.497  1.00  0.00    -0.094 C 
BRANCH   8   9
HETATM    9  C4  UNL     1      29.207  13.404  17.776  1.00  0.00     0.178 C 
HETATM   10 BR1  UNL     1      28.024  14.239  19.081  1.00  0.00    -0.083 Br
ENDBRANCH   8   9
ENDBRANCH   6   7
ENDBRANCH   4   6
TORSDOF 3
ENDMDL
MODEL 5
REMARK VINA RESULT: -4.181936673      2.370      2.592
REMARK  3 active torsions:
REMARK  status: ('A' for Active; 'I' for Inactive)
REMARK    1  A    between atoms: N2_4  and  C1_6 
REMARK    2  A    between atoms: C1_6  and  C2_7 
REMARK    3  A    between atoms: C3_8  and  C4_9 
ROOT
HETATM    1  N1  UNL     1      26.731  17.274  15.904  1.00  0.00    -0.349 N 
ATOM      2  H11 UNL     1      25.904  17.832  16.118  1.00  0.00     0.176 HD
ATOM      3  H12 UNL     1      27.127  17.340  14.967  1.00  0.00     0.176 HD
HETATM    4  N2  UNL     1      27.310  16.514  16.680  1.00  0.00    -0.332 N 
ATOM      5  H2  UNL     1      26.929  16.436  17.623  1.00  0.00     0.180 HD
ENDROOT
BRANCH   4   6
HETATM    6  C1  UNL     1      28.460  15.737  16.384  1.00  0.00     0.232 C 
BRANCH   6   7
HETATM    7  C2  UNL     1      28.591  14.724  17.435  1.00  0.00    -0.085 C 
HETATM    8  C3  UNL     1      28.680  13.894  18.308  1.00  0.00    -0.094 C 
BRANCH   8   9
HETATM    9  C4  UNL     1      28.775  12.887  19.388  1.00  0.00     0.178 C 
HETATM   10 BR1  UNL     1      27.189  11.754  19.395  1.00  0.00    -0.083 Br
ENDBRANCH   8   9
ENDBRANCH   6   7
ENDBRANCH   4   6
TORSDOF 3
ENDMDL
