MODEL 1
REMARK VINA RESULT: -3.509163693      0.000      0.000
REMARK  2 active torsions:
REMARK  status: ('A' for Active; 'I' for Inactive)
REMARK    1  A    between atoms: C1_2  and  C2_3 
REMARK    2  A    between atoms: C3_4  and  N1_5 
ROOT
HETATM    1  C2  UNL     1      28.386  14.506  18.104  1.00  0.00    -0.005 C 
HETATM    2  C3  UNL     1      28.155  15.465  17.213  1.00  0.00     0.056 C 
ENDROOT
BRANCH   2   3
HETATM    3  N1  UNL     1      29.137  15.758  16.239  1.00  0.00    -0.291 NA
HETATM    4  C4  UNL     1      29.450  14.836  15.194  1.00  0.00     0.109 A 
HETATM    5  C5  UNL     1      28.704  16.097  14.895  1.00  0.00     0.109 A 
ENDBRANCH   2   3
BRANCH   1   6
HETATM    6  C1  UNL     1      27.424  14.125  19.160  1.00  0.00     0.113 C 
HETATM    7 BR1  UNL     1      27.453  12.174  19.275  1.00  0.00    -0.092 Br
ENDBRANCH   1   6
TORSDOF 2
ENDMDL
MODEL 2
REMARK VINA RESULT: -3.507486122      2.901      4.275
REMARK  2 active torsions:
REMARK  status: ('A' for Active; 'I' for Inactive)
REMARK    1  A    between atoms: C1_2  and  C2_3 
REMARK    2  A    between atoms: C3_4  and  N1_5 
ROOT
HETATM    1  C2  UNL     1      28.314  14.360  17.829  1.00  0.00    -0.005 C 
HETATM    2  C3  UNL     1      27.704  14.397  19.010  1.00  0.00     0.056 C 
ENDROOT
BRANCH   2   3
HETATM    3  N1  UNL     1      27.405  13.184  19.674  1.00  0.00    -0.291 NA
HETATM    4  C4  UNL     1      27.285  11.953  18.961  1.00  0.00     0.109 A 
HETATM    5  C5  UNL     1      28.464  12.205  19.845  1.00  0.00     0.109 A 
ENDBRANCH   2   3
BRANCH   1   6
HETATM    6  C1  UNL     1      28.668  15.569  17.057  1.00  0.00     0.113 C 
HETATM    7 BR1  UNL     1      29.268  14.963  15.299  1.00  0.00    -0.092 Br
ENDBRANCH   1   6
TORSDOF 2
ENDMDL
MODEL 3
REMARK VINA RESULT: -3.484018356      2.868      4.106
REMARK  2 active torsions:
REMARK  status: ('A' for Active; 'I' for Inactive)
REMARK    1  A    between atoms: C1_2  and  C2_3 
REMARK    2  A    between atoms: C3_4  and  N1_5 
ROOT
HETATM    1  C2  UNL     1      28.432  14.715  17.533  1.00  0.00    -0.005 C 
HETATM    2  C3  UNL     1      28.769  13.473  17.201  1.00  0.00     0.056 C 
ENDROOT
BRANCH   2   3
HETATM    3  N1  UNL     1      28.746  12.460  18.188  1.00  0.00    -0.291 NA
HETATM    4  C4  UNL     1      28.692  12.777  19.580  1.00  0.00     0.109 A 
HETATM    5  C5  UNL     1      27.500  12.198  18.886  1.00  0.00     0.109 A 
ENDBRANCH   2   3
BRANCH   1   6
HETATM    6  C1  UNL     1      28.424  15.842  16.576  1.00  0.00     0.113 C 
HETATM    7 BR1  UNL     1      29.255  15.193  14.931  1.00  0.00    -0.092 Br
ENDBRANCH   1   6
TORSDOF 2
ENDMDL
MODEL 4
REMARK VINA RESULT: -3.428621246      3.170      4.261
REMARK  2 active torsions:
REMARK  status: ('A' for Active; 'I' for Inactive)
REMARK    1  A    between atoms: C1_2  and  C2_3 
REMARK    2  A    between atoms: C3_4  and  N1_5 
ROOT
HETATM    1  C2  UNL     1      28.516  14.039  17.165  1.00  0.00    -0.005 C 
HETATM    2  C3  UNL     1      28.903  13.429  18.281  1.00  0.00     0.056 C 
ENDROOT
BRANCH   2   3
HETATM    3  N1  UNL     1      28.478  12.103  18.531  1.00  0.00    -0.291 NA
HETATM    4  C4  UNL     1      27.154  11.818  18.984  1.00  0.00     0.109 A 
HETATM    5  C5  UNL     1      27.568  11.476  17.588  1.00  0.00     0.109 A 
ENDBRANCH   2   3
BRANCH   1   6
HETATM    6  C1  UNL     1      28.906  15.420  16.813  1.00  0.00     0.113 C 
HETATM    7 BR1  UNL     1      29.149  15.464  14.875  1.00  0.00    -0.092 Br
ENDBRANCH   1   6
TORSDOF 2
ENDMDL
MODEL 5
REMARK VINA RESULT: -3.411360962      1.776      1.981
REMARK  2 active torsions:
REMARK  status: ('A' for Active; 'I' for Inactive)
REMARK    1  A    between atoms: C1_2  and  C2_3 
REMARK    2  A    between atoms: C3_4  and  N1_5 
ROOT
HETATM    1  C2  UNL     1      28.219  12.786  17.342  1.00  0.00    -0.005 C 
HETATM    2  C3  UNL     1      29.104  13.020  16.378  1.00  0.00     0.056 C 
ENDROOT
BRANCH   2   3
HETATM    3  N1  UNL     1      29.633  14.322  16.222  1.00  0.00    -0.291 NA
HETATM    4  C4  UNL     1      29.164  15.199  15.197  1.00  0.00     0.109 A 
HETATM    5  C5  UNL     1      28.821  15.456  16.630  1.00  0.00     0.109 A 
ENDBRANCH   2   3
BRANCH   1   6
HETATM    6  C1  UNL     1      27.609  11.462  17.586  1.00  0.00     0.113 C 
HETATM    7 BR1  UNL     1      26.920  11.485  19.415  1.00  0.00    -0.092 Br
ENDBRANCH   1   6
TORSDOF 2
ENDMDL
