MODEL 1
REMARK VINA RESULT: -4.174766889      0.000      0.000
REMARK  1 active torsions:
REMARK  status: ('A' for Active; 'I' for Inactive)
REMARK    1  A    between atoms: C1_2  and  N1_3 
ROOT
HETATM    1  N1  UNL     1      28.923  14.860  17.650  1.00  0.00    -0.254 NA
HETATM    2  C2  UNL     1      29.459  13.522  17.363  1.00  0.00     0.104 C 
HETATM    3  C3  UNL     1      28.677  12.639  18.281  1.00  0.00     0.028 C 
HETATM    4  C4  UNL     1      28.993  13.101  19.706  1.00  0.00     0.240 C 
HETATM    5  N2  UNL     1      28.313  14.390  19.850  1.00  0.00    -0.058 N 
ATOM      6  H21 UNL     1      28.899  15.126  20.243  1.00  0.00     0.279 HD
ATOM      7  H22 UNL     1      27.603  14.405  20.582  1.00  0.00     0.279 HD
HETATM    8  C5  UNL     1      27.798  14.689  18.517  1.00  0.00     0.265 C 
HETATM    9  C6  UNL     1      27.288  13.284  18.148  1.00  0.00     0.056 C 
ENDROOT
BRANCH   1  10
HETATM   10  C1  UNL     1      28.676  15.594  16.462  1.00  0.00     0.147 C 
HETATM   11 CL1  UNL     1      29.324  14.901  14.995  1.00  0.00    -0.084 Cl
ENDBRANCH   1  10
TORSDOF 1
ENDMDL
MODEL 2
REMARK VINA RESULT: -4.027715283      2.901      3.490
REMARK  1 active torsions:
REMARK  status: ('A' for Active; 'I' for Inactive)
REMARK    1  A    between atoms: C1_2  and  N1_3 
ROOT
HETATM    1  N1  UNL     1      27.138  12.040  18.025  1.00  0.00    -0.254 NA
HETATM    2  C2  UNL     1      28.326  12.678  17.441  1.00  0.00     0.104 C 
HETATM    3  C3  UNL     1      28.919  13.415  18.598  1.00  0.00     0.028 C 
HETATM    4  C4  UNL     1      27.870  14.436  19.049  1.00  0.00     0.240 C 
HETATM    5  N2  UNL     1      26.814  13.645  19.684  1.00  0.00    -0.058 N 
ATOM      6  H21 UNL     1      25.873  13.880  19.369  1.00  0.00     0.279 HD
ATOM      7  H22 UNL     1      26.665  13.866  20.668  1.00  0.00     0.279 HD
HETATM    8  C5  UNL     1      27.192  12.256  19.438  1.00  0.00     0.265 C 
HETATM    9  C6  UNL     1      28.702  12.378  19.711  1.00  0.00     0.056 C 
ENDROOT
BRANCH   1  10
HETATM   10  C1  UNL     1      27.013  10.688  17.616  1.00  0.00     0.147 C 
HETATM   11 CL1  UNL     1      25.504   9.909  18.026  1.00  0.00    -0.084 Cl
ENDBRANCH   1  10
TORSDOF 1
ENDMDL
MODEL 3
REMARK VINA RESULT: -3.995560550      1.374      2.141
REMARK  1 active torsions:
REMARK  status: ('A' for Active; 'I' for Inactive)
REMARK    1  A    between atoms: C1_2  and  N1_3 
ROOT
HETATM    1  N1  UNL     1      28.244  14.311  16.694  1.00  0.00    -0.254 NA
HETATM    2  C2  UNL     1      27.623  14.575  18.000  1.00  0.00     0.104 C 
HETATM    3  C3  UNL     1      27.959  13.351  18.790  1.00  0.00     0.028 C 
HETATM    4  C4  UNL     1      27.309  12.171  18.062  1.00  0.00     0.240 C 
HETATM    5  N2  UNL     1      28.101  11.989  16.844  1.00  0.00    -0.058 N 
ATOM      6  H21 UNL     1      27.542  11.900  15.996  1.00  0.00     0.279 HD
ATOM      7  H22 UNL     1      28.557  11.079  16.778  1.00  0.00     0.279 HD
HETATM    8  C5  UNL     1      29.025  13.119  16.829  1.00  0.00     0.265 C 
HETATM    9  C6  UNL     1      29.405  13.123  18.322  1.00  0.00     0.056 C 
ENDROOT
BRANCH   1  10
HETATM   10  C1  UNL     1      28.937  15.446  16.202  1.00  0.00     0.147 C 
HETATM   11 CL1  UNL     1      29.180  15.494  14.473  1.00  0.00    -0.084 Cl
ENDBRANCH   1  10
TORSDOF 1
ENDMDL
MODEL 4
REMARK VINA RESULT: -3.940030596      1.596      1.921
REMARK  1 active torsions:
REMARK  status: ('A' for Active; 'I' for Inactive)
REMARK    1  A    between atoms: C1_2  and  N1_3 
ROOT
HETATM    1  N1  UNL     1      29.121  12.846  17.959  1.00  0.00    -0.254 NA
HETATM    2  C2  UNL     1      28.020  11.970  17.532  1.00  0.00     0.104 C 
HETATM    3  C3  UNL     1      27.093  11.995  18.704  1.00  0.00     0.028 C 
HETATM    4  C4  UNL     1      27.872  11.418  19.889  1.00  0.00     0.240 C 
HETATM    5  N2  UNL     1      28.853  12.446  20.240  1.00  0.00    -0.058 N 
ATOM      6  H21 UNL     1      29.802  12.091  20.359  1.00  0.00     0.279 HD
ATOM      7  H22 UNL     1      28.749  12.815  21.185  1.00  0.00     0.279 HD
HETATM    8  C5  UNL     1      28.725  13.455  19.192  1.00  0.00     0.265 C 
HETATM    9  C6  UNL     1      27.189  13.480  19.086  1.00  0.00     0.056 C 
ENDROOT
BRANCH   1  10
HETATM   10  C1  UNL     1      29.510  13.741  16.930  1.00  0.00     0.147 C 
HETATM   11 CL1  UNL     1      29.012  15.401  17.142  1.00  0.00    -0.084 Cl
ENDBRANCH   1  10
TORSDOF 1
ENDMDL
MODEL 5
REMARK VINA RESULT: -3.789729280      2.977      3.970
REMARK  1 active torsions:
REMARK  status: ('A' for Active; 'I' for Inactive)
REMARK    1  A    between atoms: C1_2  and  N1_3 
ROOT
HETATM    1  N1  UNL     1      27.799  12.335  20.052  1.00  0.00    -0.254 NA
HETATM    2  C2  UNL     1      27.072  12.236  18.779  1.00  0.00     0.104 C 
HETATM    3  C3  UNL     1      27.723  13.282  17.933  1.00  0.00     0.028 C 
HETATM    4  C4  UNL     1      27.488  14.621  18.637  1.00  0.00     0.240 C 
HETATM    5  N2  UNL     1      28.350  14.588  19.820  1.00  0.00    -0.058 N 
ATOM      6  H21 UNL     1      27.880  14.863  20.683  1.00  0.00     0.279 HD
ATOM      7  H22 UNL     1      29.059  15.321  19.837  1.00  0.00     0.279 HD
HETATM    8  C5  UNL     1      28.894  13.234  19.846  1.00  0.00     0.265 C 
HETATM    9  C6  UNL     1      29.190  13.078  18.343  1.00  0.00     0.056 C 
ENDROOT
BRANCH   1  10
HETATM   10  C1  UNL     1      28.143  11.058  20.563  1.00  0.00     0.147 C 
HETATM   11 CL1  UNL     1      28.970  11.054  22.101  1.00  0.00    -0.084 Cl
ENDBRANCH   1  10
TORSDOF 1
ENDMDL
