MODEL 1
REMARK VINA RESULT: -6.883967433      0.000      0.000
REMARK  5 active torsions:
REMARK  status: ('A' for Active; 'I' for Inactive)
REMARK    1  A    between atoms: O1_2  and  C2_3 
REMARK    2  A    between atoms: C3_4  and  C4_5 
REMARK    3  A    between atoms: C4_5  and  C5_6 
REMARK    4  A    between atoms: C5_6  and  C6_8 
REMARK    5  A    between atoms: C6_8  and  O3_9 
ROOT
HETATM    1  C2  UNL     1      48.055  49.661  33.586  1.00  0.00     0.144 C 
HETATM    2  C3  UNL     1      46.973  49.149  34.459  1.00  0.00     0.080 C 
HETATM    3  C7  UNL     1      46.910  47.647  34.256  1.00  0.00     0.070 A 
HETATM    4  C8  UNL     1      46.900  47.206  33.020  1.00  0.00    -0.001 A 
HETATM    5  C9  UNL     1      46.840  45.740  33.087  1.00  0.00     0.116 A 
HETATM    6  C10 UNL     1      47.865  44.984  32.323  1.00  0.00     0.025 C 
HETATM    7  C11 UNL     1      46.800  45.425  34.510  1.00  0.00     0.272 A 
HETATM    8  O4  UNL     1      46.729  44.267  35.060  1.00  0.00    -0.264 OA
HETATM    9  O5  UNL     1      46.853  46.616  35.189  1.00  0.00    -0.282 OA
HETATM   10  C12 UNL     1      46.921  48.191  31.895  1.00  0.00     0.102 C 
HETATM   11  C13 UNL     1      47.810  47.850  30.725  1.00  0.00     0.045 C 
HETATM   12  C14 UNL     1      48.931  48.622  31.449  1.00  0.00     0.020 C 
HETATM   13  C15 UNL     1      47.815  49.372  32.134  1.00  0.00     0.040 C 
HETATM   14  C16 UNL     1      47.228  50.415  31.268  1.00  0.00     0.132 C 
HETATM   15 BR1  UNL     1      47.363  52.215  31.871  1.00  0.00    -0.085 Br
HETATM   16  C17 UNL     1      45.788  49.978  31.122  1.00  0.00     0.323 C 
HETATM   17  F1  UNL     1      45.346  50.081  29.815  1.00  0.00    -0.218 F 
HETATM   18  O6  UNL     1      45.682  48.698  31.605  1.00  0.00    -0.339 OA
ENDROOT
BRANCH   2  19
HETATM   19  C4  UNL     1      47.094  49.414  35.901  1.00  0.00     0.094 C 
BRANCH  19  20
HETATM   20  C5  UNL     1      47.199  50.833  36.290  1.00  0.00     0.150 C 
HETATM   21  O2  UNL     1      46.345  51.678  36.191  1.00  0.00    -0.296 OA
BRANCH  20  22
HETATM   22  C6  UNL     1      48.504  51.331  36.882  1.00  0.00     0.242 C 
BRANCH  22  23
HETATM   23  O3  UNL     1      48.504  52.683  37.101  1.00  0.00    -0.394 OA
ATOM     24  H3  UNL     1      47.710  53.105  36.795  1.00  0.00     0.209 HD
ENDBRANCH  22  23
ENDBRANCH  20  22
ENDBRANCH  19  20
ENDBRANCH   2  19
BRANCH   1  25
HETATM   25  O1  UNL     1      49.250  49.004  33.917  1.00  0.00    -0.389 OA
HETATM   26  C1  UNL     1      50.262  49.894  34.185  1.00  0.00     0.202 C 
ENDBRANCH   1  25
TORSDOF 5
ENDMDL
MODEL 2
REMARK VINA RESULT: -6.833068782      2.434      4.701
REMARK  5 active torsions:
REMARK  status: ('A' for Active; 'I' for Inactive)
REMARK    1  A    between atoms: O1_2  and  C2_3 
REMARK    2  A    between atoms: C3_4  and  C4_5 
REMARK    3  A    between atoms: C4_5  and  C5_6 
REMARK    4  A    between atoms: C5_6  and  C6_8 
REMARK    5  A    between atoms: C6_8  and  O3_9 
ROOT
HETATM    1  C2  UNL     1      47.260  50.139  31.909  1.00  0.00     0.144 C 
HETATM    2  C3  UNL     1      46.373  50.254  33.089  1.00  0.00     0.080 C 
HETATM    3  C7  UNL     1      47.266  50.451  34.301  1.00  0.00     0.070 A 
HETATM    4  C8  UNL     1      48.288  49.639  34.434  1.00  0.00    -0.001 A 
HETATM    5  C9  UNL     1      48.990  50.031  35.664  1.00  0.00     0.116 A 
HETATM    6  C10 UNL     1      50.448  50.290  35.559  1.00  0.00     0.025 C 
HETATM    7  C11 UNL     1      48.220  51.146  36.203  1.00  0.00     0.272 A 
HETATM    8  O4  UNL     1      48.442  51.810  37.279  1.00  0.00    -0.264 OA
HETATM    9  O5  UNL     1      47.181  51.376  35.337  1.00  0.00    -0.282 OA
HETATM   10  C12 UNL     1      48.500  48.562  33.420  1.00  0.00     0.102 C 
HETATM   11  C13 UNL     1      49.924  48.328  32.981  1.00  0.00     0.045 C 
HETATM   12  C14 UNL     1      49.669  49.358  31.863  1.00  0.00     0.020 C 
HETATM   13  C15 UNL     1      48.214  48.986  32.009  1.00  0.00     0.040 C 
HETATM   14  C16 UNL     1      47.892  47.711  31.336  1.00  0.00     0.132 C 
HETATM   15 BR1  UNL     1      46.625  47.778  29.918  1.00  0.00    -0.085 Br
HETATM   16  C17 UNL     1      47.422  46.827  32.469  1.00  0.00     0.323 C 
HETATM   17  F1  UNL     1      47.963  45.555  32.392  1.00  0.00    -0.218 F 
HETATM   18  O6  UNL     1      47.732  47.451  33.651  1.00  0.00    -0.339 OA
ENDROOT
BRANCH   2  19
HETATM   19  C4  UNL     1      45.373  51.332  33.074  1.00  0.00     0.094 C 
BRANCH  19  20
HETATM   20  C5  UNL     1      44.275  51.180  32.100  1.00  0.00     0.150 C 
HETATM   21  O2  UNL     1      44.106  51.817  31.091  1.00  0.00    -0.296 OA
BRANCH  20  22
HETATM   22  C6  UNL     1      43.219  50.121  32.354  1.00  0.00     0.242 C 
BRANCH  22  23
HETATM   23  O3  UNL     1      42.016  50.654  32.738  1.00  0.00    -0.394 OA
ATOM     24  H3  UNL     1      41.569  50.122  33.386  1.00  0.00     0.209 HD
ENDBRANCH  22  23
ENDBRANCH  20  22
ENDBRANCH  19  20
ENDBRANCH   2  19
BRANCH   1  25
HETATM   25  O1  UNL     1      48.057  51.291  31.831  1.00  0.00    -0.389 OA
HETATM   26  C1  UNL     1      47.785  52.022  30.700  1.00  0.00     0.202 C 
ENDBRANCH   1  25
TORSDOF 5
ENDMDL
MODEL 3
REMARK VINA RESULT: -6.680541388      2.166      3.740
REMARK  5 active torsions:
REMARK  status: ('A' for Active; 'I' for Inactive)
REMARK    1  A    between atoms: O1_2  and  C2_3 
REMARK    2  A    between atoms: C3_4  and  C4_5 
REMARK    3  A    between atoms: C4_5  and  C5_6 
REMARK    4  A    between atoms: C5_6  and  C6_8 
REMARK    5  A    between atoms: C6_8  and  O3_9 
ROOT
HETATM    1  C2  UNL     1      47.666  47.971  33.212  1.00  0.00     0.144 C 
HETATM    2  C3  UNL     1      47.191  49.252  33.785  1.00  0.00     0.080 C 
HETATM    3  C7  UNL     1      45.990  49.687  32.966  1.00  0.00     0.070 A 
HETATM    4  C8  UNL     1      46.109  49.658  31.660  1.00  0.00    -0.001 A 
HETATM    5  C9  UNL     1      44.830  50.116  31.101  1.00  0.00     0.116 A 
HETATM    6  C10 UNL     1      44.180  49.242  30.092  1.00  0.00     0.025 C 
HETATM    7  C11 UNL     1      43.995  50.418  32.258  1.00  0.00     0.272 A 
HETATM    8  O4  UNL     1      42.792  50.865  32.267  1.00  0.00    -0.264 OA
HETATM    9  O5  UNL     1      44.737  50.135  33.377  1.00  0.00    -0.282 OA
HETATM   10  C12 UNL     1      47.409  49.233  31.056  1.00  0.00     0.102 C 
HETATM   11  C13 UNL     1      47.322  48.326  29.853  1.00  0.00     0.045 C 
HETATM   12  C14 UNL     1      47.368  47.141  30.838  1.00  0.00     0.020 C 
HETATM   13  C15 UNL     1      48.072  48.094  31.774  1.00  0.00     0.040 C 
HETATM   14  C16 UNL     1      49.498  48.266  31.428  1.00  0.00     0.132 C 
HETATM   15 BR1  UNL     1      50.774  47.732  32.735  1.00  0.00    -0.085 Br
HETATM   16  C17 UNL     1      49.604  49.740  31.108  1.00  0.00     0.323 C 
HETATM   17  F1  UNL     1      50.350  49.969  29.966  1.00  0.00    -0.218 F 
HETATM   18  O6  UNL     1      48.332  50.244  31.005  1.00  0.00    -0.339 OA
ENDROOT
BRANCH   2  19
HETATM   19  C4  UNL     1      46.804  49.248  35.204  1.00  0.00     0.094 C 
BRANCH  19  20
HETATM   20  C5  UNL     1      46.940  50.534  35.914  1.00  0.00     0.150 C 
HETATM   21  O2  UNL     1      46.055  51.195  36.397  1.00  0.00    -0.296 OA
BRANCH  20  22
HETATM   22  C6  UNL     1      48.325  51.132  36.077  1.00  0.00     0.242 C 
BRANCH  22  23
HETATM   23  O3  UNL     1      48.316  52.303  36.788  1.00  0.00    -0.394 OA
ATOM     24  H3  UNL     1      48.542  52.180  37.702  1.00  0.00     0.209 HD
ENDBRANCH  22  23
ENDBRANCH  20  22
ENDBRANCH  19  20
ENDBRANCH   2  19
BRANCH   1  25
HETATM   25  O1  UNL     1      46.611  47.047  33.237  1.00  0.00    -0.389 OA
HETATM   26  C1  UNL     1      46.902  45.964  34.031  1.00  0.00     0.202 C 
ENDBRANCH   1  25
TORSDOF 5
ENDMDL
MODEL 4
REMARK VINA RESULT: -6.677837236      9.742     11.969
REMARK  5 active torsions:
REMARK  status: ('A' for Active; 'I' for Inactive)
REMARK    1  A    between atoms: O1_2  and  C2_3 
REMARK    2  A    between atoms: C3_4  and  C4_5 
REMARK    3  A    between atoms: C4_5  and  C5_6 
REMARK    4  A    between atoms: C5_6  and  C6_8 
REMARK    5  A    between atoms: C6_8  and  O3_9 
ROOT
HETATM    1  C2  UNL     1      57.786  46.960  32.909  1.00  0.00     0.144 C 
HETATM    2  C3  UNL     1      57.257  47.076  34.287  1.00  0.00     0.080 C 
HETATM    3  C7  UNL     1      57.277  48.550  34.649  1.00  0.00     0.070 A 
HETATM    4  C8  UNL     1      58.382  49.215  34.405  1.00  0.00    -0.001 A 
HETATM    5  C9  UNL     1      58.152  50.602  34.833  1.00  0.00     0.116 A 
HETATM    6  C10 UNL     1      58.436  51.672  33.845  1.00  0.00     0.025 C 
HETATM    7  C11 UNL     1      56.792  50.618  35.359  1.00  0.00     0.272 A 
HETATM    8  O4  UNL     1      56.153  51.610  35.864  1.00  0.00    -0.264 OA
HETATM    9  O5  UNL     1      56.290  49.348  35.221  1.00  0.00    -0.282 OA
HETATM   10  C12 UNL     1      59.553  48.492  33.822  1.00  0.00     0.102 C 
HETATM   11  C13 UNL     1      60.316  49.218  32.741  1.00  0.00     0.045 C 
HETATM   12  C14 UNL     1      59.369  48.544  31.727  1.00  0.00     0.020 C 
HETATM   13  C15 UNL     1      59.188  47.477  32.779  1.00  0.00     0.040 C 
HETATM   14  C16 UNL     1      60.323  46.533  32.820  1.00  0.00     0.132 C 
HETATM   15 BR1  UNL     1      59.943  44.708  32.436  1.00  0.00    -0.085 Br
HETATM   16  C17 UNL     1      60.875  46.711  34.217  1.00  0.00     0.323 C 
HETATM   17  F1  UNL     1      62.257  46.785  34.221  1.00  0.00    -0.218 F 
HETATM   18  O6  UNL     1      60.295  47.828  34.763  1.00  0.00    -0.339 OA
ENDROOT
BRANCH   2  19
HETATM   19  C4  UNL     1      55.901  46.561  34.531  1.00  0.00     0.094 C 
BRANCH  19  20
HETATM   20  C5  UNL     1      55.778  45.095  34.645  1.00  0.00     0.150 C 
HETATM   21  O2  UNL     1      55.230  44.350  33.872  1.00  0.00    -0.296 OA
BRANCH  20  22
HETATM   22  C6  UNL     1      56.392  44.406  35.849  1.00  0.00     0.242 C 
BRANCH  22  23
HETATM   23  O3  UNL     1      55.873  44.852  37.036  1.00  0.00    -0.394 OA
ATOM     24  H3  UNL     1      55.770  44.158  37.676  1.00  0.00     0.209 HD
ENDBRANCH  22  23
ENDBRANCH  20  22
ENDBRANCH  19  20
ENDBRANCH   2  19
BRANCH   1  25
HETATM   25  O1  UNL     1      57.003  47.752  32.057  1.00  0.00    -0.389 OA
HETATM   26  C1  UNL     1      56.341  46.993  31.122  1.00  0.00     0.202 C 
ENDBRANCH   1  25
TORSDOF 5
ENDMDL
MODEL 5
REMARK VINA RESULT: -6.621371088      2.188      3.624
REMARK  5 active torsions:
REMARK  status: ('A' for Active; 'I' for Inactive)
REMARK    1  A    between atoms: O1_2  and  C2_3 
REMARK    2  A    between atoms: C3_4  and  C4_5 
REMARK    3  A    between atoms: C4_5  and  C5_6 
REMARK    4  A    between atoms: C5_6  and  C6_8 
REMARK    5  A    between atoms: C6_8  and  O3_9 
ROOT
HETATM    1  C2  UNL     1      48.035  49.064  32.626  1.00  0.00     0.144 C 
HETATM    2  C3  UNL     1      47.139  49.896  33.461  1.00  0.00     0.080 C 
HETATM    3  C7  UNL     1      45.810  49.987  32.734  1.00  0.00     0.070 A 
HETATM    4  C8  UNL     1      45.842  50.289  31.457  1.00  0.00    -0.001 A 
HETATM    5  C9  UNL     1      44.450  50.312  30.986  1.00  0.00     0.116 A 
HETATM    6  C10 UNL     1      44.125  49.492  29.792  1.00  0.00     0.025 C 
HETATM    7  C11 UNL     1      43.645  50.003  32.162  1.00  0.00     0.272 A 
HETATM    8  O4  UNL     1      42.366  49.925  32.244  1.00  0.00    -0.264 OA
HETATM    9  O5  UNL     1      44.513  49.804  33.205  1.00  0.00    -0.282 OA
HETATM   10  C12 UNL     1      47.160  50.553  30.803  1.00  0.00     0.102 C 
HETATM   11  C13 UNL     1      47.352  49.968  29.426  1.00  0.00     0.045 C 
HETATM   12  C14 UNL     1      47.923  48.716  30.120  1.00  0.00     0.020 C 
HETATM   13  C15 UNL     1      48.262  49.644  31.262  1.00  0.00     0.040 C 
HETATM   14  C16 UNL     1      49.480  50.436  30.996  1.00  0.00     0.132 C 
HETATM   15 BR1  UNL     1      50.950  50.183  32.179  1.00  0.00    -0.085 Br
HETATM   16  C17 UNL     1      48.981  51.863  31.018  1.00  0.00     0.323 C 
HETATM   17  F1  UNL     1      49.499  52.608  29.974  1.00  0.00    -0.218 F 
HETATM   18  O6  UNL     1      47.609  51.832  31.001  1.00  0.00    -0.339 OA
ENDROOT
BRANCH   2  19
HETATM   19  C4  UNL     1      46.882  49.435  34.834  1.00  0.00     0.094 C 
BRANCH  19  20
HETATM   20  C5  UNL     1      46.952  50.467  35.886  1.00  0.00     0.150 C 
HETATM   21  O2  UNL     1      46.053  50.843  36.595  1.00  0.00    -0.296 OA
BRANCH  20  22
HETATM   22  C6  UNL     1      48.279  51.158  36.138  1.00  0.00     0.242 C 
BRANCH  22  23
HETATM   23  O3  UNL     1      48.134  52.372  36.759  1.00  0.00    -0.394 OA
ATOM     24  H3  UNL     1      47.271  52.489  37.138  1.00  0.00     0.209 HD
ENDBRANCH  22  23
ENDBRANCH  20  22
ENDBRANCH  19  20
ENDBRANCH   2  19
BRANCH   1  25
HETATM   25  O1  UNL     1      47.429  47.817  32.419  1.00  0.00    -0.389 OA
HETATM   26  C1  UNL     1      48.256  46.782  32.782  1.00  0.00     0.202 C 
ENDBRANCH   1  25
TORSDOF 5
ENDMDL
