MODEL 1
REMARK VINA RESULT: -8.154604416      0.000      0.000
REMARK  5 active torsions:
REMARK  status: ('A' for Active; 'I' for Inactive)
REMARK    1  A    between atoms: C2_2  and  C5_5 
REMARK    2  A    between atoms: C5_5  and  O2_7 
REMARK    3  A    between atoms: O2_7  and  C6_8 
REMARK    4  A    between atoms: C8_11  and  C9_12 
REMARK       I    between atoms: C9_12  and  N1_14 
REMARK    5  A    between atoms: C19_26  and  C20_27 
ROOT
HETATM    1  C6  UNL     1      48.571  50.163  35.363  1.00  0.00     0.221 C 
HETATM    2  C7  UNL     1      48.271  49.882  33.923  1.00  0.00     0.175 C 
HETATM    3  O3  UNL     1      49.026  49.986  33.009  1.00  0.00    -0.294 OA
HETATM    4  C8  UNL     1      46.864  49.457  33.900  1.00  0.00     0.105 C 
HETATM    5  C17 UNL     1      45.898  50.486  34.444  1.00  0.00     0.029 C 
HETATM    6  C18 UNL     1      46.262  50.604  35.912  1.00  0.00     0.025 C 
HETATM    7  C19 UNL     1      47.401  49.624  36.100  1.00  0.00     0.083 C 
HETATM    8  C21 UNL     1      46.904  48.525  35.143  1.00  0.00     0.051 C 
ENDROOT
BRANCH   4   9
HETATM    9  C9  UNL     1      46.397  48.755  32.726  1.00  0.00     0.236 C 
HETATM   10  O4  UNL     1      46.441  47.461  32.814  1.00  0.00    -0.272 OA
HETATM   11  N1  UNL     1      45.912  49.249  31.523  1.00  0.00    -0.350 N 
HETATM   12  C10 UNL     1      45.777  50.651  31.253  1.00  0.00     0.131 C 
HETATM   13  C16 UNL     1      45.499  48.344  30.446  1.00  0.00     0.140 C 
HETATM   14  C11 UNL     1      46.520  50.946  29.963  1.00  0.00     0.100 C 
HETATM   15  C12 UNL     1      46.017  50.163  28.799  1.00  0.00     0.253 C 
HETATM   16  F1  UNL     1      47.072  49.705  27.997  1.00  0.00    -0.205 F 
HETATM   17  F2  UNL     1      45.288  51.011  27.986  1.00  0.00    -0.205 F 
HETATM   18  C13 UNL     1      45.123  49.018  29.183  1.00  0.00     0.034 C 
HETATM   19  C14 UNL     1      45.302  47.969  28.070  1.00  0.00     0.022 C 
HETATM   20  C15 UNL     1      43.699  49.463  29.103  1.00  0.00     0.022 C 
ENDBRANCH   4   9
BRANCH   1  21
HETATM   21  O2  UNL     1      49.826  49.658  35.736  1.00  0.00    -0.306 OA
BRANCH  21  22
HETATM   22  C5  UNL     1      50.951  50.486  35.763  1.00  0.00     0.267 C 
HETATM   23  O1  UNL     1      50.812  51.547  36.463  1.00  0.00    -0.264 OA
BRANCH  22  24
HETATM   24  C2  UNL     1      52.204  50.208  35.063  1.00  0.00     0.037 C 
HETATM   25  C1  UNL     1      52.260  48.801  34.498  1.00  0.00     0.025 C 
HETATM   26  C3  UNL     1      52.268  51.129  33.837  1.00  0.00     0.025 C 
HETATM   27  C4  UNL     1      53.454  50.446  35.836  1.00  0.00     0.025 C 
ENDBRANCH  22  24
ENDBRANCH  21  22
ENDBRANCH   1  21
BRANCH   7  28
HETATM   28  C20 UNL     1      47.585  49.168  37.447  1.00  0.00     0.185 C 
HETATM   29  O5  UNL     1      47.752  49.943  38.389  1.00  0.00    -0.647 OA
HETATM   30  O6  UNL     1      47.577  47.806  37.714  1.00  0.00    -0.647 OA
ENDBRANCH   7  28
TORSDOF 5
ENDMDL
MODEL 2
REMARK VINA RESULT: -7.321342472      2.624      3.352
REMARK  5 active torsions:
REMARK  status: ('A' for Active; 'I' for Inactive)
REMARK    1  A    between atoms: C2_2  and  C5_5 
REMARK    2  A    between atoms: C5_5  and  O2_7 
REMARK    3  A    between atoms: O2_7  and  C6_8 
REMARK    4  A    between atoms: C8_11  and  C9_12 
REMARK       I    between atoms: C9_12  and  N1_14 
REMARK    5  A    between atoms: C19_26  and  C20_27 
ROOT
HETATM    1  C6  UNL     1      48.521  50.190  35.041  1.00  0.00     0.221 C 
HETATM    2  C7  UNL     1      48.535  49.891  33.574  1.00  0.00     0.175 C 
HETATM    3  O3  UNL     1      49.451  50.045  32.829  1.00  0.00    -0.294 OA
HETATM    4  C8  UNL     1      47.192  49.376  33.273  1.00  0.00     0.105 C 
HETATM    5  C17 UNL     1      46.072  50.339  33.599  1.00  0.00     0.029 C 
HETATM    6  C18 UNL     1      46.125  50.479  35.109  1.00  0.00     0.025 C 
HETATM    7  C19 UNL     1      47.263  49.575  35.534  1.00  0.00     0.083 C 
HETATM    8  C21 UNL     1      47.040  48.447  34.510  1.00  0.00     0.051 C 
ENDROOT
BRANCH   4   9
HETATM    9  C9  UNL     1      47.017  48.647  32.038  1.00  0.00     0.236 C 
HETATM   10  O4  UNL     1      46.014  49.040  31.313  1.00  0.00    -0.272 OA
HETATM   11  N1  UNL     1      47.750  47.593  31.509  1.00  0.00    -0.350 N 
HETATM   12  C10 UNL     1      48.900  47.039  32.163  1.00  0.00     0.131 C 
HETATM   13  C16 UNL     1      47.383  46.985  30.227  1.00  0.00     0.140 C 
HETATM   14  C11 UNL     1      48.676  45.543  32.300  1.00  0.00     0.100 C 
HETATM   15  C12 UNL     1      48.464  44.856  30.995  1.00  0.00     0.253 C 
HETATM   16  F1  UNL     1      47.451  43.889  31.086  1.00  0.00    -0.205 F 
HETATM   17  F2  UNL     1      49.610  44.149  30.683  1.00  0.00    -0.205 F 
HETATM   18  C13 UNL     1      48.182  45.795  29.857  1.00  0.00     0.034 C 
HETATM   19  C14 UNL     1      47.317  44.992  28.869  1.00  0.00     0.022 C 
HETATM   20  C15 UNL     1      49.460  46.089  29.140  1.00  0.00     0.022 C 
ENDBRANCH   4   9
BRANCH   1  21
HETATM   21  O2  UNL     1      49.704  49.768  35.665  1.00  0.00    -0.306 OA
BRANCH  21  22
HETATM   22  C5  UNL     1      50.805  50.622  35.764  1.00  0.00     0.267 C 
HETATM   23  O1  UNL     1      50.612  51.650  36.502  1.00  0.00    -0.264 OA
BRANCH  22  24
HETATM   24  C2  UNL     1      52.088  50.406  35.099  1.00  0.00     0.037 C 
HETATM   25  C1  UNL     1      53.271  50.593  36.031  1.00  0.00     0.025 C 
HETATM   26  C3  UNL     1      52.150  48.934  34.671  1.00  0.00     0.025 C 
HETATM   27  C4  UNL     1      52.335  51.213  33.872  1.00  0.00     0.025 C 
ENDBRANCH  22  24
ENDBRANCH  21  22
ENDBRANCH   1  21
BRANCH   7  28
HETATM   28  C20 UNL     1      47.201  49.131  36.895  1.00  0.00     0.185 C 
HETATM   29  O5  UNL     1      46.948  49.895  37.828  1.00  0.00    -0.647 OA
HETATM   30  O6  UNL     1      47.430  47.794  37.189  1.00  0.00    -0.647 OA
ENDBRANCH   7  28
TORSDOF 5
ENDMDL
MODEL 3
REMARK VINA RESULT: -7.210813360      4.287      7.238
REMARK  5 active torsions:
REMARK  status: ('A' for Active; 'I' for Inactive)
REMARK    1  A    between atoms: C2_2  and  C5_5 
REMARK    2  A    between atoms: C5_5  and  O2_7 
REMARK    3  A    between atoms: O2_7  and  C6_8 
REMARK    4  A    between atoms: C8_11  and  C9_12 
REMARK       I    between atoms: C9_12  and  N1_14 
REMARK    5  A    between atoms: C19_26  and  C20_27 
ROOT
HETATM    1  C6  UNL     1      48.233  49.759  35.386  1.00  0.00     0.221 C 
HETATM    2  C7  UNL     1      49.713  49.534  35.370  1.00  0.00     0.175 C 
HETATM    3  O3  UNL     1      50.417  49.382  36.318  1.00  0.00    -0.294 OA
HETATM    4  C8  UNL     1      50.087  49.543  33.948  1.00  0.00     0.105 C 
HETATM    5  C17 UNL     1      49.745  50.827  33.226  1.00  0.00     0.029 C 
HETATM    6  C18 UNL     1      48.229  50.879  33.248  1.00  0.00     0.025 C 
HETATM    7  C19 UNL     1      47.817  49.612  33.970  1.00  0.00     0.083 C 
HETATM    8  C21 UNL     1      48.909  48.680  33.415  1.00  0.00     0.051 C 
ENDROOT
BRANCH   4   9
HETATM    9  C9  UNL     1      51.366  48.974  33.590  1.00  0.00     0.236 C 
HETATM   10  O4  UNL     1      51.298  47.879  32.896  1.00  0.00    -0.272 OA
HETATM   11  N1  UNL     1      52.652  49.413  33.874  1.00  0.00    -0.350 N 
HETATM   12  C10 UNL     1      52.920  50.612  34.615  1.00  0.00     0.131 C 
HETATM   13  C16 UNL     1      53.825  48.664  33.416  1.00  0.00     0.140 C 
HETATM   14  C11 UNL     1      53.831  50.244  35.772  1.00  0.00     0.100 C 
HETATM   15  C12 UNL     1      55.116  49.627  35.338  1.00  0.00     0.253 C 
HETATM   16  F1  UNL     1      55.475  48.556  36.171  1.00  0.00    -0.205 F 
HETATM   17  F2  UNL     1      56.123  50.561  35.497  1.00  0.00    -0.205 F 
HETATM   18  C13 UNL     1      55.121  49.190  33.901  1.00  0.00     0.034 C 
HETATM   19  C14 UNL     1      56.110  48.011  33.836  1.00  0.00     0.022 C 
HETATM   20  C15 UNL     1      55.718  50.274  33.063  1.00  0.00     0.022 C 
ENDBRANCH   4   9
BRANCH   1  21
HETATM   21  O2  UNL     1      47.594  48.918  36.311  1.00  0.00    -0.306 OA
BRANCH  21  22
HETATM   22  C5  UNL     1      47.127  49.418  37.529  1.00  0.00     0.267 C 
HETATM   23  O1  UNL     1      46.178  50.270  37.423  1.00  0.00    -0.264 OA
BRANCH  22  24
HETATM   24  C2  UNL     1      47.648  49.034  38.839  1.00  0.00     0.037 C 
HETATM   25  C1  UNL     1      46.555  48.612  39.804  1.00  0.00     0.025 C 
HETATM   26  C3  UNL     1      48.514  47.782  38.649  1.00  0.00     0.025 C 
HETATM   27  C4  UNL     1      48.505  50.041  39.525  1.00  0.00     0.025 C 
ENDBRANCH  22  24
ENDBRANCH  21  22
ENDBRANCH   1  21
BRANCH   7  28
HETATM   28  C20 UNL     1      46.485  49.164  33.684  1.00  0.00     0.185 C 
HETATM   29  O5  UNL     1      46.256  48.089  33.127  1.00  0.00    -0.647 OA
HETATM   30  O6  UNL     1      45.406  49.960  34.041  1.00  0.00    -0.647 OA
ENDBRANCH   7  28
TORSDOF 5
ENDMDL
MODEL 4
REMARK VINA RESULT: -7.124354902      4.020      7.156
REMARK  5 active torsions:
REMARK  status: ('A' for Active; 'I' for Inactive)
REMARK    1  A    between atoms: C2_2  and  C5_5 
REMARK    2  A    between atoms: C5_5  and  O2_7 
REMARK    3  A    between atoms: O2_7  and  C6_8 
REMARK    4  A    between atoms: C8_11  and  C9_12 
REMARK       I    between atoms: C9_12  and  N1_14 
REMARK    5  A    between atoms: C19_26  and  C20_27 
ROOT
HETATM    1  C6  UNL     1      46.108  48.141  31.688  1.00  0.00     0.221 C 
HETATM    2  C7  UNL     1      47.348  47.422  31.255  1.00  0.00     0.175 C 
HETATM    3  O3  UNL     1      47.671  47.180  30.135  1.00  0.00    -0.294 OA
HETATM    4  C8  UNL     1      48.056  47.094  32.500  1.00  0.00     0.105 C 
HETATM    5  C17 UNL     1      47.260  46.234  33.456  1.00  0.00     0.029 C 
HETATM    6  C18 UNL     1      46.096  47.112  33.871  1.00  0.00     0.025 C 
HETATM    7  C19 UNL     1      46.320  48.415  33.130  1.00  0.00     0.083 C 
HETATM    8  C21 UNL     1      47.856  48.456  33.222  1.00  0.00     0.051 C 
ENDROOT
BRANCH   4   9
HETATM    9  C9  UNL     1      49.455  46.747  32.401  1.00  0.00     0.236 C 
HETATM   10  O4  UNL     1      50.267  47.607  32.936  1.00  0.00    -0.272 OA
HETATM   11  N1  UNL     1      50.065  45.642  31.823  1.00  0.00    -0.350 N 
HETATM   12  C10 UNL     1      49.326  44.582  31.200  1.00  0.00     0.131 C 
HETATM   13  C16 UNL     1      51.523  45.495  31.826  1.00  0.00     0.140 C 
HETATM   14  C11 UNL     1      49.870  44.406  29.794  1.00  0.00     0.100 C 
HETATM   15  C12 UNL     1      51.325  44.087  29.759  1.00  0.00     0.253 C 
HETATM   16  F1  UNL     1      51.975  44.780  28.726  1.00  0.00    -0.205 F 
HETATM   17  F2  UNL     1      51.471  42.749  29.444  1.00  0.00    -0.205 F 
HETATM   18  C13 UNL     1      52.027  44.329  31.065  1.00  0.00     0.034 C 
HETATM   19  C14 UNL     1      53.483  44.662  30.690  1.00  0.00     0.022 C 
HETATM   20  C15 UNL     1      52.083  43.048  31.833  1.00  0.00     0.022 C 
ENDBRANCH   4   9
BRANCH   1  21
HETATM   21  O2  UNL     1      45.848  49.256  30.877  1.00  0.00    -0.306 OA
BRANCH  21  22
HETATM   22  C5  UNL     1      44.665  49.345  30.139  1.00  0.00     0.267 C 
HETATM   23  O1  UNL     1      43.620  49.573  30.840  1.00  0.00    -0.264 OA
BRANCH  22  24
HETATM   24  C2  UNL     1      44.577  49.193  28.688  1.00  0.00     0.037 C 
HETATM   25  C1  UNL     1      43.148  49.241  28.179  1.00  0.00     0.025 C 
HETATM   26  C3  UNL     1      45.266  50.406  28.049  1.00  0.00     0.025 C 
HETATM   27  C4  UNL     1      45.232  47.985  28.114  1.00  0.00     0.025 C 
ENDBRANCH  22  24
ENDBRANCH  21  22
ENDBRANCH   1  21
BRANCH   7  28
HETATM   28  C20 UNL     1      45.682  49.557  33.717  1.00  0.00     0.185 C 
HETATM   29  O5  UNL     1      44.461  49.627  33.865  1.00  0.00    -0.647 OA
HETATM   30  O6  UNL     1      46.456  50.629  34.138  1.00  0.00    -0.647 OA
ENDBRANCH   7  28
TORSDOF 5
ENDMDL
MODEL 5
REMARK VINA RESULT: -7.083582093      9.990     12.253
REMARK  5 active torsions:
REMARK  status: ('A' for Active; 'I' for Inactive)
REMARK    1  A    between atoms: C2_2  and  C5_5 
REMARK    2  A    between atoms: C5_5  and  O2_7 
REMARK    3  A    between atoms: O2_7  and  C6_8 
REMARK    4  A    between atoms: C8_11  and  C9_12 
REMARK       I    between atoms: C9_12  and  N1_14 
REMARK    5  A    between atoms: C19_26  and  C20_27 
ROOT
HETATM    1  C6  UNL     1      58.670  51.866  32.905  1.00  0.00     0.221 C 
HETATM    2  C7  UNL     1      57.598  50.833  33.065  1.00  0.00     0.175 C 
HETATM    3  O3  UNL     1      57.050  50.240  32.191  1.00  0.00    -0.294 OA
HETATM    4  C8  UNL     1      57.384  50.723  34.515  1.00  0.00     0.105 C 
HETATM    5  C17 UNL     1      56.967  52.016  35.180  1.00  0.00     0.029 C 
HETATM    6  C18 UNL     1      58.168  52.928  35.015  1.00  0.00     0.025 C 
HETATM    7  C19 UNL     1      59.187  52.082  34.279  1.00  0.00     0.083 C 
HETATM    8  C21 UNL     1      58.876  50.732  34.950  1.00  0.00     0.051 C 
ENDROOT
BRANCH   4   9
HETATM    9  C9  UNL     1      56.698  49.548  35.002  1.00  0.00     0.236 C 
HETATM   10  O4  UNL     1      55.594  49.790  35.640  1.00  0.00    -0.272 OA
HETATM   11  N1  UNL     1      57.035  48.206  34.896  1.00  0.00    -0.350 N 
HETATM   12  C10 UNL     1      58.210  47.750  34.211  1.00  0.00     0.131 C 
HETATM   13  C16 UNL     1      56.188  47.164  35.484  1.00  0.00     0.140 C 
HETATM   14  C11 UNL     1      58.993  46.873  35.173  1.00  0.00     0.100 C 
HETATM   15  C12 UNL     1      58.217  45.701  35.668  1.00  0.00     0.253 C 
HETATM   16  F1  UNL     1      58.443  45.480  37.035  1.00  0.00    -0.205 F 
HETATM   17  F2  UNL     1      58.691  44.566  35.036  1.00  0.00    -0.205 F 
HETATM   18  C13 UNL     1      56.743  45.794  35.395  1.00  0.00     0.034 C 
HETATM   19  C14 UNL     1      56.068  44.988  36.520  1.00  0.00     0.022 C 
HETATM   20  C15 UNL     1      56.435  45.067  34.126  1.00  0.00     0.022 C 
ENDBRANCH   4   9
BRANCH   1  21
HETATM   21  O2  UNL     1      59.613  51.485  31.940  1.00  0.00    -0.306 OA
BRANCH  21  22
HETATM   22  C5  UNL     1      59.807  52.251  30.787  1.00  0.00     0.267 C 
HETATM   23  O1  UNL     1      58.751  52.433  30.089  1.00  0.00    -0.264 OA
BRANCH  22  24
HETATM   24  C2  UNL     1      61.089  52.816  30.370  1.00  0.00     0.037 C 
HETATM   25  C1  UNL     1      61.219  54.289  30.709  1.00  0.00     0.025 C 
HETATM   26  C3  UNL     1      62.191  52.124  31.183  1.00  0.00     0.025 C 
HETATM   27  C4  UNL     1      61.448  52.638  28.935  1.00  0.00     0.025 C 
ENDBRANCH  22  24
ENDBRANCH  21  22
ENDBRANCH   1  21
BRANCH   7  28
HETATM   28  C20 UNL     1      60.548  52.502  34.445  1.00  0.00     0.185 C 
HETATM   29  O5  UNL     1      61.431  51.738  34.837  1.00  0.00    -0.647 OA
HETATM   30  O6  UNL     1      60.897  53.815  34.160  1.00  0.00    -0.647 OA
ENDBRANCH   7  28
TORSDOF 5
ENDMDL
