MODEL 1
REMARK VINA RESULT: -9.043407548      0.000      0.000
REMARK  3 active torsions:
REMARK  status: ('A' for Active; 'I' for Inactive)
REMARK    1  A    between atoms: C15_18  and  C17_20 
REMARK       I    between atoms: C17_20  and  N2_22 
REMARK    2  A    between atoms: N2_22  and  S1_24 
REMARK    3  A    between atoms: S1_24  and  C18_27 
ROOT
HETATM    1  C1  UNL     1      43.891  49.510  30.642  1.00  0.00     0.015 C 
HETATM    2  C2  UNL     1      45.040  50.104  31.481  1.00  0.00    -0.042 C 
HETATM    3  C3  UNL     1      44.355  51.187  32.306  1.00  0.00     0.015 C 
HETATM    4  C4  UNL     1      45.928  50.790  30.464  1.00  0.00     0.009 C 
HETATM    5  C5  UNL     1      46.775  49.816  29.702  1.00  0.00     0.003 C 
HETATM    6  C6  UNL     1      47.651  49.079  30.642  1.00  0.00     0.032 C 
HETATM    7  C7  UNL     1      47.194  48.915  32.029  1.00  0.00     0.042 C 
HETATM    8  C8  UNL     1      47.454  47.448  32.423  1.00  0.00     0.032 C 
HETATM    9  C9  UNL     1      46.703  47.147  33.707  1.00  0.00     0.009 C 
HETATM   10  C10 UNL     1      46.701  48.469  34.515  1.00  0.00     0.013 C 
HETATM   11  C11 UNL     1      45.616  49.286  33.794  1.00  0.00     0.014 C 
HETATM   12  C12 UNL     1      45.704  49.052  32.278  1.00  0.00     0.022 C 
HETATM   13  C13 UNL     1      48.077  48.993  34.295  1.00  0.00     0.139 C 
HETATM   14  N1  UNL     1      47.940  49.691  32.994  1.00  0.00    -0.310 N 
HETATM   15  C14 UNL     1      48.584  50.911  33.180  1.00  0.00     0.365 C 
HETATM   16  O1  UNL     1      49.114  51.557  32.249  1.00  0.00    -0.238 OA
HETATM   17  O2  UNL     1      48.528  51.272  34.548  1.00  0.00    -0.281 OA
HETATM   18  C15 UNL     1      48.667  49.976  35.181  1.00  0.00     0.171 C 
HETATM   19  C16 UNL     1      50.212  49.781  35.071  1.00  0.00     0.060 C 
ENDROOT
BRANCH  18  20
HETATM   20  C17 UNL     1      48.353  50.006  36.588  1.00  0.00     0.268 C 
HETATM   21  O3  UNL     1      47.450  50.848  36.959  1.00  0.00    -0.269 OA
HETATM   22  N2  UNL     1      48.918  49.228  37.612  1.00  0.00    -0.247 N 
ATOM     23  H2  UNL     1      49.633  48.542  37.369  1.00  0.00     0.181 HD
BRANCH  22  24
HETATM   24  S1  UNL     1      48.448  49.387  39.277  1.00  0.00     0.294 S 
HETATM   25  O4  UNL     1      48.416  50.843  39.605  1.00  0.00    -0.200 OA
HETATM   26  O5  UNL     1      49.451  48.669  40.168  1.00  0.00    -0.200 OA
BRANCH  24  27
HETATM   27  C18 UNL     1      46.865  48.673  39.611  1.00  0.00     0.494 C 
HETATM   28  F1  UNL     1      46.831  47.317  39.449  1.00  0.00    -0.195 F 
HETATM   29  F2  UNL     1      46.560  48.917  40.951  1.00  0.00    -0.195 F 
ENDBRANCH  24  27
ENDBRANCH  22  24
ENDBRANCH  18  20
TORSDOF 3
ENDMDL
MODEL 2
REMARK VINA RESULT: -8.922898227      3.618      6.540
REMARK  3 active torsions:
REMARK  status: ('A' for Active; 'I' for Inactive)
REMARK    1  A    between atoms: C15_18  and  C17_20 
REMARK       I    between atoms: C17_20  and  N2_22 
REMARK    2  A    between atoms: N2_22  and  S1_24 
REMARK    3  A    between atoms: S1_24  and  C18_27 
ROOT
HETATM    1  C1  UNL     1      56.876  49.087  35.198  1.00  0.00     0.015 C 
HETATM    2  C2  UNL     1      55.394  48.805  34.883  1.00  0.00    -0.042 C 
HETATM    3  C3  UNL     1      54.978  47.826  35.975  1.00  0.00     0.015 C 
HETATM    4  C4  UNL     1      55.428  48.048  33.573  1.00  0.00     0.009 C 
HETATM    5  C5  UNL     1      55.670  48.951  32.401  1.00  0.00     0.003 C 
HETATM    6  C6  UNL     1      54.582  49.953  32.316  1.00  0.00     0.032 C 
HETATM    7  C7  UNL     1      53.884  50.324  33.554  1.00  0.00     0.042 C 
HETATM    8  C8  UNL     1      53.754  51.860  33.560  1.00  0.00     0.032 C 
HETATM    9  C9  UNL     1      53.348  52.309  34.952  1.00  0.00     0.009 C 
HETATM   10  C10 UNL     1      52.458  51.175  35.520  1.00  0.00     0.013 C 
HETATM   11  C11 UNL     1      53.499  50.112  35.910  1.00  0.00     0.014 C 
HETATM   12  C12 UNL     1      54.616  50.061  34.856  1.00  0.00     0.022 C 
HETATM   13  C13 UNL     1      51.630  50.786  34.345  1.00  0.00     0.139 C 
HETATM   14  N1  UNL     1      52.523  49.841  33.634  1.00  0.00    -0.310 N 
HETATM   15  C14 UNL     1      51.706  48.763  33.304  1.00  0.00     0.365 C 
HETATM   16  O1  UNL     1      51.914  48.019  32.320  1.00  0.00    -0.238 OA
HETATM   17  O2  UNL     1      50.650  48.667  34.241  1.00  0.00    -0.281 OA
HETATM   18  C15 UNL     1      50.381  50.067  34.500  1.00  0.00     0.171 C 
HETATM   19  C16 UNL     1      49.524  50.419  33.244  1.00  0.00     0.060 C 
ENDROOT
BRANCH  18  20
HETATM   20  C17 UNL     1      49.534  50.269  35.650  1.00  0.00     0.268 C 
HETATM   21  O3  UNL     1      48.921  51.401  35.723  1.00  0.00    -0.269 OA
HETATM   22  N2  UNL     1      49.298  49.378  36.711  1.00  0.00    -0.247 N 
ATOM     23  H2  UNL     1      49.756  48.467  36.696  1.00  0.00     0.181 HD
BRANCH  22  24
HETATM   24  S1  UNL     1      48.257  49.768  38.046  1.00  0.00     0.294 S 
HETATM   25  O4  UNL     1      46.901  50.061  37.496  1.00  0.00    -0.200 OA
HETATM   26  O5  UNL     1      48.798  50.982  38.786  1.00  0.00    -0.200 OA
BRANCH  24  27
HETATM   27  C18 UNL     1      48.143  48.458  39.228  1.00  0.00     0.494 C 
HETATM   28  F1  UNL     1      48.751  48.741  40.418  1.00  0.00    -0.195 F 
HETATM   29  F2  UNL     1      46.791  48.256  39.514  1.00  0.00    -0.195 F 
ENDBRANCH  24  27
ENDBRANCH  22  24
ENDBRANCH  18  20
TORSDOF 3
ENDMDL
MODEL 3
REMARK VINA RESULT: -8.901226695      1.826      2.855
REMARK  3 active torsions:
REMARK  status: ('A' for Active; 'I' for Inactive)
REMARK    1  A    between atoms: C15_18  and  C17_20 
REMARK       I    between atoms: C17_20  and  N2_22 
REMARK    2  A    between atoms: N2_22  and  S1_24 
REMARK    3  A    between atoms: S1_24  and  C18_27 
ROOT
HETATM    1  C1  UNL     1      46.186  52.002  28.981  1.00  0.00     0.015 C 
HETATM    2  C2  UNL     1      46.764  50.880  29.866  1.00  0.00    -0.042 C 
HETATM    3  C3  UNL     1      48.166  51.376  30.199  1.00  0.00     0.015 C 
HETATM    4  C4  UNL     1      46.900  49.699  28.930  1.00  0.00     0.009 C 
HETATM    5  C5  UNL     1      45.586  49.030  28.664  1.00  0.00     0.003 C 
HETATM    6  C6  UNL     1      45.016  48.533  29.938  1.00  0.00     0.032 C 
HETATM    7  C7  UNL     1      45.390  49.224  31.180  1.00  0.00     0.042 C 
HETATM    8  C8  UNL     1      44.098  49.421  31.997  1.00  0.00     0.032 C 
HETATM    9  C9  UNL     1      44.374  50.412  33.113  1.00  0.00     0.009 C 
HETATM   10  C10 UNL     1      45.853  50.192  33.519  1.00  0.00     0.013 C 
HETATM   11  C11 UNL     1      46.608  50.901  32.382  1.00  0.00     0.014 C 
HETATM   12  C12 UNL     1      45.900  50.646  31.043  1.00  0.00     0.022 C 
HETATM   13  C13 UNL     1      45.988  48.710  33.481  1.00  0.00     0.139 C 
HETATM   14  N1  UNL     1      46.258  48.458  32.045  1.00  0.00    -0.310 N 
HETATM   15  C14 UNL     1      47.316  47.553  32.039  1.00  0.00     0.365 C 
HETATM   16  O1  UNL     1      47.516  46.736  31.113  1.00  0.00    -0.238 OA
HETATM   17  O2  UNL     1      48.089  47.722  33.213  1.00  0.00    -0.281 OA
HETATM   18  C15 UNL     1      47.055  48.026  34.183  1.00  0.00     0.171 C 
HETATM   19  C16 UNL     1      46.524  46.588  34.477  1.00  0.00     0.060 C 
ENDROOT
BRANCH  18  20
HETATM   20  C17 UNL     1      47.587  48.533  35.423  1.00  0.00     0.268 C 
HETATM   21  O3  UNL     1      48.620  49.301  35.338  1.00  0.00    -0.269 OA
HETATM   22  N2  UNL     1      47.117  48.288  36.725  1.00  0.00    -0.247 N 
ATOM     23  H2  UNL     1      46.298  47.691  36.845  1.00  0.00     0.181 HD
BRANCH  22  24
HETATM   24  S1  UNL     1      47.874  48.959  38.136  1.00  0.00     0.294 S 
HETATM   25  O4  UNL     1      48.018  50.429  37.921  1.00  0.00    -0.200 OA
HETATM   26  O5  UNL     1      49.240  48.322  38.342  1.00  0.00    -0.200 OA
BRANCH  24  27
HETATM   27  C18 UNL     1      46.947  48.669  39.613  1.00  0.00     0.494 C 
HETATM   28  F1  UNL     1      46.902  47.354  39.982  1.00  0.00    -0.195 F 
HETATM   29  F2  UNL     1      47.578  49.350  40.656  1.00  0.00    -0.195 F 
ENDBRANCH  24  27
ENDBRANCH  22  24
ENDBRANCH  18  20
TORSDOF 3
ENDMDL
MODEL 4
REMARK VINA RESULT: -8.784514536      0.937      1.124
REMARK  3 active torsions:
REMARK  status: ('A' for Active; 'I' for Inactive)
REMARK    1  A    between atoms: C15_18  and  C17_20 
REMARK       I    between atoms: C17_20  and  N2_22 
REMARK    2  A    between atoms: N2_22  and  S1_24 
REMARK    3  A    between atoms: S1_24  and  C18_27 
ROOT
HETATM    1  C1  UNL     1      44.106  49.262  29.819  1.00  0.00     0.015 C 
HETATM    2  C2  UNL     1      45.160  49.950  30.709  1.00  0.00    -0.042 C 
HETATM    3  C3  UNL     1      44.359  51.010  31.455  1.00  0.00     0.015 C 
HETATM    4  C4  UNL     1      46.069  50.661  29.730  1.00  0.00     0.009 C 
HETATM    5  C5  UNL     1      47.021  49.722  29.053  1.00  0.00     0.003 C 
HETATM    6  C6  UNL     1      47.877  49.068  30.070  1.00  0.00     0.032 C 
HETATM    7  C7  UNL     1      47.342  48.913  31.430  1.00  0.00     0.042 C 
HETATM    8  C8  UNL     1      47.665  47.477  31.885  1.00  0.00     0.032 C 
HETATM    9  C9  UNL     1      46.852  47.165  33.128  1.00  0.00     0.009 C 
HETATM   10  C10 UNL     1      46.717  48.506  33.893  1.00  0.00     0.013 C 
HETATM   11  C11 UNL     1      45.634  49.233  33.079  1.00  0.00     0.014 C 
HETATM   12  C12 UNL     1      45.834  48.963  31.579  1.00  0.00     0.022 C 
HETATM   13  C13 UNL     1      48.070  49.109  33.743  1.00  0.00     0.139 C 
HETATM   14  N1  UNL     1      47.976  49.760  32.415  1.00  0.00    -0.310 N 
HETATM   15  C14 UNL     1      48.531  51.024  32.602  1.00  0.00     0.365 C 
HETATM   16  O1  UNL     1      49.080  51.675  31.686  1.00  0.00    -0.238 OA
HETATM   17  O2  UNL     1      48.365  51.417  33.952  1.00  0.00    -0.281 OA
HETATM   18  C15 UNL     1      48.541  50.150  34.633  1.00  0.00     0.171 C 
HETATM   19  C16 UNL     1      50.099  50.051  34.627  1.00  0.00     0.060 C 
ENDROOT
BRANCH  18  20
HETATM   20  C17 UNL     1      48.134  50.200  36.015  1.00  0.00     0.268 C 
HETATM   21  O3  UNL     1      47.493  51.253  36.391  1.00  0.00    -0.269 OA
HETATM   22  N2  UNL     1      48.358  49.235  37.013  1.00  0.00    -0.247 N 
ATOM     23  H2  UNL     1      48.857  48.380  36.764  1.00  0.00     0.181 HD
BRANCH  22  24
HETATM   24  S1  UNL     1      47.821  49.440  38.651  1.00  0.00     0.294 S 
HETATM   25  O4  UNL     1      46.344  49.657  38.623  1.00  0.00    -0.200 OA
HETATM   26  O5  UNL     1      48.516  50.640  39.277  1.00  0.00    -0.200 OA
BRANCH  24  27
HETATM   27  C18 UNL     1      48.191  48.045  39.672  1.00  0.00     0.494 C 
HETATM   28  F1  UNL     1      48.854  48.369  40.822  1.00  0.00    -0.195 F 
HETATM   29  F2  UNL     1      46.982  47.466  40.063  1.00  0.00    -0.195 F 
ENDBRANCH  24  27
ENDBRANCH  22  24
ENDBRANCH  18  20
TORSDOF 3
ENDMDL
MODEL 5
REMARK VINA RESULT: -8.646952922      1.858      2.984
REMARK  3 active torsions:
REMARK  status: ('A' for Active; 'I' for Inactive)
REMARK    1  A    between atoms: C15_18  and  C17_20 
REMARK       I    between atoms: C17_20  and  N2_22 
REMARK    2  A    between atoms: N2_22  and  S1_24 
REMARK    3  A    between atoms: S1_24  and  C18_27 
ROOT
HETATM    1  C1  UNL     1      48.930  47.212  29.393  1.00  0.00     0.015 C 
HETATM    2  C2  UNL     1      47.976  47.588  30.543  1.00  0.00    -0.042 C 
HETATM    3  C3  UNL     1      47.714  46.256  31.237  1.00  0.00     0.015 C 
HETATM    4  C4  UNL     1      46.699  48.006  29.848  1.00  0.00     0.009 C 
HETATM    5  C5  UNL     1      46.794  49.383  29.265  1.00  0.00     0.003 C 
HETATM    6  C6  UNL     1      47.061  50.361  30.345  1.00  0.00     0.032 C 
HETATM    7  C7  UNL     1      47.760  49.889  31.548  1.00  0.00     0.042 C 
HETATM    8  C8  UNL     1      48.838  50.937  31.888  1.00  0.00     0.032 C 
HETATM    9  C9  UNL     1      49.794  50.341  32.906  1.00  0.00     0.009 C 
HETATM   10  C10 UNL     1      48.941  49.387  33.779  1.00  0.00     0.013 C 
HETATM   11  C11 UNL     1      48.782  48.164  32.861  1.00  0.00     0.014 C 
HETATM   12  C12 UNL     1      48.582  48.622  31.408  1.00  0.00     0.022 C 
HETATM   13  C13 UNL     1      47.677  50.152  33.966  1.00  0.00     0.139 C 
HETATM   14  N1  UNL     1      46.929  49.823  32.729  1.00  0.00    -0.310 N 
HETATM   15  C14 UNL     1      45.640  49.528  33.165  1.00  0.00     0.365 C 
HETATM   16  O1  UNL     1      44.622  49.683  32.455  1.00  0.00    -0.238 OA
HETATM   17  O2  UNL     1      45.691  49.040  34.493  1.00  0.00    -0.281 OA
HETATM   18  C15 UNL     1      46.758  49.851  35.044  1.00  0.00     0.171 C 
HETATM   19  C16 UNL     1      45.979  51.173  35.329  1.00  0.00     0.060 C 
ENDROOT
BRANCH  18  20
HETATM   20  C17 UNL     1      47.227  49.363  36.318  1.00  0.00     0.268 C 
HETATM   21  O3  UNL     1      47.301  48.083  36.455  1.00  0.00    -0.269 OA
HETATM   22  N2  UNL     1      47.610  50.119  37.440  1.00  0.00    -0.247 N 
ATOM     23  H2  UNL     1      47.574  51.137  37.380  1.00  0.00     0.181 HD
BRANCH  22  24
HETATM   24  S1  UNL     1      48.141  49.389  38.923  1.00  0.00     0.294 S 
HETATM   25  O4  UNL     1      48.721  50.465  39.780  1.00  0.00    -0.200 OA
HETATM   26  O5  UNL     1      49.192  48.328  38.630  1.00  0.00    -0.200 OA
BRANCH  24  27
HETATM   27  C18 UNL     1      46.832  48.584  39.797  1.00  0.00     0.494 C 
HETATM   28  F1  UNL     1      46.928  47.220  39.791  1.00  0.00    -0.195 F 
HETATM   29  F2  UNL     1      46.902  48.978  41.134  1.00  0.00    -0.195 F 
ENDBRANCH  24  27
ENDBRANCH  22  24
ENDBRANCH  18  20
TORSDOF 3
ENDMDL
