MODEL 1
REMARK VINA RESULT: -10.103284708      0.000      0.000
REMARK  8 active torsions:
REMARK  status: ('A' for Active; 'I' for Inactive)
REMARK    1  A    between atoms: C2_2  and  C3_3 
REMARK    2  A    between atoms: C2_2  and  C6_8 
REMARK    3  A    between atoms: C3_3  and  C4_4 
REMARK    4  A    between atoms: C4_4  and  C5_5 
REMARK    5  A    between atoms: C15_17  and  N1_18 
REMARK       I    between atoms: N1_18  and  C16_20 
REMARK    6  A    between atoms: C16_20  and  C17_22 
REMARK       I    between atoms: C17_22  and  N2_24 
REMARK       I    between atoms: N2_24  and  C18_26 
REMARK    7  A    between atoms: C18_26  and  O6_28 
REMARK    8  A    between atoms: O6_28  and  C19_29 
ROOT
HETATM    1  C6  UNL     1      51.386  37.971  14.314  1.00  0.00    -0.002 C 
HETATM    2  C7  UNL     1      51.023  36.575  13.834  1.00  0.00     0.006 C 
HETATM    3  C8  UNL     1      51.378  36.450  12.384  1.00  0.00     0.006 C 
HETATM    4  C9  UNL     1      51.875  37.769  12.008  1.00  0.00     0.003 C 
HETATM    5  C10 UNL     1      52.367  38.384  13.290  1.00  0.00    -0.036 C 
HETATM    6  C11 UNL     1      53.686  37.680  13.681  1.00  0.00     0.016 C 
HETATM    7  C12 UNL     1      52.713  39.784  13.057  1.00  0.00     0.010 C 
HETATM    8  C13 UNL     1      53.716  39.913  11.911  1.00  0.00     0.008 C 
HETATM    9  C14 UNL     1      53.254  39.252  10.669  1.00  0.00     0.017 C 
HETATM   10  C15 UNL     1      54.260  39.438   9.567  1.00  0.00     0.089 C 
HETATM   11  C26 UNL     1      53.659  38.815   8.313  1.00  0.00     0.026 C 
HETATM   12  C27 UNL     1      52.214  38.488   8.469  1.00  0.00     0.003 C 
HETATM   13  C28 UNL     1      51.875  37.587   9.603  1.00  0.00     0.010 C 
HETATM   14  C29 UNL     1      52.784  37.846  10.827  1.00  0.00    -0.034 C 
HETATM   15  C30 UNL     1      53.853  36.808  10.739  1.00  0.00     0.016 C 
ENDROOT
BRANCH  10  16
HETATM   16  N1  UNL     1      54.512  40.832   9.328  1.00  0.00    -0.348 N 
HETATM   17  C16 UNL     1      55.773  41.276   8.913  1.00  0.00     0.310 C 
HETATM   18  O3  UNL     1      56.738  40.475   8.730  1.00  0.00    -0.262 OA
ATOM     19  H1  UNL     1      53.762  41.509   9.463  1.00  0.00     0.163 HD
BRANCH  17  20
HETATM   20  C17 UNL     1      56.018  42.690   8.675  1.00  0.00     0.317 C 
HETATM   21  O4  UNL     1      56.477  43.376   9.624  1.00  0.00    -0.262 OA
HETATM   22  N2  UNL     1      55.766  43.325   7.442  1.00  0.00    -0.265 N 
HETATM   23  C18 UNL     1      56.030  44.693   7.289  1.00  0.00     0.368 C 
ATOM     24  H2  UNL     1      55.392  42.788   6.660  1.00  0.00     0.174 HD
HETATM   25  O5  UNL     1      56.498  45.387   8.246  1.00  0.00    -0.238 OA
BRANCH  23  26
HETATM   26  O6  UNL     1      55.822  45.422   6.130  1.00  0.00    -0.298 OA
BRANCH  26  27
HETATM   27  C19 UNL     1      54.643  46.027   5.773  1.00  0.00     0.141 C 
HETATM   28  C20 UNL     1      53.469  45.797   6.679  1.00  0.00     0.033 C 
HETATM   29  C21 UNL     1      52.418  46.636   5.928  1.00  0.00     0.003 C 
HETATM   30  C22 UNL     1      52.707  46.308   4.472  1.00  0.00     0.011 C 
HETATM   31  C23 UNL     1      54.090  45.685   4.434  1.00  0.00    -0.021 C 
HETATM   32  C24 UNL     1      54.010  44.200   4.181  1.00  0.00     0.017 C 
HETATM   33  C25 UNL     1      54.939  46.288   3.340  1.00  0.00     0.017 C 
ENDBRANCH  26  27
ENDBRANCH  23  26
ENDBRANCH  17  20
ENDBRANCH  10  16
BRANCH   1  34
HETATM   34  C2  UNL     1      50.274  38.820  14.762  1.00  0.00    -0.013 C 
HETATM   35  C1  UNL     1      49.052  37.846  14.888  1.00  0.00     0.010 C 
BRANCH  34  36
HETATM   36  C3  UNL     1      50.251  39.606  15.978  1.00  0.00     0.015 C 
BRANCH  36  37
HETATM   37  C4  UNL     1      51.348  39.579  16.976  1.00  0.00     0.113 C 
BRANCH  37  38
HETATM   38  C5  UNL     1      51.075  40.322  18.235  1.00  0.00     0.172 C 
HETATM   39  O1  UNL     1      52.024  40.900  18.805  1.00  0.00    -0.648 OA
HETATM   40  O2  UNL     1      49.832  40.402  18.802  1.00  0.00    -0.648 OA
ENDBRANCH  37  38
ENDBRANCH  36  37
ENDBRANCH  34  36
ENDBRANCH   1  34
TORSDOF 8
ENDMDL
MODEL 2
REMARK VINA RESULT: -10.081175861      2.036      2.791
REMARK  8 active torsions:
REMARK  status: ('A' for Active; 'I' for Inactive)
REMARK    1  A    between atoms: C2_2  and  C3_3 
REMARK    2  A    between atoms: C2_2  and  C6_8 
REMARK    3  A    between atoms: C3_3  and  C4_4 
REMARK    4  A    between atoms: C4_4  and  C5_5 
REMARK    5  A    between atoms: C15_17  and  N1_18 
REMARK       I    between atoms: N1_18  and  C16_20 
REMARK    6  A    between atoms: C16_20  and  C17_22 
REMARK       I    between atoms: C17_22  and  N2_24 
REMARK       I    between atoms: N2_24  and  C18_26 
REMARK    7  A    between atoms: C18_26  and  O6_28 
REMARK    8  A    between atoms: O6_28  and  C19_29 
ROOT
HETATM    1  C6  UNL     1      51.638  38.514  15.379  1.00  0.00    -0.002 C 
HETATM    2  C7  UNL     1      52.219  37.188  15.842  1.00  0.00     0.006 C 
HETATM    3  C8  UNL     1      52.727  36.435  14.650  1.00  0.00     0.006 C 
HETATM    4  C9  UNL     1      52.386  37.276  13.508  1.00  0.00     0.003 C 
HETATM    5  C10 UNL     1      52.285  38.672  14.062  1.00  0.00    -0.036 C 
HETATM    6  C11 UNL     1      53.717  39.168  14.367  1.00  0.00     0.016 C 
HETATM    7  C12 UNL     1      51.761  39.566  13.033  1.00  0.00     0.010 C 
HETATM    8  C13 UNL     1      52.606  39.490  11.763  1.00  0.00     0.008 C 
HETATM    9  C14 UNL     1      52.754  38.106  11.256  1.00  0.00     0.017 C 
HETATM   10  C15 UNL     1      53.563  38.092   9.990  1.00  0.00     0.089 C 
HETATM   11  C26 UNL     1      53.579  36.651   9.493  1.00  0.00     0.026 C 
HETATM   12  C27 UNL     1      52.598  35.787  10.206  1.00  0.00     0.003 C 
HETATM   13  C28 UNL     1      52.741  35.735  11.687  1.00  0.00     0.010 C 
HETATM   14  C29 UNL     1      53.190  37.098  12.263  1.00  0.00    -0.034 C 
HETATM   15  C30 UNL     1      54.668  36.974  12.436  1.00  0.00     0.016 C 
ENDROOT
BRANCH  10  16
HETATM   16  N1  UNL     1      52.968  38.932   8.986  1.00  0.00    -0.348 N 
HETATM   17  C16 UNL     1      53.736  39.470   7.948  1.00  0.00     0.310 C 
HETATM   18  O3  UNL     1      54.979  39.243   7.846  1.00  0.00    -0.262 OA
ATOM     19  H1  UNL     1      51.971  39.139   9.032  1.00  0.00     0.163 HD
BRANCH  17  20
HETATM   20  C17 UNL     1      53.124  40.320   6.939  1.00  0.00     0.317 C 
HETATM   21  O4  UNL     1      52.618  39.767   5.930  1.00  0.00    -0.262 OA
HETATM   22  N2  UNL     1      53.072  41.726   7.036  1.00  0.00    -0.265 N 
HETATM   23  C18 UNL     1      52.462  42.478   6.022  1.00  0.00     0.368 C 
ATOM     24  H2  UNL     1      53.478  42.196   7.845  1.00  0.00     0.174 HD
HETATM   25  O5  UNL     1      51.947  41.920   5.003  1.00  0.00    -0.238 OA
BRANCH  23  26
HETATM   26  O6  UNL     1      52.354  43.859   6.008  1.00  0.00    -0.298 OA
BRANCH  26  27
HETATM   27  C19 UNL     1      52.873  44.687   5.047  1.00  0.00     0.141 C 
HETATM   28  C20 UNL     1      54.299  44.441   4.646  1.00  0.00     0.033 C 
HETATM   29  C21 UNL     1      54.445  45.546   3.585  1.00  0.00     0.003 C 
HETATM   30  C22 UNL     1      53.715  46.719   4.220  1.00  0.00     0.011 C 
HETATM   31  C23 UNL     1      52.868  46.146   5.340  1.00  0.00    -0.021 C 
HETATM   32  C24 UNL     1      53.450  46.487   6.690  1.00  0.00     0.017 C 
HETATM   33  C25 UNL     1      51.460  46.689   5.301  1.00  0.00     0.017 C 
ENDBRANCH  26  27
ENDBRANCH  23  26
ENDBRANCH  17  20
ENDBRANCH  10  16
BRANCH   1  34
HETATM   34  C2  UNL     1      50.200  38.714  15.606  1.00  0.00    -0.013 C 
HETATM   35  C1  UNL     1      49.758  37.488  16.478  1.00  0.00     0.010 C 
BRANCH  34  36
HETATM   36  C3  UNL     1      49.601  39.864  16.250  1.00  0.00     0.015 C 
BRANCH  36  37
HETATM   37  C4  UNL     1      50.399  40.915  16.929  1.00  0.00     0.113 C 
BRANCH  37  38
HETATM   38  C5  UNL     1      50.873  40.564  18.295  1.00  0.00     0.172 C 
HETATM   39  O1  UNL     1      50.039  40.167  19.133  1.00  0.00    -0.648 OA
HETATM   40  O2  UNL     1      52.184  40.658  18.678  1.00  0.00    -0.648 OA
ENDBRANCH  37  38
ENDBRANCH  36  37
ENDBRANCH  34  36
ENDBRANCH   1  34
TORSDOF 8
ENDMDL
MODEL 3
REMARK VINA RESULT: -10.007657790      2.446      3.141
REMARK  8 active torsions:
REMARK  status: ('A' for Active; 'I' for Inactive)
REMARK    1  A    between atoms: C2_2  and  C3_3 
REMARK    2  A    between atoms: C2_2  and  C6_8 
REMARK    3  A    between atoms: C3_3  and  C4_4 
REMARK    4  A    between atoms: C4_4  and  C5_5 
REMARK    5  A    between atoms: C15_17  and  N1_18 
REMARK       I    between atoms: N1_18  and  C16_20 
REMARK    6  A    between atoms: C16_20  and  C17_22 
REMARK       I    between atoms: C17_22  and  N2_24 
REMARK       I    between atoms: N2_24  and  C18_26 
REMARK    7  A    between atoms: C18_26  and  O6_28 
REMARK    8  A    between atoms: O6_28  and  C19_29 
ROOT
HETATM    1  C6  UNL     1      51.008  38.315  14.983  1.00  0.00    -0.002 C 
HETATM    2  C7  UNL     1      51.636  37.020  15.470  1.00  0.00     0.006 C 
HETATM    3  C8  UNL     1      52.284  36.325  14.311  1.00  0.00     0.006 C 
HETATM    4  C9  UNL     1      51.980  37.166  13.159  1.00  0.00     0.003 C 
HETATM    5  C10 UNL     1      51.746  38.541  13.724  1.00  0.00    -0.036 C 
HETATM    6  C11 UNL     1      53.114  39.120  14.151  1.00  0.00     0.016 C 
HETATM    7  C12 UNL     1      51.248  39.422  12.672  1.00  0.00     0.010 C 
HETATM    8  C13 UNL     1      52.194  39.425  11.472  1.00  0.00     0.008 C 
HETATM    9  C14 UNL     1      52.471  38.064  10.957  1.00  0.00     0.017 C 
HETATM   10  C15 UNL     1      53.376  38.127   9.759  1.00  0.00     0.089 C 
HETATM   11  C26 UNL     1      53.524  36.701   9.243  1.00  0.00     0.026 C 
HETATM   12  C27 UNL     1      52.547  35.762   9.862  1.00  0.00     0.003 C 
HETATM   13  C28 UNL     1      52.576  35.689  11.348  1.00  0.00     0.010 C 
HETATM   14  C29 UNL     1      52.890  37.065  11.980  1.00  0.00    -0.034 C 
HETATM   15  C30 UNL     1      54.354  37.031  12.269  1.00  0.00     0.016 C 
ENDROOT
BRANCH  10  16
HETATM   16  N1  UNL     1      52.809  38.949   8.725  1.00  0.00    -0.348 N 
HETATM   17  C16 UNL     1      53.625  39.607   7.798  1.00  0.00     0.310 C 
HETATM   18  O3  UNL     1      54.888  39.509   7.829  1.00  0.00    -0.262 OA
ATOM     19  H1  UNL     1      51.797  39.053   8.665  1.00  0.00     0.163 HD
BRANCH  17  20
HETATM   20  C17 UNL     1      53.040  40.437   6.756  1.00  0.00     0.317 C 
HETATM   21  O4  UNL     1      52.598  39.867   5.727  1.00  0.00    -0.262 OA
HETATM   22  N2  UNL     1      52.948  41.841   6.844  1.00  0.00    -0.265 N 
HETATM   23  C18 UNL     1      52.369  42.574   5.797  1.00  0.00     0.368 C 
ATOM     24  H2  UNL     1      53.302  42.325   7.669  1.00  0.00     0.174 HD
HETATM   25  O5  UNL     1      51.918  41.998   4.758  1.00  0.00    -0.238 OA
BRANCH  23  26
HETATM   26  O6  UNL     1      52.226  43.951   5.771  1.00  0.00    -0.298 OA
BRANCH  26  27
HETATM   27  C19 UNL     1      52.804  44.793   4.856  1.00  0.00     0.141 C 
HETATM   28  C20 UNL     1      54.230  44.505   4.486  1.00  0.00     0.033 C 
HETATM   29  C21 UNL     1      54.449  45.642   3.471  1.00  0.00     0.003 C 
HETATM   30  C22 UNL     1      53.747  46.819   4.129  1.00  0.00     0.011 C 
HETATM   31  C23 UNL     1      52.847  46.239   5.204  1.00  0.00    -0.021 C 
HETATM   32  C24 UNL     1      53.402  46.507   6.581  1.00  0.00     0.017 C 
HETATM   33  C25 UNL     1      51.462  46.839   5.147  1.00  0.00     0.017 C 
ENDBRANCH  26  27
ENDBRANCH  23  26
ENDBRANCH  17  20
ENDBRANCH  10  16
BRANCH   1  34
HETATM   34  C2  UNL     1      49.547  38.420  15.098  1.00  0.00    -0.013 C 
HETATM   35  C1  UNL     1      49.180  37.547  16.348  1.00  0.00     0.010 C 
BRANCH  34  36
HETATM   36  C3  UNL     1      48.801  39.648  15.269  1.00  0.00     0.015 C 
BRANCH  36  37
HETATM   37  C4  UNL     1      49.453  40.966  15.468  1.00  0.00     0.113 C 
BRANCH  37  38
HETATM   38  C5  UNL     1      49.089  42.009  14.471  1.00  0.00     0.172 C 
HETATM   39  O1  UNL     1      49.073  43.202  14.835  1.00  0.00    -0.648 OA
HETATM   40  O2  UNL     1      48.770  41.721  13.172  1.00  0.00    -0.648 OA
ENDBRANCH  37  38
ENDBRANCH  36  37
ENDBRANCH  34  36
ENDBRANCH   1  34
TORSDOF 8
ENDMDL
MODEL 4
REMARK VINA RESULT: -9.872294187      1.406      1.609
REMARK  8 active torsions:
REMARK  status: ('A' for Active; 'I' for Inactive)
REMARK    1  A    between atoms: C2_2  and  C3_3 
REMARK    2  A    between atoms: C2_2  and  C6_8 
REMARK    3  A    between atoms: C3_3  and  C4_4 
REMARK    4  A    between atoms: C4_4  and  C5_5 
REMARK    5  A    between atoms: C15_17  and  N1_18 
REMARK       I    between atoms: N1_18  and  C16_20 
REMARK    6  A    between atoms: C16_20  and  C17_22 
REMARK       I    between atoms: C17_22  and  N2_24 
REMARK       I    between atoms: N2_24  and  C18_26 
REMARK    7  A    between atoms: C18_26  and  O6_28 
REMARK    8  A    between atoms: O6_28  and  C19_29 
ROOT
HETATM    1  C6  UNL     1      51.220  37.931  14.002  1.00  0.00    -0.002 C 
HETATM    2  C7  UNL     1      50.879  36.523  13.542  1.00  0.00     0.006 C 
HETATM    3  C8  UNL     1      51.274  36.369  12.105  1.00  0.00     0.006 C 
HETATM    4  C9  UNL     1      51.773  37.683  11.715  1.00  0.00     0.003 C 
HETATM    5  C10 UNL     1      52.226  38.329  12.997  1.00  0.00    -0.036 C 
HETATM    6  C11 UNL     1      53.538  37.642  13.439  1.00  0.00     0.016 C 
HETATM    7  C12 UNL     1      52.569  39.726  12.744  1.00  0.00     0.010 C 
HETATM    8  C13 UNL     1      53.602  39.838  11.623  1.00  0.00     0.008 C 
HETATM    9  C14 UNL     1      53.179  39.147  10.383  1.00  0.00     0.017 C 
HETATM   10  C15 UNL     1      54.213  39.318   9.306  1.00  0.00     0.089 C 
HETATM   11  C26 UNL     1      53.651  38.664   8.049  1.00  0.00     0.026 C 
HETATM   12  C27 UNL     1      52.204  38.331   8.172  1.00  0.00     0.003 C 
HETATM   13  C28 UNL     1      51.840  37.451   9.316  1.00  0.00     0.010 C 
HETATM   14  C29 UNL     1      52.714  37.742  10.558  1.00  0.00    -0.034 C 
HETATM   15  C30 UNL     1      53.791  36.710  10.522  1.00  0.00     0.016 C 
ENDROOT
BRANCH  10  16
HETATM   16  N1  UNL     1      54.463  40.708   9.044  1.00  0.00    -0.348 N 
HETATM   17  C16 UNL     1      55.768  41.189   8.886  1.00  0.00     0.310 C 
HETATM   18  O3  UNL     1      56.777  40.427   8.965  1.00  0.00    -0.262 OA
ATOM     19  H1  UNL     1      53.678  41.355   8.973  1.00  0.00     0.163 HD
BRANCH  17  20
HETATM   20  C17 UNL     1      56.010  42.600   8.624  1.00  0.00     0.317 C 
HETATM   21  O4  UNL     1      56.490  43.298   9.552  1.00  0.00    -0.262 OA
HETATM   22  N2  UNL     1      55.733  43.217   7.387  1.00  0.00    -0.265 N 
HETATM   23  C18 UNL     1      55.995  44.583   7.209  1.00  0.00     0.368 C 
ATOM     24  H2  UNL     1      55.341  42.670   6.621  1.00  0.00     0.174 HD
HETATM   25  O5  UNL     1      56.484  45.290   8.146  1.00  0.00    -0.238 OA
BRANCH  23  26
HETATM   26  O6  UNL     1      55.763  45.295   6.045  1.00  0.00    -0.298 OA
BRANCH  26  27
HETATM   27  C19 UNL     1      54.629  46.016   5.767  1.00  0.00     0.141 C 
HETATM   28  C20 UNL     1      53.429  45.737   6.625  1.00  0.00     0.033 C 
HETATM   29  C21 UNL     1      52.443  46.736   5.990  1.00  0.00     0.003 C 
HETATM   30  C22 UNL     1      52.734  46.596   4.504  1.00  0.00     0.011 C 
HETATM   31  C23 UNL     1      54.077  45.898   4.390  1.00  0.00    -0.021 C 
HETATM   32  C24 UNL     1      53.910  44.470   3.932  1.00  0.00     0.017 C 
HETATM   33  C25 UNL     1      54.978  46.592   3.396  1.00  0.00     0.017 C 
ENDBRANCH  26  27
ENDBRANCH  23  26
ENDBRANCH  17  20
ENDBRANCH  10  16
BRANCH   1  34
HETATM   34  C2  UNL     1      50.090  38.781  14.402  1.00  0.00    -0.013 C 
HETATM   35  C1  UNL     1      49.039  37.790  15.012  1.00  0.00     0.010 C 
BRANCH  34  36
HETATM   36  C3  UNL     1      50.155  39.881  15.341  1.00  0.00     0.015 C 
BRANCH  36  37
HETATM   37  C4  UNL     1      49.081  40.897  15.467  1.00  0.00     0.113 C 
BRANCH  37  38
HETATM   38  C5  UNL     1      49.062  41.934  14.401  1.00  0.00     0.172 C 
HETATM   39  O1  UNL     1      49.135  43.134  14.734  1.00  0.00    -0.648 OA
HETATM   40  O2  UNL     1      48.969  41.634  13.068  1.00  0.00    -0.648 OA
ENDBRANCH  37  38
ENDBRANCH  36  37
ENDBRANCH  34  36
ENDBRANCH   1  34
TORSDOF 8
ENDMDL
MODEL 5
REMARK VINA RESULT: -9.869473387      1.615      2.056
REMARK  8 active torsions:
REMARK  status: ('A' for Active; 'I' for Inactive)
REMARK    1  A    between atoms: C2_2  and  C3_3 
REMARK    2  A    between atoms: C2_2  and  C6_8 
REMARK    3  A    between atoms: C3_3  and  C4_4 
REMARK    4  A    between atoms: C4_4  and  C5_5 
REMARK    5  A    between atoms: C15_17  and  N1_18 
REMARK       I    between atoms: N1_18  and  C16_20 
REMARK    6  A    between atoms: C16_20  and  C17_22 
REMARK       I    between atoms: C17_22  and  N2_24 
REMARK       I    between atoms: N2_24  and  C18_26 
REMARK    7  A    between atoms: C18_26  and  O6_28 
REMARK    8  A    between atoms: O6_28  and  C19_29 
ROOT
HETATM    1  C6  UNL     1      51.093  36.232  12.431  1.00  0.00    -0.002 C 
HETATM    2  C7  UNL     1      50.916  34.931  11.667  1.00  0.00     0.006 C 
HETATM    3  C8  UNL     1      51.347  35.137  10.246  1.00  0.00     0.006 C 
HETATM    4  C9  UNL     1      51.703  36.549  10.168  1.00  0.00     0.003 C 
HETATM    5  C10 UNL     1      52.063  36.944  11.576  1.00  0.00    -0.036 C 
HETATM    6  C11 UNL     1      53.437  36.318  11.909  1.00  0.00     0.016 C 
HETATM    7  C12 UNL     1      52.254  38.390  11.642  1.00  0.00     0.010 C 
HETATM    8  C13 UNL     1      53.285  38.851  10.613  1.00  0.00     0.008 C 
HETATM    9  C14 UNL     1      52.959  38.408   9.238  1.00  0.00     0.017 C 
HETATM   10  C15 UNL     1      53.984  38.916   8.264  1.00  0.00     0.089 C 
HETATM   11  C26 UNL     1      53.516  38.498   6.874  1.00  0.00     0.026 C 
HETATM   12  C27 UNL     1      52.113  37.997   6.867  1.00  0.00     0.003 C 
HETATM   13  C28 UNL     1      51.832  36.856   7.780  1.00  0.00     0.010 C 
HETATM   14  C29 UNL     1      52.649  36.958   9.088  1.00  0.00    -0.034 C 
HETATM   15  C30 UNL     1      53.834  36.077   8.872  1.00  0.00     0.016 C 
ENDROOT
BRANCH  10  16
HETATM   16  N1  UNL     1      54.083  40.349   8.318  1.00  0.00    -0.348 N 
HETATM   17  C16 UNL     1      55.317  40.980   8.507  1.00  0.00     0.310 C 
HETATM   18  O3  UNL     1      56.393  40.323   8.638  1.00  0.00    -0.262 OA
ATOM     19  H1  UNL     1      53.241  40.915   8.216  1.00  0.00     0.163 HD
BRANCH  17  20
HETATM   20  C17 UNL     1      55.406  42.431   8.562  1.00  0.00     0.317 C 
HETATM   21  O4  UNL     1      55.498  42.973   9.693  1.00  0.00    -0.262 OA
HETATM   22  N2  UNL     1      55.392  43.253   7.417  1.00  0.00    -0.265 N 
HETATM   23  C18 UNL     1      55.483  44.646   7.551  1.00  0.00     0.368 C 
ATOM     24  H2  UNL     1      55.315  42.835   6.490  1.00  0.00     0.174 HD
HETATM   25  O5  UNL     1      55.580  45.196   8.693  1.00  0.00    -0.238 OA
BRANCH  23  26
HETATM   26  O6  UNL     1      55.476  45.550   6.502  1.00  0.00    -0.298 OA
BRANCH  26  27
HETATM   27  C19 UNL     1      54.363  46.169   5.993  1.00  0.00     0.141 C 
HETATM   28  C20 UNL     1      53.059  45.873   6.675  1.00  0.00     0.033 C 
HETATM   29  C21 UNL     1      52.133  46.752   5.814  1.00  0.00     0.003 C 
HETATM   30  C22 UNL     1      52.664  46.522   4.408  1.00  0.00     0.011 C 
HETATM   31  C23 UNL     1      54.045  45.912   4.562  1.00  0.00    -0.021 C 
HETATM   32  C24 UNL     1      54.034  44.446   4.205  1.00  0.00     0.017 C 
HETATM   33  C25 UNL     1      55.052  46.591   3.665  1.00  0.00     0.017 C 
ENDBRANCH  26  27
ENDBRANCH  23  26
ENDBRANCH  17  20
ENDBRANCH  10  16
BRANCH   1  34
HETATM   34  C2  UNL     1      49.870  36.852  12.961  1.00  0.00    -0.013 C 
HETATM   35  C1  UNL     1      48.763  35.753  12.805  1.00  0.00     0.010 C 
BRANCH  34  36
HETATM   36  C3  UNL     1      49.699  37.364  14.304  1.00  0.00     0.015 C 
BRANCH  36  37
HETATM   37  C4  UNL     1      49.865  38.798  14.648  1.00  0.00     0.113 C 
BRANCH  37  38
HETATM   38  C5  UNL     1      48.653  39.461  15.199  1.00  0.00     0.172 C 
HETATM   39  O1  UNL     1      48.674  40.696  15.372  1.00  0.00    -0.648 OA
HETATM   40  O2  UNL     1      47.512  38.779  15.527  1.00  0.00    -0.648 OA
ENDBRANCH  37  38
ENDBRANCH  36  37
ENDBRANCH  34  36
ENDBRANCH   1  34
TORSDOF 8
ENDMDL
