MODEL 1
REMARK VINA RESULT: -8.553741225      0.000      0.000
REMARK  8 active torsions:
REMARK  status: ('A' for Active; 'I' for Inactive)
REMARK    1  A    between atoms: O1_2  and  C2_3 
REMARK    2  A    between atoms: C2_3  and  C3_4 
REMARK    3  A    between atoms: C3_4  and  C4_5 
REMARK    4  A    between atoms: C3_4  and  C15_21 
REMARK    5  A    between atoms: C4_5  and  O2_6 
REMARK    6  A    between atoms: C4_5  and  C5_8 
REMARK    7  A    between atoms: C5_8  and  C6_9 
REMARK    8  A    between atoms: C31_38  and  O4_39 
ROOT
HETATM    1  C15 UNL     1      54.303  39.027  10.099  1.00  0.00     0.030 C 
HETATM    2  C16 UNL     1      55.287  39.905  10.890  1.00  0.00     0.010 C 
HETATM    3  C17 UNL     1      54.455  40.725  11.827  1.00  0.00     0.006 C 
HETATM    4  C18 UNL     1      53.222  39.901  12.056  1.00  0.00     0.002 C 
HETATM    5  C19 UNL     1      53.192  39.418  13.443  1.00  0.00    -0.001 C 
HETATM    6  C20 UNL     1      54.464  38.970  14.080  1.00  0.00     0.033 C 
HETATM    7  C21 UNL     1      54.236  38.440  15.471  1.00  0.00    -0.022 C 
HETATM    8  C22 UNL     1      53.105  38.043  15.931  1.00  0.00    -0.064 C 
HETATM    9  C23 UNL     1      52.931  37.523  17.332  1.00  0.00     0.118 C 
HETATM   10  C24 UNL     1      51.824  38.386  17.914  1.00  0.00     0.152 C 
HETATM   11  O3  UNL     1      51.617  38.334  19.155  1.00  0.00    -0.293 OA
HETATM   12  C25 UNL     1      51.006  39.262  17.088  1.00  0.00     0.047 C 
HETATM   13  C26 UNL     1      51.023  39.133  15.784  1.00  0.00    -0.009 C 
HETATM   14  C27 UNL     1      51.889  38.074  15.118  1.00  0.00     0.001 C 
HETATM   15  C28 UNL     1      51.057  36.807  15.230  1.00  0.00     0.025 C 
HETATM   16  C29 UNL     1      52.043  38.442  13.690  1.00  0.00     0.009 C 
HETATM   17  C30 UNL     1      52.262  37.312  12.739  1.00  0.00     0.039 C 
HETATM   18  C31 UNL     1      53.138  37.518  11.581  1.00  0.00     0.127 C 
HETATM   19  C32 UNL     1      53.130  38.895  10.927  1.00  0.00    -0.006 C 
HETATM   20  C33 UNL     1      51.766  38.905  10.282  1.00  0.00     0.019 C 
ENDROOT
BRANCH   1  21
HETATM   21  C3  UNL     1      54.401  39.450   8.690  1.00  0.00    -0.019 C 
BRANCH  21  22
HETATM   22  C2  UNL     1      54.279  38.484   7.586  1.00  0.00     0.204 C 
BRANCH  22  23
HETATM   23  O1  UNL     1      54.840  38.795   6.373  1.00  0.00    -0.392 OA
HETATM   24  C1  UNL     1      53.947  38.975   5.352  1.00  0.00     0.201 C 
ENDBRANCH  22  23
ENDBRANCH  21  22
BRANCH  21  25
HETATM   25  C4  UNL     1      55.198  40.697   8.402  1.00  0.00     0.067 C 
BRANCH  25  26
HETATM   26  O2  UNL     1      56.453  40.479   7.872  1.00  0.00    -0.361 OA
ATOM     27  H2  UNL     1      56.934  41.265   7.641  1.00  0.00     0.217 HD
ENDBRANCH  25  26
BRANCH  25  28
HETATM   28  C5  UNL     1      54.474  41.898   7.951  1.00  0.00     0.015 C 
BRANCH  28  29
HETATM   29  C6  UNL     1      55.150  43.089   7.448  1.00  0.00     0.021 C 
HETATM   30  C7  UNL     1      54.050  44.159   7.174  1.00  0.00    -0.005 C 
HETATM   31  C8  UNL     1      53.101  43.697   6.116  1.00  0.00     0.011 C 
HETATM   32  C9  UNL     1      54.700  45.432   6.707  1.00  0.00     0.017 C 
HETATM   33  C10 UNL     1      55.851  45.168   5.780  1.00  0.00     0.237 C 
HETATM   34  C12 UNL     1      55.455  46.032   7.904  1.00  0.00     0.040 C 
HETATM   35  N1  UNL     1      57.018  44.939   6.601  1.00  0.00    -0.070 N 
HETATM   36  C11 UNL     1      56.609  45.060   7.985  1.00  0.00     0.190 C 
ATOM     37  H12 UNL     1      57.479  44.051   6.399  1.00  0.00     0.277 HD
ATOM     38  H11 UNL     1      57.799  45.551   6.362  1.00  0.00     0.277 HD
HETATM   39  C13 UNL     1      56.063  43.730   8.470  1.00  0.00     0.020 C 
HETATM   40  C14 UNL     1      55.449  43.950   9.808  1.00  0.00     0.012 C 
ENDBRANCH  28  29
ENDBRANCH  25  28
ENDBRANCH  21  25
ENDBRANCH   1  21
BRANCH  18  41
HETATM   41  O4  UNL     1      52.634  36.640  10.571  1.00  0.00    -0.395 OA
ATOM     42  H4  UNL     1      53.152  36.830   9.798  1.00  0.00     0.210 HD
ENDBRANCH  18  41
TORSDOF 8
ENDMDL
MODEL 2
REMARK VINA RESULT: -8.222706378      3.358      9.075
REMARK  8 active torsions:
REMARK  status: ('A' for Active; 'I' for Inactive)
REMARK    1  A    between atoms: O1_2  and  C2_3 
REMARK    2  A    between atoms: C2_3  and  C3_4 
REMARK    3  A    between atoms: C3_4  and  C4_5 
REMARK    4  A    between atoms: C3_4  and  C15_21 
REMARK    5  A    between atoms: C4_5  and  O2_6 
REMARK    6  A    between atoms: C4_5  and  C5_8 
REMARK    7  A    between atoms: C5_8  and  C6_9 
REMARK    8  A    between atoms: C31_38  and  O4_39 
ROOT
HETATM    1  C15 UNL     1      52.805  36.981  13.126  1.00  0.00     0.030 C 
HETATM    2  C16 UNL     1      51.822  37.242  11.972  1.00  0.00     0.010 C 
HETATM    3  C17 UNL     1      51.661  38.729  11.890  1.00  0.00     0.006 C 
HETATM    4  C18 UNL     1      52.942  39.279  12.444  1.00  0.00     0.002 C 
HETATM    5  C19 UNL     1      53.713  39.928  11.374  1.00  0.00    -0.001 C 
HETATM    6  C20 UNL     1      53.746  39.298  10.023  1.00  0.00     0.033 C 
HETATM    7  C21 UNL     1      54.640  40.054   9.076  1.00  0.00    -0.022 C 
HETATM    8  C22 UNL     1      55.559  40.877   9.430  1.00  0.00    -0.064 C 
HETATM    9  C23 UNL     1      56.424  41.611   8.441  1.00  0.00     0.118 C 
HETATM   10  C24 UNL     1      56.251  43.074   8.809  1.00  0.00     0.152 C 
HETATM   11  O3  UNL     1      56.679  43.946   8.006  1.00  0.00    -0.293 OA
HETATM   12  C25 UNL     1      55.611  43.495  10.047  1.00  0.00     0.047 C 
HETATM   13  C26 UNL     1      55.406  42.623  11.004  1.00  0.00    -0.009 C 
HETATM   14  C27 UNL     1      55.829  41.171  10.838  1.00  0.00     0.001 C 
HETATM   15  C28 UNL     1      57.311  41.188  11.176  1.00  0.00     0.025 C 
HETATM   16  C29 UNL     1      55.099  40.365  11.846  1.00  0.00     0.009 C 
HETATM   17  C30 UNL     1      55.779  39.119  12.310  1.00  0.00     0.039 C 
HETATM   18  C31 UNL     1      54.965  37.942  12.628  1.00  0.00     0.127 C 
HETATM   19  C32 UNL     1      53.596  38.181  13.256  1.00  0.00    -0.006 C 
HETATM   20  C33 UNL     1      53.985  38.662  14.632  1.00  0.00     0.019 C 
ENDROOT
BRANCH   1  21
HETATM   21  C3  UNL     1      52.055  36.248  14.161  1.00  0.00    -0.019 C 
BRANCH  21  22
HETATM   22  C2  UNL     1      52.643  35.101  14.871  1.00  0.00     0.204 C 
BRANCH  22  23
HETATM   23  O1  UNL     1      53.994  35.090  15.103  1.00  0.00    -0.392 OA
HETATM   24  C1  UNL     1      54.366  35.431  16.375  1.00  0.00     0.201 C 
ENDBRANCH  22  23
ENDBRANCH  21  22
BRANCH  21  25
HETATM   25  C4  UNL     1      50.550  36.275  14.065  1.00  0.00     0.067 C 
BRANCH  25  26
HETATM   26  O2  UNL     1      49.957  35.048  13.848  1.00  0.00    -0.361 OA
ATOM     27  H2  UNL     1      50.257  34.587  13.074  1.00  0.00     0.217 HD
ENDBRANCH  25  26
BRANCH  25  28
HETATM   28  C5  UNL     1      49.816  37.242  14.900  1.00  0.00     0.015 C 
BRANCH  28  29
HETATM   29  C6  UNL     1      50.422  37.932  16.033  1.00  0.00     0.021 C 
HETATM   30  C7  UNL     1      49.732  39.326  16.143  1.00  0.00    -0.005 C 
HETATM   31  C8  UNL     1      49.986  40.150  14.924  1.00  0.00     0.011 C 
HETATM   32  C9  UNL     1      50.280  40.059  17.336  1.00  0.00     0.017 C 
HETATM   33  C10 UNL     1      51.758  39.849  17.494  1.00  0.00     0.237 C 
HETATM   34  C12 UNL     1      49.774  39.337  18.596  1.00  0.00     0.040 C 
HETATM   35  N1  UNL     1      51.940  38.621  18.235  1.00  0.00    -0.070 N 
HETATM   36  C11 UNL     1      50.625  38.091  18.530  1.00  0.00     0.190 C 
ATOM     37  H12 UNL     1      52.540  37.951  17.753  1.00  0.00     0.277 HD
ATOM     38  H11 UNL     1      52.516  38.742  19.068  1.00  0.00     0.277 HD
HETATM   39  C13 UNL     1      50.141  37.258  17.358  1.00  0.00     0.020 C 
HETATM   40  C14 UNL     1      48.711  36.920  17.599  1.00  0.00     0.012 C 
ENDBRANCH  28  29
ENDBRANCH  25  28
ENDBRANCH  21  25
ENDBRANCH   1  21
BRANCH  18  41
HETATM   41  O4  UNL     1      55.701  37.239  13.632  1.00  0.00    -0.395 OA
ATOM     42  H4  UNL     1      56.142  36.537  13.169  1.00  0.00     0.210 HD
ENDBRANCH  18  41
TORSDOF 8
ENDMDL
MODEL 3
REMARK VINA RESULT: -8.193684595      2.116      3.478
REMARK  8 active torsions:
REMARK  status: ('A' for Active; 'I' for Inactive)
REMARK    1  A    between atoms: O1_2  and  C2_3 
REMARK    2  A    between atoms: C2_3  and  C3_4 
REMARK    3  A    between atoms: C3_4  and  C4_5 
REMARK    4  A    between atoms: C3_4  and  C15_21 
REMARK    5  A    between atoms: C4_5  and  O2_6 
REMARK    6  A    between atoms: C4_5  and  C5_8 
REMARK    7  A    between atoms: C5_8  and  C6_9 
REMARK    8  A    between atoms: C31_38  and  O4_39 
ROOT
HETATM    1  C15 UNL     1      54.305  40.472   9.905  1.00  0.00     0.030 C 
HETATM    2  C16 UNL     1      53.346  39.493   9.207  1.00  0.00     0.010 C 
HETATM    3  C17 UNL     1      53.713  38.127   9.699  1.00  0.00     0.006 C 
HETATM    4  C18 UNL     1      54.319  38.363  11.051  1.00  0.00     0.002 C 
HETATM    5  C19 UNL     1      53.437  37.823  12.096  1.00  0.00    -0.001 C 
HETATM    6  C20 UNL     1      51.962  37.980  11.951  1.00  0.00     0.033 C 
HETATM    7  C21 UNL     1      51.222  37.437  13.143  1.00  0.00    -0.022 C 
HETATM    8  C22 UNL     1      51.740  37.227  14.299  1.00  0.00    -0.064 C 
HETATM    9  C23 UNL     1      50.955  36.677  15.459  1.00  0.00     0.118 C 
HETATM   10  C24 UNL     1      51.745  35.458  15.899  1.00  0.00     0.152 C 
HETATM   11  O3  UNL     1      51.206  34.659  16.711  1.00  0.00    -0.293 OA
HETATM   12  C25 UNL     1      53.092  35.187  15.416  1.00  0.00     0.047 C 
HETATM   13  C26 UNL     1      53.762  36.126  14.795  1.00  0.00    -0.009 C 
HETATM   14  C27 UNL     1      53.151  37.501  14.572  1.00  0.00     0.001 C 
HETATM   15  C28 UNL     1      53.381  38.216  15.893  1.00  0.00     0.025 C 
HETATM   16  C29 UNL     1      53.925  38.176  13.501  1.00  0.00     0.009 C 
HETATM   17  C30 UNL     1      53.958  39.668  13.554  1.00  0.00     0.039 C 
HETATM   18  C31 UNL     1      53.970  40.422  12.296  1.00  0.00     0.127 C 
HETATM   19  C32 UNL     1      54.729  39.819  11.119  1.00  0.00    -0.006 C 
HETATM   20  C33 UNL     1      56.157  39.975  11.581  1.00  0.00     0.019 C 
ENDROOT
BRANCH   1  21
HETATM   21  C3  UNL     1      55.127  41.083   8.845  1.00  0.00    -0.019 C 
BRANCH  21  22
HETATM   22  C2  UNL     1      56.254  40.362   8.232  1.00  0.00     0.204 C 
BRANCH  22  23
HETATM   23  O1  UNL     1      57.488  40.961   8.212  1.00  0.00    -0.392 OA
HETATM   24  C1  UNL     1      58.290  40.671   9.281  1.00  0.00     0.201 C 
ENDBRANCH  22  23
ENDBRANCH  21  22
BRANCH  21  25
HETATM   25  C4  UNL     1      55.204  42.589   8.819  1.00  0.00     0.067 C 
BRANCH  25  26
HETATM   26  O2  UNL     1      55.834  43.161   9.904  1.00  0.00    -0.361 OA
ATOM     27  H2  UNL     1      55.696  42.714  10.731  1.00  0.00     0.217 HD
ENDBRANCH  25  26
BRANCH  25  28
HETATM   28  C5  UNL     1      55.367  43.256   7.515  1.00  0.00     0.015 C 
BRANCH  28  29
HETATM   29  C6  UNL     1      54.319  44.065   6.903  1.00  0.00     0.021 C 
HETATM   30  C7  UNL     1      54.895  44.624   5.565  1.00  0.00    -0.005 C 
HETATM   31  C8  UNL     1      56.068  45.515   5.814  1.00  0.00     0.011 C 
HETATM   32  C9  UNL     1      53.832  45.421   4.861  1.00  0.00     0.017 C 
HETATM   33  C10 UNL     1      53.016  46.239   5.820  1.00  0.00     0.237 C 
HETATM   34  C12 UNL     1      52.759  44.435   4.374  1.00  0.00     0.040 C 
HETATM   35  N1  UNL     1      51.963  45.386   6.323  1.00  0.00    -0.070 N 
HETATM   36  C11 UNL     1      52.117  44.089   5.698  1.00  0.00     0.190 C 
ATOM     37  H12 UNL     1      51.944  45.336   7.342  1.00  0.00     0.277 HD
ATOM     38  H11 UNL     1      51.033  45.783   6.192  1.00  0.00     0.277 HD
HETATM   39  C13 UNL     1      53.108  43.258   6.492  1.00  0.00     0.020 C 
HETATM   40  C14 UNL     1      53.410  42.032   5.704  1.00  0.00     0.012 C 
ENDBRANCH  28  29
ENDBRANCH  25  28
ENDBRANCH  21  25
ENDBRANCH   1  21
BRANCH  18  41
HETATM   41  O4  UNL     1      54.674  41.631  12.593  1.00  0.00    -0.395 OA
ATOM     42  H4  UNL     1      55.296  41.735  11.883  1.00  0.00     0.210 HD
ENDBRANCH  18  41
TORSDOF 8
ENDMDL
MODEL 4
REMARK VINA RESULT: -8.134293719      1.375      1.849
REMARK  8 active torsions:
REMARK  status: ('A' for Active; 'I' for Inactive)
REMARK    1  A    between atoms: O1_2  and  C2_3 
REMARK    2  A    between atoms: C2_3  and  C3_4 
REMARK    3  A    between atoms: C3_4  and  C4_5 
REMARK    4  A    between atoms: C3_4  and  C15_21 
REMARK    5  A    between atoms: C4_5  and  O2_6 
REMARK    6  A    between atoms: C4_5  and  C5_8 
REMARK    7  A    between atoms: C5_8  and  C6_9 
REMARK    8  A    between atoms: C31_38  and  O4_39 
ROOT
HETATM    1  C15 UNL     1      54.858  39.885   9.680  1.00  0.00     0.030 C 
HETATM    2  C16 UNL     1      55.566  40.816  10.679  1.00  0.00     0.010 C 
HETATM    3  C17 UNL     1      54.577  41.087  11.770  1.00  0.00     0.006 C 
HETATM    4  C18 UNL     1      53.676  39.887  11.769  1.00  0.00     0.002 C 
HETATM    5  C19 UNL     1      53.879  39.107  12.998  1.00  0.00    -0.001 C 
HETATM    6  C20 UNL     1      55.262  38.946  13.532  1.00  0.00     0.033 C 
HETATM    7  C21 UNL     1      55.291  38.059  14.748  1.00  0.00    -0.022 C 
HETATM    8  C22 UNL     1      54.369  37.229  15.076  1.00  0.00    -0.064 C 
HETATM    9  C23 UNL     1      54.446  36.366  16.307  1.00  0.00     0.118 C 
HETATM   10  C24 UNL     1      53.163  36.674  17.058  1.00  0.00     0.152 C 
HETATM   11  O3  UNL     1      53.055  36.268  18.246  1.00  0.00    -0.293 OA
HETATM   12  C25 UNL     1      52.066  37.416  16.453  1.00  0.00     0.047 C 
HETATM   13  C26 UNL     1      52.046  37.609  15.157  1.00  0.00    -0.009 C 
HETATM   14  C27 UNL     1      53.157  37.065  14.272  1.00  0.00     0.001 C 
HETATM   15  C28 UNL     1      52.768  35.612  14.058  1.00  0.00     0.025 C 
HETATM   16  C29 UNL     1      53.105  37.789  12.978  1.00  0.00     0.009 C 
HETATM   17  C30 UNL     1      53.608  37.043  11.787  1.00  0.00     0.039 C 
HETATM   18  C31 UNL     1      54.307  37.781  10.730  1.00  0.00     0.127 C 
HETATM   19  C32 UNL     1      53.834  39.199  10.429  1.00  0.00    -0.006 C 
HETATM   20  C33 UNL     1      52.500  38.931   9.779  1.00  0.00     0.019 C 
ENDROOT
BRANCH   1  21
HETATM   21  C3  UNL     1      54.737  40.636   8.418  1.00  0.00    -0.019 C 
BRANCH  21  22
HETATM   22  C2  UNL     1      54.558  39.951   7.127  1.00  0.00     0.204 C 
BRANCH  22  23
HETATM   23  O1  UNL     1      54.827  38.609   7.050  1.00  0.00    -0.392 OA
HETATM   24  C1  UNL     1      54.136  37.935   6.081  1.00  0.00     0.201 C 
ENDBRANCH  22  23
ENDBRANCH  21  22
BRANCH  21  25
HETATM   25  C4  UNL     1      55.381  41.999   8.366  1.00  0.00     0.067 C 
BRANCH  25  26
HETATM   26  O2  UNL     1      56.685  42.013   7.914  1.00  0.00    -0.361 OA
ATOM     27  H2  UNL     1      57.277  42.564   8.412  1.00  0.00     0.217 HD
ENDBRANCH  25  26
BRANCH  25  28
HETATM   28  C5  UNL     1      54.536  43.157   8.024  1.00  0.00     0.015 C 
BRANCH  28  29
HETATM   29  C6  UNL     1      54.550  43.787   6.709  1.00  0.00     0.021 C 
HETATM   30  C7  UNL     1      53.066  44.062   6.317  1.00  0.00    -0.005 C 
HETATM   31  C8  UNL     1      52.295  42.787   6.200  1.00  0.00     0.011 C 
HETATM   32  C9  UNL     1      53.024  44.767   4.990  1.00  0.00     0.017 C 
HETATM   33  C10 UNL     1      54.049  44.227   4.035  1.00  0.00     0.237 C 
HETATM   34  C12 UNL     1      53.579  46.185   5.201  1.00  0.00     0.040 C 
HETATM   35  N1  UNL     1      55.289  44.920   4.301  1.00  0.00    -0.070 N 
HETATM   36  C11 UNL     1      55.043  45.857   5.377  1.00  0.00     0.190 C 
ATOM     37  H12 UNL     1      56.066  44.286   4.495  1.00  0.00     0.277 HD
ATOM     38  H11 UNL     1      55.683  45.363   3.470  1.00  0.00     0.277 HD
HETATM   39  C13 UNL     1      55.205  45.150   6.710  1.00  0.00     0.020 C 
HETATM   40  C14 UNL     1      54.729  46.074   7.776  1.00  0.00     0.012 C 
ENDBRANCH  28  29
ENDBRANCH  25  28
ENDBRANCH  21  25
ENDBRANCH   1  21
BRANCH  18  41
HETATM   41  O4  UNL     1      54.043  37.054   9.529  1.00  0.00    -0.395 OA
ATOM     42  H4  UNL     1      53.489  37.626   9.010  1.00  0.00     0.210 HD
ENDBRANCH  18  41
TORSDOF 8
ENDMDL
MODEL 5
REMARK VINA RESULT: -8.117393866      3.788      9.721
REMARK  8 active torsions:
REMARK  status: ('A' for Active; 'I' for Inactive)
REMARK    1  A    between atoms: O1_2  and  C2_3 
REMARK    2  A    between atoms: C2_3  and  C3_4 
REMARK    3  A    between atoms: C3_4  and  C4_5 
REMARK    4  A    between atoms: C3_4  and  C15_21 
REMARK    5  A    between atoms: C4_5  and  O2_6 
REMARK    6  A    between atoms: C4_5  and  C5_8 
REMARK    7  A    between atoms: C5_8  and  C6_9 
REMARK    8  A    between atoms: C31_38  and  O4_39 
ROOT
HETATM    1  C15 UNL     1      54.118  37.319   7.172  1.00  0.00     0.030 C 
HETATM    2  C16 UNL     1      54.623  35.866   7.184  1.00  0.00     0.010 C 
HETATM    3  C17 UNL     1      53.726  35.105   6.257  1.00  0.00     0.006 C 
HETATM    4  C18 UNL     1      53.230  36.133   5.283  1.00  0.00     0.002 C 
HETATM    5  C19 UNL     1      53.793  35.873   3.951  1.00  0.00    -0.001 C 
HETATM    6  C20 UNL     1      55.212  35.427   3.839  1.00  0.00     0.033 C 
HETATM    7  C21 UNL     1      55.640  35.282   2.404  1.00  0.00    -0.022 C 
HETATM    8  C22 UNL     1      55.051  35.824   1.401  1.00  0.00    -0.064 C 
HETATM    9  C23 UNL     1      55.519  35.643  -0.018  1.00  0.00     0.118 C 
HETATM   10  C24 UNL     1      54.295  35.123  -0.751  1.00  0.00     0.152 C 
HETATM   11  O3  UNL     1      54.447  34.662  -1.913  1.00  0.00    -0.293 OA
HETATM   12  C25 UNL     1      52.966  35.142  -0.157  1.00  0.00     0.047 C 
HETATM   13  C26 UNL     1      52.745  35.851   0.923  1.00  0.00    -0.009 C 
HETATM   14  C27 UNL     1      53.862  36.660   1.566  1.00  0.00     0.001 C 
HETATM   15  C28 UNL     1      53.903  37.935   0.740  1.00  0.00     0.025 C 
HETATM   16  C29 UNL     1      53.452  36.980   2.955  1.00  0.00     0.009 C 
HETATM   17  C30 UNL     1      54.018  38.235   3.535  1.00  0.00     0.039 C 
HETATM   18  C31 UNL     1      54.342  38.272   4.965  1.00  0.00     0.127 C 
HETATM   19  C32 UNL     1      53.436  37.494   5.913  1.00  0.00    -0.006 C 
HETATM   20  C33 UNL     1      52.179  38.327   5.865  1.00  0.00     0.019 C 
ENDROOT
BRANCH   1  21
HETATM   21  C3  UNL     1      53.638  37.609   8.535  1.00  0.00    -0.019 C 
BRANCH  21  22
HETATM   22  C2  UNL     1      52.648  36.749   9.203  1.00  0.00     0.204 C 
BRANCH  22  23
HETATM   23  O1  UNL     1      52.779  36.512  10.547  1.00  0.00    -0.392 OA
HETATM   24  C1  UNL     1      53.946  35.899  10.915  1.00  0.00     0.201 C 
ENDBRANCH  22  23
ENDBRANCH  21  22
BRANCH  21  25
HETATM   25  C4  UNL     1      53.687  39.046   8.989  1.00  0.00     0.067 C 
BRANCH  25  26
HETATM   26  O2  UNL     1      52.770  39.384   9.962  1.00  0.00    -0.361 OA
ATOM     27  H2  UNL     1      52.235  40.143   9.764  1.00  0.00     0.217 HD
ENDBRANCH  25  26
BRANCH  25  28
HETATM   28  C5  UNL     1      54.998  39.719   9.034  1.00  0.00     0.015 C 
BRANCH  28  29
HETATM   29  C6  UNL     1      55.229  40.955   9.773  1.00  0.00     0.021 C 
HETATM   30  C7  UNL     1      56.117  40.594  11.003  1.00  0.00    -0.005 C 
HETATM   31  C8  UNL     1      55.411  39.646  11.917  1.00  0.00     0.011 C 
HETATM   32  C9  UNL     1      56.436  41.847  11.770  1.00  0.00     0.017 C 
HETATM   33  C10 UNL     1      55.260  42.778  11.839  1.00  0.00     0.237 C 
HETATM   34  C12 UNL     1      57.390  42.689  10.908  1.00  0.00     0.040 C 
HETATM   35  N1  UNL     1      55.276  43.578  10.635  1.00  0.00    -0.070 N 
HETATM   36  C11 UNL     1      56.420  43.163   9.851  1.00  0.00     0.190 C 
ATOM     37  H12 UNL     1      54.399  43.532  10.115  1.00  0.00     0.277 HD
ATOM     38  H11 UNL     1      55.266  44.581  10.825  1.00  0.00     0.277 HD
HETATM   39  C13 UNL     1      56.041  41.968   8.997  1.00  0.00     0.020 C 
HETATM   40  C14 UNL     1      57.288  41.434   8.382  1.00  0.00     0.012 C 
ENDBRANCH  28  29
ENDBRANCH  25  28
ENDBRANCH  21  25
ENDBRANCH   1  21
BRANCH  18  41
HETATM   41  O4  UNL     1      54.174  39.638   5.349  1.00  0.00    -0.395 OA
ATOM     42  H4  UNL     1      53.342  39.901   4.974  1.00  0.00     0.210 HD
ENDBRANCH  18  41
TORSDOF 8
ENDMDL
