MODEL 1
REMARK VINA RESULT: -6.049046433      0.000      0.000
REMARK  7 active torsions:
REMARK  status: ('A' for Active; 'I' for Inactive)
REMARK    1  A    between atoms: C2_2  and  C3_3 
REMARK    2  A    between atoms: C3_3  and  C4_4 
REMARK    3  A    between atoms: C3_3  and  C6_6 
REMARK    4  A    between atoms: C6_6  and  C7_7 
REMARK    5  A    between atoms: C7_7  and  N1_8 
REMARK    6  A    between atoms: N1_8  and  C8_10 
REMARK    7  A    between atoms: C8_10  and  C9_11 
ROOT
HETATM    1  C7  UNL     1      12.445  -3.251   0.260  1.00  0.00     0.114 C 
ENDROOT
BRANCH   1   2
HETATM    2  C6  UNL     1      13.666  -3.086  -0.570  1.00  0.00     0.024 C 
BRANCH   2   3
HETATM    3  C3  UNL     1      14.611  -4.251  -0.467  1.00  0.00    -0.014 C 
BRANCH   3   4
HETATM    4  C2  UNL     1      13.951  -5.487   0.093  1.00  0.00     0.000 C 
HETATM    5  C1  UNL     1      14.927  -6.577   0.435  1.00  0.00     0.005 C 
ENDBRANCH   3   4
BRANCH   3   6
HETATM    6  C4  UNL     1      15.502  -4.472  -1.627  1.00  0.00     0.000 C 
HETATM    7  C5  UNL     1      16.955  -4.504  -1.406  1.00  0.00     0.005 C 
ENDBRANCH   3   6
ENDBRANCH   2   3
ENDBRANCH   1   2
BRANCH   1   8
HETATM    8  N1  UNL     1      11.379  -2.394  -0.218  1.00  0.00    -0.421 N 
ATOM      9  H1  UNL     1      11.533  -1.419  -0.474  1.00  0.00     0.153 HD
BRANCH   8  10
HETATM   10  C8  UNL     1      10.102  -3.015  -0.305  1.00  0.00     0.118 C 
BRANCH  10  11
HETATM   11  C9  UNL     1       9.471  -2.887   1.088  1.00  0.00     0.003 A 
HETATM   12  C10 UNL     1       8.893  -1.574   1.481  1.00  0.00     0.007 A 
HETATM   13  C11 UNL     1       8.013  -2.787   1.178  1.00  0.00     0.007 A 
ENDBRANCH  10  11
ENDBRANCH   8  10
ENDBRANCH   1   8
TORSDOF 7
ENDMDL
MODEL 2
REMARK VINA RESULT: -5.804316851      0.940      1.668
REMARK  7 active torsions:
REMARK  status: ('A' for Active; 'I' for Inactive)
REMARK    1  A    between atoms: C2_2  and  C3_3 
REMARK    2  A    between atoms: C3_3  and  C4_4 
REMARK    3  A    between atoms: C3_3  and  C6_6 
REMARK    4  A    between atoms: C6_6  and  C7_7 
REMARK    5  A    between atoms: C7_7  and  N1_8 
REMARK    6  A    between atoms: N1_8  and  C8_10 
REMARK    7  A    between atoms: C8_10  and  C9_11 
ROOT
HETATM    1  C7  UNL     1      14.015  -2.855  -0.421  1.00  0.00     0.114 C 
ENDROOT
BRANCH   1   2
HETATM    2  C6  UNL     1      14.436  -4.090  -1.132  1.00  0.00     0.024 C 
BRANCH   2   3
HETATM    3  C3  UNL     1      15.799  -4.573  -0.718  1.00  0.00    -0.014 C 
BRANCH   3   4
HETATM    4  C2  UNL     1      15.776  -5.980  -0.173  1.00  0.00     0.000 C 
HETATM    5  C1  UNL     1      14.452  -6.360   0.431  1.00  0.00     0.005 C 
ENDBRANCH   3   4
BRANCH   3   6
HETATM    6  C4  UNL     1      16.909  -4.265  -1.646  1.00  0.00     0.000 C 
HETATM    7  C5  UNL     1      17.982  -5.254  -1.817  1.00  0.00     0.005 C 
ENDBRANCH   3   6
ENDBRANCH   2   3
ENDBRANCH   1   2
BRANCH   1   8
HETATM    8  N1  UNL     1      12.578  -2.838  -0.229  1.00  0.00    -0.421 N 
ATOM      9  H1  UNL     1      11.948  -2.337  -0.856  1.00  0.00     0.153 HD
BRANCH   8  10
HETATM   10  C8  UNL     1      12.114  -3.572   0.898  1.00  0.00     0.118 C 
BRANCH  10  11
HETATM   11  C9  UNL     1      10.647  -3.913   0.608  1.00  0.00     0.003 A 
HETATM   12  C10 UNL     1       9.598  -2.960   1.064  1.00  0.00     0.007 A 
HETATM   13  C11 UNL     1       9.946  -3.135  -0.414  1.00  0.00     0.007 A 
ENDBRANCH  10  11
ENDBRANCH   8  10
ENDBRANCH   1   8
TORSDOF 7
ENDMDL
MODEL 3
REMARK VINA RESULT: -5.788629250      1.476      5.872
REMARK  7 active torsions:
REMARK  status: ('A' for Active; 'I' for Inactive)
REMARK    1  A    between atoms: C2_2  and  C3_3 
REMARK    2  A    between atoms: C3_3  and  C4_4 
REMARK    3  A    between atoms: C3_3  and  C6_6 
REMARK    4  A    between atoms: C6_6  and  C7_7 
REMARK    5  A    between atoms: C7_7  and  N1_8 
REMARK    6  A    between atoms: N1_8  and  C8_10 
REMARK    7  A    between atoms: C8_10  and  C9_11 
ROOT
HETATM    1  C7  UNL     1      12.928  -2.429   0.018  1.00  0.00     0.114 C 
ENDROOT
BRANCH   1   2
HETATM    2  C6  UNL     1      11.625  -2.415  -0.696  1.00  0.00     0.024 C 
BRANCH   2   3
HETATM    3  C3  UNL     1      10.511  -3.038   0.099  1.00  0.00    -0.014 C 
BRANCH   3   4
HETATM    4  C2  UNL     1      10.970  -3.546   1.444  1.00  0.00     0.000 C 
HETATM    5  C1  UNL     1      10.936  -5.044   1.555  1.00  0.00     0.005 C 
ENDBRANCH   3   4
BRANCH   3   6
HETATM    6  C4  UNL     1       9.223  -2.310   0.096  1.00  0.00     0.000 C 
HETATM    7  C5  UNL     1       8.251  -2.590   1.162  1.00  0.00     0.005 C 
ENDBRANCH   3   6
ENDBRANCH   2   3
ENDBRANCH   1   2
BRANCH   1   8
HETATM    8  N1  UNL     1      13.913  -3.190  -0.726  1.00  0.00    -0.421 N 
ATOM      9  H1  UNL     1      14.443  -2.789  -1.499  1.00  0.00     0.153 HD
BRANCH   8  10
HETATM   10  C8  UNL     1      14.083  -4.535  -0.295  1.00  0.00     0.118 C 
BRANCH  10  11
HETATM   11  C9  UNL     1      15.203  -5.121  -1.164  1.00  0.00     0.003 A 
HETATM   12  C10 UNL     1      16.486  -4.373  -1.259  1.00  0.00     0.007 A 
HETATM   13  C11 UNL     1      16.373  -5.690  -0.491  1.00  0.00     0.007 A 
ENDBRANCH  10  11
ENDBRANCH   8  10
ENDBRANCH   1   8
TORSDOF 7
ENDMDL
MODEL 4
REMARK VINA RESULT: -5.712132024      1.440      6.379
REMARK  7 active torsions:
REMARK  status: ('A' for Active; 'I' for Inactive)
REMARK    1  A    between atoms: C2_2  and  C3_3 
REMARK    2  A    between atoms: C3_3  and  C4_4 
REMARK    3  A    between atoms: C3_3  and  C6_6 
REMARK    4  A    between atoms: C6_6  and  C7_7 
REMARK    5  A    between atoms: C7_7  and  N1_8 
REMARK    6  A    between atoms: N1_8  and  C8_10 
REMARK    7  A    between atoms: C8_10  and  C9_11 
ROOT
HETATM    1  C7  UNL     1      11.278  -3.464   0.371  1.00  0.00     0.114 C 
ENDROOT
BRANCH   1   2
HETATM    2  C6  UNL     1      10.708  -2.298  -0.354  1.00  0.00     0.024 C 
BRANCH   2   3
HETATM    3  C3  UNL     1       9.268  -2.035  -0.006  1.00  0.00    -0.014 C 
BRANCH   3   4
HETATM    4  C2  UNL     1       8.792  -2.863   1.163  1.00  0.00     0.000 C 
HETATM    5  C1  UNL     1       7.307  -2.787   1.377  1.00  0.00     0.005 C 
ENDBRANCH   3   4
BRANCH   3   6
HETATM    6  C4  UNL     1       8.848  -0.617   0.001  1.00  0.00     0.000 C 
HETATM    7  C5  UNL     1       7.804  -0.184  -0.938  1.00  0.00     0.005 C 
ENDBRANCH   3   6
ENDBRANCH   2   3
ENDBRANCH   1   2
BRANCH   1   8
HETATM    8  N1  UNL     1      12.703  -3.571   0.128  1.00  0.00    -0.421 N 
ATOM      9  H1  UNL     1      13.258  -2.793  -0.227  1.00  0.00     0.153 HD
BRANCH   8  10
HETATM   10  C8  UNL     1      13.268  -4.843   0.424  1.00  0.00     0.118 C 
BRANCH  10  11
HETATM   11  C9  UNL     1      14.286  -5.125  -0.688  1.00  0.00     0.003 A 
HETATM   12  C10 UNL     1      15.427  -4.184  -0.855  1.00  0.00     0.007 A 
HETATM   13  C11 UNL     1      15.617  -5.597  -0.302  1.00  0.00     0.007 A 
ENDBRANCH  10  11
ENDBRANCH   8  10
ENDBRANCH   1   8
TORSDOF 7
ENDMDL
MODEL 5
REMARK VINA RESULT: -5.711786054      1.224      6.304
REMARK  7 active torsions:
REMARK  status: ('A' for Active; 'I' for Inactive)
REMARK    1  A    between atoms: C2_2  and  C3_3 
REMARK    2  A    between atoms: C3_3  and  C4_4 
REMARK    3  A    between atoms: C3_3  and  C6_6 
REMARK    4  A    between atoms: C6_6  and  C7_7 
REMARK    5  A    between atoms: C7_7  and  N1_8 
REMARK    6  A    between atoms: N1_8  and  C8_10 
REMARK    7  A    between atoms: C8_10  and  C9_11 
ROOT
HETATM    1  C7  UNL     1      11.791  -3.059   0.235  1.00  0.00     0.114 C 
ENDROOT
BRANCH   1   2
HETATM    2  C6  UNL     1      10.522  -3.657   0.728  1.00  0.00     0.024 C 
BRANCH   2   3
HETATM    3  C3  UNL     1       9.316  -2.812   0.424  1.00  0.00    -0.014 C 
BRANCH   3   4
HETATM    4  C2  UNL     1       8.375  -2.700   1.599  1.00  0.00     0.000 C 
HETATM    5  C1  UNL     1       6.926  -2.786   1.207  1.00  0.00     0.005 C 
ENDBRANCH   3   4
BRANCH   3   6
HETATM    6  C4  UNL     1       9.569  -1.557  -0.315  1.00  0.00     0.000 C 
HETATM    7  C5  UNL     1       9.293  -0.276   0.351  1.00  0.00     0.005 C 
ENDBRANCH   3   6
ENDBRANCH   2   3
ENDBRANCH   1   2
BRANCH   1   8
HETATM    8  N1  UNL     1      12.846  -4.051   0.200  1.00  0.00    -0.421 N 
ATOM      9  H1  UNL     1      12.750  -4.969   0.634  1.00  0.00     0.153 HD
BRANCH   8  10
HETATM   10  C8  UNL     1      14.026  -3.649  -0.486  1.00  0.00     0.118 C 
BRANCH  10  11
HETATM   11  C9  UNL     1      14.691  -4.940  -0.982  1.00  0.00     0.003 A 
HETATM   12  C10 UNL     1      16.150  -5.115  -0.748  1.00  0.00     0.007 A 
HETATM   13  C11 UNL     1      15.105  -5.929   0.014  1.00  0.00     0.007 A 
ENDBRANCH  10  11
ENDBRANCH   8  10
ENDBRANCH   1   8
TORSDOF 7
ENDMDL
