MODEL 1
REMARK VINA RESULT: -6.286127726      0.000      0.000
REMARK  8 active torsions:
REMARK  status: ('A' for Active; 'I' for Inactive)
REMARK    1  A    between atoms: C2_2  and  C3_3 
REMARK    2  A    between atoms: C3_3  and  C4_4 
REMARK    3  A    between atoms: C4_4  and  C5_5 
REMARK    4  A    between atoms: C5_5  and  C6_6 
REMARK    5  A    between atoms: C6_6  and  C7_7 
REMARK    6  A    between atoms: C7_7  and  C8_8 
REMARK    7  A    between atoms: C8_8  and  N1_9 
REMARK    8  A    between atoms: C8_8  and  C9_13 
ROOT
HETATM    1  C8  UNL     1      11.942  -3.649   0.909  1.00  0.00     0.187 C 
ENDROOT
BRANCH   1   2
HETATM    2  C7  UNL     1      13.036  -4.467   0.217  1.00  0.00     0.033 C 
BRANCH   2   3
HETATM    3  C6  UNL     1      13.900  -3.481  -0.517  1.00  0.00     0.002 C 
BRANCH   3   4
HETATM    4  C5  UNL     1      15.102  -4.131  -1.165  1.00  0.00     0.000 C 
BRANCH   4   5
HETATM    5  C4  UNL     1      15.502  -5.406  -0.514  1.00  0.00     0.004 C 
BRANCH   5   6
HETATM    6  C3  UNL     1      16.951  -5.684  -0.539  1.00  0.00     0.026 C 
BRANCH   6   7
HETATM    7  C2  UNL     1      17.740  -5.129  -1.635  1.00  0.00    -0.037 C 
HETATM    8  C1  UNL     1      18.567  -5.728  -2.448  1.00  0.00     0.007 C 
ENDBRANCH   6   7
ENDBRANCH   5   6
ENDBRANCH   4   5
ENDBRANCH   3   4
ENDBRANCH   2   3
ENDBRANCH   1   2
BRANCH   1   9
HETATM    9  N1  UNL     1      11.673  -4.104   2.234  1.00  0.00    -0.075 N 
ATOM     10  H13 UNL     1      11.495  -5.108   2.247  1.00  0.00     0.274 HD
ATOM     11  H12 UNL     1      12.515  -4.078   2.808  1.00  0.00     0.274 HD
ATOM     12  H11 UNL     1      10.911  -3.590   2.677  1.00  0.00     0.274 HD
ENDBRANCH   1   9
BRANCH   1  13
HETATM   13  C9  UNL     1      10.718  -3.596   0.057  1.00  0.00     0.016 A 
HETATM   14  C10 UNL     1       9.441  -3.008   0.539  1.00  0.00     0.007 A 
HETATM   15  C11 UNL     1      10.256  -2.262  -0.499  1.00  0.00     0.007 A 
ENDBRANCH   1  13
TORSDOF 8
ENDMDL
MODEL 2
REMARK VINA RESULT: -6.226909163      1.480      2.325
REMARK  8 active torsions:
REMARK  status: ('A' for Active; 'I' for Inactive)
REMARK    1  A    between atoms: C2_2  and  C3_3 
REMARK    2  A    between atoms: C3_3  and  C4_4 
REMARK    3  A    between atoms: C4_4  and  C5_5 
REMARK    4  A    between atoms: C5_5  and  C6_6 
REMARK    5  A    between atoms: C6_6  and  C7_7 
REMARK    6  A    between atoms: C7_7  and  C8_8 
REMARK    7  A    between atoms: C8_8  and  N1_9 
REMARK    8  A    between atoms: C8_8  and  C9_13 
ROOT
HETATM    1  C8  UNL     1       9.858  -3.251   0.262  1.00  0.00     0.187 C 
ENDROOT
BRANCH   1   2
HETATM    2  C7  UNL     1      10.941  -4.136   0.890  1.00  0.00     0.033 C 
BRANCH   2   3
HETATM    3  C6  UNL     1      12.257  -3.498   0.547  1.00  0.00     0.002 C 
BRANCH   3   4
HETATM    4  C5  UNL     1      13.307  -4.511   0.148  1.00  0.00     0.000 C 
BRANCH   4   5
HETATM    5  C4  UNL     1      14.425  -3.919  -0.633  1.00  0.00     0.004 C 
BRANCH   5   6
HETATM    6  C3  UNL     1      15.215  -4.891  -1.414  1.00  0.00     0.026 C 
BRANCH   6   7
HETATM    7  C2  UNL     1      16.558  -5.221  -0.944  1.00  0.00    -0.037 C 
HETATM    8  C1  UNL     1      17.716  -4.844  -1.413  1.00  0.00     0.007 C 
ENDBRANCH   6   7
ENDBRANCH   5   6
ENDBRANCH   4   5
ENDBRANCH   3   4
ENDBRANCH   2   3
ENDBRANCH   1   2
BRANCH   1   9
HETATM    9  N1  UNL     1      10.396  -2.286  -0.640  1.00  0.00    -0.075 N 
ATOM     10  H13 UNL     1      10.988  -1.616  -0.150  1.00  0.00     0.274 HD
ATOM     11  H12 UNL     1      11.095  -2.706  -1.253  1.00  0.00     0.274 HD
ATOM     12  H11 UNL     1       9.673  -1.810  -1.181  1.00  0.00     0.274 HD
ENDBRANCH   1   9
BRANCH   1  13
HETATM   13  C9  UNL     1       9.009  -2.639   1.325  1.00  0.00     0.016 A 
HETATM   14  C10 UNL     1       8.203  -1.413   1.088  1.00  0.00     0.007 A 
HETATM   15  C11 UNL     1       7.500  -2.748   1.226  1.00  0.00     0.007 A 
ENDBRANCH   1  13
TORSDOF 8
ENDMDL
MODEL 3
REMARK VINA RESULT: -6.168663300      0.664      1.012
REMARK  8 active torsions:
REMARK  status: ('A' for Active; 'I' for Inactive)
REMARK    1  A    between atoms: C2_2  and  C3_3 
REMARK    2  A    between atoms: C3_3  and  C4_4 
REMARK    3  A    between atoms: C4_4  and  C5_5 
REMARK    4  A    between atoms: C5_5  and  C6_6 
REMARK    5  A    between atoms: C6_6  and  C7_7 
REMARK    6  A    between atoms: C7_7  and  C8_8 
REMARK    7  A    between atoms: C8_8  and  N1_9 
REMARK    8  A    between atoms: C8_8  and  C9_13 
ROOT
HETATM    1  C8  UNL     1      11.734  -3.342   0.880  1.00  0.00     0.187 C 
ENDROOT
BRANCH   1   2
HETATM    2  C7  UNL     1      12.934  -3.669  -0.015  1.00  0.00     0.033 C 
BRANCH   2   3
HETATM    3  C6  UNL     1      13.354  -5.068   0.338  1.00  0.00     0.002 C 
BRANCH   3   4
HETATM    4  C5  UNL     1      14.690  -5.442  -0.263  1.00  0.00     0.000 C 
BRANCH   4   5
HETATM    5  C4  UNL     1      15.177  -4.460  -1.267  1.00  0.00     0.004 C 
BRANCH   5   6
HETATM    6  C3  UNL     1      16.632  -4.212  -1.233  1.00  0.00     0.026 C 
BRANCH   6   7
HETATM    7  C2  UNL     1      17.528  -5.363  -1.286  1.00  0.00    -0.037 C 
HETATM    8  C1  UNL     1      18.411  -5.686  -2.193  1.00  0.00     0.007 C 
ENDBRANCH   6   7
ENDBRANCH   5   6
ENDBRANCH   4   5
ENDBRANCH   3   4
ENDBRANCH   2   3
ENDBRANCH   1   2
BRANCH   1   9
HETATM    9  N1  UNL     1      11.645  -4.205   2.012  1.00  0.00    -0.075 N 
ATOM     10  H13 UNL     1      10.833  -4.820   1.942  1.00  0.00     0.274 HD
ATOM     11  H12 UNL     1      12.385  -4.906   1.998  1.00  0.00     0.274 HD
ATOM     12  H11 UNL     1      11.641  -3.693   2.895  1.00  0.00     0.274 HD
ENDBRANCH   1   9
BRANCH   1  13
HETATM   13  C9  UNL     1      10.479  -3.316   0.073  1.00  0.00     0.016 A 
HETATM   14  C10 UNL     1       9.164  -2.951   0.663  1.00  0.00     0.007 A 
HETATM   15  C11 UNL     1       9.850  -1.982  -0.280  1.00  0.00     0.007 A 
ENDBRANCH   1  13
TORSDOF 8
ENDMDL
MODEL 4
REMARK VINA RESULT: -6.152391312      1.795      3.273
REMARK  8 active torsions:
REMARK  status: ('A' for Active; 'I' for Inactive)
REMARK    1  A    between atoms: C2_2  and  C3_3 
REMARK    2  A    between atoms: C3_3  and  C4_4 
REMARK    3  A    between atoms: C4_4  and  C5_5 
REMARK    4  A    between atoms: C5_5  and  C6_6 
REMARK    5  A    between atoms: C6_6  and  C7_7 
REMARK    6  A    between atoms: C7_7  and  C8_8 
REMARK    7  A    between atoms: C8_8  and  N1_9 
REMARK    8  A    between atoms: C8_8  and  C9_13 
ROOT
HETATM    1  C8  UNL     1       9.335  -2.220   0.052  1.00  0.00     0.187 C 
ENDROOT
BRANCH   1   2
HETATM    2  C7  UNL     1      10.302  -3.374  -0.232  1.00  0.00     0.033 C 
BRANCH   2   3
HETATM    3  C6  UNL     1      10.573  -4.032   1.091  1.00  0.00     0.002 C 
BRANCH   3   4
HETATM    4  C5  UNL     1      12.042  -4.315   1.310  1.00  0.00     0.000 C 
BRANCH   4   5
HETATM    5  C4  UNL     1      12.890  -3.939   0.148  1.00  0.00     0.004 C 
BRANCH   5   6
HETATM    6  C3  UNL     1      13.947  -4.915  -0.186  1.00  0.00     0.026 C 
BRANCH   6   7
HETATM    7  C2  UNL     1      15.082  -4.454  -0.979  1.00  0.00    -0.037 C 
HETATM    8  C1  UNL     1      16.317  -4.878  -0.984  1.00  0.00     0.007 C 
ENDBRANCH   6   7
ENDBRANCH   5   6
ENDBRANCH   4   5
ENDBRANCH   3   4
ENDBRANCH   2   3
ENDBRANCH   1   2
BRANCH   1   9
HETATM    9  N1  UNL     1       9.989  -0.952   0.077  1.00  0.00    -0.075 N 
ATOM     10  H13 UNL     1      10.310  -0.723   1.018  1.00  0.00     0.274 HD
ATOM     11  H12 UNL     1      10.890  -0.995  -0.399  1.00  0.00     0.274 HD
ATOM     12  H11 UNL     1       9.408  -0.205  -0.304  1.00  0.00     0.274 HD
ENDBRANCH   1   9
BRANCH   1  13
HETATM   13  C9  UNL     1       8.556  -2.492   1.296  1.00  0.00     0.016 A 
HETATM   14  C10 UNL     1       7.704  -1.458   1.940  1.00  0.00     0.007 A 
HETATM   15  C11 UNL     1       7.046  -2.614   1.215  1.00  0.00     0.007 A 
ENDBRANCH   1  13
TORSDOF 8
ENDMDL
MODEL 5
REMARK VINA RESULT: -5.953076037      1.540      6.862
REMARK  8 active torsions:
REMARK  status: ('A' for Active; 'I' for Inactive)
REMARK    1  A    between atoms: C2_2  and  C3_3 
REMARK    2  A    between atoms: C3_3  and  C4_4 
REMARK    3  A    between atoms: C4_4  and  C5_5 
REMARK    4  A    between atoms: C5_5  and  C6_6 
REMARK    5  A    between atoms: C6_6  and  C7_7 
REMARK    6  A    between atoms: C7_7  and  C8_8 
REMARK    7  A    between atoms: C8_8  and  N1_9 
REMARK    8  A    between atoms: C8_8  and  C9_13 
ROOT
HETATM    1  C8  UNL     1      14.793  -4.883  -0.801  1.00  0.00     0.187 C 
ENDROOT
BRANCH   1   2
HETATM    2  C7  UNL     1      14.008  -3.587  -0.568  1.00  0.00     0.033 C 
BRANCH   2   3
HETATM    3  C6  UNL     1      12.791  -3.969   0.225  1.00  0.00     0.002 C 
BRANCH   3   4
HETATM    4  C5  UNL     1      11.731  -2.890   0.219  1.00  0.00     0.000 C 
BRANCH   4   5
HETATM    5  C4  UNL     1      10.368  -3.408  -0.069  1.00  0.00     0.004 C 
BRANCH   5   6
HETATM    6  C3  UNL     1       9.279  -2.438   0.154  1.00  0.00     0.026 C 
BRANCH   6   7
HETATM    7  C2  UNL     1       8.359  -2.680   1.262  1.00  0.00    -0.037 C 
HETATM    8  C1  UNL     1       7.054  -2.652   1.278  1.00  0.00     0.007 C 
ENDBRANCH   6   7
ENDBRANCH   5   6
ENDBRANCH   4   5
ENDBRANCH   3   4
ENDBRANCH   2   3
ENDBRANCH   1   2
BRANCH   1   9
HETATM    9  N1  UNL     1      14.452  -5.905   0.133  1.00  0.00    -0.075 N 
ATOM     10  H13 UNL     1      13.530  -5.738   0.539  1.00  0.00     0.274 HD
ATOM     11  H12 UNL     1      14.265  -6.788  -0.341  1.00  0.00     0.274 HD
ATOM     12  H11 UNL     1      15.157  -6.022   0.861  1.00  0.00     0.274 HD
ENDBRANCH   1   9
BRANCH   1  13
HETATM   13  C9  UNL     1      16.258  -4.600  -0.838  1.00  0.00     0.016 A 
HETATM   14  C10 UNL     1      17.276  -5.656  -0.598  1.00  0.00     0.007 A 
HETATM   15  C11 UNL     1      17.085  -5.115  -2.001  1.00  0.00     0.007 A 
ENDBRANCH   1  13
TORSDOF 8
ENDMDL
