MODEL 1
REMARK VINA RESULT: -4.907415038      0.000      0.000
REMARK  7 active torsions:
REMARK  status: ('A' for Active; 'I' for Inactive)
REMARK    1  A    between atoms: C2_2  and  C3_3 
REMARK    2  A    between atoms: C3_3  and  C4_4 
REMARK    3  A    between atoms: C4_4  and  S1_5 
REMARK    4  A    between atoms: S1_5  and  C5_6 
REMARK    5  A    between atoms: S1_5  and  O1_8 
REMARK    6  A    between atoms: O1_8  and  C7_9 
REMARK    7  A    between atoms: C7_9  and  C8_10 
ROOT
HETATM    1  S1  UNL     1      12.175  -3.411   0.237  1.00  0.00    -0.089 SA
ENDROOT
BRANCH   1   2
HETATM    2  C4  UNL     1      11.205  -2.054  -0.220  1.00  0.00     0.095 C 
BRANCH   2   3
HETATM    3  C3  UNL     1       9.754  -2.330  -0.420  1.00  0.00     0.037 C 
BRANCH   3   4
HETATM    4  C2  UNL     1       9.033  -1.978   0.864  1.00  0.00    -0.036 C 
HETATM    5  C1  UNL     1       7.980  -2.654   1.273  1.00  0.00     0.007 C 
ENDBRANCH   3   4
ENDBRANCH   2   3
ENDBRANCH   1   2
BRANCH   1   6
HETATM    6  C5  UNL     1      11.913  -4.049   1.828  1.00  0.00     0.087 C 
HETATM    7  C6  UNL     1      10.831  -5.130   1.726  1.00  0.00     0.017 C 
ENDBRANCH   1   6
BRANCH   1   8
HETATM    8  O1  UNL     1      13.702  -3.445  -0.328  1.00  0.00    -0.332 OA
BRANCH   8   9
HETATM    9  C7  UNL     1      14.310  -4.672  -0.381  1.00  0.00     0.183 C 
BRANCH   9  10
HETATM   10  C8  UNL     1      15.480  -4.575  -1.365  1.00  0.00     0.023 C 
HETATM   11  C9  UNL     1      16.670  -5.377  -0.847  1.00  0.00     0.007 C 
ENDBRANCH   9  10
ENDBRANCH   8   9
ENDBRANCH   1   8
TORSDOF 7
ENDMDL
MODEL 2
REMARK VINA RESULT: -4.828001317      1.148      5.628
REMARK  7 active torsions:
REMARK  status: ('A' for Active; 'I' for Inactive)
REMARK    1  A    between atoms: C2_2  and  C3_3 
REMARK    2  A    between atoms: C3_3  and  C4_4 
REMARK    3  A    between atoms: C4_4  and  S1_5 
REMARK    4  A    between atoms: S1_5  and  C5_6 
REMARK    5  A    between atoms: S1_5  and  O1_8 
REMARK    6  A    between atoms: O1_8  and  C7_9 
REMARK    7  A    between atoms: C7_9  and  C8_10 
ROOT
HETATM    1  S1  UNL     1      12.180  -2.891   0.369  1.00  0.00    -0.089 SA
ENDROOT
BRANCH   1   2
HETATM    2  C4  UNL     1      13.592  -3.242  -0.566  1.00  0.00     0.095 C 
BRANCH   2   3
HETATM    3  C3  UNL     1      14.190  -4.591  -0.360  1.00  0.00     0.037 C 
BRANCH   3   4
HETATM    4  C2  UNL     1      15.357  -4.734  -1.314  1.00  0.00    -0.036 C 
HETATM    5  C1  UNL     1      16.535  -5.158  -0.907  1.00  0.00     0.007 C 
ENDBRANCH   3   4
ENDBRANCH   2   3
ENDBRANCH   1   2
BRANCH   1   6
HETATM    6  C5  UNL     1      11.916  -3.875   1.772  1.00  0.00     0.087 C 
HETATM    7  C6  UNL     1      10.871  -4.936   1.408  1.00  0.00     0.017 C 
ENDBRANCH   1   6
BRANCH   1   8
HETATM    8  O1  UNL     1      10.858  -2.408  -0.452  1.00  0.00    -0.332 OA
BRANCH   8   9
HETATM    9  C7  UNL     1      10.075  -1.459   0.150  1.00  0.00     0.183 C 
BRANCH   9  10
HETATM   10  C8  UNL     1       8.614  -1.897   0.010  1.00  0.00     0.023 C 
HETATM   11  C9  UNL     1       8.132  -2.543   1.305  1.00  0.00     0.007 C 
ENDBRANCH   9  10
ENDBRANCH   8   9
ENDBRANCH   1   8
TORSDOF 7
ENDMDL
MODEL 3
REMARK VINA RESULT: -4.485691382      1.338      5.878
REMARK  7 active torsions:
REMARK  status: ('A' for Active; 'I' for Inactive)
REMARK    1  A    between atoms: C2_2  and  C3_3 
REMARK    2  A    between atoms: C3_3  and  C4_4 
REMARK    3  A    between atoms: C4_4  and  S1_5 
REMARK    4  A    between atoms: S1_5  and  C5_6 
REMARK    5  A    between atoms: S1_5  and  O1_8 
REMARK    6  A    between atoms: O1_8  and  C7_9 
REMARK    7  A    between atoms: C7_9  and  C8_10 
ROOT
HETATM    1  S1  UNL     1      12.910  -3.985   0.202  1.00  0.00    -0.089 SA
ENDROOT
BRANCH   1   2
HETATM    2  C4  UNL     1      14.080  -5.196  -0.193  1.00  0.00     0.095 C 
BRANCH   2   3
HETATM    3  C3  UNL     1      15.126  -4.794  -1.175  1.00  0.00     0.037 C 
BRANCH   3   4
HETATM    4  C2  UNL     1      16.432  -5.432  -0.751  1.00  0.00    -0.036 C 
HETATM    5  C1  UNL     1      17.558  -5.192  -1.388  1.00  0.00     0.007 C 
ENDBRANCH   3   4
ENDBRANCH   2   3
ENDBRANCH   1   2
BRANCH   1   6
HETATM    6  C5  UNL     1      13.293  -2.359  -0.261  1.00  0.00     0.087 C 
HETATM    7  C6  UNL     1      11.974  -1.634  -0.553  1.00  0.00     0.017 C 
ENDBRANCH   1   6
BRANCH   1   8
HETATM    8  O1  UNL     1      12.094  -4.181   1.598  1.00  0.00    -0.332 OA
BRANCH   8   9
HETATM    9  C7  UNL     1      10.847  -4.741   1.507  1.00  0.00     0.183 C 
BRANCH   9  10
HETATM   10  C8  UNL     1      10.054  -3.953   0.459  1.00  0.00     0.023 C 
HETATM   11  C9  UNL     1       9.042  -3.039   1.144  1.00  0.00     0.007 C 
ENDBRANCH   9  10
ENDBRANCH   8   9
ENDBRANCH   1   8
TORSDOF 7
ENDMDL
MODEL 4
REMARK VINA RESULT: -4.370783245      2.629      4.571
REMARK  7 active torsions:
REMARK  status: ('A' for Active; 'I' for Inactive)
REMARK    1  A    between atoms: C2_2  and  C3_3 
REMARK    2  A    between atoms: C3_3  and  C4_4 
REMARK    3  A    between atoms: C4_4  and  S1_5 
REMARK    4  A    between atoms: S1_5  and  C5_6 
REMARK    5  A    between atoms: S1_5  and  O1_8 
REMARK    6  A    between atoms: O1_8  and  C7_9 
REMARK    7  A    between atoms: C7_9  and  C8_10 
ROOT
HETATM    1  S1  UNL     1       8.920  -1.421   0.670  1.00  0.00    -0.089 SA
ENDROOT
BRANCH   1   2
HETATM    2  C4  UNL     1       7.713  -2.527   1.230  1.00  0.00     0.095 C 
BRANCH   2   3
HETATM    3  C3  UNL     1       6.421  -1.919   1.656  1.00  0.00     0.037 C 
BRANCH   3   4
HETATM    4  C2  UNL     1       5.321  -2.919   1.372  1.00  0.00    -0.036 C 
HETATM    5  C1  UNL     1       4.243  -2.992   2.125  1.00  0.00     0.007 C 
ENDBRANCH   3   4
ENDBRANCH   2   3
ENDBRANCH   1   2
BRANCH   1   6
HETATM    6  C5  UNL     1       8.362   0.134   0.147  1.00  0.00     0.087 C 
HETATM    7  C6  UNL     1       7.569  -0.067  -1.150  1.00  0.00     0.017 C 
ENDBRANCH   1   6
BRANCH   1   8
HETATM    8  O1  UNL     1      10.183  -2.061  -0.136  1.00  0.00    -0.332 OA
BRANCH   8   9
HETATM    9  C7  UNL     1      10.196  -3.424  -0.274  1.00  0.00     0.183 C 
BRANCH   9  10
HETATM   10  C8  UNL     1      11.078  -4.000   0.839  1.00  0.00     0.023 C 
HETATM   11  C9  UNL     1      12.534  -4.045   0.385  1.00  0.00     0.007 C 
ENDBRANCH   9  10
ENDBRANCH   8   9
ENDBRANCH   1   8
TORSDOF 7
ENDMDL
MODEL 5
REMARK VINA RESULT: -4.354281682      2.936      6.862
REMARK  7 active torsions:
REMARK  status: ('A' for Active; 'I' for Inactive)
REMARK    1  A    between atoms: C2_2  and  C3_3 
REMARK    2  A    between atoms: C3_3  and  C4_4 
REMARK    3  A    between atoms: C4_4  and  S1_5 
REMARK    4  A    between atoms: S1_5  and  C5_6 
REMARK    5  A    between atoms: S1_5  and  O1_8 
REMARK    6  A    between atoms: O1_8  and  C7_9 
REMARK    7  A    between atoms: C7_9  and  C8_10 
ROOT
HETATM    1  S1  UNL     1       8.809  -1.779   0.234  1.00  0.00    -0.089 SA
ENDROOT
BRANCH   1   2
HETATM    2  C4  UNL     1      10.467  -2.259   0.127  1.00  0.00     0.095 C 
BRANCH   2   3
HETATM    3  C3  UNL     1      10.719  -3.728   0.118  1.00  0.00     0.037 C 
BRANCH   3   4
HETATM    4  C2  UNL     1      12.046  -3.976   0.804  1.00  0.00    -0.036 C 
HETATM    5  C1  UNL     1      13.125  -4.301   0.123  1.00  0.00     0.007 C 
ENDBRANCH   3   4
ENDBRANCH   2   3
ENDBRANCH   1   2
BRANCH   1   6
HETATM    6  C5  UNL     1       8.489  -0.077   0.148  1.00  0.00     0.087 C 
HETATM    7  C6  UNL     1       7.545   0.161  -1.036  1.00  0.00     0.017 C 
ENDBRANCH   1   6
BRANCH   1   8
HETATM    8  O1  UNL     1       7.852  -2.660   1.215  1.00  0.00    -0.332 OA
BRANCH   8   9
HETATM    9  C7  UNL     1       6.668  -2.085   1.595  1.00  0.00     0.183 C 
BRANCH   9  10
HETATM   10  C8  UNL     1       5.531  -3.005   1.139  1.00  0.00     0.023 C 
HETATM   11  C9  UNL     1       4.381  -2.954   2.140  1.00  0.00     0.007 C 
ENDBRANCH   9  10
ENDBRANCH   8   9
ENDBRANCH   1   8
TORSDOF 7
ENDMDL
