MODEL 1
REMARK VINA RESULT: -5.257385356      0.000      0.000
REMARK  5 active torsions:
REMARK  status: ('A' for Active; 'I' for Inactive)
REMARK    1  A    between atoms: C2_2  and  C3_3 
REMARK    2  A    between atoms: C3_3  and  C4_4 
REMARK    3  A    between atoms: C4_4  and  C5_5 
REMARK    4  A    between atoms: C5_5  and  N1_6 
REMARK    5  A    between atoms: N1_6  and  C6_8 
ROOT
HETATM    1  N1  UNL     1      -9.738  -8.160 -18.012  1.00  0.00    -0.390 N 
ATOM      2  H1  UNL     1     -10.400  -7.899 -17.281  1.00  0.00     0.159 HD
ENDROOT
BRANCH   1   3
HETATM    3  C5  UNL     1      -9.995  -9.310 -18.839  1.00  0.00     0.120 C 
BRANCH   3   4
HETATM    4  C4  UNL     1     -11.504  -9.558 -18.954  1.00  0.00     0.023 C 
BRANCH   4   5
HETATM    5  C3  UNL     1     -11.691 -10.782 -19.794  1.00  0.00     0.028 C 
BRANCH   5   6
HETATM    6  C2  UNL     1     -12.984 -11.473 -19.612  1.00  0.00    -0.037 C 
HETATM    7  C1  UNL     1     -13.160 -12.655 -20.188  1.00  0.00     0.007 C 
ENDBRANCH   5   6
ENDBRANCH   4   5
ENDBRANCH   3   4
ENDBRANCH   1   3
BRANCH   1   8
HETATM    8  C6  UNL     1      -8.561  -7.390 -18.217  1.00  0.00     0.027 A 
HETATM    9  C7  UNL     1      -7.666  -7.135 -19.152  1.00  0.00     0.029 A 
HETATM   10  C8  UNL     1      -6.927  -6.233 -18.293  1.00  0.00     0.004 A 
HETATM   11  C9  UNL     1      -7.801  -6.464 -17.339  1.00  0.00     0.029 A 
ENDBRANCH   1   8
TORSDOF 5
ENDMDL
MODEL 2
REMARK VINA RESULT: -5.231279664      0.892      6.049
REMARK  5 active torsions:
REMARK  status: ('A' for Active; 'I' for Inactive)
REMARK    1  A    between atoms: C2_2  and  C3_3 
REMARK    2  A    between atoms: C3_3  and  C4_4 
REMARK    3  A    between atoms: C4_4  and  C5_5 
REMARK    4  A    between atoms: C5_5  and  N1_6 
REMARK    5  A    between atoms: N1_6  and  C6_8 
ROOT
HETATM    1  N1  UNL     1     -10.885  -8.818 -18.531  1.00  0.00    -0.390 N 
ATOM      2  H1  UNL     1     -11.396  -8.028 -18.136  1.00  0.00     0.159 HD
ENDROOT
BRANCH   1   3
HETATM    3  C5  UNL     1      -9.447  -8.825 -18.515  1.00  0.00     0.120 C 
BRANCH   3   4
HETATM    4  C4  UNL     1      -8.915  -7.582 -17.792  1.00  0.00     0.023 C 
BRANCH   4   5
HETATM    5  C3  UNL     1      -8.065  -6.830 -18.766  1.00  0.00     0.028 C 
BRANCH   5   6
HETATM    6  C2  UNL     1      -6.697  -6.525 -18.296  1.00  0.00    -0.037 C 
HETATM    7  C1  UNL     1      -6.521  -5.501 -17.472  1.00  0.00     0.007 C 
ENDBRANCH   5   6
ENDBRANCH   4   5
ENDBRANCH   3   4
ENDBRANCH   1   3
BRANCH   1   8
HETATM    8  C6  UNL     1     -11.593  -9.914 -19.096  1.00  0.00     0.027 A 
HETATM    9  C7  UNL     1     -11.411 -10.911 -19.941  1.00  0.00     0.029 A 
HETATM   10  C8  UNL     1     -12.767 -11.390 -19.772  1.00  0.00     0.004 A 
HETATM   11  C9  UNL     1     -12.983 -10.409 -18.926  1.00  0.00     0.029 A 
ENDBRANCH   1   8
TORSDOF 5
ENDMDL
MODEL 3
REMARK VINA RESULT: -4.748941980      3.371      7.046
REMARK  5 active torsions:
REMARK  status: ('A' for Active; 'I' for Inactive)
REMARK    1  A    between atoms: C2_2  and  C3_3 
REMARK    2  A    between atoms: C3_3  and  C4_4 
REMARK    3  A    between atoms: C4_4  and  C5_5 
REMARK    4  A    between atoms: C5_5  and  N1_6 
REMARK    5  A    between atoms: N1_6  and  C6_8 
ROOT
HETATM    1  N1  UNL     1      -6.969  -6.728 -18.896  1.00  0.00    -0.390 N 
ATOM      2  H1  UNL     1      -7.074  -6.160 -19.736  1.00  0.00     0.159 HD
ENDROOT
BRANCH   1   3
HETATM    3  C5  UNL     1      -5.659  -6.972 -18.351  1.00  0.00     0.120 C 
BRANCH   3   4
HETATM    4  C4  UNL     1      -5.451  -6.150 -17.073  1.00  0.00     0.023 C 
BRANCH   4   5
HETATM    5  C3  UNL     1      -5.818  -4.735 -17.389  1.00  0.00     0.028 C 
BRANCH   5   6
HETATM    6  C2  UNL     1      -4.684  -3.788 -17.425  1.00  0.00    -0.037 C 
HETATM    7  C1  UNL     1      -4.706  -2.739 -16.614  1.00  0.00     0.007 C 
ENDBRANCH   5   6
ENDBRANCH   4   5
ENDBRANCH   3   4
ENDBRANCH   1   3
BRANCH   1   8
HETATM    8  C6  UNL     1      -8.114  -7.279 -18.260  1.00  0.00     0.027 A 
HETATM    9  C7  UNL     1      -8.792  -8.410 -18.193  1.00  0.00     0.029 A 
HETATM   10  C8  UNL     1      -9.757  -7.855 -17.267  1.00  0.00     0.004 A 
HETATM   11  C9  UNL     1      -9.106  -6.715 -17.310  1.00  0.00     0.029 A 
ENDBRANCH   1   8
TORSDOF 5
ENDMDL
MODEL 4
REMARK VINA RESULT: -4.746210722      3.286      4.301
REMARK  5 active torsions:
REMARK  status: ('A' for Active; 'I' for Inactive)
REMARK    1  A    between atoms: C2_2  and  C3_3 
REMARK    2  A    between atoms: C3_3  and  C4_4 
REMARK    3  A    between atoms: C4_4  and  C5_5 
REMARK    4  A    between atoms: C5_5  and  N1_6 
REMARK    5  A    between atoms: N1_6  and  C6_8 
ROOT
HETATM    1  N1  UNL     1      -5.909  -7.552 -18.414  1.00  0.00    -0.390 N 
ATOM      2  H1  UNL     1      -5.349  -8.349 -18.112  1.00  0.00     0.159 HD
ENDROOT
BRANCH   1   3
HETATM    3  C5  UNL     1      -7.068  -7.759 -19.242  1.00  0.00     0.120 C 
BRANCH   3   4
HETATM    4  C4  UNL     1      -7.873  -8.965 -18.742  1.00  0.00     0.023 C 
BRANCH   4   5
HETATM    5  C3  UNL     1      -9.200  -8.453 -18.279  1.00  0.00     0.028 C 
BRANCH   5   6
HETATM    6  C2  UNL     1      -9.180  -7.755 -16.976  1.00  0.00    -0.037 C 
HETATM    7  C1  UNL     1      -9.706  -6.540 -16.898  1.00  0.00     0.007 C 
ENDBRANCH   5   6
ENDBRANCH   4   5
ENDBRANCH   3   4
ENDBRANCH   1   3
BRANCH   1   8
HETATM    8  C6  UNL     1      -5.547  -6.236 -18.019  1.00  0.00     0.027 A 
HETATM    9  C7  UNL     1      -4.504  -5.426 -18.021  1.00  0.00     0.029 A 
HETATM   10  C8  UNL     1      -5.248  -4.357 -17.388  1.00  0.00     0.004 A 
HETATM   11  C9  UNL     1      -6.306  -5.136 -17.370  1.00  0.00     0.029 A 
ENDBRANCH   1   8
TORSDOF 5
ENDMDL
MODEL 5
REMARK VINA RESULT: -4.743581895      1.054      1.602
REMARK  5 active torsions:
REMARK  status: ('A' for Active; 'I' for Inactive)
REMARK    1  A    between atoms: C2_2  and  C3_3 
REMARK    2  A    between atoms: C3_3  and  C4_4 
REMARK    3  A    between atoms: C4_4  and  C5_5 
REMARK    4  A    between atoms: C5_5  and  N1_6 
REMARK    5  A    between atoms: N1_6  and  C6_8 
ROOT
HETATM    1  N1  UNL     1      -7.833  -8.409 -18.753  1.00  0.00    -0.390 N 
ATOM      2  H1  UNL     1      -7.291  -9.076 -19.303  1.00  0.00     0.159 HD
ENDROOT
BRANCH   1   3
HETATM    3  C5  UNL     1      -9.218  -8.670 -18.466  1.00  0.00     0.120 C 
BRANCH   3   4
HETATM    4  C4  UNL     1      -9.701  -9.904 -19.239  1.00  0.00     0.023 C 
BRANCH   4   5
HETATM    5  C3  UNL     1     -11.196  -9.894 -19.206  1.00  0.00     0.028 C 
BRANCH   5   6
HETATM    6  C2  UNL     1     -11.845 -10.985 -19.961  1.00  0.00    -0.037 C 
HETATM    7  C1  UNL     1     -13.019 -11.439 -19.541  1.00  0.00     0.007 C 
ENDBRANCH   5   6
ENDBRANCH   4   5
ENDBRANCH   3   4
ENDBRANCH   1   3
BRANCH   1   8
HETATM    8  C6  UNL     1      -7.221  -7.221 -18.270  1.00  0.00     0.027 A 
HETATM    9  C7  UNL     1      -7.483  -6.192 -17.486  1.00  0.00     0.029 A 
HETATM   10  C8  UNL     1      -6.178  -5.604 -17.710  1.00  0.00     0.004 A 
HETATM   11  C9  UNL     1      -5.884  -6.614 -18.496  1.00  0.00     0.029 A 
ENDBRANCH   1   8
TORSDOF 5
ENDMDL
