MODEL 1
REMARK VINA RESULT: -5.339857813      0.000      0.000
REMARK  6 active torsions:
REMARK  status: ('A' for Active; 'I' for Inactive)
REMARK    1  A    between atoms: C2_2  and  C3_3 
REMARK    2  A    between atoms: C3_3  and  C4_4 
REMARK    3  A    between atoms: C4_4  and  N1_5 
REMARK    4  A    between atoms: N1_5  and  C5_8 
REMARK    5  A    between atoms: C5_8  and  C6_9 
REMARK    6  A    between atoms: C6_9  and  C7_10 
ROOT
HETATM    1  N1  UNL     1     -10.276  -9.125 -18.723  1.00  0.00    -0.075 N 
ATOM      2  H11 UNL     1      -9.838  -8.843 -19.599  1.00  0.00     0.277 HD
ATOM      3  H12 UNL     1      -9.677  -9.913 -18.476  1.00  0.00     0.277 HD
ENDROOT
BRANCH   1   4
HETATM    4  C4  UNL     1     -11.612  -9.563 -18.949  1.00  0.00     0.236 C 
BRANCH   4   5
HETATM    5  C3  UNL     1     -11.688 -10.801 -19.838  1.00  0.00     0.054 C 
BRANCH   5   6
HETATM    6  C2  UNL     1     -12.987 -11.510 -19.629  1.00  0.00    -0.035 C 
HETATM    7  C1  UNL     1     -13.243 -12.666 -20.243  1.00  0.00     0.007 C 
ENDBRANCH   5   6
ENDBRANCH   4   5
ENDBRANCH   1   4
BRANCH   1   8
HETATM    8  C5  UNL     1     -10.161  -8.071 -17.735  1.00  0.00     0.232 C 
BRANCH   8   9
HETATM    9  C6  UNL     1      -8.712  -7.851 -17.484  1.00  0.00     0.032 C 
BRANCH   9  10
HETATM   10  C7  UNL     1      -8.062  -6.749 -18.263  1.00  0.00    -0.013 C 
HETATM   11  C8  UNL     1      -6.951  -7.396 -19.109  1.00  0.00     0.005 C 
HETATM   12  C9  UNL     1      -6.020  -7.091 -17.922  1.00  0.00     0.001 C 
HETATM   13  C10 UNL     1      -6.987  -5.953 -17.587  1.00  0.00     0.005 C 
ENDBRANCH   9  10
ENDBRANCH   8   9
ENDBRANCH   1   8
TORSDOF 6
ENDMDL
MODEL 2
REMARK VINA RESULT: -5.242610672      0.924      1.128
REMARK  6 active torsions:
REMARK  status: ('A' for Active; 'I' for Inactive)
REMARK    1  A    between atoms: C2_2  and  C3_3 
REMARK    2  A    between atoms: C3_3  and  C4_4 
REMARK    3  A    between atoms: C4_4  and  N1_5 
REMARK    4  A    between atoms: N1_5  and  C5_8 
REMARK    5  A    between atoms: C5_8  and  C6_9 
REMARK    6  A    between atoms: C6_9  and  C7_10 
ROOT
HETATM    1  N1  UNL     1      -9.922  -8.672 -18.370  1.00  0.00    -0.075 N 
ATOM      2  H11 UNL     1     -10.323  -8.747 -17.435  1.00  0.00     0.277 HD
ATOM      3  H12 UNL     1     -10.400  -7.832 -18.696  1.00  0.00     0.277 HD
ENDROOT
BRANCH   1   4
HETATM    4  C4  UNL     1     -10.289  -9.796 -19.164  1.00  0.00     0.236 C 
BRANCH   4   5
HETATM    5  C3  UNL     1     -11.799 -10.004 -19.236  1.00  0.00     0.054 C 
BRANCH   5   6
HETATM    6  C2  UNL     1     -12.114 -11.277 -19.953  1.00  0.00    -0.035 C 
HETATM    7  C1  UNL     1     -13.256 -11.928 -19.726  1.00  0.00     0.007 C 
ENDBRANCH   5   6
ENDBRANCH   4   5
ENDBRANCH   1   4
BRANCH   1   8
HETATM    8  C5  UNL     1      -8.493  -8.447 -18.294  1.00  0.00     0.232 C 
BRANCH   8   9
HETATM    9  C6  UNL     1      -8.286  -7.081 -17.744  1.00  0.00     0.032 C 
BRANCH   9  10
HETATM   10  C7  UNL     1      -7.165  -6.287 -18.342  1.00  0.00    -0.013 C 
HETATM   11  C8  UNL     1      -5.918  -7.190 -18.320  1.00  0.00     0.005 C 
HETATM   12  C9  UNL     1      -5.619  -6.558 -16.948  1.00  0.00     0.001 C 
HETATM   13  C10 UNL     1      -6.415  -5.348 -17.445  1.00  0.00     0.005 C 
ENDBRANCH   9  10
ENDBRANCH   8   9
ENDBRANCH   1   8
TORSDOF 6
ENDMDL
MODEL 3
REMARK VINA RESULT: -5.009345284      3.777      7.315
REMARK  6 active torsions:
REMARK  status: ('A' for Active; 'I' for Inactive)
REMARK    1  A    between atoms: C2_2  and  C3_3 
REMARK    2  A    between atoms: C3_3  and  C4_4 
REMARK    3  A    between atoms: C4_4  and  N1_5 
REMARK    4  A    between atoms: N1_5  and  C5_8 
REMARK    5  A    between atoms: C5_8  and  C6_9 
REMARK    6  A    between atoms: C6_9  and  C7_10 
ROOT
HETATM    1  N1  UNL     1      -4.262  -6.353 -17.768  1.00  0.00    -0.075 N 
ATOM      2  H11 UNL     1      -3.873  -7.197 -17.347  1.00  0.00     0.277 HD
ATOM      3  H12 UNL     1      -3.404  -5.921 -18.111  1.00  0.00     0.277 HD
ENDROOT
BRANCH   1   4
HETATM    4  C4  UNL     1      -4.871  -5.533 -16.776  1.00  0.00     0.236 C 
BRANCH   4   5
HETATM    5  C3  UNL     1      -5.694  -4.394 -17.369  1.00  0.00     0.054 C 
BRANCH   5   6
HETATM    6  C2  UNL     1      -4.895  -3.132 -17.390  1.00  0.00    -0.035 C 
HETATM    7  C1  UNL     1      -4.276  -2.694 -16.293  1.00  0.00     0.007 C 
ENDBRANCH   5   6
ENDBRANCH   4   5
ENDBRANCH   1   4
BRANCH   1   8
HETATM    8  C5  UNL     1      -5.137  -6.691 -18.871  1.00  0.00     0.232 C 
BRANCH   8   9
HETATM    9  C6  UNL     1      -5.960  -7.855 -18.447  1.00  0.00     0.032 C 
BRANCH   9  10
HETATM   10  C7  UNL     1      -7.291  -8.007 -19.117  1.00  0.00    -0.013 C 
HETATM   11  C8  UNL     1      -8.032  -6.669 -18.947  1.00  0.00     0.005 C 
HETATM   12  C9  UNL     1      -8.621  -7.284 -17.663  1.00  0.00     0.001 C 
HETATM   13  C10 UNL     1      -8.401  -8.642 -18.335  1.00  0.00     0.005 C 
ENDBRANCH   9  10
ENDBRANCH   8   9
ENDBRANCH   1   8
TORSDOF 6
ENDMDL
MODEL 4
REMARK VINA RESULT: -4.812168708      3.805      6.367
REMARK  6 active torsions:
REMARK  status: ('A' for Active; 'I' for Inactive)
REMARK    1  A    between atoms: C2_2  and  C3_3 
REMARK    2  A    between atoms: C3_3  and  C4_4 
REMARK    3  A    between atoms: C4_4  and  N1_5 
REMARK    4  A    between atoms: N1_5  and  C5_8 
REMARK    5  A    between atoms: C5_8  and  C6_9 
REMARK    6  A    between atoms: C6_9  and  C7_10 
ROOT
HETATM    1  N1  UNL     1      -4.904  -5.629 -17.138  1.00  0.00    -0.075 N 
ATOM      2  H11 UNL     1      -4.535  -5.114 -16.339  1.00  0.00     0.277 HD
ATOM      3  H12 UNL     1      -4.953  -6.564 -16.733  1.00  0.00     0.277 HD
ENDROOT
BRANCH   1   4
HETATM    4  C4  UNL     1      -3.982  -5.601 -18.222  1.00  0.00     0.236 C 
BRANCH   4   5
HETATM    5  C3  UNL     1      -3.821  -6.957 -18.901  1.00  0.00     0.054 C 
BRANCH   5   6
HETATM    6  C2  UNL     1      -3.960  -8.059 -17.901  1.00  0.00    -0.035 C 
HETATM    7  C1  UNL     1      -3.691  -9.323 -18.231  1.00  0.00     0.007 C 
ENDBRANCH   5   6
ENDBRANCH   4   5
ENDBRANCH   1   4
BRANCH   1   8
HETATM    8  C5  UNL     1      -6.230  -5.154 -17.479  1.00  0.00     0.232 C 
BRANCH   8   9
HETATM    9  C6  UNL     1      -7.170  -6.293 -17.307  1.00  0.00     0.032 C 
BRANCH   9  10
HETATM   10  C7  UNL     1      -7.966  -6.686 -18.513  1.00  0.00    -0.013 C 
HETATM   11  C8  UNL     1      -8.958  -7.772 -18.058  1.00  0.00     0.005 C 
HETATM   12  C9  UNL     1      -7.869  -8.782 -18.461  1.00  0.00     0.001 C 
HETATM   13  C10 UNL     1      -7.379  -7.710 -19.437  1.00  0.00     0.005 C 
ENDBRANCH   9  10
ENDBRANCH   8   9
ENDBRANCH   1   8
TORSDOF 6
ENDMDL
MODEL 5
REMARK VINA RESULT: -4.803446278      3.600      7.811
REMARK  6 active torsions:
REMARK  status: ('A' for Active; 'I' for Inactive)
REMARK    1  A    between atoms: C2_2  and  C3_3 
REMARK    2  A    between atoms: C3_3  and  C4_4 
REMARK    3  A    between atoms: C4_4  and  N1_5 
REMARK    4  A    between atoms: N1_5  and  C5_8 
REMARK    5  A    between atoms: C5_8  and  C6_9 
REMARK    6  A    between atoms: C6_9  and  C7_10 
ROOT
HETATM    1  N1  UNL     1      -5.119  -5.670 -17.039  1.00  0.00    -0.075 N 
ATOM      2  H11 UNL     1      -5.009  -5.768 -16.030  1.00  0.00     0.277 HD
ATOM      3  H12 UNL     1      -4.729  -6.563 -17.343  1.00  0.00     0.277 HD
ENDROOT
BRANCH   1   4
HETATM    4  C4  UNL     1      -4.332  -4.589 -17.527  1.00  0.00     0.236 C 
BRANCH   4   5
HETATM    5  C3  UNL     1      -4.997  -3.231 -17.325  1.00  0.00     0.054 C 
BRANCH   5   6
HETATM    6  C2  UNL     1      -4.367  -2.510 -16.177  1.00  0.00    -0.035 C 
HETATM    7  C1  UNL     1      -3.105  -2.756 -15.822  1.00  0.00     0.007 C 
ENDBRANCH   5   6
ENDBRANCH   4   5
ENDBRANCH   1   4
BRANCH   1   8
HETATM    8  C5  UNL     1      -6.522  -5.583 -17.391  1.00  0.00     0.232 C 
BRANCH   8   9
HETATM    9  C6  UNL     1      -6.831  -6.733 -18.283  1.00  0.00     0.032 C 
BRANCH   9  10
HETATM   10  C7  UNL     1      -8.277  -6.957 -18.602  1.00  0.00    -0.013 C 
HETATM   11  C8  UNL     1      -9.076  -6.567 -17.345  1.00  0.00     0.005 C 
HETATM   12  C9  UNL     1      -8.948  -8.047 -16.939  1.00  0.00     0.001 C 
HETATM   13  C10 UNL     1      -8.825  -8.342 -18.436  1.00  0.00     0.005 C 
ENDBRANCH   9  10
ENDBRANCH   8   9
ENDBRANCH   1   8
TORSDOF 6
ENDMDL
