MODEL 1
REMARK VINA RESULT: -5.127883650      0.000      0.000
REMARK  5 active torsions:
REMARK  status: ('A' for Active; 'I' for Inactive)
REMARK    1  A    between atoms: C2_2  and  C3_3 
REMARK    2  A    between atoms: C4_4  and  C5_5 
REMARK    3  A    between atoms: C5_5  and  N1_6 
REMARK    4  A    between atoms: N1_6  and  C6_9 
REMARK    5  A    between atoms: C6_9  and  C7_10 
ROOT
HETATM    1  N1  UNL     1      -9.544  -9.096 -18.788  1.00  0.00    -0.072 N 
ATOM      2  H11 UNL     1      -9.380  -8.973 -19.788  1.00  0.00     0.277 HD
ATOM      3  H12 UNL     1      -9.467 -10.112 -18.739  1.00  0.00     0.277 HD
ENDROOT
BRANCH   1   4
HETATM    4  C5  UNL     1     -10.866  -8.648 -18.410  1.00  0.00     0.259 C 
BRANCH   4   5
HETATM    5  C4  UNL     1     -11.938  -9.570 -18.799  1.00  0.00    -0.004 C 
HETATM    6  C3  UNL     1     -11.854 -10.654 -19.547  1.00  0.00    -0.029 C 
BRANCH   6   7
HETATM    7  C2  UNL     1     -13.078 -11.483 -19.844  1.00  0.00     0.022 C 
HETATM    8  C1  UNL     1     -12.553 -12.828 -20.329  1.00  0.00     0.009 C 
ENDBRANCH   6   7
ENDBRANCH   4   5
ENDBRANCH   1   4
BRANCH   1   9
HETATM    9  C6  UNL     1      -8.506  -8.444 -17.994  1.00  0.00     0.237 C 
BRANCH   9  10
HETATM   10  C7  UNL     1      -8.003  -7.195 -18.662  1.00  0.00     0.011 A 
HETATM   11  C8  UNL     1      -7.378  -6.180 -17.664  1.00  0.00     0.007 A 
HETATM   12  C9  UNL     1      -6.566  -6.859 -18.723  1.00  0.00     0.007 A 
ENDBRANCH   9  10
ENDBRANCH   1   9
TORSDOF 5
ENDMDL
MODEL 2
REMARK VINA RESULT: -4.789633069      1.444      2.394
REMARK  5 active torsions:
REMARK  status: ('A' for Active; 'I' for Inactive)
REMARK    1  A    between atoms: C2_2  and  C3_3 
REMARK    2  A    between atoms: C4_4  and  C5_5 
REMARK    3  A    between atoms: C5_5  and  N1_6 
REMARK    4  A    between atoms: N1_6  and  C6_9 
REMARK    5  A    between atoms: C6_9  and  C7_10 
ROOT
HETATM    1  N1  UNL     1      -8.110  -7.016 -18.885  1.00  0.00    -0.072 N 
ATOM      2  H11 UNL     1      -8.721  -6.203 -18.809  1.00  0.00     0.277 HD
ATOM      3  H12 UNL     1      -8.279  -7.251 -19.862  1.00  0.00     0.277 HD
ENDROOT
BRANCH   1   4
HETATM    4  C5  UNL     1      -8.537  -8.082 -18.004  1.00  0.00     0.259 C 
BRANCH   4   5
HETATM    5  C4  UNL     1      -9.944  -8.457 -18.168  1.00  0.00    -0.004 C 
HETATM    6  C3  UNL     1     -10.455  -9.409 -18.926  1.00  0.00    -0.029 C 
BRANCH   6   7
HETATM    7  C2  UNL     1     -11.943  -9.647 -18.968  1.00  0.00     0.022 C 
HETATM    8  C1  UNL     1     -12.126 -10.969 -19.703  1.00  0.00     0.009 C 
ENDBRANCH   6   7
ENDBRANCH   4   5
ENDBRANCH   1   4
BRANCH   1   9
HETATM    9  C6  UNL     1      -6.712  -6.656 -18.657  1.00  0.00     0.237 C 
BRANCH   9  10
HETATM   10  C7  UNL     1      -6.554  -5.821 -17.417  1.00  0.00     0.011 A 
HETATM   11  C8  UNL     1      -5.080  -5.729 -16.930  1.00  0.00     0.007 A 
HETATM   12  C9  UNL     1      -5.831  -4.532 -17.424  1.00  0.00     0.007 A 
ENDBRANCH   9  10
ENDBRANCH   1   9
TORSDOF 5
ENDMDL
MODEL 3
REMARK VINA RESULT: -4.747696211      3.213      7.502
REMARK  5 active torsions:
REMARK  status: ('A' for Active; 'I' for Inactive)
REMARK    1  A    between atoms: C2_2  and  C3_3 
REMARK    2  A    between atoms: C4_4  and  C5_5 
REMARK    3  A    between atoms: C5_5  and  N1_6 
REMARK    4  A    between atoms: N1_6  and  C6_9 
REMARK    5  A    between atoms: C6_9  and  C7_10 
ROOT
HETATM    1  N1  UNL     1      -6.432  -7.055 -18.867  1.00  0.00    -0.072 N 
ATOM      2  H11 UNL     1      -6.113  -7.989 -19.123  1.00  0.00     0.277 HD
ATOM      3  H12 UNL     1      -5.998  -6.526 -19.623  1.00  0.00     0.277 HD
ENDROOT
BRANCH   1   4
HETATM    4  C5  UNL     1      -5.913  -6.654 -17.577  1.00  0.00     0.259 C 
BRANCH   4   5
HETATM    5  C4  UNL     1      -5.867  -5.202 -17.383  1.00  0.00    -0.004 C 
HETATM    6  C3  UNL     1      -4.811  -4.410 -17.372  1.00  0.00    -0.029 C 
BRANCH   6   7
HETATM    7  C2  UNL     1      -4.962  -2.926 -17.151  1.00  0.00     0.022 C 
HETATM    8  C1  UNL     1      -3.923  -2.560 -16.098  1.00  0.00     0.009 C 
ENDBRANCH   6   7
ENDBRANCH   4   5
ENDBRANCH   1   4
BRANCH   1   9
HETATM    9  C6  UNL     1      -7.889  -6.956 -18.915  1.00  0.00     0.237 C 
BRANCH   9  10
HETATM   10  C7  UNL     1      -8.528  -7.674 -17.759  1.00  0.00     0.011 A 
HETATM   11  C8  UNL     1      -9.585  -6.809 -17.015  1.00  0.00     0.007 A 
HETATM   12  C9  UNL     1      -9.956  -8.054 -17.761  1.00  0.00     0.007 A 
ENDBRANCH   9  10
ENDBRANCH   1   9
TORSDOF 5
ENDMDL
MODEL 4
REMARK VINA RESULT: -4.694093867      0.898      6.123
REMARK  5 active torsions:
REMARK  status: ('A' for Active; 'I' for Inactive)
REMARK    1  A    between atoms: C2_2  and  C3_3 
REMARK    2  A    between atoms: C4_4  and  C5_5 
REMARK    3  A    between atoms: C5_5  and  N1_6 
REMARK    4  A    between atoms: N1_6  and  C6_9 
REMARK    5  A    between atoms: C6_9  and  C7_10 
ROOT
HETATM    1  N1  UNL     1     -10.112  -9.000 -18.759  1.00  0.00    -0.072 N 
ATOM      2  H11 UNL     1      -9.509  -9.814 -18.641  1.00  0.00     0.277 HD
ATOM      3  H12 UNL     1      -9.764  -8.674 -19.660  1.00  0.00     0.277 HD
ENDROOT
BRANCH   1   4
HETATM    4  C5  UNL     1      -9.886  -8.020 -17.719  1.00  0.00     0.259 C 
BRANCH   4   5
HETATM    5  C4  UNL     1      -8.525  -7.474 -17.706  1.00  0.00    -0.004 C 
HETATM    6  C3  UNL     1      -7.807  -7.042 -18.726  1.00  0.00    -0.029 C 
BRANCH   6   7
HETATM    7  C2  UNL     1      -6.411  -6.514 -18.517  1.00  0.00     0.022 C 
HETATM    8  C1  UNL     1      -6.521  -5.502 -17.383  1.00  0.00     0.009 C 
ENDBRANCH   6   7
ENDBRANCH   4   5
ENDBRANCH   1   4
BRANCH   1   9
HETATM    9  C6  UNL     1     -11.519  -9.385 -18.839  1.00  0.00     0.237 C 
BRANCH   9  10
HETATM   10  C7  UNL     1     -11.683 -10.756 -19.433  1.00  0.00     0.011 A 
HETATM   11  C8  UNL     1     -13.132 -11.306 -19.303  1.00  0.00     0.007 A 
HETATM   12  C9  UNL     1     -12.512 -11.001 -20.631  1.00  0.00     0.007 A 
ENDBRANCH   9  10
ENDBRANCH   1   9
TORSDOF 5
ENDMDL
MODEL 5
REMARK VINA RESULT: -4.667333705      3.513      7.508
REMARK  5 active torsions:
REMARK  status: ('A' for Active; 'I' for Inactive)
REMARK    1  A    between atoms: C2_2  and  C3_3 
REMARK    2  A    between atoms: C4_4  and  C5_5 
REMARK    3  A    between atoms: C5_5  and  N1_6 
REMARK    4  A    between atoms: N1_6  and  C6_9 
REMARK    5  A    between atoms: C6_9  and  C7_10 
ROOT
HETATM    1  N1  UNL     1      -5.669  -7.107 -18.907  1.00  0.00    -0.072 N 
ATOM      2  H11 UNL     1      -5.025  -7.490 -19.598  1.00  0.00     0.277 HD
ATOM      3  H12 UNL     1      -5.980  -6.282 -19.421  1.00  0.00     0.277 HD
ENDROOT
BRANCH   1   4
HETATM    4  C5  UNL     1      -4.980  -6.741 -17.689  1.00  0.00     0.259 C 
BRANCH   4   5
HETATM    5  C4  UNL     1      -4.706  -5.305 -17.572  1.00  0.00    -0.004 C 
HETATM    6  C3  UNL     1      -5.565  -4.319 -17.396  1.00  0.00    -0.029 C 
BRANCH   6   7
HETATM    7  C2  UNL     1      -5.091  -2.891 -17.303  1.00  0.00     0.022 C 
HETATM    8  C1  UNL     1      -3.968  -2.898 -16.273  1.00  0.00     0.009 C 
ENDBRANCH   6   7
ENDBRANCH   4   5
ENDBRANCH   1   4
BRANCH   1   9
HETATM    9  C6  UNL     1      -6.778  -8.021 -18.645  1.00  0.00     0.237 C 
BRANCH   9  10
HETATM   10  C7  UNL     1      -8.100  -7.308 -18.677  1.00  0.00     0.011 A 
HETATM   11  C8  UNL     1      -9.218  -8.063 -17.903  1.00  0.00     0.007 A 
HETATM   12  C9  UNL     1      -8.710  -6.725 -17.464  1.00  0.00     0.007 A 
ENDBRANCH   9  10
ENDBRANCH   1   9
TORSDOF 5
ENDMDL
