MODEL 1
REMARK VINA RESULT: -5.908506253      0.000      0.000
REMARK  4 active torsions:
REMARK  status: ('A' for Active; 'I' for Inactive)
REMARK    1  A    between atoms: C5_6  and  N1_7 
REMARK    2  A    between atoms: N1_7  and  C6_9 
REMARK    3  A    between atoms: C6_9  and  N2_11 
REMARK    4  A    between atoms: N2_11  and  C7_13 
ROOT
HETATM    1  N1  UNL     1       6.801  -3.579  20.794  1.00  0.00    -0.332 N 
ATOM      2  H1  UNL     1       6.423  -2.641  20.934  1.00  0.00     0.168 HD
ENDROOT
BRANCH   1   3
HETATM    3  C5  UNL     1       7.487  -4.142  21.932  1.00  0.00     0.047 A 
HETATM    4  C2  UNL     1       8.678  -3.624  22.359  1.00  0.00    -0.028 A 
HETATM    5  C1  UNL     1       9.360  -2.417  21.705  1.00  0.00     0.051 C 
HETATM    6  C3  UNL     1       9.268  -4.220  23.422  1.00  0.00     0.058 A 
HETATM    7  S1  UNL     1       8.222  -5.468  23.839  1.00  0.00    -0.111 SA
HETATM    8  C4  UNL     1       7.012  -5.214  22.626  1.00  0.00     0.079 A 
ENDBRANCH   1   3
BRANCH   1   9
HETATM    9  C6  UNL     1       6.578  -4.120  19.539  1.00  0.00     0.173 C 
HETATM   10  S2  UNL     1       5.527  -5.319  19.234  1.00  0.00    -0.041 SA
BRANCH   9  11
HETATM   11  N2  UNL     1       7.330  -3.567  18.411  1.00  0.00    -0.345 N 
ATOM     12  H2  UNL     1       6.939  -2.797  17.869  1.00  0.00     0.163 HD
BRANCH  11  13
HETATM   13  C7  UNL     1       8.609  -4.101  18.066  1.00  0.00     0.102 C 
HETATM   14  C8  UNL     1       8.633  -4.728  16.691  1.00  0.00     0.056 C 
HETATM   15  C9  UNL     1       9.627  -2.995  18.114  1.00  0.00     0.056 C 
HETATM   16 CL1  UNL     1       9.091  -5.361  19.223  1.00  0.00    -0.096 Cl
ENDBRANCH  11  13
ENDBRANCH   9  11
ENDBRANCH   1   9
TORSDOF 4
ENDMDL
MODEL 2
REMARK VINA RESULT: -5.891104488      2.678      3.445
REMARK  4 active torsions:
REMARK  status: ('A' for Active; 'I' for Inactive)
REMARK    1  A    between atoms: C5_6  and  N1_7 
REMARK    2  A    between atoms: N1_7  and  C6_9 
REMARK    3  A    between atoms: C6_9  and  N2_11 
REMARK    4  A    between atoms: N2_11  and  C7_13 
ROOT
HETATM    1  N1  UNL     1       7.593  -3.025  23.683  1.00  0.00    -0.332 N 
ATOM      2  H1  UNL     1       7.255  -2.167  24.119  1.00  0.00     0.168 HD
ENDROOT
BRANCH   1   3
HETATM    3  C5  UNL     1       7.501  -4.209  24.504  1.00  0.00     0.047 A 
HETATM    4  C2  UNL     1       8.563  -4.621  25.261  1.00  0.00    -0.028 A 
HETATM    5  C1  UNL     1       9.898  -3.871  25.327  1.00  0.00     0.051 C 
HETATM    6  C3  UNL     1       8.404  -5.751  25.990  1.00  0.00     0.058 A 
HETATM    7  S1  UNL     1       6.834  -6.251  25.654  1.00  0.00    -0.111 SA
HETATM    8  C4  UNL     1       6.383  -4.984  24.561  1.00  0.00     0.079 A 
ENDBRANCH   1   3
BRANCH   1   9
HETATM    9  C6  UNL     1       8.071  -2.881  22.392  1.00  0.00     0.173 C 
HETATM   10  S2  UNL     1       9.485  -2.179  22.014  1.00  0.00    -0.041 SA
BRANCH   9  11
HETATM   11  N2  UNL     1       7.255  -3.406  21.296  1.00  0.00    -0.345 N 
ATOM     12  H2  UNL     1       6.397  -2.926  21.027  1.00  0.00     0.163 HD
BRANCH  11  13
HETATM   13  C7  UNL     1       7.655  -4.589  20.601  1.00  0.00     0.102 C 
HETATM   14  C8  UNL     1       8.437  -5.544  21.472  1.00  0.00     0.056 C 
HETATM   15  C9  UNL     1       6.428  -5.291  20.089  1.00  0.00     0.056 C 
HETATM   16 CL1  UNL     1       8.689  -4.178  19.216  1.00  0.00    -0.096 Cl
ENDBRANCH  11  13
ENDBRANCH   9  11
ENDBRANCH   1   9
TORSDOF 4
ENDMDL
MODEL 3
REMARK VINA RESULT: -5.850547499      2.165      3.214
REMARK  4 active torsions:
REMARK  status: ('A' for Active; 'I' for Inactive)
REMARK    1  A    between atoms: C5_6  and  N1_7 
REMARK    2  A    between atoms: N1_7  and  C6_9 
REMARK    3  A    between atoms: C6_9  and  N2_11 
REMARK    4  A    between atoms: N2_11  and  C7_13 
ROOT
HETATM    1  N1  UNL     1       9.307  -4.235  22.998  1.00  0.00    -0.332 N 
ATOM      2  H1  UNL     1      10.268  -4.460  22.739  1.00  0.00     0.168 HD
ENDROOT
BRANCH   1   3
HETATM    3  C5  UNL     1       8.755  -5.034  24.065  1.00  0.00     0.047 A 
HETATM    4  C2  UNL     1       9.184  -4.874  25.354  1.00  0.00    -0.028 A 
HETATM    5  C1  UNL     1      10.238  -3.844  25.775  1.00  0.00     0.051 C 
HETATM    6  C3  UNL     1       8.629  -5.674  26.296  1.00  0.00     0.058 A 
HETATM    7  S1  UNL     1       7.540  -6.632  25.447  1.00  0.00    -0.111 SA
HETATM    8  C4  UNL     1       7.806  -5.989  23.860  1.00  0.00     0.079 A 
ENDBRANCH   1   3
BRANCH   1   9
HETATM    9  C6  UNL     1       8.728  -3.208  22.272  1.00  0.00     0.173 C 
HETATM   10  S2  UNL     1       7.927  -1.961  22.932  1.00  0.00    -0.041 SA
BRANCH   9  11
HETATM   11  N2  UNL     1       8.856  -3.242  20.813  1.00  0.00    -0.345 N 
ATOM     12  H2  UNL     1       9.467  -2.576  20.342  1.00  0.00     0.163 HD
BRANCH  11  13
HETATM   13  C7  UNL     1       8.130  -4.206  20.048  1.00  0.00     0.102 C 
HETATM   14  C8  UNL     1       6.643  -4.167  20.314  1.00  0.00     0.056 C 
HETATM   15  C9  UNL     1       8.370  -3.947  18.586  1.00  0.00     0.056 C 
HETATM   16 CL1  UNL     1       8.687  -5.850  20.428  1.00  0.00    -0.096 Cl
ENDBRANCH  11  13
ENDBRANCH   9  11
ENDBRANCH   1   9
TORSDOF 4
ENDMDL
MODEL 4
REMARK VINA RESULT: -5.754468542      2.829      5.162
REMARK  4 active torsions:
REMARK  status: ('A' for Active; 'I' for Inactive)
REMARK    1  A    between atoms: C5_6  and  N1_7 
REMARK    2  A    between atoms: N1_7  and  C6_9 
REMARK    3  A    between atoms: C6_9  and  N2_11 
REMARK    4  A    between atoms: N2_11  and  C7_13 
ROOT
HETATM    1  N1  UNL     1       6.535  -4.273  17.483  1.00  0.00    -0.332 N 
ATOM      2  H1  UNL     1       6.054  -3.391  17.304  1.00  0.00     0.168 HD
ENDROOT
BRANCH   1   3
HETATM    3  C5  UNL     1       5.689  -5.444  17.489  1.00  0.00     0.047 A 
HETATM    4  C2  UNL     1       5.331  -6.055  16.319  1.00  0.00    -0.028 A 
HETATM    5  C1  UNL     1       5.802  -5.585  14.938  1.00  0.00     0.051 C 
HETATM    6  C3  UNL     1       4.522  -7.137  16.408  1.00  0.00     0.058 A 
HETATM    7  S1  UNL     1       4.248  -7.325  18.056  1.00  0.00    -0.111 SA
HETATM    8  C4  UNL     1       5.191  -5.990  18.632  1.00  0.00     0.079 A 
ENDBRANCH   1   3
BRANCH   1   9
HETATM    9  C6  UNL     1       7.900  -4.169  17.684  1.00  0.00     0.173 C 
HETATM   10  S2  UNL     1       9.021  -4.815  16.704  1.00  0.00    -0.041 SA
BRANCH   9  11
HETATM   11  N2  UNL     1       8.365  -3.416  18.851  1.00  0.00    -0.345 N 
ATOM     12  H2  UNL     1       8.728  -2.470  18.733  1.00  0.00     0.163 HD
BRANCH  11  13
HETATM   13  C7  UNL     1       8.312  -4.000  20.154  1.00  0.00     0.102 C 
HETATM   14  C8  UNL     1       8.603  -5.483  20.145  1.00  0.00     0.056 C 
HETATM   15  C9  UNL     1       9.318  -3.313  21.036  1.00  0.00     0.056 C 
HETATM   16 CL1  UNL     1       6.699  -3.788  20.867  1.00  0.00    -0.096 Cl
ENDBRANCH  11  13
ENDBRANCH   9  11
ENDBRANCH   1   9
TORSDOF 4
ENDMDL
MODEL 5
REMARK VINA RESULT: -5.752384836      2.394      5.188
REMARK  4 active torsions:
REMARK  status: ('A' for Active; 'I' for Inactive)
REMARK    1  A    between atoms: C5_6  and  N1_7 
REMARK    2  A    between atoms: N1_7  and  C6_9 
REMARK    3  A    between atoms: C6_9  and  N2_11 
REMARK    4  A    between atoms: N2_11  and  C7_13 
ROOT
HETATM    1  N1  UNL     1       8.405  -5.401  20.663  1.00  0.00    -0.332 N 
ATOM      2  H1  UNL     1       8.869  -6.293  20.491  1.00  0.00     0.168 HD
ENDROOT
BRANCH   1   3
HETATM    3  C5  UNL     1       7.386  -5.044  19.705  1.00  0.00     0.047 A 
HETATM    4  C2  UNL     1       7.715  -4.436  18.525  1.00  0.00    -0.028 A 
HETATM    5  C1  UNL     1       9.155  -4.113  18.111  1.00  0.00     0.051 C 
HETATM    6  C3  UNL     1       6.700  -4.116  17.687  1.00  0.00     0.058 A 
HETATM    7  S1  UNL     1       5.315  -4.632  18.488  1.00  0.00    -0.111 SA
HETATM    8  C4  UNL     1       6.060  -5.267  19.918  1.00  0.00     0.079 A 
ENDBRANCH   1   3
BRANCH   1   9
HETATM    9  C6  UNL     1       8.847  -4.713  21.780  1.00  0.00     0.173 C 
HETATM   10  S2  UNL     1       9.065  -3.105  21.837  1.00  0.00    -0.041 SA
BRANCH   9  11
HETATM   11  N2  UNL     1       9.125  -5.483  22.994  1.00  0.00    -0.345 N 
ATOM     12  H2  UNL     1       9.982  -6.030  23.063  1.00  0.00     0.163 HD
BRANCH  11  13
HETATM   13  C7  UNL     1       8.199  -5.472  24.082  1.00  0.00     0.102 C 
HETATM   14  C8  UNL     1       7.954  -6.847  24.658  1.00  0.00     0.056 C 
HETATM   15  C9  UNL     1       8.735  -4.579  25.167  1.00  0.00     0.056 C 
HETATM   16 CL1  UNL     1       6.625  -4.837  23.555  1.00  0.00    -0.096 Cl
ENDBRANCH  11  13
ENDBRANCH   9  11
ENDBRANCH   1   9
TORSDOF 4
ENDMDL
