MODEL 1
REMARK VINA RESULT: -8.125341065      0.000      0.000
REMARK  2 active torsions:
REMARK  status: ('A' for Active; 'I' for Inactive)
REMARK    1  A    between atoms: N1_2  and  N2_3 
REMARK    2  A    between atoms: N2_3  and  C2_4 
ROOT
HETATM    1  C2  UNL     1       5.713  -5.536  16.085  1.00  0.00     0.124 C 
HETATM    2  C3  UNL     1       5.806  -5.390  14.594  1.00  0.00     0.027 C 
HETATM    3  C4  UNL     1       6.870  -4.351  14.215  1.00  0.00     0.002 C 
HETATM    4  C5  UNL     1       8.197  -5.093  14.430  1.00  0.00     0.004 C 
HETATM    5  C6  UNL     1       8.191  -5.725  15.802  1.00  0.00     0.036 C 
HETATM    6  C7  UNL     1       7.098  -5.249  16.638  1.00  0.00    -0.051 C 
HETATM    7  C8  UNL     1       7.195  -4.685  17.798  1.00  0.00    -0.033 C 
HETATM    8  C9  UNL     1       5.881  -4.370  18.507  1.00  0.00     0.040 C 
HETATM    9  C10 UNL     1       6.168  -4.175  19.977  1.00  0.00     0.005 C 
HETATM   10  C11 UNL     1       6.888  -5.342  20.557  1.00  0.00     0.004 C 
HETATM   11  C12 UNL     1       8.380  -5.164  20.704  1.00  0.00     0.029 C 
HETATM   12  C13 UNL     1       9.004  -4.577  19.502  1.00  0.00    -0.002 C 
HETATM   13  C14 UNL     1       8.526  -4.373  18.293  1.00  0.00     0.036 C 
HETATM   14 CL1  UNL     1       9.592  -3.590  17.107  1.00  0.00    -0.084 Cl
ENDROOT
BRANCH   1  15
HETATM   15  N2  UNL     1       5.438  -6.893  16.438  1.00  0.00    -0.140 NA
BRANCH  15  16
HETATM   16  N1  UNL     1       4.136  -7.141  16.780  1.00  0.00    -0.153 NA
HETATM   17  C1  UNL     1       4.128  -7.777  18.092  1.00  0.00     0.154 C 
ENDBRANCH  15  16
ENDBRANCH   1  15
TORSDOF 2
ENDMDL
MODEL 2
REMARK VINA RESULT: -7.802872843      2.801      5.901
REMARK  2 active torsions:
REMARK  status: ('A' for Active; 'I' for Inactive)
REMARK    1  A    between atoms: N1_2  and  N2_3 
REMARK    2  A    between atoms: N2_3  and  C2_4 
ROOT
HETATM    1  C2  UNL     1       7.263  -4.983  16.179  1.00  0.00     0.124 C 
HETATM    2  C3  UNL     1       6.753  -4.638  17.548  1.00  0.00     0.027 C 
HETATM    3  C4  UNL     1       5.256  -4.306  17.503  1.00  0.00     0.002 C 
HETATM    4  C5  UNL     1       4.581  -5.679  17.374  1.00  0.00     0.004 C 
HETATM    5  C6  UNL     1       5.235  -6.446  16.249  1.00  0.00     0.036 C 
HETATM    6  C7  UNL     1       6.102  -5.613  15.428  1.00  0.00    -0.051 C 
HETATM    7  C8  UNL     1       6.016  -5.421  14.151  1.00  0.00    -0.033 C 
HETATM    8  C9  UNL     1       7.117  -4.574  13.520  1.00  0.00     0.040 C 
HETATM    9  C10 UNL     1       7.134  -4.846  12.035  1.00  0.00     0.005 C 
HETATM   10  C11 UNL     1       7.266  -6.300  11.742  1.00  0.00     0.004 C 
HETATM   11  C12 UNL     1       5.973  -7.002  11.398  1.00  0.00     0.029 C 
HETATM   12  C13 UNL     1       4.871  -6.643  12.312  1.00  0.00    -0.002 C 
HETATM   13  C14 UNL     1       4.874  -5.990  13.454  1.00  0.00     0.036 C 
HETATM   14 CL1  UNL     1       3.310  -5.717  14.251  1.00  0.00    -0.084 Cl
ENDROOT
BRANCH   1  15
HETATM   15  N2  UNL     1       8.260  -6.003  16.258  1.00  0.00    -0.140 NA
BRANCH  15  16
HETATM   16  N1  UNL     1       9.542  -5.564  16.064  1.00  0.00    -0.153 NA
HETATM   17  C1  UNL     1       9.641  -4.211  16.597  1.00  0.00     0.154 C 
ENDBRANCH  15  16
ENDBRANCH   1  15
TORSDOF 2
ENDMDL
MODEL 3
REMARK VINA RESULT: -7.579496068      2.581      4.651
REMARK  2 active torsions:
REMARK  status: ('A' for Active; 'I' for Inactive)
REMARK    1  A    between atoms: N1_2  and  N2_3 
REMARK    2  A    between atoms: N2_3  and  C2_4 
ROOT
HETATM    1  C2  UNL     1       7.225  -5.060  16.747  1.00  0.00     0.124 C 
HETATM    2  C3  UNL     1       8.632  -4.919  16.243  1.00  0.00     0.027 C 
HETATM    3  C4  UNL     1       8.797  -5.618  14.887  1.00  0.00     0.002 C 
HETATM    4  C5  UNL     1       8.130  -4.654  13.897  1.00  0.00     0.004 C 
HETATM    5  C6  UNL     1       6.759  -4.287  14.414  1.00  0.00     0.036 C 
HETATM    6  C7  UNL     1       6.330  -5.129  15.522  1.00  0.00    -0.051 C 
HETATM    7  C8  UNL     1       5.258  -5.852  15.580  1.00  0.00    -0.033 C 
HETATM    8  C9  UNL     1       4.997  -6.565  16.903  1.00  0.00     0.040 C 
HETATM    9  C10 UNL     1       3.537  -6.946  16.958  1.00  0.00     0.005 C 
HETATM   10  C11 UNL     1       2.652  -5.769  16.736  1.00  0.00     0.004 C 
HETATM   11  C12 UNL     1       2.100  -5.640  15.337  1.00  0.00     0.029 C 
HETATM   12  C13 UNL     1       3.127  -5.857  14.299  1.00  0.00    -0.002 C 
HETATM   13  C14 UNL     1       4.437  -5.947  14.384  1.00  0.00     0.036 C 
HETATM   14 CL1  UNL     1       5.341  -6.259  12.888  1.00  0.00    -0.084 Cl
ENDROOT
BRANCH   1  15
HETATM   15  N2  UNL     1       6.823  -3.879  17.443  1.00  0.00    -0.140 NA
BRANCH  15  16
HETATM   16  N1  UNL     1       7.275  -3.795  18.733  1.00  0.00    -0.153 NA
HETATM   17  C1  UNL     1       6.218  -4.281  19.612  1.00  0.00     0.154 C 
ENDBRANCH  15  16
ENDBRANCH   1  15
TORSDOF 2
ENDMDL
MODEL 4
REMARK VINA RESULT: -7.057122884      4.591      7.394
REMARK  2 active torsions:
REMARK  status: ('A' for Active; 'I' for Inactive)
REMARK    1  A    between atoms: N1_2  and  N2_3 
REMARK    2  A    between atoms: N2_3  and  C2_4 
ROOT
HETATM    1  C2  UNL     1       8.395  -5.321  24.657  1.00  0.00     0.124 C 
HETATM    2  C3  UNL     1       9.175  -4.797  25.826  1.00  0.00     0.027 C 
HETATM    3  C4  UNL     1      10.292  -3.855  25.356  1.00  0.00     0.002 C 
HETATM    4  C5  UNL     1       9.552  -2.556  25.008  1.00  0.00     0.004 C 
HETATM    5  C6  UNL     1       8.386  -2.881  24.104  1.00  0.00     0.036 C 
HETATM    6  C7  UNL     1       8.434  -4.242  23.588  1.00  0.00    -0.051 C 
HETATM    7  C8  UNL     1       8.439  -4.603  22.345  1.00  0.00    -0.033 C 
HETATM    8  C9  UNL     1       8.394  -6.105  22.080  1.00  0.00     0.040 C 
HETATM    9  C10 UNL     1       7.935  -6.323  20.658  1.00  0.00     0.005 C 
HETATM   10  C11 UNL     1       6.643  -5.635  20.384  1.00  0.00     0.004 C 
HETATM   11  C12 UNL     1       6.764  -4.313  19.665  1.00  0.00     0.029 C 
HETATM   12  C13 UNL     1       7.824  -3.454  20.228  1.00  0.00    -0.002 C 
HETATM   13  C14 UNL     1       8.526  -3.562  21.335  1.00  0.00     0.036 C 
HETATM   14 CL1  UNL     1       9.764  -2.327  21.650  1.00  0.00    -0.084 Cl
ENDROOT
BRANCH   1  15
HETATM   15  N2  UNL     1       7.015  -5.463  25.000  1.00  0.00    -0.140 NA
BRANCH  15  16
HETATM   16  N1  UNL     1       6.704  -6.631  25.643  1.00  0.00    -0.153 NA
HETATM   17  C1  UNL     1       5.412  -6.455  26.296  1.00  0.00     0.154 C 
ENDBRANCH  15  16
ENDBRANCH   1  15
TORSDOF 2
ENDMDL
MODEL 5
REMARK VINA RESULT: -6.915919738      4.180      6.860
REMARK  2 active torsions:
REMARK  status: ('A' for Active; 'I' for Inactive)
REMARK    1  A    between atoms: N1_2  and  N2_3 
REMARK    2  A    between atoms: N2_3  and  C2_4 
ROOT
HETATM    1  C2  UNL     1       7.836  -4.485  24.174  1.00  0.00     0.124 C 
HETATM    2  C3  UNL     1       8.536  -3.672  25.223  1.00  0.00     0.027 C 
HETATM    3  C4  UNL     1       9.774  -2.979  24.638  1.00  0.00     0.002 C 
HETATM    4  C5  UNL     1       9.190  -1.810  23.832  1.00  0.00     0.004 C 
HETATM    5  C6  UNL     1       8.098  -2.332  22.928  1.00  0.00     0.036 C 
HETATM    6  C7  UNL     1       8.079  -3.786  22.848  1.00  0.00    -0.051 C 
HETATM    7  C8  UNL     1       8.180  -4.507  21.778  1.00  0.00    -0.033 C 
HETATM    8  C9  UNL     1       8.031  -6.014  21.965  1.00  0.00     0.040 C 
HETATM    9  C10 UNL     1       7.702  -6.629  20.625  1.00  0.00     0.005 C 
HETATM   10  C11 UNL     1       6.511  -5.990  20.002  1.00  0.00     0.004 C 
HETATM   11  C12 UNL     1       6.819  -4.957  18.945  1.00  0.00     0.029 C 
HETATM   12  C13 UNL     1       7.888  -4.025  19.356  1.00  0.00    -0.002 C 
HETATM   13  C14 UNL     1       8.461  -3.828  20.524  1.00  0.00     0.036 C 
HETATM   14 CL1  UNL     1       9.763  -2.623  20.610  1.00  0.00    -0.084 Cl
ENDROOT
BRANCH   1  15
HETATM   15  N2  UNL     1       6.422  -4.443  24.370  1.00  0.00    -0.140 NA
BRANCH  15  16
HETATM   16  N1  UNL     1       5.942  -5.360  25.266  1.00  0.00    -0.153 NA
HETATM   17  C1  UNL     1       6.924  -6.431  25.383  1.00  0.00     0.154 C 
ENDBRANCH  15  16
ENDBRANCH   1  15
TORSDOF 2
ENDMDL
