MODEL 1
REMARK VINA RESULT: -8.690545609      0.000      0.000
REMARK  2 active torsions:
REMARK  status: ('A' for Active; 'I' for Inactive)
REMARK    1  A    between atoms: C4_7  and  N2_8 
REMARK    2  A    between atoms: N2_8  and  C5_10 
ROOT
HETATM    1  C1  UNL     1       9.047  -3.447  19.417  1.00  0.00     0.070 C 
HETATM    2  C2  UNL     1       8.439  -4.148  18.268  1.00  0.00     0.030 A 
HETATM    3  N1  UNL     1       9.137  -4.479  17.172  1.00  0.00    -0.324 N 
ATOM      4  H1  UNL     1      10.127  -4.234  17.135  1.00  0.00     0.169 HD
HETATM    5  C3  UNL     1       8.598  -5.115  16.122  1.00  0.00     0.272 A 
HETATM    6  O1  UNL     1       9.364  -5.379  15.138  1.00  0.00    -0.266 OA
HETATM    7  C4  UNL     1       7.276  -5.461  16.126  1.00  0.00     0.105 A 
HETATM    8  C11 UNL     1       6.512  -5.148  17.223  1.00  0.00    -0.006 A 
HETATM    9  C12 UNL     1       5.091  -5.499  17.272  1.00  0.00     0.052 C 
HETATM   10  C13 UNL     1       7.093  -4.495  18.284  1.00  0.00     0.064 A 
HETATM   11 CL1  UNL     1       6.094  -4.104  19.679  1.00  0.00    -0.082 Cl
ENDROOT
BRANCH   7  12
HETATM   12  N2  UNL     1       6.685  -6.127  15.011  1.00  0.00    -0.380 N 
ATOM     13  H2  UNL     1       6.657  -7.146  15.033  1.00  0.00     0.160 HD
BRANCH  12  14
HETATM   14  C5  UNL     1       6.123  -5.474  13.856  1.00  0.00     0.082 C 
HETATM   15  C6  UNL     1       4.780  -6.082  13.542  1.00  0.00     0.025 C 
HETATM   16  C7  UNL     1       4.577  -6.048  12.058  1.00  0.00     0.002 C 
HETATM   17  C8  UNL     1       5.620  -6.994  11.451  1.00  0.00     0.000 C 
HETATM   18  C9  UNL     1       6.959  -6.386  11.659  1.00  0.00     0.002 C 
HETATM   19  C10 UNL     1       7.007  -5.305  12.691  1.00  0.00     0.025 C 
ENDBRANCH  12  14
ENDBRANCH   7  12
TORSDOF 2
ENDMDL
MODEL 2
REMARK VINA RESULT: -8.423249362      1.936      2.383
REMARK  2 active torsions:
REMARK  status: ('A' for Active; 'I' for Inactive)
REMARK    1  A    between atoms: C4_7  and  N2_8 
REMARK    2  A    between atoms: N2_8  and  C5_10 
ROOT
HETATM    1  C1  UNL     1       6.494  -4.057  20.074  1.00  0.00     0.070 C 
HETATM    2  C2  UNL     1       6.493  -4.621  18.709  1.00  0.00     0.030 A 
HETATM    3  N1  UNL     1       5.417  -5.213  18.172  1.00  0.00    -0.324 N 
ATOM      4  H1  UNL     1       4.567  -5.274  18.733  1.00  0.00     0.169 HD
HETATM    5  C3  UNL     1       5.403  -5.729  16.934  1.00  0.00     0.272 A 
HETATM    6  O1  UNL     1       4.318  -6.265  16.533  1.00  0.00    -0.266 OA
HETATM    7  C4  UNL     1       6.519  -5.671  16.148  1.00  0.00     0.105 A 
HETATM    8  C11 UNL     1       7.652  -5.076  16.645  1.00  0.00    -0.006 A 
HETATM    9  C12 UNL     1       8.870  -4.991  15.839  1.00  0.00     0.052 C 
HETATM   10  C13 UNL     1       7.634  -4.556  17.918  1.00  0.00     0.064 A 
HETATM   11 CL1  UNL     1       9.098  -3.797  18.534  1.00  0.00    -0.082 Cl
ENDROOT
BRANCH   7  12
HETATM   12  N2  UNL     1       6.524  -6.228  14.834  1.00  0.00    -0.380 N 
ATOM     13  H2  UNL     1       6.938  -7.153  14.717  1.00  0.00     0.160 HD
BRANCH  12  14
HETATM   14  C5  UNL     1       5.991  -5.588  13.658  1.00  0.00     0.082 C 
HETATM   15  C6  UNL     1       4.696  -6.254  13.269  1.00  0.00     0.025 C 
HETATM   16  C7  UNL     1       4.567  -6.211  11.778  1.00  0.00     0.002 C 
HETATM   17  C8  UNL     1       5.683  -7.101  11.215  1.00  0.00     0.000 C 
HETATM   18  C9  UNL     1       6.979  -6.434  11.498  1.00  0.00     0.002 C 
HETATM   19  C10 UNL     1       6.924  -5.364  12.542  1.00  0.00     0.025 C 
ENDBRANCH  12  14
ENDBRANCH   7  12
TORSDOF 2
ENDMDL
MODEL 3
REMARK VINA RESULT: -8.209373095      1.803      2.699
REMARK  2 active torsions:
REMARK  status: ('A' for Active; 'I' for Inactive)
REMARK    1  A    between atoms: C4_7  and  N2_8 
REMARK    2  A    between atoms: N2_8  and  C5_10 
ROOT
HETATM    1  C1  UNL     1       9.348  -3.893  21.879  1.00  0.00     0.070 C 
HETATM    2  C2  UNL     1       8.665  -3.987  20.573  1.00  0.00     0.030 A 
HETATM    3  N1  UNL     1       9.227  -3.563  19.432  1.00  0.00    -0.324 N 
ATOM      4  H1  UNL     1      10.163  -3.160  19.473  1.00  0.00     0.169 HD
HETATM    5  C3  UNL     1       8.619  -3.642  18.239  1.00  0.00     0.272 A 
HETATM    6  O1  UNL     1       9.255  -3.208  17.224  1.00  0.00    -0.266 OA
HETATM    7  C4  UNL     1       7.363  -4.172  18.137  1.00  0.00     0.105 A 
HETATM    8  C11 UNL     1       6.738  -4.623  19.273  1.00  0.00    -0.006 A 
HETATM    9  C12 UNL     1       5.393  -5.198  19.212  1.00  0.00     0.052 C 
HETATM   10  C13 UNL     1       7.388  -4.528  20.481  1.00  0.00     0.064 A 
HETATM   11 CL1  UNL     1       6.568  -5.112  21.924  1.00  0.00    -0.082 Cl
ENDROOT
BRANCH   7  12
HETATM   12  N2  UNL     1       6.697  -4.250  16.877  1.00  0.00    -0.380 N 
ATOM     13  H2  UNL     1       6.073  -3.483  16.627  1.00  0.00     0.160 HD
BRANCH  12  14
HETATM   14  C5  UNL     1       6.834  -5.327  15.930  1.00  0.00     0.082 C 
HETATM   15  C6  UNL     1       6.958  -4.758  14.540  1.00  0.00     0.025 C 
HETATM   16  C7  UNL     1       6.317  -5.710  13.577  1.00  0.00     0.002 C 
HETATM   17  C8  UNL     1       4.817  -5.717  13.898  1.00  0.00     0.000 C 
HETATM   18  C9  UNL     1       4.641  -6.354  15.227  1.00  0.00     0.002 C 
HETATM   19  C10 UNL     1       5.885  -6.446  16.053  1.00  0.00     0.025 C 
ENDBRANCH  12  14
ENDBRANCH   7  12
TORSDOF 2
ENDMDL
MODEL 4
REMARK VINA RESULT: -8.195671128      3.059      4.320
REMARK  2 active torsions:
REMARK  status: ('A' for Active; 'I' for Inactive)
REMARK    1  A    between atoms: C4_7  and  N2_8 
REMARK    2  A    between atoms: N2_8  and  C5_10 
ROOT
HETATM    1  C1  UNL     1       9.895  -2.366  22.703  1.00  0.00     0.070 C 
HETATM    2  C2  UNL     1       9.434  -3.047  21.477  1.00  0.00     0.030 A 
HETATM    3  N1  UNL     1       9.502  -2.477  20.265  1.00  0.00    -0.324 N 
ATOM      4  H1  UNL     1       9.888  -1.536  20.193  1.00  0.00     0.169 HD
HETATM    5  C3  UNL     1       9.086  -3.084  19.144  1.00  0.00     0.272 A 
HETATM    6  O1  UNL     1       9.204  -2.442  18.049  1.00  0.00    -0.266 OA
HETATM    7  C4  UNL     1       8.559  -4.344  19.193  1.00  0.00     0.105 A 
HETATM    8  C11 UNL     1       8.465  -4.977  20.408  1.00  0.00    -0.006 A 
HETATM    9  C12 UNL     1       7.908  -6.327  20.509  1.00  0.00     0.052 C 
HETATM   10  C13 UNL     1       8.900  -4.329  21.539  1.00  0.00     0.064 A 
HETATM   11 CL1  UNL     1       8.770  -5.160  23.085  1.00  0.00    -0.082 Cl
ENDROOT
BRANCH   7  12
HETATM   12  N2  UNL     1       8.100  -4.998  18.010  1.00  0.00    -0.380 N 
ATOM     13  H2  UNL     1       8.695  -5.727  17.616  1.00  0.00     0.160 HD
BRANCH  12  14
HETATM   14  C5  UNL     1       6.863  -4.711  17.329  1.00  0.00     0.082 C 
HETATM   15  C6  UNL     1       5.793  -4.401  18.344  1.00  0.00     0.025 C 
HETATM   16  C7  UNL     1       4.478  -4.883  17.812  1.00  0.00     0.002 C 
HETATM   17  C8  UNL     1       4.566  -6.413  17.746  1.00  0.00     0.000 C 
HETATM   18  C9  UNL     1       5.549  -6.765  16.689  1.00  0.00     0.002 C 
HETATM   19  C10 UNL     1       6.453  -5.650  16.271  1.00  0.00     0.025 C 
ENDBRANCH  12  14
ENDBRANCH   7  12
TORSDOF 2
ENDMDL
MODEL 5
REMARK VINA RESULT: -8.173061514      4.029      6.100
REMARK  2 active torsions:
REMARK  status: ('A' for Active; 'I' for Inactive)
REMARK    1  A    between atoms: C4_7  and  N2_8 
REMARK    2  A    between atoms: N2_8  and  C5_10 
ROOT
HETATM    1  C1  UNL     1       8.744  -5.450  25.697  1.00  0.00     0.070 C 
HETATM    2  C2  UNL     1       8.680  -5.311  24.229  1.00  0.00     0.030 A 
HETATM    3  N1  UNL     1       8.273  -6.305  23.425  1.00  0.00    -0.324 N 
ATOM      4  H1  UNL     1       7.998  -7.190  23.851  1.00  0.00     0.169 HD
HETATM    5  C3  UNL     1       8.211  -6.192  22.091  1.00  0.00     0.272 A 
HETATM    6  O1  UNL     1       7.805  -7.206  21.433  1.00  0.00    -0.266 OA
HETATM    7  C4  UNL     1       8.571  -5.025  21.477  1.00  0.00     0.105 A 
HETATM    8  C11 UNL     1       8.996  -3.972  22.249  1.00  0.00    -0.006 A 
HETATM    9  C12 UNL     1       9.392  -2.704  21.636  1.00  0.00     0.052 C 
HETATM   10  C13 UNL     1       9.049  -4.119  23.615  1.00  0.00     0.064 A 
HETATM   11 CL1  UNL     1       9.596  -2.757  24.585  1.00  0.00    -0.082 Cl
ENDROOT
BRANCH   7  12
HETATM   12  N2  UNL     1       8.524  -4.894  20.056  1.00  0.00    -0.380 N 
ATOM     13  H2  UNL     1       9.244  -5.373  19.516  1.00  0.00     0.160 HD
BRANCH  12  14
HETATM   14  C5  UNL     1       7.539  -4.139  19.324  1.00  0.00     0.082 C 
HETATM   15  C6  UNL     1       6.161  -4.637  19.678  1.00  0.00     0.025 C 
HETATM   16  C7  UNL     1       5.282  -4.502  18.472  1.00  0.00     0.002 C 
HETATM   17  C8  UNL     1       5.827  -5.477  17.421  1.00  0.00     0.000 C 
HETATM   18  C9  UNL     1       7.150  -4.971  16.977  1.00  0.00     0.002 C 
HETATM   19  C10 UNL     1       7.776  -3.959  17.882  1.00  0.00     0.025 C 
ENDBRANCH  12  14
ENDBRANCH   7  12
TORSDOF 2
ENDMDL
