MODEL 1
REMARK VINA RESULT: -8.148202738      0.000      0.000
REMARK  4 active torsions:
REMARK  status: ('A' for Active; 'I' for Inactive)
REMARK    1  A    between atoms: C4_5  and  C5_6 
REMARK    2  A    between atoms: C5_6  and  C6_7 
REMARK    3  A    between atoms: C12_13  and  O1_14 
REMARK    4  A    between atoms: C13_16  and  O2_17 
ROOT
HETATM    1  C1  UNL     1       7.236  -2.771  24.707  1.00  0.00     0.018 C 
HETATM    2  C2  UNL     1       8.452  -3.003  23.846  1.00  0.00     0.058 C 
HETATM    3  C3  UNL     1       8.177  -3.942  22.730  1.00  0.00     0.023 C 
HETATM    4 CL1  UNL     1       7.040  -5.319  22.857  1.00  0.00    -0.088 Cl
HETATM    5  C4  UNL     1       8.858  -3.565  21.676  1.00  0.00    -0.030 C 
HETATM    6  C12 UNL     1       9.639  -2.296  22.000  1.00  0.00     0.178 C 
HETATM    7  C13 UNL     1       8.804  -1.722  23.136  1.00  0.00     0.160 C 
ENDROOT
BRANCH   5   8
HETATM    8  C5  UNL     1       8.958  -4.123  20.342  1.00  0.00     0.043 C 
BRANCH   8   9
HETATM    9  C6  UNL     1       7.931  -3.886  19.325  1.00  0.00    -0.011 C 
HETATM   10  C7  UNL     1       6.506  -4.151  19.718  1.00  0.00     0.005 C 
HETATM   11  C8  UNL     1       6.040  -5.493  19.107  1.00  0.00     0.000 C 
HETATM   12  C9  UNL     1       5.928  -5.334  17.605  1.00  0.00     0.000 C 
HETATM   13  C10 UNL     1       7.197  -4.741  17.088  1.00  0.00     0.000 C 
HETATM   14  C11 UNL     1       8.315  -4.743  18.106  1.00  0.00     0.005 C 
ENDBRANCH   8   9
ENDBRANCH   5   8
BRANCH   6  15
HETATM   15  O1  UNL     1       9.444  -1.440  20.922  1.00  0.00    -0.389 OA
ATOM     16  H1  UNL     1       9.802  -0.601  21.186  1.00  0.00     0.210 HD
ENDBRANCH   6  15
BRANCH   7  17
HETATM   17  O2  UNL     1       7.624  -1.182  22.626  1.00  0.00    -0.392 OA
ATOM     18  H2  UNL     1       7.525  -1.495  21.734  1.00  0.00     0.210 HD
ENDBRANCH   7  17
TORSDOF 4
ENDMDL
MODEL 2
REMARK VINA RESULT: -8.078459118      4.608      6.764
REMARK  4 active torsions:
REMARK  status: ('A' for Active; 'I' for Inactive)
REMARK    1  A    between atoms: C4_5  and  C5_6 
REMARK    2  A    between atoms: C5_6  and  C6_7 
REMARK    3  A    between atoms: C12_13  and  O1_14 
REMARK    4  A    between atoms: C13_16  and  O2_17 
ROOT
HETATM    1  C1  UNL     1       6.673  -4.599  19.461  1.00  0.00     0.018 C 
HETATM    2  C2  UNL     1       5.623  -4.625  18.380  1.00  0.00     0.058 C 
HETATM    3  C3  UNL     1       6.170  -5.085  17.079  1.00  0.00     0.023 C 
HETATM    4 CL1  UNL     1       7.839  -4.740  16.534  1.00  0.00    -0.088 Cl
HETATM    5  C4  UNL     1       5.258  -5.792  16.457  1.00  0.00    -0.030 C 
HETATM    6  C12 UNL     1       4.008  -5.888  17.325  1.00  0.00     0.178 C 
HETATM    7  C13 UNL     1       4.599  -5.678  18.712  1.00  0.00     0.160 C 
ENDROOT
BRANCH   5   8
HETATM    8  C5  UNL     1       5.267  -6.460  15.172  1.00  0.00     0.043 C 
BRANCH   8   9
HETATM    9  C6  UNL     1       5.446  -5.724  13.919  1.00  0.00    -0.011 C 
HETATM   10  C7  UNL     1       4.651  -6.189  12.733  1.00  0.00     0.005 C 
HETATM   11  C8  UNL     1       5.567  -6.984  11.773  1.00  0.00     0.000 C 
HETATM   12  C9  UNL     1       6.555  -6.028  11.135  1.00  0.00     0.000 C 
HETATM   13  C10 UNL     1       7.209  -5.224  12.209  1.00  0.00     0.000 C 
HETATM   14  C11 UNL     1       6.951  -5.763  13.598  1.00  0.00     0.005 C 
ENDBRANCH   8   9
ENDBRANCH   5   8
BRANCH   6  15
HETATM   15  O1  UNL     1       3.614  -7.220  17.283  1.00  0.00    -0.389 OA
ATOM     16  H1  UNL     1       3.099  -7.366  18.068  1.00  0.00     0.210 HD
ENDBRANCH   6  15
BRANCH   7  17
HETATM   17  O2  UNL     1       5.285  -6.825  19.110  1.00  0.00    -0.392 OA
ATOM     18  H2  UNL     1       4.682  -7.362  19.612  1.00  0.00     0.210 HD
ENDBRANCH   7  17
TORSDOF 4
ENDMDL
MODEL 3
REMARK VINA RESULT: -8.011149681      3.799      5.912
REMARK  4 active torsions:
REMARK  status: ('A' for Active; 'I' for Inactive)
REMARK    1  A    between atoms: C4_5  and  C5_6 
REMARK    2  A    between atoms: C5_6  and  C6_7 
REMARK    3  A    between atoms: C12_13  and  O1_14 
REMARK    4  A    between atoms: C13_16  and  O2_17 
ROOT
HETATM    1  C1  UNL     1       6.971  -4.212  19.881  1.00  0.00     0.018 C 
HETATM    2  C2  UNL     1       7.339  -4.992  18.644  1.00  0.00     0.058 C 
HETATM    3  C3  UNL     1       6.361  -4.794  17.546  1.00  0.00     0.023 C 
HETATM    4 CL1  UNL     1       4.609  -4.548  17.818  1.00  0.00    -0.088 Cl
HETATM    5  C4  UNL     1       6.998  -4.790  16.401  1.00  0.00    -0.030 C 
HETATM    6  C12 UNL     1       8.494  -4.961  16.648  1.00  0.00     0.178 C 
HETATM    7  C13 UNL     1       8.615  -4.434  18.071  1.00  0.00     0.160 C 
ENDROOT
BRANCH   5   8
HETATM    8  C5  UNL     1       6.531  -4.642  15.037  1.00  0.00     0.043 C 
BRANCH   8   9
HETATM    9  C6  UNL     1       6.562  -5.753  14.084  1.00  0.00    -0.011 C 
HETATM   10  C7  UNL     1       7.586  -5.684  12.987  1.00  0.00     0.005 C 
HETATM   11  C8  UNL     1       6.901  -5.271  11.663  1.00  0.00     0.000 C 
HETATM   12  C9  UNL     1       6.014  -6.407  11.196  1.00  0.00     0.000 C 
HETATM   13  C10 UNL     1       5.137  -6.829  12.327  1.00  0.00     0.000 C 
HETATM   14  C11 UNL     1       5.148  -5.858  13.486  1.00  0.00     0.005 C 
ENDBRANCH   8   9
ENDBRANCH   5   8
BRANCH   6  15
HETATM   15  O1  UNL     1       9.125  -4.020  15.844  1.00  0.00    -0.389 OA
ATOM     16  H1  UNL     1       9.874  -3.713  16.340  1.00  0.00     0.210 HD
ENDBRANCH   6  15
BRANCH   7  17
HETATM   17  O2  UNL     1       8.506  -3.044  18.069  1.00  0.00    -0.392 OA
ATOM     18  H2  UNL     1       9.371  -2.687  17.906  1.00  0.00     0.210 HD
ENDBRANCH   7  17
TORSDOF 4
ENDMDL
MODEL 4
REMARK VINA RESULT: -7.941857904      2.762      4.531
REMARK  4 active torsions:
REMARK  status: ('A' for Active; 'I' for Inactive)
REMARK    1  A    between atoms: C4_5  and  C5_6 
REMARK    2  A    between atoms: C5_6  and  C6_7 
REMARK    3  A    between atoms: C12_13  and  O1_14 
REMARK    4  A    between atoms: C13_16  and  O2_17 
ROOT
HETATM    1  C1  UNL     1       7.178  -5.176  21.410  1.00  0.00     0.018 C 
HETATM    2  C2  UNL     1       7.758  -5.498  20.056  1.00  0.00     0.058 C 
HETATM    3  C3  UNL     1       6.765  -5.324  18.966  1.00  0.00     0.023 C 
HETATM    4 CL1  UNL     1       5.017  -5.654  19.163  1.00  0.00    -0.088 Cl
HETATM    5  C4  UNL     1       7.375  -4.864  17.901  1.00  0.00    -0.030 C 
HETATM    6  C12 UNL     1       8.855  -4.662  18.208  1.00  0.00     0.178 C 
HETATM    7  C13 UNL     1       8.817  -4.481  19.719  1.00  0.00     0.160 C 
ENDROOT
BRANCH   5   8
HETATM    8  C5  UNL     1       6.886  -4.529  16.579  1.00  0.00     0.043 C 
BRANCH   8   9
HETATM    9  C6  UNL     1       7.094  -5.412  15.430  1.00  0.00    -0.011 C 
HETATM   10  C7  UNL     1       8.299  -5.146  14.574  1.00  0.00     0.005 C 
HETATM   11  C8  UNL     1       7.863  -4.438  13.270  1.00  0.00     0.000 C 
HETATM   12  C9  UNL     1       7.081  -5.418  12.418  1.00  0.00     0.000 C 
HETATM   13  C10 UNL     1       6.016  -6.042  13.258  1.00  0.00     0.000 C 
HETATM   14  C11 UNL     1       5.812  -5.340  14.582  1.00  0.00     0.005 C 
ENDBRANCH   8   9
ENDBRANCH   5   8
BRANCH   6  15
HETATM   15  O1  UNL     1       9.186  -3.416  17.690  1.00  0.00    -0.389 OA
ATOM     16  H1  UNL     1       8.668  -3.314  16.900  1.00  0.00     0.210 HD
ENDBRANCH   6  15
BRANCH   7  17
HETATM   17  O2  UNL     1       8.308  -3.221  20.030  1.00  0.00    -0.392 OA
ATOM     18  H2  UNL     1       8.962  -2.765  20.547  1.00  0.00     0.210 HD
ENDBRANCH   7  17
TORSDOF 4
ENDMDL
MODEL 5
REMARK VINA RESULT: -7.834408467      2.356      2.765
REMARK  4 active torsions:
REMARK  status: ('A' for Active; 'I' for Inactive)
REMARK    1  A    between atoms: C4_5  and  C5_6 
REMARK    2  A    between atoms: C5_6  and  C6_7 
REMARK    3  A    between atoms: C12_13  and  O1_14 
REMARK    4  A    between atoms: C13_16  and  O2_17 
ROOT
HETATM    1  C1  UNL     1       8.307  -3.490  24.194  1.00  0.00     0.018 C 
HETATM    2  C2  UNL     1       7.712  -3.988  22.901  1.00  0.00     0.058 C 
HETATM    3  C3  UNL     1       8.485  -3.535  21.718  1.00  0.00     0.023 C 
HETATM    4 CL1  UNL     1       9.319  -1.955  21.632  1.00  0.00    -0.088 Cl
HETATM    5  C4  UNL     1       8.476  -4.482  20.813  1.00  0.00    -0.030 C 
HETATM    6  C12 UNL     1       7.702  -5.686  21.341  1.00  0.00     0.178 C 
HETATM    7  C13 UNL     1       7.845  -5.488  22.843  1.00  0.00     0.160 C 
ENDROOT
BRANCH   5   8
HETATM    8  C5  UNL     1       9.062  -4.558  19.490  1.00  0.00     0.043 C 
BRANCH   8   9
HETATM    9  C6  UNL     1       8.345  -4.101  18.298  1.00  0.00    -0.011 C 
HETATM   10  C7  UNL     1       6.845  -4.065  18.374  1.00  0.00     0.005 C 
HETATM   11  C8  UNL     1       6.258  -5.273  17.608  1.00  0.00     0.000 C 
HETATM   12  C9  UNL     1       6.503  -5.078  16.125  1.00  0.00     0.000 C 
HETATM   13  C10 UNL     1       7.946  -4.758  15.914  1.00  0.00     0.000 C 
HETATM   14  C11 UNL     1       8.798  -5.005  17.138  1.00  0.00     0.005 C 
ENDBRANCH   8   9
ENDBRANCH   5   8
BRANCH   6  15
HETATM   15  O1  UNL     1       8.472  -6.801  21.034  1.00  0.00    -0.389 OA
ATOM     16  H1  UNL     1       8.646  -6.751  20.102  1.00  0.00     0.210 HD
ENDBRANCH   6  15
BRANCH   7  17
HETATM   17  O2  UNL     1       9.142  -5.813  23.239  1.00  0.00    -0.392 OA
ATOM     18  H2  UNL     1       9.077  -6.388  23.993  1.00  0.00     0.210 HD
ENDBRANCH   7  17
TORSDOF 4
ENDMDL
