MODEL 1
REMARK VINA RESULT: -7.963930237      0.000      0.000
REMARK  3 active torsions:
REMARK  status: ('A' for Active; 'I' for Inactive)
REMARK    1  A    between atoms: C2_2  and  C4_4 
REMARK    2  A    between atoms: C6_8  and  N2_9 
REMARK    3  A    between atoms: N2_9  and  C7_11 
ROOT
HETATM    1  C4  UNL     1       6.227  -5.232  13.009  1.00  0.00     0.032 C 
HETATM    2  C5  UNL     1       7.662  -4.788  13.003  1.00  0.00     0.128 C 
HETATM    3  N1  UNL     1       8.063  -4.925  14.383  1.00  0.00    -0.378 N 
ATOM      4  H1  UNL     1       9.031  -4.856  14.699  1.00  0.00     0.160 HD
HETATM    5  C6  UNL     1       7.073  -5.143  15.172  1.00  0.00     0.092 C 
HETATM    6  C13 UNL     1       5.776  -5.193  14.435  1.00  0.00     0.155 C 
HETATM    7 CL1  UNL     1       4.803  -6.595  14.899  1.00  0.00    -0.116 Cl
ENDROOT
BRANCH   5   8
HETATM    8  N2  UNL     1       7.259  -5.306  16.571  1.00  0.00    -0.374 N 
ATOM      9  H2  UNL     1       7.675  -6.172  16.914  1.00  0.00     0.161 HD
BRANCH   8  10
HETATM   10  C7  UNL     1       6.880  -4.293  17.524  1.00  0.00     0.082 C 
HETATM   11  C8  UNL     1       5.460  -4.452  18.017  1.00  0.00     0.025 C 
HETATM   12  C9  UNL     1       5.342  -5.594  18.992  1.00  0.00     0.002 C 
HETATM   13  C10 UNL     1       6.160  -5.301  20.229  1.00  0.00     0.000 C 
HETATM   14  C11 UNL     1       7.100  -4.148  20.019  1.00  0.00     0.002 C 
HETATM   15  C12 UNL     1       7.816  -4.214  18.685  1.00  0.00     0.025 C 
ENDBRANCH   8  10
ENDBRANCH   5   8
BRANCH   1  16
HETATM   16  C2  UNL     1       5.990  -6.522  12.315  1.00  0.00    -0.015 C 
HETATM   17  C1  UNL     1       4.627  -6.488  11.662  1.00  0.00     0.010 C 
HETATM   18  C3  UNL     1       6.997  -6.823  11.234  1.00  0.00     0.010 C 
ENDBRANCH   1  16
TORSDOF 3
ENDMDL
MODEL 2
REMARK VINA RESULT: -7.687568505      3.723      7.779
REMARK  3 active torsions:
REMARK  status: ('A' for Active; 'I' for Inactive)
REMARK    1  A    between atoms: C2_2  and  C4_4 
REMARK    2  A    between atoms: C6_8  and  N2_9 
REMARK    3  A    between atoms: N2_9  and  C7_11 
ROOT
HETATM    1  C4  UNL     1       9.157  -3.472  22.603  1.00  0.00     0.032 C 
HETATM    2  C5  UNL     1       9.578  -2.467  21.568  1.00  0.00     0.128 C 
HETATM    3  N1  UNL     1       8.959  -2.950  20.357  1.00  0.00    -0.378 N 
ATOM      4  H1  UNL     1       8.913  -2.410  19.493  1.00  0.00     0.160 HD
HETATM    5  C6  UNL     1       8.471  -4.132  20.483  1.00  0.00     0.092 C 
HETATM    6  C13 UNL     1       8.683  -4.678  21.855  1.00  0.00     0.155 C 
HETATM    7 CL1  UNL     1       7.205  -5.380  22.526  1.00  0.00    -0.116 Cl
ENDROOT
BRANCH   5   8
HETATM    8  N2  UNL     1       7.819  -4.785  19.402  1.00  0.00    -0.374 N 
ATOM      9  H2  UNL     1       8.325  -5.506  18.887  1.00  0.00     0.161 HD
BRANCH   8  10
HETATM   10  C7  UNL     1       6.470  -4.467  19.009  1.00  0.00     0.082 C 
HETATM   11  C8  UNL     1       6.366  -4.045  17.561  1.00  0.00     0.025 C 
HETATM   12  C9  UNL     1       6.493  -5.225  16.635  1.00  0.00     0.002 C 
HETATM   13  C10 UNL     1       5.340  -6.179  16.853  1.00  0.00     0.000 C 
HETATM   14  C11 UNL     1       4.590  -5.870  18.117  1.00  0.00     0.002 C 
HETATM   15  C12 UNL     1       5.510  -5.577  19.285  1.00  0.00     0.025 C 
ENDBRANCH   8  10
ENDBRANCH   5   8
BRANCH   1  16
HETATM   16  C2  UNL     1       8.200  -2.942  23.605  1.00  0.00    -0.015 C 
HETATM   17  C1  UNL     1       8.817  -3.050  24.981  1.00  0.00     0.010 C 
HETATM   18  C3  UNL     1       7.834  -1.496  23.390  1.00  0.00     0.010 C 
ENDBRANCH   1  16
TORSDOF 3
ENDMDL
MODEL 3
REMARK VINA RESULT: -7.663585504      1.651      6.343
REMARK  3 active torsions:
REMARK  status: ('A' for Active; 'I' for Inactive)
REMARK    1  A    between atoms: C2_2  and  C4_4 
REMARK    2  A    between atoms: C6_8  and  N2_9 
REMARK    3  A    between atoms: N2_9  and  C7_11 
ROOT
HETATM    1  C4  UNL     1       7.265  -4.280  18.006  1.00  0.00     0.032 C 
HETATM    2  C5  UNL     1       5.812  -4.663  18.017  1.00  0.00     0.128 C 
HETATM    3  N1  UNL     1       5.644  -5.382  16.776  1.00  0.00    -0.378 N 
ATOM      4  H1  UNL     1       4.808  -5.918  16.544  1.00  0.00     0.160 HD
HETATM    5  C6  UNL     1       6.657  -5.273  15.994  1.00  0.00     0.092 C 
HETATM    6  C13 UNL     1       7.733  -4.429  16.593  1.00  0.00     0.155 C 
HETATM    7 CL1  UNL     1       9.324  -5.189  16.460  1.00  0.00    -0.116 Cl
ENDROOT
BRANCH   5   8
HETATM    8  N2  UNL     1       6.687  -5.907  14.723  1.00  0.00    -0.374 N 
ATOM      9  H2  UNL     1       7.222  -6.769  14.616  1.00  0.00     0.161 HD
BRANCH   8  10
HETATM   10  C7  UNL     1       5.989  -5.377  13.579  1.00  0.00     0.082 C 
HETATM   11  C8  UNL     1       6.877  -5.237  12.364  1.00  0.00     0.025 C 
HETATM   12  C9  UNL     1       7.157  -6.575  11.732  1.00  0.00     0.002 C 
HETATM   13  C10 UNL     1       5.871  -7.180  11.216  1.00  0.00     0.000 C 
HETATM   14  C11 UNL     1       4.662  -6.465  11.749  1.00  0.00     0.002 C 
HETATM   15  C12 UNL     1       4.769  -6.163  13.230  1.00  0.00     0.025 C 
ENDBRANCH   8  10
ENDBRANCH   5   8
BRANCH   1  16
HETATM   16  C2  UNL     1       8.086  -4.994  19.014  1.00  0.00    -0.015 C 
HETATM   17  C1  UNL     1       8.984  -3.999  19.714  1.00  0.00     0.010 C 
HETATM   18  C3  UNL     1       7.274  -5.689  20.077  1.00  0.00     0.010 C 
ENDBRANCH   1  16
TORSDOF 3
ENDMDL
MODEL 4
REMARK VINA RESULT: -7.663023751      3.502      7.818
REMARK  3 active torsions:
REMARK  status: ('A' for Active; 'I' for Inactive)
REMARK    1  A    between atoms: C2_2  and  C4_4 
REMARK    2  A    between atoms: C6_8  and  N2_9 
REMARK    3  A    between atoms: N2_9  and  C7_11 
ROOT
HETATM    1  C4  UNL     1       8.865  -3.337  22.694  1.00  0.00     0.032 C 
HETATM    2  C5  UNL     1       9.681  -2.345  21.914  1.00  0.00     0.128 C 
HETATM    3  N1  UNL     1       9.560  -2.807  20.551  1.00  0.00    -0.378 N 
ATOM      4  H1  UNL     1       9.865  -2.265  19.743  1.00  0.00     0.160 HD
HETATM    5  C6  UNL     1       9.026  -3.972  20.465  1.00  0.00     0.092 C 
HETATM    6  C13 UNL     1       8.679  -4.526  21.806  1.00  0.00     0.155 C 
HETATM    7 CL1  UNL     1       7.037  -5.181  21.849  1.00  0.00    -0.116 Cl
ENDROOT
BRANCH   5   8
HETATM    8  N2  UNL     1       8.820  -4.604  19.209  1.00  0.00    -0.374 N 
ATOM      9  H2  UNL     1       9.027  -5.599  19.119  1.00  0.00     0.161 HD
BRANCH   8  10
HETATM   10  C7  UNL     1       8.330  -3.890  18.057  1.00  0.00     0.082 C 
HETATM   11  C8  UNL     1       9.199  -4.081  16.835  1.00  0.00     0.025 C 
HETATM   12  C9  UNL     1       9.004  -5.446  16.230  1.00  0.00     0.002 C 
HETATM   13  C10 UNL     1       7.584  -5.591  15.732  1.00  0.00     0.000 C 
HETATM   14  C11 UNL     1       6.693  -4.500  16.256  1.00  0.00     0.002 C 
HETATM   15  C12 UNL     1       6.912  -4.225  17.730  1.00  0.00     0.025 C 
ENDBRANCH   8  10
ENDBRANCH   5   8
BRANCH   1  16
HETATM   16  C2  UNL     1       7.612  -2.778  23.260  1.00  0.00    -0.015 C 
HETATM   17  C1  UNL     1       7.517  -3.159  24.720  1.00  0.00     0.010 C 
HETATM   18  C3  UNL     1       7.529  -1.275  23.182  1.00  0.00     0.010 C 
ENDBRANCH   1  16
TORSDOF 3
ENDMDL
MODEL 5
REMARK VINA RESULT: -7.591726953      2.827      6.537
REMARK  3 active torsions:
REMARK  status: ('A' for Active; 'I' for Inactive)
REMARK    1  A    between atoms: C2_2  and  C4_4 
REMARK    2  A    between atoms: C6_8  and  N2_9 
REMARK    3  A    between atoms: N2_9  and  C7_11 
ROOT
HETATM    1  C4  UNL     1       8.926  -4.332  20.317  1.00  0.00     0.032 C 
HETATM    2  C5  UNL     1       9.431  -3.401  19.252  1.00  0.00     0.128 C 
HETATM    3  N1  UNL     1       8.373  -3.408  18.269  1.00  0.00    -0.378 N 
ATOM      4  H1  UNL     1       8.325  -2.755  17.487  1.00  0.00     0.160 HD
HETATM    5  C6  UNL     1       7.498  -4.324  18.484  1.00  0.00     0.092 C 
HETATM    6  C13 UNL     1       7.823  -5.130  19.697  1.00  0.00     0.155 C 
HETATM    7 CL1  UNL     1       6.422  -5.328  20.758  1.00  0.00    -0.116 Cl
ENDROOT
BRANCH   5   8
HETATM    8  N2  UNL     1       6.377  -4.497  17.628  1.00  0.00    -0.374 N 
ATOM      9  H2  UNL     1       5.710  -3.731  17.532  1.00  0.00     0.161 HD
BRANCH   8  10
HETATM   10  C7  UNL     1       6.148  -5.714  16.892  1.00  0.00     0.082 C 
HETATM   11  C8  UNL     1       5.126  -6.613  17.548  1.00  0.00     0.025 C 
HETATM   12  C9  UNL     1       3.728  -6.086  17.358  1.00  0.00     0.002 C 
HETATM   13  C10 UNL     1       3.372  -6.087  15.889  1.00  0.00     0.000 C 
HETATM   14  C11 UNL     1       4.580  -6.292  15.020  1.00  0.00     0.002 C 
HETATM   15  C12 UNL     1       5.769  -5.466  15.469  1.00  0.00     0.025 C 
ENDBRANCH   8  10
ENDBRANCH   5   8
BRANCH   1  16
HETATM   16  C2  UNL     1       8.569  -3.657  21.590  1.00  0.00    -0.015 C 
HETATM   17  C1  UNL     1       9.043  -4.505  22.748  1.00  0.00     0.010 C 
HETATM   18  C3  UNL     1       9.190  -2.293  21.749  1.00  0.00     0.010 C 
ENDBRANCH   1  16
TORSDOF 3
ENDMDL
