MODEL 1
REMARK VINA RESULT: -8.799625387      0.000      0.000
REMARK  12 active torsions:
REMARK  status: ('A' for Active; 'I' for Inactive)
REMARK    1  A    between atoms: C3_3  and  O1_4 
REMARK    2  A    between atoms: O1_4  and  C4_5 
REMARK    3  A    between atoms: C7_10  and  N2_11 
REMARK       I    between atoms: N2_11  and  C8_13 
REMARK    4  A    between atoms: C8_13  and  C9_15 
REMARK    5  A    between atoms: C9_15  and  C10_16 
REMARK    6  A    between atoms: C10_16  and  C11_17 
REMARK       I    between atoms: C11_17  and  N3_19 
REMARK    7  A    between atoms: N3_19  and  C12_21 
REMARK    8  A    between atoms: C12_21  and  C13_22 
REMARK    9  A    between atoms: C13_22  and  C14_23 
REMARK   10  A    between atoms: C14_23  and  C15_24 
REMARK       I    between atoms: C15_24  and  N4_26 
REMARK   11  A    between atoms: N4_26  and  C16_28 
REMARK   12  A    between atoms: C24_37  and  O5_38 
ROOT
HETATM    1  C1  UNL     1      15.004  18.903  21.412  1.00  0.00     0.014 C 
HETATM    2  C2  UNL     1      14.002  18.251  21.284  1.00  0.00    -0.091 C 
HETATM    3  C3  UNL     1      12.756  17.466  21.115  1.00  0.00     0.268 C 
ENDROOT
BRANCH   3   4
HETATM    4  O1  UNL     1      11.845  18.293  20.469  1.00  0.00    -0.337 OA
BRANCH   4   5
HETATM    5  C4  UNL     1      11.893  18.623  19.103  1.00  0.00     0.105 A 
HETATM    6  C5  UNL     1      12.645  19.667  18.693  1.00  0.00     0.070 A 
HETATM    7  C6  UNL     1      12.729  20.043  17.335  1.00  0.00     0.054 A 
HETATM    8  N1  UNL     1      13.430  21.036  16.834  1.00  0.00    -0.335 N 
HETATM    9  C22 UNL     1      12.000  19.280  16.466  1.00  0.00     0.038 A 
HETATM   10  C7  UNL     1      13.390  21.242  15.515  1.00  0.00     0.152 A 
ATOM     11  H1  UNL     1      13.991  21.635  17.439  1.00  0.00     0.168 HD
HETATM   12  S1  UNL     1      12.344  20.013  14.966  1.00  0.00    -0.052 SA
HETATM   13  C23 UNL     1      11.220  18.195  16.907  1.00  0.00     0.060 A 
HETATM   14  C24 UNL     1      11.161  17.858  18.232  1.00  0.00     0.102 A 
BRANCH  10  15
HETATM   15  N2  UNL     1      14.022  22.180  14.847  1.00  0.00    -0.307 N 
HETATM   16  C8  UNL     1      15.306  21.900  14.330  1.00  0.00     0.224 C 
HETATM   17  O2  UNL     1      15.507  21.173  13.329  1.00  0.00    -0.273 OA
ATOM     18  H2  UNL     1      13.594  23.093  14.703  1.00  0.00     0.171 HD
BRANCH  16  19
HETATM   19  C9  UNL     1      16.480  22.501  15.008  1.00  0.00     0.112 C 
BRANCH  19  20
HETATM   20  C10 UNL     1      17.074  21.491  15.937  1.00  0.00     0.112 C 
BRANCH  20  21
HETATM   21  C11 UNL     1      16.904  21.930  17.374  1.00  0.00     0.221 C 
HETATM   22  O3  UNL     1      15.998  22.731  17.594  1.00  0.00    -0.273 OA
HETATM   23  N3  UNL     1      17.765  21.422  18.350  1.00  0.00    -0.341 N 
ATOM     24  H3  UNL     1      18.487  20.781  18.021  1.00  0.00     0.167 HD
BRANCH  23  25
HETATM   25  C12 UNL     1      17.757  21.688  19.732  1.00  0.00     0.064 C 
BRANCH  25  26
HETATM   26  C13 UNL     1      18.687  22.635  20.363  1.00  0.00     0.054 C 
BRANCH  26  27
HETATM   27  C14 UNL     1      18.471  24.086  20.162  1.00  0.00     0.108 C 
BRANCH  27  28
HETATM   28  C15 UNL     1      19.243  24.518  18.935  1.00  0.00     0.218 C 
HETATM   29  O4  UNL     1      20.467  24.723  19.019  1.00  0.00    -0.274 OA
HETATM   30  N4  UNL     1      18.588  24.688  17.705  1.00  0.00    -0.356 N 
ATOM     31  H4  UNL     1      17.582  24.525  17.652  1.00  0.00     0.162 HD
BRANCH  30  32
HETATM   32  C16 UNL     1      19.309  25.093  16.497  1.00  0.00     0.084 C 
HETATM   33  C17 UNL     1      18.324  25.631  15.523  1.00  0.00     0.025 C 
HETATM   34  C18 UNL     1      18.776  25.328  14.116  1.00  0.00     0.002 C 
HETATM   35  C19 UNL     1      20.284  25.377  14.082  1.00  0.00     0.000 C 
HETATM   36  C20 UNL     1      20.846  24.149  14.780  1.00  0.00     0.002 C 
HETATM   37  C21 UNL     1      20.033  23.848  16.025  1.00  0.00     0.025 C 
ENDBRANCH  30  32
ENDBRANCH  27  28
ENDBRANCH  26  27
ENDBRANCH  25  26
ENDBRANCH  23  25
ENDBRANCH  20  21
ENDBRANCH  19  20
ENDBRANCH  16  19
ENDBRANCH  10  15
BRANCH  14  38
HETATM   38  O5  UNL     1      10.409  16.809  18.674  1.00  0.00    -0.353 OA
HETATM   39  C25 UNL     1      10.406  15.564  17.969  1.00  0.00     0.210 C 
ENDBRANCH  14  38
ENDBRANCH   4   5
ENDBRANCH   3   4
TORSDOF 12
ENDMDL
MODEL 2
REMARK VINA RESULT: -8.705342734      2.453      8.160
REMARK  12 active torsions:
REMARK  status: ('A' for Active; 'I' for Inactive)
REMARK    1  A    between atoms: C3_3  and  O1_4 
REMARK    2  A    between atoms: O1_4  and  C4_5 
REMARK    3  A    between atoms: C7_10  and  N2_11 
REMARK       I    between atoms: N2_11  and  C8_13 
REMARK    4  A    between atoms: C8_13  and  C9_15 
REMARK    5  A    between atoms: C9_15  and  C10_16 
REMARK    6  A    between atoms: C10_16  and  C11_17 
REMARK       I    between atoms: C11_17  and  N3_19 
REMARK    7  A    between atoms: N3_19  and  C12_21 
REMARK    8  A    between atoms: C12_21  and  C13_22 
REMARK    9  A    between atoms: C13_22  and  C14_23 
REMARK   10  A    between atoms: C14_23  and  C15_24 
REMARK       I    between atoms: C15_24  and  N4_26 
REMARK   11  A    between atoms: N4_26  and  C16_28 
REMARK   12  A    between atoms: C24_37  and  O5_38 
ROOT
HETATM    1  C1  UNL     1      19.169  23.863  15.551  1.00  0.00     0.014 C 
HETATM    2  C2  UNL     1      18.317  24.446  16.168  1.00  0.00    -0.091 C 
HETATM    3  C3  UNL     1      17.273  25.153  16.947  1.00  0.00     0.268 C 
ENDROOT
BRANCH   3   4
HETATM    4  O1  UNL     1      17.278  24.597  18.221  1.00  0.00    -0.337 OA
BRANCH   4   5
HETATM    5  C4  UNL     1      16.823  23.302  18.529  1.00  0.00     0.105 A 
HETATM    6  C5  UNL     1      15.570  22.933  18.183  1.00  0.00     0.070 A 
HETATM    7  C6  UNL     1      15.062  21.647  18.469  1.00  0.00     0.054 A 
HETATM    8  N1  UNL     1      13.865  21.190  18.175  1.00  0.00    -0.335 N 
HETATM    9  C22 UNL     1      15.921  20.805  19.117  1.00  0.00     0.038 A 
HETATM   10  C7  UNL     1      13.558  19.938  18.524  1.00  0.00     0.152 A 
ATOM     11  H1  UNL     1      13.186  21.778  17.692  1.00  0.00     0.168 HD
HETATM   12  S1  UNL     1      14.983  19.390  19.282  1.00  0.00    -0.052 SA
HETATM   13  C23 UNL     1      17.223  21.202  19.472  1.00  0.00     0.060 A 
HETATM   14  C24 UNL     1      17.684  22.457  19.180  1.00  0.00     0.102 A 
BRANCH  10  15
HETATM   15  N2  UNL     1      12.418  19.320  18.312  1.00  0.00    -0.307 N 
HETATM   16  C8  UNL     1      12.016  18.305  19.208  1.00  0.00     0.224 C 
HETATM   17  O2  UNL     1      11.578  18.532  20.360  1.00  0.00    -0.273 OA
ATOM     18  H2  UNL     1      11.834  19.569  17.515  1.00  0.00     0.171 HD
BRANCH  16  19
HETATM   19  C9  UNL     1      12.115  16.895  18.760  1.00  0.00     0.112 C 
BRANCH  19  20
HETATM   20  C10 UNL     1      10.737  16.340  18.594  1.00  0.00     0.112 C 
BRANCH  20  21
HETATM   21  C11 UNL     1      10.603  15.647  17.257  1.00  0.00     0.221 C 
HETATM   22  O3  UNL     1      10.406  14.435  17.290  1.00  0.00    -0.273 OA
HETATM   23  N3  UNL     1      10.713  16.399  16.084  1.00  0.00    -0.341 N 
ATOM     24  H3  UNL     1      10.899  17.395  16.206  1.00  0.00     0.167 HD
BRANCH  23  25
HETATM   25  C12 UNL     1      10.598  15.950  14.755  1.00  0.00     0.064 C 
BRANCH  25  26
HETATM   26  C13 UNL     1      11.499  16.401  13.686  1.00  0.00     0.054 C 
BRANCH  26  27
HETATM   27  C14 UNL     1      11.268  17.728  13.073  1.00  0.00     0.108 C 
BRANCH  27  28
HETATM   28  C15 UNL     1      11.997  18.768  13.895  1.00  0.00     0.218 C 
HETATM   29  O4  UNL     1      11.652  18.973  15.072  1.00  0.00    -0.274 OA
HETATM   30  N4  UNL     1      13.059  19.498  13.338  1.00  0.00    -0.356 N 
ATOM     31  H4  UNL     1      13.326  19.325  12.369  1.00  0.00     0.162 HD
BRANCH  30  32
HETATM   32  C16 UNL     1      13.793  20.501  14.113  1.00  0.00     0.084 C 
HETATM   33  C17 UNL     1      12.844  21.575  14.503  1.00  0.00     0.025 C 
HETATM   34  C18 UNL     1      13.565  22.900  14.563  1.00  0.00     0.002 C 
HETATM   35  C19 UNL     1      14.977  22.649  15.033  1.00  0.00     0.000 C 
HETATM   36  C20 UNL     1      15.774  21.997  13.915  1.00  0.00     0.002 C 
HETATM   37  C21 UNL     1      14.917  20.963  13.208  1.00  0.00     0.025 C 
ENDBRANCH  30  32
ENDBRANCH  27  28
ENDBRANCH  26  27
ENDBRANCH  25  26
ENDBRANCH  23  25
ENDBRANCH  20  21
ENDBRANCH  19  20
ENDBRANCH  16  19
ENDBRANCH  10  15
BRANCH  14  38
HETATM   38  O5  UNL     1      18.944  22.857  19.517  1.00  0.00    -0.353 OA
HETATM   39  C25 UNL     1      19.241  23.295  20.847  1.00  0.00     0.210 C 
ENDBRANCH  14  38
ENDBRANCH   4   5
ENDBRANCH   3   4
TORSDOF 12
ENDMDL
MODEL 3
REMARK VINA RESULT: -8.573147897      3.533      7.209
REMARK  12 active torsions:
REMARK  status: ('A' for Active; 'I' for Inactive)
REMARK    1  A    between atoms: C3_3  and  O1_4 
REMARK    2  A    between atoms: O1_4  and  C4_5 
REMARK    3  A    between atoms: C7_10  and  N2_11 
REMARK       I    between atoms: N2_11  and  C8_13 
REMARK    4  A    between atoms: C8_13  and  C9_15 
REMARK    5  A    between atoms: C9_15  and  C10_16 
REMARK    6  A    between atoms: C10_16  and  C11_17 
REMARK       I    between atoms: C11_17  and  N3_19 
REMARK    7  A    between atoms: N3_19  and  C12_21 
REMARK    8  A    between atoms: C12_21  and  C13_22 
REMARK    9  A    between atoms: C13_22  and  C14_23 
REMARK   10  A    between atoms: C14_23  and  C15_24 
REMARK       I    between atoms: C15_24  and  N4_26 
REMARK   11  A    between atoms: N4_26  and  C16_28 
REMARK   12  A    between atoms: C24_37  and  O5_38 
ROOT
HETATM    1  C1  UNL     1      14.308  20.752  12.571  1.00  0.00     0.014 C 
HETATM    2  C2  UNL     1      14.974  21.322  13.395  1.00  0.00    -0.091 C 
HETATM    3  C3  UNL     1      15.792  22.005  14.425  1.00  0.00     0.268 C 
ENDROOT
BRANCH   3   4
HETATM    4  O1  UNL     1      15.810  21.174  15.539  1.00  0.00    -0.337 OA
BRANCH   4   5
HETATM    5  C4  UNL     1      16.517  21.443  16.725  1.00  0.00     0.105 A 
HETATM    6  C5  UNL     1      17.730  22.034  16.662  1.00  0.00     0.070 A 
HETATM    7  C6  UNL     1      18.482  22.326  17.820  1.00  0.00     0.054 A 
HETATM    8  N1  UNL     1      19.665  22.898  17.867  1.00  0.00    -0.335 N 
HETATM    9  C22 UNL     1      17.901  21.971  19.005  1.00  0.00     0.038 A 
HETATM   10  C7  UNL     1      20.229  23.097  19.062  1.00  0.00     0.152 A 
ATOM     11  H1  UNL     1      20.142  23.182  17.012  1.00  0.00     0.168 HD
HETATM   12  S1  UNL     1      19.071  22.468  20.143  1.00  0.00    -0.052 SA
HETATM   13  C23 UNL     1      16.637  21.355  19.057  1.00  0.00     0.060 A 
HETATM   14  C24 UNL     1      15.935  21.086  17.913  1.00  0.00     0.102 A 
BRANCH  10  15
HETATM   15  N2  UNL     1      21.396  23.651  19.298  1.00  0.00    -0.307 N 
HETATM   16  C8  UNL     1      21.488  25.059  19.335  1.00  0.00     0.224 C 
HETATM   17  O2  UNL     1      21.064  25.756  20.287  1.00  0.00    -0.273 OA
ATOM     18  H2  UNL     1      22.223  23.074  19.451  1.00  0.00     0.171 HD
BRANCH  16  19
HETATM   19  C9  UNL     1      22.122  25.751  18.187  1.00  0.00     0.112 C 
BRANCH  19  20
HETATM   20  C10 UNL     1      23.607  25.697  18.347  1.00  0.00     0.112 C 
BRANCH  20  21
HETATM   21  C11 UNL     1      24.290  26.366  17.175  1.00  0.00     0.221 C 
HETATM   22  O3  UNL     1      24.504  25.658  16.194  1.00  0.00    -0.273 OA
HETATM   23  N3  UNL     1      24.639  27.716  17.267  1.00  0.00    -0.341 N 
ATOM     24  H3  UNL     1      24.420  28.175  18.151  1.00  0.00     0.167 HD
BRANCH  23  25
HETATM   25  C12 UNL     1      25.256  28.518  16.289  1.00  0.00     0.064 C 
BRANCH  25  26
HETATM   26  C13 UNL     1      24.718  28.663  14.929  1.00  0.00     0.054 C 
BRANCH  26  27
HETATM   27  C14 UNL     1      23.452  29.406  14.740  1.00  0.00     0.108 C 
BRANCH  27  28
HETATM   28  C15 UNL     1      22.307  28.515  15.166  1.00  0.00     0.218 C 
HETATM   29  O4  UNL     1      21.812  28.649  16.299  1.00  0.00    -0.274 OA
HETATM   30  N4  UNL     1      21.799  27.542  14.291  1.00  0.00    -0.356 N 
ATOM     31  H4  UNL     1      22.220  27.436  13.367  1.00  0.00     0.162 HD
BRANCH  30  32
HETATM   32  C16 UNL     1      20.682  26.673  14.668  1.00  0.00     0.084 C 
HETATM   33  C17 UNL     1      21.183  25.276  14.745  1.00  0.00     0.025 C 
HETATM   34  C18 UNL     1      20.089  24.317  14.345  1.00  0.00     0.002 C 
HETATM   35  C19 UNL     1      18.768  24.890  14.798  1.00  0.00     0.000 C 
HETATM   36  C20 UNL     1      18.392  26.062  13.907  1.00  0.00     0.002 C 
HETATM   37  C21 UNL     1      19.623  26.897  13.609  1.00  0.00     0.025 C 
ENDBRANCH  30  32
ENDBRANCH  27  28
ENDBRANCH  26  27
ENDBRANCH  25  26
ENDBRANCH  23  25
ENDBRANCH  20  21
ENDBRANCH  19  20
ENDBRANCH  16  19
ENDBRANCH  10  15
BRANCH  14  38
HETATM   38  O5  UNL     1      14.708  20.490  17.948  1.00  0.00    -0.353 OA
HETATM   39  C25 UNL     1      14.290  19.743  19.094  1.00  0.00     0.210 C 
ENDBRANCH  14  38
ENDBRANCH   4   5
ENDBRANCH   3   4
TORSDOF 12
ENDMDL
MODEL 4
REMARK VINA RESULT: -8.524730612      2.922     10.345
REMARK  12 active torsions:
REMARK  status: ('A' for Active; 'I' for Inactive)
REMARK    1  A    between atoms: C3_3  and  O1_4 
REMARK    2  A    between atoms: O1_4  and  C4_5 
REMARK    3  A    between atoms: C7_10  and  N2_11 
REMARK       I    between atoms: N2_11  and  C8_13 
REMARK    4  A    between atoms: C8_13  and  C9_15 
REMARK    5  A    between atoms: C9_15  and  C10_16 
REMARK    6  A    between atoms: C10_16  and  C11_17 
REMARK       I    between atoms: C11_17  and  N3_19 
REMARK    7  A    between atoms: N3_19  and  C12_21 
REMARK    8  A    between atoms: C12_21  and  C13_22 
REMARK    9  A    between atoms: C13_22  and  C14_23 
REMARK   10  A    between atoms: C14_23  and  C15_24 
REMARK       I    between atoms: C15_24  and  N4_26 
REMARK   11  A    between atoms: N4_26  and  C16_28 
REMARK   12  A    between atoms: C24_37  and  O5_38 
ROOT
HETATM    1  C1  UNL     1      18.855  26.405  13.578  1.00  0.00     0.014 C 
HETATM    2  C2  UNL     1      19.819  27.072  13.849  1.00  0.00    -0.091 C 
HETATM    3  C3  UNL     1      21.000  27.894  14.205  1.00  0.00     0.268 C 
ENDROOT
BRANCH   3   4
HETATM    4  O1  UNL     1      20.915  28.149  15.568  1.00  0.00    -0.337 OA
BRANCH   4   5
HETATM    5  C4  UNL     1      21.077  27.181  16.574  1.00  0.00     0.105 A 
HETATM    6  C5  UNL     1      20.001  26.504  17.031  1.00  0.00     0.070 A 
HETATM    7  C6  UNL     1      20.106  25.521  18.040  1.00  0.00     0.054 A 
HETATM    8  N1  UNL     1      19.126  24.809  18.550  1.00  0.00    -0.335 N 
HETATM    9  C22 UNL     1      21.367  25.303  18.521  1.00  0.00     0.038 A 
HETATM   10  C7  UNL     1      19.416  23.918  19.503  1.00  0.00     0.152 A 
ATOM     11  H1  UNL     1      18.168  24.932  18.226  1.00  0.00     0.168 HD
HETATM   12  S1  UNL     1      21.102  24.086  19.686  1.00  0.00    -0.052 SA
HETATM   13  C23 UNL     1      22.479  26.016  18.037  1.00  0.00     0.060 A 
HETATM   14  C24 UNL     1      22.341  26.962  17.057  1.00  0.00     0.102 A 
BRANCH  10  15
HETATM   15  N2  UNL     1      18.570  23.125  20.120  1.00  0.00    -0.307 N 
HETATM   16  C8  UNL     1      18.338  21.835  19.595  1.00  0.00     0.224 C 
HETATM   17  O2  UNL     1      19.157  20.891  19.689  1.00  0.00    -0.273 OA
ATOM     18  H2  UNL     1      18.090  23.435  20.965  1.00  0.00     0.171 HD
BRANCH  16  19
HETATM   19  C9  UNL     1      17.054  21.584  18.896  1.00  0.00     0.112 C 
BRANCH  19  20
HETATM   20  C10 UNL     1      17.328  21.363  17.443  1.00  0.00     0.112 C 
BRANCH  20  21
HETATM   21  C11 UNL     1      16.152  21.819  16.608  1.00  0.00     0.221 C 
HETATM   22  O3  UNL     1      15.928  23.027  16.601  1.00  0.00    -0.273 OA
HETATM   23  N3  UNL     1      15.399  20.870  15.913  1.00  0.00    -0.341 N 
ATOM     24  H3  UNL     1      15.687  19.898  16.028  1.00  0.00     0.167 HD
BRANCH  23  25
HETATM   25  C12 UNL     1      14.291  21.092  15.073  1.00  0.00     0.064 C 
BRANCH  25  26
HETATM   26  C13 UNL     1      12.917  21.193  15.583  1.00  0.00     0.054 C 
BRANCH  26  27
HETATM   27  C14 UNL     1      12.133  19.950  15.766  1.00  0.00     0.108 C 
BRANCH  27  28
HETATM   28  C15 UNL     1      12.027  19.666  17.248  1.00  0.00     0.218 C 
HETATM   29  O4  UNL     1      10.917  19.724  17.807  1.00  0.00    -0.274 OA
HETATM   30  N4  UNL     1      13.170  19.335  17.992  1.00  0.00    -0.356 N 
ATOM     31  H4  UNL     1      14.075  19.299  17.523  1.00  0.00     0.162 HD
BRANCH  30  32
HETATM   32  C16 UNL     1      13.098  19.041  19.425  1.00  0.00     0.084 C 
HETATM   33  C17 UNL     1      14.413  19.366  20.035  1.00  0.00     0.025 C 
HETATM   34  C18 UNL     1      14.690  18.430  21.186  1.00  0.00     0.002 C 
HETATM   35  C19 UNL     1      13.378  18.100  21.854  1.00  0.00     0.000 C 
HETATM   36  C20 UNL     1      12.583  17.155  20.967  1.00  0.00     0.002 C 
HETATM   37  C21 UNL     1      12.715  17.578  19.516  1.00  0.00     0.025 C 
ENDBRANCH  30  32
ENDBRANCH  27  28
ENDBRANCH  26  27
ENDBRANCH  25  26
ENDBRANCH  23  25
ENDBRANCH  20  21
ENDBRANCH  19  20
ENDBRANCH  16  19
ENDBRANCH  10  15
BRANCH  14  38
HETATM   38  O5  UNL     1      23.410  27.661  16.578  1.00  0.00    -0.353 OA
HETATM   39  C25 UNL     1      24.486  26.988  15.915  1.00  0.00     0.210 C 
ENDBRANCH  14  38
ENDBRANCH   4   5
ENDBRANCH   3   4
TORSDOF 12
ENDMDL
MODEL 5
REMARK VINA RESULT: -8.498431526      2.299      8.815
REMARK  12 active torsions:
REMARK  status: ('A' for Active; 'I' for Inactive)
REMARK    1  A    between atoms: C3_3  and  O1_4 
REMARK    2  A    between atoms: O1_4  and  C4_5 
REMARK    3  A    between atoms: C7_10  and  N2_11 
REMARK       I    between atoms: N2_11  and  C8_13 
REMARK    4  A    between atoms: C8_13  and  C9_15 
REMARK    5  A    between atoms: C9_15  and  C10_16 
REMARK    6  A    between atoms: C10_16  and  C11_17 
REMARK       I    between atoms: C11_17  and  N3_19 
REMARK    7  A    between atoms: N3_19  and  C12_21 
REMARK    8  A    between atoms: C12_21  and  C13_22 
REMARK    9  A    between atoms: C13_22  and  C14_23 
REMARK   10  A    between atoms: C14_23  and  C15_24 
REMARK       I    between atoms: C15_24  and  N4_26 
REMARK   11  A    between atoms: N4_26  and  C16_28 
REMARK   12  A    between atoms: C24_37  and  O5_38 
ROOT
HETATM    1  C1  UNL     1      21.084  24.232  14.360  1.00  0.00     0.014 C 
HETATM    2  C2  UNL     1      20.838  25.318  14.816  1.00  0.00    -0.091 C 
HETATM    3  C3  UNL     1      20.517  26.646  15.390  1.00  0.00     0.268 C 
ENDROOT
BRANCH   3   4
HETATM    4  O1  UNL     1      19.487  26.451  16.301  1.00  0.00    -0.337 OA
BRANCH   4   5
HETATM    5  C4  UNL     1      19.396  25.360  17.184  1.00  0.00     0.105 A 
HETATM    6  C5  UNL     1      18.403  24.457  17.031  1.00  0.00     0.070 A 
HETATM    7  C6  UNL     1      18.264  23.344  17.889  1.00  0.00     0.054 A 
HETATM    8  N1  UNL     1      17.340  22.411  17.825  1.00  0.00    -0.335 N 
HETATM    9  C22 UNL     1      19.200  23.244  18.880  1.00  0.00     0.038 A 
HETATM   10  C7  UNL     1      17.367  21.426  18.727  1.00  0.00     0.152 A 
ATOM     11  H1  UNL     1      16.619  22.440  17.105  1.00  0.00     0.168 HD
HETATM   12  S1  UNL     1      18.721  21.818  19.685  1.00  0.00    -0.052 SA
HETATM   13  C23 UNL     1      20.228  24.192  19.028  1.00  0.00     0.060 A 
HETATM   14  C24 UNL     1      20.333  25.260  18.179  1.00  0.00     0.102 A 
BRANCH  10  15
HETATM   15  N2  UNL     1      16.529  20.417  18.813  1.00  0.00    -0.307 N 
HETATM   16  C8  UNL     1      15.272  20.626  19.420  1.00  0.00     0.224 C 
HETATM   17  O2  UNL     1      14.332  21.246  18.870  1.00  0.00    -0.273 OA
ATOM     18  H2  UNL     1      16.783  19.499  18.449  1.00  0.00     0.171 HD
BRANCH  16  19
HETATM   19  C9  UNL     1      15.051  20.080  20.781  1.00  0.00     0.112 C 
BRANCH  19  20
HETATM   20  C10 UNL     1      15.006  18.588  20.705  1.00  0.00     0.112 C 
BRANCH  20  21
HETATM   21  C11 UNL     1      13.577  18.106  20.593  1.00  0.00     0.221 C 
HETATM   22  O3  UNL     1      12.999  17.867  21.650  1.00  0.00    -0.273 OA
HETATM   23  N3  UNL     1      13.004  17.956  19.327  1.00  0.00    -0.341 N 
ATOM     24  H3  UNL     1      13.609  18.171  18.534  1.00  0.00     0.167 HD
BRANCH  23  25
HETATM   25  C12 UNL     1      11.695  17.544  19.014  1.00  0.00     0.064 C 
BRANCH  25  26
HETATM   26  C13 UNL     1      10.979  18.019  17.822  1.00  0.00     0.054 C 
BRANCH  26  27
HETATM   27  C14 UNL     1      11.066  19.452  17.463  1.00  0.00     0.108 C 
BRANCH  27  28
HETATM   28  C15 UNL     1      11.909  19.581  16.213  1.00  0.00     0.218 C 
HETATM   29  O4  UNL     1      11.604  18.935  15.195  1.00  0.00    -0.274 OA
HETATM   30  N4  UNL     1      13.029  20.426  16.196  1.00  0.00    -0.356 N 
ATOM     31  H4  UNL     1      13.274  20.945  17.040  1.00  0.00     0.162 HD
BRANCH  30  32
HETATM   32  C16 UNL     1      13.858  20.584  14.998  1.00  0.00     0.084 C 
HETATM   33  C17 UNL     1      15.172  21.140  15.410  1.00  0.00     0.025 C 
HETATM   34  C18 UNL     1      15.721  22.022  14.315  1.00  0.00     0.002 C 
HETATM   35  C19 UNL     1      15.295  21.447  12.986  1.00  0.00     0.000 C 
HETATM   36  C20 UNL     1      13.812  21.704  12.775  1.00  0.00     0.002 C 
HETATM   37  C21 UNL     1      13.062  21.484  14.076  1.00  0.00     0.025 C 
ENDBRANCH  30  32
ENDBRANCH  27  28
ENDBRANCH  26  27
ENDBRANCH  25  26
ENDBRANCH  23  25
ENDBRANCH  20  21
ENDBRANCH  19  20
ENDBRANCH  16  19
ENDBRANCH  10  15
BRANCH  14  38
HETATM   38  O5  UNL     1      21.325  26.187  18.309  1.00  0.00    -0.353 OA
HETATM   39  C25 UNL     1      22.702  25.799  18.252  1.00  0.00     0.210 C 
ENDBRANCH  14  38
ENDBRANCH   4   5
ENDBRANCH   3   4
TORSDOF 12
ENDMDL
