MODEL 1
REMARK VINA RESULT: -8.383718618      0.000      0.000
REMARK  13 active torsions:
REMARK  status: ('A' for Active; 'I' for Inactive)
REMARK    1  A    between atoms: C3_3  and  C4_4 
REMARK    2  A    between atoms: C4_4  and  C5_5 
REMARK    3  A    between atoms: C6_6  and  O1_7 
REMARK    4  A    between atoms: N1_11  and  C9_12 
REMARK    5  A    between atoms: C9_12  and  C10_13 
REMARK       I    between atoms: C10_13  and  N2_15 
REMARK    6  A    between atoms: N2_15  and  C11_17 
REMARK    7  A    between atoms: C11_17  and  C12_18 
REMARK    8  A    between atoms: C12_18  and  N3_19 
REMARK    9  A    between atoms: N3_19  and  C13_20 
REMARK   10  A    between atoms: N3_19  and  C15_22 
REMARK   11  A    between atoms: C17_24  and  O3_25 
REMARK   12  A    between atoms: N4_31  and  C22_32 
REMARK   13  A    between atoms: C27_37  and  O4_38 
ROOT
HETATM    1  C5  UNL     1      18.812  24.408  17.389  1.00  0.00     0.051 A 
HETATM    2  C6  UNL     1      19.042  23.943  18.679  1.00  0.00     0.102 A 
HETATM    3  C7  UNL     1      18.729  22.607  18.735  1.00  0.00     0.044 A 
HETATM    4  C8  UNL     1      18.842  21.750  19.945  1.00  0.00     0.071 C 
HETATM    5  N1  UNL     1      18.312  22.240  17.507  1.00  0.00    -0.320 N 
HETATM    6  C17 UNL     1      18.350  23.296  16.678  1.00  0.00     0.156 A 
ENDROOT
BRANCH   1   7
HETATM    7  C4  UNL     1      18.964  25.746  16.890  1.00  0.00     0.033 C 
BRANCH   7   8
HETATM    8  C3  UNL     1      19.961  26.313  16.272  1.00  0.00    -0.001 A 
HETATM    9  C2  UNL     1      21.278  26.554  16.639  1.00  0.00     0.041 A 
HETATM   10  C1  UNL     1      21.858  26.270  17.767  1.00  0.00     0.044 C 
HETATM   11  N4  UNL     1      21.944  27.176  15.618  1.00  0.00    -0.315 N 
HETATM   12  C20 UNL     1      21.087  27.335  14.618  1.00  0.00     0.020 A 
HETATM   13  C18 UNL     1      19.862  26.826  14.964  1.00  0.00    -0.027 A 
HETATM   14  C21 UNL     1      21.399  27.979  13.292  1.00  0.00     0.069 C 
HETATM   15  C19 UNL     1      18.621  26.794  14.153  1.00  0.00     0.051 C 
BRANCH  11  16
HETATM   16  C22 UNL     1      23.300  27.566  15.638  1.00  0.00     0.043 A 
HETATM   17  C23 UNL     1      24.336  26.628  15.709  1.00  0.00     0.037 A 
HETATM   18  C24 UNL     1      25.658  27.018  15.725  1.00  0.00    -0.057 A 
HETATM   19  C25 UNL     1      26.777  26.046  15.800  1.00  0.00     0.048 C 
HETATM   20  C26 UNL     1      25.971  28.358  15.667  1.00  0.00     0.043 A 
HETATM   21  C27 UNL     1      24.971  29.327  15.595  1.00  0.00     0.070 A 
HETATM   22  C29 UNL     1      23.663  28.901  15.582  1.00  0.00     0.066 A 
BRANCH  21  23
HETATM   23  O4  UNL     1      25.276  30.677  15.536  1.00  0.00    -0.356 OA
HETATM   24  C28 UNL     1      25.883  31.289  16.654  1.00  0.00     0.210 C 
ENDBRANCH  21  23
ENDBRANCH  11  16
ENDBRANCH   7   8
ENDBRANCH   1   7
BRANCH   2  25
HETATM   25  O1  UNL     1      19.510  24.750  19.696  1.00  0.00    -0.358 OA
ATOM     26  H1  UNL     1      19.092  24.806  20.547  1.00  0.00     0.217 HD
ENDBRANCH   2  25
BRANCH   6  27
HETATM   27  O3  UNL     1      18.010  23.378  15.327  1.00  0.00    -0.345 OA
ATOM     28  H3  UNL     1      18.666  23.516  14.654  1.00  0.00     0.219 HD
ENDBRANCH   6  27
BRANCH   5  29
HETATM   29  C9  UNL     1      17.894  20.906  17.140  1.00  0.00     0.234 C 
BRANCH  29  30
HETATM   30  C10 UNL     1      16.404  20.811  17.200  1.00  0.00     0.235 C 
HETATM   31  O2  UNL     1      15.942  20.323  18.260  1.00  0.00    -0.272 OA
HETATM   32  N2  UNL     1      15.603  21.248  16.127  1.00  0.00    -0.358 N 
ATOM     33  H2  UNL     1      16.054  21.630  15.296  1.00  0.00     0.162 HD
BRANCH  32  34
HETATM   34  C11 UNL     1      14.170  21.171  16.168  1.00  0.00     0.142 C 
BRANCH  34  35
HETATM   35  C12 UNL     1      13.557  21.682  14.920  1.00  0.00     0.141 C 
BRANCH  35  36
HETATM   36  N3  UNL     1      13.276  20.752  13.895  1.00  0.00    -0.393 N 
BRANCH  36  37
HETATM   37  C13 UNL     1      13.932  20.780  12.673  1.00  0.00     0.054 C 
HETATM   38  C14 UNL     1      15.215  21.481  12.517  1.00  0.00     0.054 C 
ENDBRANCH  36  37
BRANCH  36  39
HETATM   39  C15 UNL     1      12.772  19.487  14.336  1.00  0.00     0.117 C 
HETATM   40  C16 UNL     1      13.119  18.440  13.303  1.00  0.00     0.026 C 
ENDBRANCH  36  39
ENDBRANCH  35  36
ENDBRANCH  34  35
ENDBRANCH  32  34
ENDBRANCH  29  30
ENDBRANCH   5  29
TORSDOF 13
ENDMDL
MODEL 2
REMARK VINA RESULT: -8.381260320      1.914      2.698
REMARK  13 active torsions:
REMARK  status: ('A' for Active; 'I' for Inactive)
REMARK    1  A    between atoms: C3_3  and  C4_4 
REMARK    2  A    between atoms: C4_4  and  C5_5 
REMARK    3  A    between atoms: C6_6  and  O1_7 
REMARK    4  A    between atoms: N1_11  and  C9_12 
REMARK    5  A    between atoms: C9_12  and  C10_13 
REMARK       I    between atoms: C10_13  and  N2_15 
REMARK    6  A    between atoms: N2_15  and  C11_17 
REMARK    7  A    between atoms: C11_17  and  C12_18 
REMARK    8  A    between atoms: C12_18  and  N3_19 
REMARK    9  A    between atoms: N3_19  and  C13_20 
REMARK   10  A    between atoms: N3_19  and  C15_22 
REMARK   11  A    between atoms: C17_24  and  O3_25 
REMARK   12  A    between atoms: N4_31  and  C22_32 
REMARK   13  A    between atoms: C27_37  and  O4_38 
ROOT
HETATM    1  C5  UNL     1      19.254  24.760  17.403  1.00  0.00     0.051 A 
HETATM    2  C6  UNL     1      19.356  24.240  18.688  1.00  0.00     0.102 A 
HETATM    3  C7  UNL     1      19.057  22.900  18.652  1.00  0.00     0.044 A 
HETATM    4  C8  UNL     1      19.055  21.990  19.829  1.00  0.00     0.071 C 
HETATM    5  N1  UNL     1      18.774  22.585  17.373  1.00  0.00    -0.320 N 
HETATM    6  C17 UNL     1      18.883  23.678  16.600  1.00  0.00     0.156 A 
ENDROOT
BRANCH   1   7
HETATM    7  C4  UNL     1      19.438  26.121  16.982  1.00  0.00     0.033 C 
BRANCH   7   8
HETATM    8  C3  UNL     1      20.422  26.684  16.338  1.00  0.00    -0.001 A 
HETATM    9  C2  UNL     1      21.749  26.918  16.670  1.00  0.00     0.041 A 
HETATM   10  C1  UNL     1      22.358  26.630  17.782  1.00  0.00     0.044 C 
HETATM   11  N4  UNL     1      22.391  27.538  15.632  1.00  0.00    -0.315 N 
HETATM   12  C20 UNL     1      21.508  27.702  14.655  1.00  0.00     0.020 A 
HETATM   13  C18 UNL     1      20.290  27.199  15.034  1.00  0.00    -0.027 A 
HETATM   14  C21 UNL     1      21.787  28.346  13.323  1.00  0.00     0.069 C 
HETATM   15  C19 UNL     1      19.028  27.174  14.256  1.00  0.00     0.051 C 
BRANCH  11  16
HETATM   16  C22 UNL     1      23.749  27.921  15.616  1.00  0.00     0.043 A 
HETATM   17  C23 UNL     1      24.782  26.978  15.647  1.00  0.00     0.037 A 
HETATM   18  C24 UNL     1      26.105  27.362  15.627  1.00  0.00    -0.057 A 
HETATM   19  C25 UNL     1      27.221  26.383  15.659  1.00  0.00     0.048 C 
HETATM   20  C26 UNL     1      26.424  28.701  15.575  1.00  0.00     0.043 A 
HETATM   21  C27 UNL     1      25.426  29.675  15.542  1.00  0.00     0.070 A 
HETATM   22  C29 UNL     1      24.117  29.256  15.563  1.00  0.00     0.066 A 
BRANCH  21  23
HETATM   23  O4  UNL     1      25.736  31.024  15.489  1.00  0.00    -0.356 OA
HETATM   24  C28 UNL     1      25.562  31.811  16.647  1.00  0.00     0.210 C 
ENDBRANCH  21  23
ENDBRANCH  11  16
ENDBRANCH   7   8
ENDBRANCH   1   7
BRANCH   2  25
HETATM   25  O1  UNL     1      19.706  25.004  19.783  1.00  0.00    -0.358 OA
ATOM     26  H1  UNL     1      20.575  24.989  20.168  1.00  0.00     0.217 HD
ENDBRANCH   2  25
BRANCH   6  27
HETATM   27  O3  UNL     1      18.683  23.818  15.226  1.00  0.00    -0.345 OA
ATOM     28  H3  UNL     1      17.814  23.801  14.842  1.00  0.00     0.219 HD
ENDBRANCH   6  27
BRANCH   5  29
HETATM   29  C9  UNL     1      18.413  21.266  16.906  1.00  0.00     0.234 C 
BRANCH  29  30
HETATM   30  C10 UNL     1      16.943  21.208  16.646  1.00  0.00     0.235 C 
HETATM   31  O2  UNL     1      16.589  21.567  15.497  1.00  0.00    -0.272 OA
HETATM   32  N2  UNL     1      16.044  20.777  17.642  1.00  0.00    -0.358 N 
ATOM     33  H2  UNL     1      16.410  20.506  18.555  1.00  0.00     0.162 HD
BRANCH  32  34
HETATM   34  C11 UNL     1      14.629  20.709  17.410  1.00  0.00     0.142 C 
BRANCH  34  35
HETATM   35  C12 UNL     1      13.877  20.490  18.666  1.00  0.00     0.141 C 
BRANCH  35  36
HETATM   36  N3  UNL     1      13.556  19.160  19.018  1.00  0.00    -0.393 N 
BRANCH  36  37
HETATM   37  C13 UNL     1      14.270  18.458  19.979  1.00  0.00     0.054 C 
HETATM   38  C14 UNL     1      14.896  19.151  21.115  1.00  0.00     0.054 C 
ENDBRANCH  36  37
BRANCH  36  39
HETATM   39  C15 UNL     1      12.190  18.785  18.816  1.00  0.00     0.117 C 
HETATM   40  C16 UNL     1      11.917  17.517  19.591  1.00  0.00     0.026 C 
ENDBRANCH  36  39
ENDBRANCH  35  36
ENDBRANCH  34  35
ENDBRANCH  32  34
ENDBRANCH  29  30
ENDBRANCH   5  29
TORSDOF 13
ENDMDL
MODEL 3
REMARK VINA RESULT: -8.342910305      0.892      1.732
REMARK  13 active torsions:
REMARK  status: ('A' for Active; 'I' for Inactive)
REMARK    1  A    between atoms: C3_3  and  C4_4 
REMARK    2  A    between atoms: C4_4  and  C5_5 
REMARK    3  A    between atoms: C6_6  and  O1_7 
REMARK    4  A    between atoms: N1_11  and  C9_12 
REMARK    5  A    between atoms: C9_12  and  C10_13 
REMARK       I    between atoms: C10_13  and  N2_15 
REMARK    6  A    between atoms: N2_15  and  C11_17 
REMARK    7  A    between atoms: C11_17  and  C12_18 
REMARK    8  A    between atoms: C12_18  and  N3_19 
REMARK    9  A    between atoms: N3_19  and  C13_20 
REMARK   10  A    between atoms: N3_19  and  C15_22 
REMARK   11  A    between atoms: C17_24  and  O3_25 
REMARK   12  A    between atoms: N4_31  and  C22_32 
REMARK   13  A    between atoms: C27_37  and  O4_38 
ROOT
HETATM    1  C5  UNL     1      18.737  24.374  17.391  1.00  0.00     0.051 A 
HETATM    2  C6  UNL     1      18.972  23.919  18.683  1.00  0.00     0.102 A 
HETATM    3  C7  UNL     1      18.650  22.586  18.752  1.00  0.00     0.044 A 
HETATM    4  C8  UNL     1      18.763  21.739  19.970  1.00  0.00     0.071 C 
HETATM    5  N1  UNL     1      18.223  22.212  17.530  1.00  0.00    -0.320 N 
HETATM    6  C17 UNL     1      18.262  23.260  16.692  1.00  0.00     0.156 A 
ENDROOT
BRANCH   1   7
HETATM    7  C4  UNL     1      18.895  25.707  16.879  1.00  0.00     0.033 C 
BRANCH   7   8
HETATM    8  C3  UNL     1      19.903  26.270  16.273  1.00  0.00    -0.001 A 
HETATM    9  C2  UNL     1      21.218  26.497  16.655  1.00  0.00     0.041 A 
HETATM   10  C1  UNL     1      21.786  26.201  17.787  1.00  0.00     0.044 C 
HETATM   11  N4  UNL     1      21.900  27.120  15.644  1.00  0.00    -0.315 N 
HETATM   12  C20 UNL     1      21.053  27.292  14.637  1.00  0.00     0.020 A 
HETATM   13  C18 UNL     1      19.821  26.792  14.968  1.00  0.00    -0.027 A 
HETATM   14  C21 UNL     1      21.383  27.942  13.319  1.00  0.00     0.069 C 
HETATM   15  C19 UNL     1      18.588  26.776  14.145  1.00  0.00     0.051 C 
BRANCH  11  16
HETATM   16  C22 UNL     1      23.259  27.498  15.679  1.00  0.00     0.043 A 
HETATM   17  C23 UNL     1      23.653  28.840  15.633  1.00  0.00     0.037 A 
HETATM   18  C24 UNL     1      24.982  29.200  15.671  1.00  0.00    -0.057 A 
HETATM   19  C25 UNL     1      25.428  30.614  15.624  1.00  0.00     0.048 C 
HETATM   20  C26 UNL     1      25.948  28.222  15.757  1.00  0.00     0.043 A 
HETATM   21  C27 UNL     1      25.601  26.872  15.806  1.00  0.00     0.070 A 
HETATM   22  C29 UNL     1      24.265  26.550  15.766  1.00  0.00     0.066 A 
BRANCH  21  23
HETATM   23  O4  UNL     1      26.565  25.881  15.893  1.00  0.00    -0.356 OA
HETATM   24  C28 UNL     1      26.535  24.995  16.991  1.00  0.00     0.210 C 
ENDBRANCH  21  23
ENDBRANCH  11  16
ENDBRANCH   7   8
ENDBRANCH   1   7
BRANCH   2  25
HETATM   25  O1  UNL     1      19.452  24.732  19.690  1.00  0.00    -0.358 OA
ATOM     26  H1  UNL     1      19.530  24.446  20.593  1.00  0.00     0.217 HD
ENDBRANCH   2  25
BRANCH   6  27
HETATM   27  O3  UNL     1      17.915  23.333  15.342  1.00  0.00    -0.345 OA
ATOM     28  H3  UNL     1      17.059  23.064  15.031  1.00  0.00     0.219 HD
ENDBRANCH   6  27
BRANCH   5  29
HETATM   29  C9  UNL     1      17.792  20.878  17.177  1.00  0.00     0.234 C 
BRANCH  29  30
HETATM   30  C10 UNL     1      16.301  20.798  17.234  1.00  0.00     0.235 C 
HETATM   31  O2  UNL     1      15.828  20.389  18.321  1.00  0.00    -0.272 OA
HETATM   32  N2  UNL     1      15.511  21.164  16.126  1.00  0.00    -0.358 N 
ATOM     33  H2  UNL     1      15.971  21.484  15.273  1.00  0.00     0.162 HD
BRANCH  32  34
HETATM   34  C11 UNL     1      14.077  21.101  16.162  1.00  0.00     0.142 C 
BRANCH  34  35
HETATM   35  C12 UNL     1      13.474  21.600  14.905  1.00  0.00     0.141 C 
BRANCH  35  36
HETATM   36  N3  UNL     1      13.232  20.665  13.874  1.00  0.00    -0.393 N 
BRANCH  36  37
HETATM   37  C13 UNL     1      13.977  20.646  12.704  1.00  0.00     0.054 C 
HETATM   38  C14 UNL     1      15.187  21.470  12.563  1.00  0.00     0.054 C 
ENDBRANCH  36  37
BRANCH  36  39
HETATM   39  C15 UNL     1      12.643  19.429  14.293  1.00  0.00     0.117 C 
HETATM   40  C16 UNL     1      13.029  18.351  13.307  1.00  0.00     0.026 C 
ENDBRANCH  36  39
ENDBRANCH  35  36
ENDBRANCH  34  35
ENDBRANCH  32  34
ENDBRANCH  29  30
ENDBRANCH   5  29
TORSDOF 13
ENDMDL
MODEL 4
REMARK VINA RESULT: -8.300772072      1.800      2.614
REMARK  13 active torsions:
REMARK  status: ('A' for Active; 'I' for Inactive)
REMARK    1  A    between atoms: C3_3  and  C4_4 
REMARK    2  A    between atoms: C4_4  and  C5_5 
REMARK    3  A    between atoms: C6_6  and  O1_7 
REMARK    4  A    between atoms: N1_11  and  C9_12 
REMARK    5  A    between atoms: C9_12  and  C10_13 
REMARK       I    between atoms: C10_13  and  N2_15 
REMARK    6  A    between atoms: N2_15  and  C11_17 
REMARK    7  A    between atoms: C11_17  and  C12_18 
REMARK    8  A    between atoms: C12_18  and  N3_19 
REMARK    9  A    between atoms: N3_19  and  C13_20 
REMARK   10  A    between atoms: N3_19  and  C15_22 
REMARK   11  A    between atoms: C17_24  and  O3_25 
REMARK   12  A    between atoms: N4_31  and  C22_32 
REMARK   13  A    between atoms: C27_37  and  O4_38 
ROOT
HETATM    1  C5  UNL     1      17.874  24.069  18.392  1.00  0.00     0.051 A 
HETATM    2  C6  UNL     1      18.773  23.113  18.853  1.00  0.00     0.102 A 
HETATM    3  C7  UNL     1      18.071  22.062  19.389  1.00  0.00     0.044 A 
HETATM    4  C8  UNL     1      18.678  20.842  19.987  1.00  0.00     0.071 C 
HETATM    5  N1  UNL     1      16.760  22.350  19.268  1.00  0.00    -0.320 N 
HETATM    6  C17 UNL     1      16.608  23.546  18.676  1.00  0.00     0.156 A 
ENDROOT
BRANCH   1   7
HETATM    7  C4  UNL     1      18.164  25.344  17.798  1.00  0.00     0.033 C 
BRANCH   7   8
HETATM    8  C3  UNL     1      19.143  25.714  17.021  1.00  0.00    -0.001 A 
HETATM    9  C2  UNL     1      20.445  26.119  17.281  1.00  0.00     0.041 A 
HETATM   10  C1  UNL     1      21.026  26.250  18.437  1.00  0.00     0.044 C 
HETATM   11  N4  UNL     1      21.094  26.394  16.108  1.00  0.00    -0.315 N 
HETATM   12  C20 UNL     1      20.241  26.175  15.116  1.00  0.00     0.020 A 
HETATM   13  C18 UNL     1      19.034  25.759  15.618  1.00  0.00    -0.027 A 
HETATM   14  C21 UNL     1      20.538  26.355  13.650  1.00  0.00     0.069 C 
HETATM   15  C19 UNL     1      17.804  25.408  14.870  1.00  0.00     0.051 C 
BRANCH  11  16
HETATM   16  C22 UNL     1      22.433  26.825  15.990  1.00  0.00     0.043 A 
HETATM   17  C23 UNL     1      22.759  28.165  15.757  1.00  0.00     0.037 A 
HETATM   18  C24 UNL     1      24.069  28.578  15.647  1.00  0.00    -0.057 A 
HETATM   19  C25 UNL     1      24.443  29.993  15.400  1.00  0.00     0.048 C 
HETATM   20  C26 UNL     1      25.084  27.654  15.769  1.00  0.00     0.043 A 
HETATM   21  C27 UNL     1      24.805  26.308  16.002  1.00  0.00     0.070 A 
HETATM   22  C29 UNL     1      23.486  25.933  16.106  1.00  0.00     0.066 A 
BRANCH  21  23
HETATM   23  O4  UNL     1      25.819  25.372  16.127  1.00  0.00    -0.356 OA
HETATM   24  C28 UNL     1      26.125  24.865  17.408  1.00  0.00     0.210 C 
ENDBRANCH  21  23
ENDBRANCH  11  16
ENDBRANCH   7   8
ENDBRANCH   1   7
BRANCH   2  25
HETATM   25  O1  UNL     1      20.142  23.262  18.756  1.00  0.00    -0.358 OA
ATOM     26  H1  UNL     1      20.553  24.005  18.330  1.00  0.00     0.217 HD
ENDBRANCH   2  25
BRANCH   6  27
HETATM   27  O3  UNL     1      15.439  24.235  18.352  1.00  0.00    -0.345 OA
ATOM     28  H3  UNL     1      14.586  23.820  18.392  1.00  0.00     0.219 HD
ENDBRANCH   6  27
BRANCH   5  29
HETATM   29  C9  UNL     1      15.681  21.494  19.707  1.00  0.00     0.234 C 
BRANCH  29  30
HETATM   30  C10 UNL     1      15.126  20.744  18.540  1.00  0.00     0.235 C 
HETATM   31  O2  UNL     1      15.790  19.739  18.186  1.00  0.00    -0.272 OA
HETATM   32  N2  UNL     1      13.941  21.162  17.904  1.00  0.00    -0.358 N 
ATOM     33  H2  UNL     1      13.460  21.993  18.248  1.00  0.00     0.162 HD
BRANCH  32  34
HETATM   34  C11 UNL     1      13.389  20.451  16.785  1.00  0.00     0.142 C 
BRANCH  34  35
HETATM   35  C12 UNL     1      13.364  21.287  15.563  1.00  0.00     0.141 C 
BRANCH  35  36
HETATM   36  N3  UNL     1      14.533  21.329  14.770  1.00  0.00    -0.393 N 
BRANCH  36  37
HETATM   37  C13 UNL     1      14.603  20.719  13.526  1.00  0.00     0.054 C 
HETATM   38  C14 UNL     1      14.556  21.513  12.289  1.00  0.00     0.054 C 
ENDBRANCH  36  37
BRANCH  36  39
HETATM   39  C15 UNL     1      15.386  22.456  14.994  1.00  0.00     0.117 C 
HETATM   40  C16 UNL     1      16.725  21.959  15.487  1.00  0.00     0.026 C 
ENDBRANCH  36  39
ENDBRANCH  35  36
ENDBRANCH  34  35
ENDBRANCH  32  34
ENDBRANCH  29  30
ENDBRANCH   5  29
TORSDOF 13
ENDMDL
MODEL 5
REMARK VINA RESULT: -8.300494368      2.112      3.203
REMARK  13 active torsions:
REMARK  status: ('A' for Active; 'I' for Inactive)
REMARK    1  A    between atoms: C3_3  and  C4_4 
REMARK    2  A    between atoms: C4_4  and  C5_5 
REMARK    3  A    between atoms: C6_6  and  O1_7 
REMARK    4  A    between atoms: N1_11  and  C9_12 
REMARK    5  A    between atoms: C9_12  and  C10_13 
REMARK       I    between atoms: C10_13  and  N2_15 
REMARK    6  A    between atoms: N2_15  and  C11_17 
REMARK    7  A    between atoms: C11_17  and  C12_18 
REMARK    8  A    between atoms: C12_18  and  N3_19 
REMARK    9  A    between atoms: N3_19  and  C13_20 
REMARK   10  A    between atoms: N3_19  and  C15_22 
REMARK   11  A    between atoms: C17_24  and  O3_25 
REMARK   12  A    between atoms: N4_31  and  C22_32 
REMARK   13  A    between atoms: C27_37  and  O4_38 
ROOT
HETATM    1  C5  UNL     1      19.276  24.760  17.382  1.00  0.00     0.051 A 
HETATM    2  C6  UNL     1      19.407  24.233  18.662  1.00  0.00     0.102 A 
HETATM    3  C7  UNL     1      19.108  22.893  18.626  1.00  0.00     0.044 A 
HETATM    4  C8  UNL     1      19.133  21.978  19.798  1.00  0.00     0.071 C 
HETATM    5  N1  UNL     1      18.796  22.585  17.352  1.00  0.00    -0.320 N 
HETATM    6  C17 UNL     1      18.887  23.681  16.581  1.00  0.00     0.156 A 
ENDROOT
BRANCH   1   7
HETATM    7  C4  UNL     1      19.450  26.123  16.963  1.00  0.00     0.033 C 
BRANCH   7   8
HETATM    8  C3  UNL     1      20.432  26.696  16.326  1.00  0.00    -0.001 A 
HETATM    9  C2  UNL     1      21.760  26.925  16.661  1.00  0.00     0.041 A 
HETATM   10  C1  UNL     1      22.370  26.620  17.768  1.00  0.00     0.044 C 
HETATM   11  N4  UNL     1      22.400  27.561  15.632  1.00  0.00    -0.315 N 
HETATM   12  C20 UNL     1      21.517  27.740  14.659  1.00  0.00     0.020 A 
HETATM   13  C18 UNL     1      20.299  27.230  15.030  1.00  0.00    -0.027 A 
HETATM   14  C21 UNL     1      21.795  28.404  13.336  1.00  0.00     0.069 C 
HETATM   15  C19 UNL     1      19.037  27.217  14.253  1.00  0.00     0.051 C 
BRANCH  11  16
HETATM   16  C22 UNL     1      23.758  27.945  15.620  1.00  0.00     0.043 A 
HETATM   17  C23 UNL     1      24.145  29.289  15.661  1.00  0.00     0.037 A 
HETATM   18  C24 UNL     1      25.473  29.655  15.652  1.00  0.00    -0.057 A 
HETATM   19  C25 UNL     1      25.912  31.072  15.695  1.00  0.00     0.048 C 
HETATM   20  C26 UNL     1      26.446  28.680  15.605  1.00  0.00     0.043 A 
HETATM   21  C27 UNL     1      26.105  27.328  15.564  1.00  0.00     0.070 A 
HETATM   22  C29 UNL     1      24.770  27.001  15.573  1.00  0.00     0.066 A 
BRANCH  21  23
HETATM   23  O4  UNL     1      27.076  26.341  15.517  1.00  0.00    -0.356 OA
HETATM   24  C28 UNL     1      27.396  25.642  16.700  1.00  0.00     0.210 C 
ENDBRANCH  21  23
ENDBRANCH  11  16
ENDBRANCH   7   8
ENDBRANCH   1   7
BRANCH   2  25
HETATM   25  O1  UNL     1      19.781  24.993  19.752  1.00  0.00    -0.358 OA
ATOM     26  H1  UNL     1      20.615  25.444  19.806  1.00  0.00     0.217 HD
ENDBRANCH   2  25
BRANCH   6  27
HETATM   27  O3  UNL     1      18.656  23.827  15.213  1.00  0.00    -0.345 OA
ATOM     28  H3  UNL     1      19.313  24.192  14.631  1.00  0.00     0.219 HD
ENDBRANCH   6  27
BRANCH   5  29
HETATM   29  C9  UNL     1      18.425  21.267  16.887  1.00  0.00     0.234 C 
BRANCH  29  30
HETATM   30  C10 UNL     1      16.947  21.202  16.685  1.00  0.00     0.235 C 
HETATM   31  O2  UNL     1      16.546  21.558  15.550  1.00  0.00    -0.272 OA
HETATM   32  N2  UNL     1      16.090  20.767  17.716  1.00  0.00    -0.358 N 
ATOM     33  H2  UNL     1      16.493  20.499  18.614  1.00  0.00     0.162 HD
BRANCH  32  34
HETATM   34  C11 UNL     1      14.667  20.692  17.540  1.00  0.00     0.142 C 
BRANCH  34  35
HETATM   35  C12 UNL     1      13.968  20.449  18.823  1.00  0.00     0.141 C 
BRANCH  35  36
HETATM   36  N3  UNL     1      13.523  19.136  19.092  1.00  0.00    -0.393 N 
BRANCH  36  37
HETATM   37  C13 UNL     1      14.100  18.349  20.078  1.00  0.00     0.054 C 
HETATM   38  C14 UNL     1      14.781  18.955  21.231  1.00  0.00     0.054 C 
ENDBRANCH  36  37
BRANCH  36  39
HETATM   39  C15 UNL     1      12.155  18.873  18.763  1.00  0.00     0.117 C 
HETATM   40  C16 UNL     1      11.722  17.610  19.471  1.00  0.00     0.026 C 
ENDBRANCH  36  39
ENDBRANCH  35  36
ENDBRANCH  34  35
ENDBRANCH  32  34
ENDBRANCH  29  30
ENDBRANCH   5  29
TORSDOF 13
ENDMDL
