MODEL 1
REMARK VINA RESULT: -8.659281159      0.000      0.000
REMARK  13 active torsions:
REMARK  status: ('A' for Active; 'I' for Inactive)
REMARK    1  A    between atoms: C2_2  and  N1_3 
REMARK    2  A    between atoms: N1_3  and  C3_5 
REMARK    3  A    between atoms: N3_9  and  C5_11 
REMARK    4  A    between atoms: C5_11  and  C6_12 
REMARK    5  A    between atoms: C6_12  and  C7_13 
REMARK    6  A    between atoms: C7_13  and  N4_14 
REMARK    7  A    between atoms: C13_24  and  C14_25 
REMARK    8  A    between atoms: C16_27  and  C17_28 
REMARK    9  A    between atoms: C17_28  and  C18_29 
REMARK   10  A    between atoms: C18_29  and  N7_30 
REMARK   11  A    between atoms: N7_30  and  C19_31 
REMARK   12  A    between atoms: N7_30  and  C21_33 
REMARK   13  A    between atoms: C25_37  and  N8_38 
ROOT
HETATM    1  C3  UNL     1      12.835  20.478  15.981  1.00  0.00     0.147 A 
HETATM    2  N2  UNL     1      12.215  19.712  15.020  1.00  0.00    -0.175 N 
ATOM      3  H2  UNL     1      11.357  19.216  15.260  1.00  0.00     0.186 HD
HETATM    4  C4  UNL     1      12.705  19.597  13.783  1.00  0.00     0.681 A 
HETATM    5  N3  UNL     1      12.191  18.887  12.846  1.00  0.00    -0.226 N 
ATOM      6  H3  UNL     1      12.640  18.864  11.930  1.00  0.00     0.177 HD
HETATM    7  N5  UNL     1      13.861  20.269  13.466  1.00  0.00    -0.174 N 
ATOM      8  H5  UNL     1      14.243  20.189  12.524  1.00  0.00     0.186 HD
HETATM    9  C12 UNL     1      14.497  21.024  14.369  1.00  0.00     0.153 A 
HETATM   10  N6  UNL     1      15.633  21.770  14.329  1.00  0.00    -0.325 N 
ATOM     11  H6  UNL     1      16.232  21.879  13.511  1.00  0.00     0.169 HD
HETATM   12  C13 UNL     1      15.853  22.349  15.542  1.00  0.00     0.120 A 
HETATM   13  N9  UNL     1      14.849  21.944  16.286  1.00  0.00    -0.336 N 
ATOM     14  H9  UNL     1      14.737  22.218  17.262  1.00  0.00     0.168 HD
HETATM   15  C26 UNL     1      13.985  21.140  15.650  1.00  0.00     0.123 A 
ENDROOT
BRANCH  12  16
HETATM   16  C14 UNL     1      17.014  23.173  15.864  1.00  0.00     0.042 A 
HETATM   17  C15 UNL     1      17.436  24.106  14.905  1.00  0.00     0.025 A 
HETATM   18  C16 UNL     1      18.533  24.917  15.056  1.00  0.00    -0.055 A 
HETATM   19  C23 UNL     1      19.267  24.815  16.212  1.00  0.00     0.010 A 
HETATM   20  C24 UNL     1      18.899  23.921  17.181  1.00  0.00     0.037 A 
HETATM   21  C25 UNL     1      17.758  23.092  17.004  1.00  0.00     0.116 A 
BRANCH  18  22
HETATM   22  C17 UNL     1      18.932  25.910  13.988  1.00  0.00     0.068 C 
BRANCH  22  23
HETATM   23  C18 UNL     1      19.566  27.046  14.705  1.00  0.00     0.277 C 
BRANCH  23  24
HETATM   24  N7  UNL     1      20.950  27.285  14.482  1.00  0.00     0.088 N 
BRANCH  24  25
HETATM   25  C19 UNL     1      21.087  28.451  13.639  1.00  0.00     0.268 C 
HETATM   26  C20 UNL     1      22.270  29.294  13.982  1.00  0.00     0.037 C 
ENDBRANCH  24  25
BRANCH  24  27
HETATM   27  C21 UNL     1      21.807  27.346  15.597  1.00  0.00     0.268 C 
HETATM   28  C22 UNL     1      22.765  26.218  15.795  1.00  0.00     0.037 C 
ENDBRANCH  24  27
ENDBRANCH  23  24
ENDBRANCH  22  23
ENDBRANCH  18  22
BRANCH  21  29
HETATM   29  N8  UNL     1      17.476  22.226  18.063  1.00  0.00    -0.115 N 
HETATM   30  O1  UNL     1      16.612  22.367  18.911  1.00  0.00    -0.532 OA
HETATM   31  O2  UNL     1      18.321  21.119  18.212  1.00  0.00    -0.532 OA
ENDBRANCH  21  29
ENDBRANCH  12  16
BRANCH   1  32
HETATM   32  N1  UNL     1      12.304  20.529  17.123  1.00  0.00    -0.374 N 
ATOM     33  H1  UNL     1      11.768  21.379  17.296  1.00  0.00     0.161 HD
BRANCH  32  34
HETATM   34  C2  UNL     1      12.318  19.629  18.202  1.00  0.00     0.116 C 
HETATM   35  C1  UNL     1      13.555  19.862  19.076  1.00  0.00     0.026 C 
ENDBRANCH  32  34
ENDBRANCH   1  32
BRANCH   5  36
HETATM   36  C5  UNL     1      10.990  18.121  13.065  1.00  0.00     0.143 C 
BRANCH  36  37
HETATM   37  C6  UNL     1      11.256  16.812  13.719  1.00  0.00     0.065 C 
BRANCH  37  38
HETATM   38  C7  UNL     1      10.064  16.041  14.174  1.00  0.00     0.064 C 
BRANCH  38  39
HETATM   39  N4  UNL     1       9.677  16.109  15.513  1.00  0.00    -0.374 N 
HETATM   40  C8  UNL     1       8.993  15.044  16.131  1.00  0.00     0.063 C 
HETATM   41  C9  UNL     1       9.694  14.755  17.452  1.00  0.00     0.046 C 
HETATM   42  C10 UNL     1      10.377  16.078  17.769  1.00  0.00     0.025 C 
HETATM   43  C11 UNL     1      10.485  16.806  16.441  1.00  0.00     0.127 C 
ENDBRANCH  38  39
ENDBRANCH  37  38
ENDBRANCH  36  37
ENDBRANCH   5  36
TORSDOF 13
ENDMDL
MODEL 2
REMARK VINA RESULT: -8.405553079      4.151      7.043
REMARK  13 active torsions:
REMARK  status: ('A' for Active; 'I' for Inactive)
REMARK    1  A    between atoms: C2_2  and  N1_3 
REMARK    2  A    between atoms: N1_3  and  C3_5 
REMARK    3  A    between atoms: N3_9  and  C5_11 
REMARK    4  A    between atoms: C5_11  and  C6_12 
REMARK    5  A    between atoms: C6_12  and  C7_13 
REMARK    6  A    between atoms: C7_13  and  N4_14 
REMARK    7  A    between atoms: C13_24  and  C14_25 
REMARK    8  A    between atoms: C16_27  and  C17_28 
REMARK    9  A    between atoms: C17_28  and  C18_29 
REMARK   10  A    between atoms: C18_29  and  N7_30 
REMARK   11  A    between atoms: N7_30  and  C19_31 
REMARK   12  A    between atoms: N7_30  and  C21_33 
REMARK   13  A    between atoms: C25_37  and  N8_38 
ROOT
HETATM    1  C3  UNL     1      17.694  24.830  18.464  1.00  0.00     0.147 A 
HETATM    2  N2  UNL     1      16.598  24.251  17.866  1.00  0.00    -0.175 N 
ATOM      3  H2  UNL     1      15.886  23.818  18.452  1.00  0.00     0.186 HD
HETATM    4  C4  UNL     1      16.440  24.240  16.539  1.00  0.00     0.681 A 
HETATM    5  N3  UNL     1      15.457  23.703  15.915  1.00  0.00    -0.226 N 
ATOM      6  H3  UNL     1      15.424  23.748  14.897  1.00  0.00     0.177 HD
HETATM    7  N5  UNL     1      17.405  24.827  15.756  1.00  0.00    -0.174 N 
ATOM      8  H5  UNL     1      17.294  24.825  14.742  1.00  0.00     0.186 HD
HETATM    9  C12 UNL     1      18.486  25.400  16.295  1.00  0.00     0.153 A 
HETATM   10  N6  UNL     1      19.571  26.028  15.768  1.00  0.00    -0.325 N 
ATOM     11  H6  UNL     1      19.735  26.176  14.772  1.00  0.00     0.169 HD
HETATM   12  C13 UNL     1      20.406  26.431  16.766  1.00  0.00     0.120 A 
HETATM   13  N9  UNL     1      19.811  26.040  17.870  1.00  0.00    -0.336 N 
ATOM     14  H9  UNL     1      20.202  26.203  18.798  1.00  0.00     0.168 HD
HETATM   15  C26 UNL     1      18.645  25.409  17.670  1.00  0.00     0.123 A 
ENDROOT
BRANCH  12  16
HETATM   16  C14 UNL     1      21.691  27.090  16.551  1.00  0.00     0.042 A 
HETATM   17  C15 UNL     1      22.757  26.724  17.388  1.00  0.00     0.025 A 
HETATM   18  C16 UNL     1      24.007  27.288  17.327  1.00  0.00    -0.055 A 
HETATM   19  C23 UNL     1      24.236  28.269  16.393  1.00  0.00     0.010 A 
HETATM   20  C24 UNL     1      23.231  28.663  15.552  1.00  0.00     0.037 A 
HETATM   21  C25 UNL     1      21.945  28.064  15.631  1.00  0.00     0.116 A 
BRANCH  18  22
HETATM   22  C17 UNL     1      25.117  26.844  18.252  1.00  0.00     0.068 C 
BRANCH  22  23
HETATM   23  C18 UNL     1      25.322  25.398  17.977  1.00  0.00     0.277 C 
BRANCH  23  24
HETATM   24  N7  UNL     1      25.029  24.475  19.018  1.00  0.00     0.088 N 
BRANCH  24  25
HETATM   25  C19 UNL     1      26.056  23.458  19.035  1.00  0.00     0.268 C 
HETATM   26  C20 UNL     1      25.513  22.068  19.065  1.00  0.00     0.037 C 
ENDBRANCH  24  25
BRANCH  24  27
HETATM   27  C21 UNL     1      24.775  24.979  20.308  1.00  0.00     0.268 C 
HETATM   28  C22 UNL     1      23.377  24.891  20.821  1.00  0.00     0.037 C 
ENDBRANCH  24  27
ENDBRANCH  23  24
ENDBRANCH  22  23
ENDBRANCH  18  22
BRANCH  21  29
HETATM   29  N8  UNL     1      21.003  28.541  14.717  1.00  0.00    -0.115 N 
HETATM   30  O1  UNL     1      19.870  28.916  14.965  1.00  0.00    -0.532 OA
HETATM   31  O2  UNL     1      21.370  28.515  13.365  1.00  0.00    -0.532 OA
ENDBRANCH  21  29
ENDBRANCH  12  16
BRANCH   1  32
HETATM   32  N1  UNL     1      17.764  24.794  19.722  1.00  0.00    -0.374 N 
ATOM     33  H1  UNL     1      17.333  25.593  20.186  1.00  0.00     0.161 HD
BRANCH  32  34
HETATM   34  C2  UNL     1      18.325  23.853  20.602  1.00  0.00     0.116 C 
HETATM   35  C1  UNL     1      19.653  24.375  21.164  1.00  0.00     0.026 C 
ENDBRANCH  32  34
ENDBRANCH   1  32
BRANCH   5  36
HETATM   36  C5  UNL     1      14.395  23.039  16.629  1.00  0.00     0.143 C 
BRANCH  36  37
HETATM   37  C6  UNL     1      14.455  21.559  16.500  1.00  0.00     0.065 C 
BRANCH  37  38
HETATM   38  C7  UNL     1      15.212  20.829  17.557  1.00  0.00     0.064 C 
BRANCH  38  39
HETATM   39  N4  UNL     1      14.608  20.597  18.794  1.00  0.00    -0.374 N 
HETATM   40  C8  UNL     1      13.584  19.641  18.937  1.00  0.00     0.063 C 
HETATM   41  C9  UNL     1      13.933  18.774  20.140  1.00  0.00     0.046 C 
HETATM   42  C10 UNL     1      14.842  19.681  20.958  1.00  0.00     0.025 C 
HETATM   43  C11 UNL     1      15.370  20.714  19.979  1.00  0.00     0.127 C 
ENDBRANCH  38  39
ENDBRANCH  37  38
ENDBRANCH  36  37
ENDBRANCH   5  36
TORSDOF 13
ENDMDL
MODEL 3
REMARK VINA RESULT: -8.380539949      2.439      4.077
REMARK  13 active torsions:
REMARK  status: ('A' for Active; 'I' for Inactive)
REMARK    1  A    between atoms: C2_2  and  N1_3 
REMARK    2  A    between atoms: N1_3  and  C3_5 
REMARK    3  A    between atoms: N3_9  and  C5_11 
REMARK    4  A    between atoms: C5_11  and  C6_12 
REMARK    5  A    between atoms: C6_12  and  C7_13 
REMARK    6  A    between atoms: C7_13  and  N4_14 
REMARK    7  A    between atoms: C13_24  and  C14_25 
REMARK    8  A    between atoms: C16_27  and  C17_28 
REMARK    9  A    between atoms: C17_28  and  C18_29 
REMARK   10  A    between atoms: C18_29  and  N7_30 
REMARK   11  A    between atoms: N7_30  and  C19_31 
REMARK   12  A    between atoms: N7_30  and  C21_33 
REMARK   13  A    between atoms: C25_37  and  N8_38 
ROOT
HETATM    1  C3  UNL     1      14.842  22.506  18.265  1.00  0.00     0.147 A 
HETATM    2  N2  UNL     1      14.014  22.273  17.190  1.00  0.00    -0.175 N 
ATOM      3  H2  UNL     1      13.173  21.713  17.326  1.00  0.00     0.186 HD
HETATM    4  C4  UNL     1      14.281  22.757  15.974  1.00  0.00     0.681 A 
HETATM    5  N3  UNL     1      13.566  22.564  14.927  1.00  0.00    -0.226 N 
ATOM      6  H3  UNL     1      13.853  22.979  14.040  1.00  0.00     0.177 HD
HETATM    7  N5  UNL     1      15.416  23.511  15.799  1.00  0.00    -0.174 N 
ATOM      8  H5  UNL     1      15.629  23.887  14.876  1.00  0.00     0.186 HD
HETATM    9  C12 UNL     1      16.249  23.762  16.816  1.00  0.00     0.153 A 
HETATM   10  N6  UNL     1      17.416  24.451  16.918  1.00  0.00    -0.325 N 
ATOM     11  H6  UNL     1      17.878  24.938  16.150  1.00  0.00     0.169 HD
HETATM   12  C13 UNL     1      17.878  24.396  18.198  1.00  0.00     0.120 A 
HETATM   13  N9  UNL     1      16.985  23.679  18.840  1.00  0.00    -0.336 N 
ATOM     14  H9  UNL     1      17.058  23.461  19.833  1.00  0.00     0.168 HD
HETATM   15  C26 UNL     1      15.968  23.258  18.074  1.00  0.00     0.123 A 
ENDROOT
BRANCH  12  16
HETATM   16  C14 UNL     1      19.137  24.985  18.647  1.00  0.00     0.042 A 
HETATM   17  C15 UNL     1      19.758  25.916  17.800  1.00  0.00     0.025 A 
HETATM   18  C16 UNL     1      20.961  26.517  18.074  1.00  0.00    -0.055 A 
HETATM   19  C23 UNL     1      21.601  26.194  19.245  1.00  0.00     0.010 A 
HETATM   20  C24 UNL     1      21.039  25.293  20.108  1.00  0.00     0.037 A 
HETATM   21  C25 UNL     1      19.792  24.683  19.805  1.00  0.00     0.116 A 
BRANCH  18  22
HETATM   22  C17 UNL     1      21.576  27.519  17.123  1.00  0.00     0.068 C 
BRANCH  22  23
HETATM   23  C18 UNL     1      22.324  26.719  16.119  1.00  0.00     0.277 C 
BRANCH  23  24
HETATM   24  N7  UNL     1      21.733  26.537  14.838  1.00  0.00     0.088 N 
BRANCH  24  25
HETATM   25  C19 UNL     1      21.248  25.178  14.743  1.00  0.00     0.268 C 
HETATM   26  C20 UNL     1      19.851  25.083  14.229  1.00  0.00     0.037 C 
ENDBRANCH  24  25
BRANCH  24  27
HETATM   27  C21 UNL     1      20.766  27.465  14.409  1.00  0.00     0.268 C 
HETATM   28  C22 UNL     1      21.235  28.627  13.597  1.00  0.00     0.037 C 
ENDBRANCH  24  27
ENDBRANCH  23  24
ENDBRANCH  22  23
ENDBRANCH  18  22
BRANCH  21  29
HETATM   29  N8  UNL     1      19.313  23.787  20.763  1.00  0.00    -0.115 N 
HETATM   30  O1  UNL     1      19.003  24.045  21.913  1.00  0.00    -0.532 OA
HETATM   31  O2  UNL     1      19.255  22.438  20.389  1.00  0.00    -0.532 OA
ENDBRANCH  21  29
ENDBRANCH  12  16
BRANCH   1  32
HETATM   32  N1  UNL     1      14.515  22.009  19.376  1.00  0.00    -0.374 N 
ATOM     33  H1  UNL     1      13.704  22.452  19.808  1.00  0.00     0.161 HD
BRANCH  32  34
HETATM   34  C2  UNL     1      15.064  20.957  20.129  1.00  0.00     0.116 C 
HETATM   35  C1  UNL     1      14.616  19.605  19.563  1.00  0.00     0.026 C 
ENDBRANCH  32  34
ENDBRANCH   1  32
BRANCH   5  36
HETATM   36  C5  UNL     1      12.363  21.772  14.982  1.00  0.00     0.143 C 
BRANCH  36  37
HETATM   37  C6  UNL     1      12.634  20.312  14.907  1.00  0.00     0.065 C 
BRANCH  37  38
HETATM   38  C7  UNL     1      13.376  19.833  13.706  1.00  0.00     0.064 C 
BRANCH  38  39
HETATM   39  N4  UNL     1      12.711  19.056  12.757  1.00  0.00    -0.374 N 
HETATM   40  C8  UNL     1      12.945  17.671  12.653  1.00  0.00     0.063 C 
HETATM   41  C9  UNL     1      11.589  16.980  12.614  1.00  0.00     0.046 C 
HETATM   42  C10 UNL     1      10.665  18.075  12.100  1.00  0.00     0.025 C 
HETATM   43  C11 UNL     1      11.383  19.380  12.392  1.00  0.00     0.127 C 
ENDBRANCH  38  39
ENDBRANCH  37  38
ENDBRANCH  36  37
ENDBRANCH   5  36
TORSDOF 13
ENDMDL
MODEL 4
REMARK VINA RESULT: -8.367773060      4.131      7.014
REMARK  13 active torsions:
REMARK  status: ('A' for Active; 'I' for Inactive)
REMARK    1  A    between atoms: C2_2  and  N1_3 
REMARK    2  A    between atoms: N1_3  and  C3_5 
REMARK    3  A    between atoms: N3_9  and  C5_11 
REMARK    4  A    between atoms: C5_11  and  C6_12 
REMARK    5  A    between atoms: C6_12  and  C7_13 
REMARK    6  A    between atoms: C7_13  and  N4_14 
REMARK    7  A    between atoms: C13_24  and  C14_25 
REMARK    8  A    between atoms: C16_27  and  C17_28 
REMARK    9  A    between atoms: C17_28  and  C18_29 
REMARK   10  A    between atoms: C18_29  and  N7_30 
REMARK   11  A    between atoms: N7_30  and  C19_31 
REMARK   12  A    between atoms: N7_30  and  C21_33 
REMARK   13  A    between atoms: C25_37  and  N8_38 
ROOT
HETATM    1  C3  UNL     1      17.670  24.772  18.491  1.00  0.00     0.147 A 
HETATM    2  N2  UNL     1      16.577  24.208  17.873  1.00  0.00    -0.175 N 
ATOM      3  H2  UNL     1      15.855  23.773  18.446  1.00  0.00     0.186 HD
HETATM    4  C4  UNL     1      16.434  24.215  16.545  1.00  0.00     0.681 A 
HETATM    5  N3  UNL     1      15.454  23.693  15.902  1.00  0.00    -0.226 N 
ATOM      6  H3  UNL     1      15.434  23.750  14.884  1.00  0.00     0.177 HD
HETATM    7  N5  UNL     1      17.412  24.805  15.779  1.00  0.00    -0.174 N 
ATOM      8  H5  UNL     1      17.312  24.816  14.764  1.00  0.00     0.186 HD
HETATM    9  C12 UNL     1      18.490  25.364  16.338  1.00  0.00     0.153 A 
HETATM   10  N6  UNL     1      19.585  25.992  15.832  1.00  0.00    -0.325 N 
ATOM     11  H6  UNL     1      19.762  26.151  14.840  1.00  0.00     0.169 HD
HETATM   12  C13 UNL     1      20.411  26.376  16.844  1.00  0.00     0.120 A 
HETATM   13  N9  UNL     1      19.801  25.976  17.936  1.00  0.00    -0.336 N 
ATOM     14  H9  UNL     1      20.182  26.124  18.870  1.00  0.00     0.168 HD
HETATM   15  C26 UNL     1      18.633  25.355  17.715  1.00  0.00     0.123 A 
ENDROOT
BRANCH  12  16
HETATM   16  C14 UNL     1      21.703  27.029  16.652  1.00  0.00     0.042 A 
HETATM   17  C15 UNL     1      22.753  26.655  17.504  1.00  0.00     0.025 A 
HETATM   18  C16 UNL     1      24.007  27.212  17.465  1.00  0.00    -0.055 A 
HETATM   19  C23 UNL     1      24.256  28.195  16.540  1.00  0.00     0.010 A 
HETATM   20  C24 UNL     1      23.267  28.597  15.683  1.00  0.00     0.037 A 
HETATM   21  C25 UNL     1      21.977  28.005  15.740  1.00  0.00     0.116 A 
BRANCH  18  22
HETATM   22  C17 UNL     1      25.100  26.760  18.407  1.00  0.00     0.068 C 
BRANCH  22  23
HETATM   23  C18 UNL     1      24.435  26.518  19.714  1.00  0.00     0.277 C 
BRANCH  23  24
HETATM   24  N7  UNL     1      24.693  25.285  20.374  1.00  0.00     0.088 N 
BRANCH  24  25
HETATM   25  C19 UNL     1      24.122  25.343  21.700  1.00  0.00     0.268 C 
HETATM   26  C20 UNL     1      22.892  26.185  21.779  1.00  0.00     0.037 C 
ENDBRANCH  24  25
BRANCH  24  27
HETATM   27  C21 UNL     1      24.354  24.088  19.713  1.00  0.00     0.268 C 
HETATM   28  C22 UNL     1      25.468  23.180  19.313  1.00  0.00     0.037 C 
ENDBRANCH  24  27
ENDBRANCH  23  24
ENDBRANCH  22  23
ENDBRANCH  18  22
BRANCH  21  29
HETATM   29  N8  UNL     1      21.052  28.491  14.812  1.00  0.00    -0.115 N 
HETATM   30  O1  UNL     1      19.917  28.868  15.044  1.00  0.00    -0.532 OA
HETATM   31  O2  UNL     1      21.441  28.470  13.467  1.00  0.00    -0.532 OA
ENDBRANCH  21  29
ENDBRANCH  12  16
BRANCH   1  32
HETATM   32  N1  UNL     1      17.724  24.720  19.749  1.00  0.00    -0.374 N 
ATOM     33  H1  UNL     1      17.269  25.503  20.218  1.00  0.00     0.161 HD
BRANCH  32  34
HETATM   34  C2  UNL     1      18.297  23.781  20.623  1.00  0.00     0.116 C 
HETATM   35  C1  UNL     1      19.597  24.332  21.221  1.00  0.00     0.026 C 
ENDBRANCH  32  34
ENDBRANCH   1  32
BRANCH   5  36
HETATM   36  C5  UNL     1      14.380  23.027  16.596  1.00  0.00     0.143 C 
BRANCH  36  37
HETATM   37  C6  UNL     1      14.421  21.550  16.434  1.00  0.00     0.065 C 
BRANCH  37  38
HETATM   38  C7  UNL     1      15.162  20.786  17.477  1.00  0.00     0.064 C 
BRANCH  38  39
HETATM   39  N4  UNL     1      14.579  20.600  18.732  1.00  0.00    -0.374 N 
HETATM   40  C8  UNL     1      13.549  19.659  18.926  1.00  0.00     0.063 C 
HETATM   41  C9  UNL     1      13.913  18.829  20.150  1.00  0.00     0.046 C 
HETATM   42  C10 UNL     1      14.845  19.754  20.921  1.00  0.00     0.025 C 
HETATM   43  C11 UNL     1      15.364  20.749  19.898  1.00  0.00     0.127 C 
ENDBRANCH  38  39
ENDBRANCH  37  38
ENDBRANCH  36  37
ENDBRANCH   5  36
TORSDOF 13
ENDMDL
MODEL 5
REMARK VINA RESULT: -8.358425960      2.159      3.710
REMARK  13 active torsions:
REMARK  status: ('A' for Active; 'I' for Inactive)
REMARK    1  A    between atoms: C2_2  and  N1_3 
REMARK    2  A    between atoms: N1_3  and  C3_5 
REMARK    3  A    between atoms: N3_9  and  C5_11 
REMARK    4  A    between atoms: C5_11  and  C6_12 
REMARK    5  A    between atoms: C6_12  and  C7_13 
REMARK    6  A    between atoms: C7_13  and  N4_14 
REMARK    7  A    between atoms: C13_24  and  C14_25 
REMARK    8  A    between atoms: C16_27  and  C17_28 
REMARK    9  A    between atoms: C17_28  and  C18_29 
REMARK   10  A    between atoms: C18_29  and  N7_30 
REMARK   11  A    between atoms: N7_30  and  C19_31 
REMARK   12  A    between atoms: N7_30  and  C21_33 
REMARK   13  A    between atoms: C25_37  and  N8_38 
ROOT
HETATM    1  C3  UNL     1      14.398  21.006  15.726  1.00  0.00     0.147 A 
HETATM    2  N2  UNL     1      13.355  20.400  16.390  1.00  0.00    -0.175 N 
ATOM      3  H2  UNL     1      12.748  19.760  15.879  1.00  0.00     0.186 HD
HETATM    4  C4  UNL     1      13.115  20.625  17.685  1.00  0.00     0.681 A 
HETATM    5  N3  UNL     1      12.154  20.111  18.361  1.00  0.00    -0.226 N 
ATOM      6  H3  UNL     1      12.054  20.344  19.348  1.00  0.00     0.177 HD
HETATM    7  N5  UNL     1      13.939  21.488  18.368  1.00  0.00    -0.174 N 
ATOM      8  H5  UNL     1      13.765  21.667  19.357  1.00  0.00     0.186 HD
HETATM    9  C12 UNL     1      14.963  22.100  17.762  1.00  0.00     0.153 A 
HETATM   10  N6  UNL     1      15.904  22.985  18.184  1.00  0.00    -0.325 N 
ATOM     11  H6  UNL     1      15.980  23.349  19.134  1.00  0.00     0.169 HD
HETATM   12  C13 UNL     1      16.731  23.312  17.153  1.00  0.00     0.120 A 
HETATM   13  N9  UNL     1      16.275  22.621  16.134  1.00  0.00    -0.336 N 
ATOM     14  H9  UNL     1      16.696  22.658  15.206  1.00  0.00     0.168 HD
HETATM   15  C26 UNL     1      15.207  21.863  16.420  1.00  0.00     0.123 A 
ENDROOT
BRANCH  12  16
HETATM   16  C14 UNL     1      17.821  24.280  17.244  1.00  0.00     0.042 A 
HETATM   17  C15 UNL     1      18.078  25.078  16.118  1.00  0.00     0.025 A 
HETATM   18  C16 UNL     1      19.093  25.999  16.048  1.00  0.00    -0.055 A 
HETATM   19  C23 UNL     1      19.910  26.155  17.140  1.00  0.00     0.010 A 
HETATM   20  C24 UNL     1      19.703  25.403  18.265  1.00  0.00     0.037 A 
HETATM   21  C25 UNL     1      18.644  24.457  18.317  1.00  0.00     0.116 A 
BRANCH  18  22
HETATM   22  C17 UNL     1      19.314  26.834  14.807  1.00  0.00     0.068 C 
BRANCH  22  23
HETATM   23  C18 UNL     1      20.270  27.901  15.201  1.00  0.00     0.277 C 
BRANCH  23  24
HETATM   24  N7  UNL     1      21.593  27.835  14.682  1.00  0.00     0.088 N 
BRANCH  24  25
HETATM   25  C19 UNL     1      21.789  28.944  13.776  1.00  0.00     0.268 C 
HETATM   26  C20 UNL     1      23.078  29.664  13.992  1.00  0.00     0.037 C 
ENDBRANCH  24  25
BRANCH  24  27
HETATM   27  C21 UNL     1      22.662  27.708  15.588  1.00  0.00     0.268 C 
HETATM   28  C22 UNL     1      23.237  26.346  15.792  1.00  0.00     0.037 C 
ENDBRANCH  24  27
ENDBRANCH  23  24
ENDBRANCH  22  23
ENDBRANCH  18  22
BRANCH  21  29
HETATM   29  N8  UNL     1      18.526  23.754  19.519  1.00  0.00    -0.115 N 
HETATM   30  O1  UNL     1      18.663  22.554  19.678  1.00  0.00    -0.532 OA
HETATM   31  O2  UNL     1      18.133  24.492  20.642  1.00  0.00    -0.532 OA
ENDBRANCH  21  29
ENDBRANCH  12  16
BRANCH   1  32
HETATM   32  N1  UNL     1      14.551  20.737  14.504  1.00  0.00    -0.374 N 
ATOM     33  H1  UNL     1      15.522  20.602  14.226  1.00  0.00     0.161 HD
BRANCH  32  34
HETATM   34  C2  UNL     1      13.627  20.590  13.456  1.00  0.00     0.116 C 
HETATM   35  C1  UNL     1      13.356  19.105  13.187  1.00  0.00     0.026 C 
ENDBRANCH  32  34
ENDBRANCH   1  32
BRANCH   5  36
HETATM   36  C5  UNL     1      11.213  19.208  17.747  1.00  0.00     0.143 C 
BRANCH  36  37
HETATM   37  C6  UNL     1      10.929  18.015  18.588  1.00  0.00     0.065 C 
BRANCH  37  38
HETATM   38  C7  UNL     1      12.067  17.082  18.825  1.00  0.00     0.064 C 
BRANCH  38  39
HETATM   39  N4  UNL     1      12.911  17.297  19.916  1.00  0.00    -0.374 N 
HETATM   40  C8  UNL     1      14.260  17.661  19.736  1.00  0.00     0.063 C 
HETATM   41  C9  UNL     1      14.536  18.854  20.640  1.00  0.00     0.046 C 
HETATM   42  C10 UNL     1      13.473  18.714  21.721  1.00  0.00     0.025 C 
HETATM   43  C11 UNL     1      12.387  17.848  21.109  1.00  0.00     0.127 C 
ENDBRANCH  38  39
ENDBRANCH  37  38
ENDBRANCH  36  37
ENDBRANCH   5  36
TORSDOF 13
ENDMDL
