MODEL 1
REMARK VINA RESULT: -8.353270285      0.000      0.000
REMARK  14 active torsions:
REMARK  status: ('A' for Active; 'I' for Inactive)
REMARK    1  A    between atoms: C2_2  and  N1_3 
REMARK    2  A    between atoms: N1_3  and  C3_5 
REMARK    3  A    between atoms: C3_5  and  N2_6 
REMARK    4  A    between atoms: C3_5  and  C17_31 
REMARK    5  A    between atoms: N2_6  and  C4_8 
REMARK    6  A    between atoms: C5_13  and  C6_14 
REMARK       I    between atoms: C6_14  and  N5_16 
REMARK    7  A    between atoms: N5_16  and  C7_18 
REMARK    8  A    between atoms: C7_18  and  C8_19 
REMARK    9  A    between atoms: C8_19  and  C9_20 
REMARK   10  A    between atoms: C9_20  and  N6_21 
REMARK   11  A    between atoms: N7_24  and  C12_25 
REMARK   12  A    between atoms: C17_31  and  N8_32 
REMARK   13  A    between atoms: N8_32  and  C18_34 
REMARK   14  A    between atoms: C18_34  and  C19_35 
ROOT
HETATM    1  C4  UNL     1      16.475  24.315  18.442  1.00  0.00     0.167 A 
HETATM    2  N3  UNL     1      15.144  24.461  18.405  1.00  0.00    -0.278 N 
ATOM      3  H3  UNL     1      14.724  25.374  18.235  1.00  0.00     0.189 HD
HETATM    4  N4  UNL     1      14.417  23.436  18.587  1.00  0.00    -0.287 N 
ATOM      5  H4  UNL     1      13.401  23.524  18.562  1.00  0.00     0.188 HD
HETATM    6  C5  UNL     1      14.966  22.253  18.809  1.00  0.00     0.160 A 
HETATM    7  S1  UNL     1      16.632  22.642  18.751  1.00  0.00    -0.028 SA
ENDROOT
BRANCH   1   8
HETATM    8  N2  UNL     1      17.370  25.263  18.275  1.00  0.00    -0.323 N 
ATOM      9  H2  UNL     1      17.140  26.238  18.464  1.00  0.00     0.169 HD
BRANCH   8  10
HETATM   10  C3  UNL     1      18.687  24.889  17.820  1.00  0.00     0.107 C 
BRANCH  10  11
HETATM   11  N1  UNL     1      19.353  24.103  18.544  1.00  0.00    -0.378 N 
ATOM     12  H1  UNL     1      19.339  23.124  18.260  1.00  0.00     0.160 HD
BRANCH  11  13
HETATM   13  C2  UNL     1      20.125  24.397  19.710  1.00  0.00     0.116 C 
HETATM   14  C1  UNL     1      19.399  24.144  21.013  1.00  0.00     0.026 C 
ENDBRANCH  11  13
ENDBRANCH  10  11
BRANCH  10  15
HETATM   15  C17 UNL     1      19.113  25.449  16.537  1.00  0.00     0.084 C 
HETATM   16  C22 UNL     1      20.062  24.485  15.824  1.00  0.00     0.039 C 
HETATM   17  C23 UNL     1      19.832  24.689  14.357  1.00  0.00     0.003 C 
HETATM   18  C24 UNL     1      18.683  25.684  14.242  1.00  0.00     0.003 C 
HETATM   19  C25 UNL     1      17.934  25.398  15.559  1.00  0.00     0.039 C 
BRANCH  15  20
HETATM   20  N8  UNL     1      19.596  26.777  16.528  1.00  0.00    -0.406 N 
ATOM     21  H8  UNL     1      19.075  27.512  16.048  1.00  0.00     0.154 HD
BRANCH  20  22
HETATM   22  C18 UNL     1      20.807  27.076  17.192  1.00  0.00     0.118 C 
BRANCH  22  23
HETATM   23  C19 UNL     1      21.746  27.835  16.235  1.00  0.00    -0.005 C 
HETATM   24  C20 UNL     1      22.806  26.903  15.720  1.00  0.00     0.011 C 
HETATM   25  C21 UNL     1      20.906  28.347  15.087  1.00  0.00     0.011 C 
ENDBRANCH  22  23
ENDBRANCH  20  22
ENDBRANCH  15  20
ENDBRANCH  10  15
ENDBRANCH   8  10
ENDBRANCH   1   8
BRANCH   6  26
HETATM   26  C6  UNL     1      14.311  20.951  19.049  1.00  0.00     0.276 C 
HETATM   27  O1  UNL     1      14.825  20.168  19.848  1.00  0.00    -0.265 OA
HETATM   28  N5  UNL     1      13.127  20.664  18.354  1.00  0.00    -0.355 N 
ATOM     29  H5  UNL     1      12.754  21.358  17.706  1.00  0.00     0.162 HD
BRANCH  28  30
HETATM   30  C7  UNL     1      12.420  19.420  18.524  1.00  0.00     0.125 C 
BRANCH  30  31
HETATM   31  C8  UNL     1      11.406  19.200  17.429  1.00  0.00     0.050 C 
BRANCH  31  32
HETATM   32  C9  UNL     1      11.189  20.502  16.686  1.00  0.00     0.274 C 
BRANCH  32  33
HETATM   33  N6  UNL     1      11.199  20.318  15.258  1.00  0.00     0.091 N 
HETATM   34  C10 UNL     1      11.276  21.554  14.520  1.00  0.00     0.302 C 
HETATM   35  C11 UNL     1      12.506  22.293  14.924  1.00  0.00     0.303 C 
HETATM   36  N7  UNL     1      13.671  21.464  15.013  1.00  0.00     0.095 N 
HETATM   37  C15 UNL     1      13.504  20.149  14.434  1.00  0.00     0.303 C 
HETATM   38  C16 UNL     1      12.295  19.422  14.944  1.00  0.00     0.302 C 
BRANCH  36  39
HETATM   39  C12 UNL     1      14.736  22.130  14.246  1.00  0.00     0.215 C 
HETATM   40  C13 UNL     1      16.006  22.223  15.088  1.00  0.00     0.042 C 
HETATM   41  C14 UNL     1      14.998  21.377  12.961  1.00  0.00     0.042 C 
ENDBRANCH  36  39
ENDBRANCH  32  33
ENDBRANCH  31  32
ENDBRANCH  30  31
ENDBRANCH  28  30
ENDBRANCH   6  26
TORSDOF 14
ENDMDL
MODEL 2
REMARK VINA RESULT: -8.093548846      1.689      8.326
REMARK  14 active torsions:
REMARK  status: ('A' for Active; 'I' for Inactive)
REMARK    1  A    between atoms: C2_2  and  N1_3 
REMARK    2  A    between atoms: N1_3  and  C3_5 
REMARK    3  A    between atoms: C3_5  and  N2_6 
REMARK    4  A    between atoms: C3_5  and  C17_31 
REMARK    5  A    between atoms: N2_6  and  C4_8 
REMARK    6  A    between atoms: C5_13  and  C6_14 
REMARK       I    between atoms: C6_14  and  N5_16 
REMARK    7  A    between atoms: N5_16  and  C7_18 
REMARK    8  A    between atoms: C7_18  and  C8_19 
REMARK    9  A    between atoms: C8_19  and  C9_20 
REMARK   10  A    between atoms: C9_20  and  N6_21 
REMARK   11  A    between atoms: N7_24  and  C12_25 
REMARK   12  A    between atoms: C17_31  and  N8_32 
REMARK   13  A    between atoms: N8_32  and  C18_34 
REMARK   14  A    between atoms: C18_34  and  C19_35 
ROOT
HETATM    1  C4  UNL     1      15.275  23.017  18.535  1.00  0.00     0.167 A 
HETATM    2  N3  UNL     1      15.454  24.345  18.529  1.00  0.00    -0.278 N 
ATOM      3  H3  UNL     1      14.702  24.971  18.243  1.00  0.00     0.189 HD
HETATM    4  N4  UNL     1      16.583  24.805  18.886  1.00  0.00    -0.287 N 
ATOM      5  H4  UNL     1      16.740  25.813  18.888  1.00  0.00     0.188 HD
HETATM    6  C5  UNL     1      17.556  23.989  19.254  1.00  0.00     0.160 A 
HETATM    7  S1  UNL     1      16.798  22.464  19.076  1.00  0.00    -0.028 SA
ENDROOT
BRANCH   1   8
HETATM    8  N2  UNL     1      14.179  22.374  18.199  1.00  0.00    -0.323 N 
ATOM      9  H2  UNL     1      13.260  22.745  18.442  1.00  0.00     0.169 HD
BRANCH   8  10
HETATM   10  C3  UNL     1      14.307  21.132  17.477  1.00  0.00     0.107 C 
BRANCH  10  11
HETATM   11  N1  UNL     1      14.506  20.086  18.148  1.00  0.00    -0.378 N 
ATOM     12  H1  UNL     1      15.280  19.501  17.832  1.00  0.00     0.160 HD
BRANCH  11  13
HETATM   13  C2  UNL     1      13.797  19.606  19.292  1.00  0.00     0.116 C 
HETATM   14  C1  UNL     1      14.616  19.584  20.564  1.00  0.00     0.026 C 
ENDBRANCH  11  13
ENDBRANCH  10  11
BRANCH  10  15
HETATM   15  C17 UNL     1      14.170  21.210  16.022  1.00  0.00     0.084 C 
HETATM   16  C22 UNL     1      13.426  22.485  15.625  1.00  0.00     0.039 C 
HETATM   17  C23 UNL     1      13.977  22.886  14.290  1.00  0.00     0.003 C 
HETATM   18  C24 UNL     1      15.103  21.905  13.983  1.00  0.00     0.003 C 
HETATM   19  C25 UNL     1      15.540  21.529  15.414  1.00  0.00     0.039 C 
BRANCH  15  20
HETATM   20  N8  UNL     1      13.676  20.072  15.346  1.00  0.00    -0.406 N 
ATOM     21  H8  UNL     1      14.321  19.394  14.938  1.00  0.00     0.154 HD
BRANCH  20  22
HETATM   22  C18 UNL     1      12.279  19.882  15.243  1.00  0.00     0.118 C 
BRANCH  22  23
HETATM   23  C19 UNL     1      11.945  19.237  13.885  1.00  0.00    -0.005 C 
HETATM   24  C20 UNL     1      11.223  20.228  13.017  1.00  0.00     0.011 C 
HETATM   25  C21 UNL     1      13.253  18.840  13.238  1.00  0.00     0.011 C 
ENDBRANCH  22  23
ENDBRANCH  20  22
ENDBRANCH  15  20
ENDBRANCH  10  15
ENDBRANCH   8  10
ENDBRANCH   1   8
BRANCH   6  26
HETATM   26  C6  UNL     1      18.928  24.312  19.693  1.00  0.00     0.276 C 
HETATM   27  O1  UNL     1      19.503  23.539  20.460  1.00  0.00    -0.265 OA
HETATM   28  N5  UNL     1      19.519  25.491  19.215  1.00  0.00    -0.355 N 
ATOM     29  H5  UNL     1      18.987  26.088  18.580  1.00  0.00     0.162 HD
BRANCH  28  30
HETATM   30  C7  UNL     1      20.853  25.887  19.589  1.00  0.00     0.125 C 
BRANCH  30  31
HETATM   31  C8  UNL     1      21.416  26.916  18.640  1.00  0.00     0.050 C 
BRANCH  31  32
HETATM   32  C9  UNL     1      22.210  26.212  17.560  1.00  0.00     0.274 C 
BRANCH  32  33
HETATM   33  N6  UNL     1      22.146  26.907  16.300  1.00  0.00     0.091 N 
HETATM   34  C10 UNL     1      22.181  26.030  15.157  1.00  0.00     0.302 C 
HETATM   35  C11 UNL     1      21.045  25.067  15.239  1.00  0.00     0.303 C 
HETATM   36  N7  UNL     1      19.803  25.676  15.609  1.00  0.00     0.095 N 
HETATM   37  C15 UNL     1      19.816  27.121  15.559  1.00  0.00     0.303 C 
HETATM   38  C16 UNL     1      20.954  27.733  16.322  1.00  0.00     0.302 C 
BRANCH  36  39
HETATM   39  C12 UNL     1      18.795  25.230  14.633  1.00  0.00     0.215 C 
HETATM   40  C13 UNL     1      17.761  24.340  15.319  1.00  0.00     0.042 C 
HETATM   41  C14 UNL     1      18.131  26.427  13.991  1.00  0.00     0.042 C 
ENDBRANCH  36  39
ENDBRANCH  32  33
ENDBRANCH  31  32
ENDBRANCH  30  31
ENDBRANCH  28  30
ENDBRANCH   6  26
TORSDOF 14
ENDMDL
MODEL 3
REMARK VINA RESULT: -8.007811538      2.211      8.339
REMARK  14 active torsions:
REMARK  status: ('A' for Active; 'I' for Inactive)
REMARK    1  A    between atoms: C2_2  and  N1_3 
REMARK    2  A    between atoms: N1_3  and  C3_5 
REMARK    3  A    between atoms: C3_5  and  N2_6 
REMARK    4  A    between atoms: C3_5  and  C17_31 
REMARK    5  A    between atoms: N2_6  and  C4_8 
REMARK    6  A    between atoms: C5_13  and  C6_14 
REMARK       I    between atoms: C6_14  and  N5_16 
REMARK    7  A    between atoms: N5_16  and  C7_18 
REMARK    8  A    between atoms: C7_18  and  C8_19 
REMARK    9  A    between atoms: C8_19  and  C9_20 
REMARK   10  A    between atoms: C9_20  and  N6_21 
REMARK   11  A    between atoms: N7_24  and  C12_25 
REMARK   12  A    between atoms: C17_31  and  N8_32 
REMARK   13  A    between atoms: N8_32  and  C18_34 
REMARK   14  A    between atoms: C18_34  and  C19_35 
ROOT
HETATM    1  C4  UNL     1      17.497  21.990  19.075  1.00  0.00     0.167 A 
HETATM    2  N3  UNL     1      16.906  23.057  19.629  1.00  0.00    -0.278 N 
ATOM      3  H3  UNL     1      15.895  23.178  19.576  1.00  0.00     0.189 HD
HETATM    4  N4  UNL     1      17.633  23.912  20.221  1.00  0.00    -0.287 N 
ATOM      5  H4  UNL     1      17.203  24.732  20.651  1.00  0.00     0.188 HD
HETATM    6  C5  UNL     1      18.944  23.751  20.286  1.00  0.00     0.160 A 
HETATM    7  S1  UNL     1      19.141  22.275  19.443  1.00  0.00    -0.028 SA
ENDROOT
BRANCH   1   8
HETATM    8  N2  UNL     1      16.901  21.013  18.429  1.00  0.00    -0.323 N 
ATOM      9  H2  UNL     1      17.435  20.221  18.071  1.00  0.00     0.169 HD
BRANCH   8  10
HETATM   10  C3  UNL     1      15.473  21.089  18.238  1.00  0.00     0.107 C 
BRANCH  10  11
HETATM   11  N1  UNL     1      14.740  20.891  19.243  1.00  0.00    -0.378 N 
ATOM     12  H1  UNL     1      14.401  21.730  19.713  1.00  0.00     0.160 HD
BRANCH  11  13
HETATM   13  C2  UNL     1      14.319  19.651  19.815  1.00  0.00     0.116 C 
HETATM   14  C1  UNL     1      14.721  19.467  21.262  1.00  0.00     0.026 C 
ENDBRANCH  11  13
ENDBRANCH  10  11
BRANCH  10  15
HETATM   15  C17 UNL     1      15.015  21.412  16.887  1.00  0.00     0.084 C 
HETATM   16  C22 UNL     1      14.372  22.799  16.861  1.00  0.00     0.039 C 
HETATM   17  C23 UNL     1      14.646  23.355  15.497  1.00  0.00     0.003 C 
HETATM   18  C24 UNL     1      15.532  22.335  14.792  1.00  0.00     0.003 C 
HETATM   19  C25 UNL     1      16.235  21.693  16.005  1.00  0.00     0.039 C 
BRANCH  15  20
HETATM   20  N8  UNL     1      14.233  20.449  16.210  1.00  0.00    -0.406 N 
ATOM     21  H8  UNL     1      14.669  19.795  15.560  1.00  0.00     0.154 HD
BRANCH  20  22
HETATM   22  C18 UNL     1      12.840  20.403  16.444  1.00  0.00     0.118 C 
BRANCH  22  23
HETATM   23  C19 UNL     1      12.100  20.171  15.113  1.00  0.00    -0.005 C 
HETATM   24  C20 UNL     1      11.412  21.438  14.688  1.00  0.00     0.011 C 
HETATM   25  C21 UNL     1      13.134  19.774  14.083  1.00  0.00     0.011 C 
ENDBRANCH  22  23
ENDBRANCH  20  22
ENDBRANCH  15  20
ENDBRANCH  10  15
ENDBRANCH   8  10
ENDBRANCH   1   8
BRANCH   6  26
HETATM   26  C6  UNL     1      19.961  24.620  20.913  1.00  0.00     0.276 C 
HETATM   27  O1  UNL     1      20.773  24.117  21.690  1.00  0.00    -0.265 OA
HETATM   28  N5  UNL     1      19.957  25.986  20.594  1.00  0.00    -0.355 N 
ATOM     29  H5  UNL     1      19.256  26.338  19.941  1.00  0.00     0.162 HD
BRANCH  28  30
HETATM   30  C7  UNL     1      20.910  26.908  21.157  1.00  0.00     0.125 C 
BRANCH  30  31
HETATM   31  C8  UNL     1      21.848  27.450  20.108  1.00  0.00     0.050 C 
BRANCH  31  32
HETATM   32  C9  UNL     1      21.116  27.536  18.785  1.00  0.00     0.274 C 
BRANCH  32  33
HETATM   33  N6  UNL     1      21.848  26.900  17.719  1.00  0.00     0.091 N 
HETATM   34  C10 UNL     1      21.350  25.589  17.383  1.00  0.00     0.302 C 
HETATM   35  C11 UNL     1      19.915  25.692  16.993  1.00  0.00     0.303 C 
HETATM   36  N7  UNL     1      19.636  26.787  16.113  1.00  0.00     0.095 N 
HETATM   37  C15 UNL     1      20.816  27.407  15.552  1.00  0.00     0.303 C 
HETATM   38  C16 UNL     1      21.831  27.802  16.584  1.00  0.00     0.302 C 
BRANCH  36  39
HETATM   39  C12 UNL     1      18.865  26.249  14.981  1.00  0.00     0.215 C 
HETATM   40  C13 UNL     1      19.753  25.350  14.124  1.00  0.00     0.042 C 
HETATM   41  C14 UNL     1      17.662  25.487  15.489  1.00  0.00     0.042 C 
ENDBRANCH  36  39
ENDBRANCH  32  33
ENDBRANCH  31  32
ENDBRANCH  30  31
ENDBRANCH  28  30
ENDBRANCH   6  26
TORSDOF 14
ENDMDL
MODEL 4
REMARK VINA RESULT: -8.003721296      1.739      8.575
REMARK  14 active torsions:
REMARK  status: ('A' for Active; 'I' for Inactive)
REMARK    1  A    between atoms: C2_2  and  N1_3 
REMARK    2  A    between atoms: N1_3  and  C3_5 
REMARK    3  A    between atoms: C3_5  and  N2_6 
REMARK    4  A    between atoms: C3_5  and  C17_31 
REMARK    5  A    between atoms: N2_6  and  C4_8 
REMARK    6  A    between atoms: C5_13  and  C6_14 
REMARK       I    between atoms: C6_14  and  N5_16 
REMARK    7  A    between atoms: N5_16  and  C7_18 
REMARK    8  A    between atoms: C7_18  and  C8_19 
REMARK    9  A    between atoms: C8_19  and  C9_20 
REMARK   10  A    between atoms: C9_20  and  N6_21 
REMARK   11  A    between atoms: N7_24  and  C12_25 
REMARK   12  A    between atoms: C17_31  and  N8_32 
REMARK   13  A    between atoms: N8_32  and  C18_34 
REMARK   14  A    between atoms: C18_34  and  C19_35 
ROOT
HETATM    1  C4  UNL     1      15.303  23.500  18.102  1.00  0.00     0.167 A 
HETATM    2  N3  UNL     1      15.570  24.769  18.439  1.00  0.00    -0.278 N 
ATOM      3  H3  UNL     1      14.934  25.522  18.178  1.00  0.00     0.189 HD
HETATM    4  N4  UNL     1      16.633  25.011  19.090  1.00  0.00    -0.287 N 
ATOM      5  H4  UNL     1      16.855  25.971  19.357  1.00  0.00     0.188 HD
HETATM    6  C5  UNL     1      17.455  24.031  19.425  1.00  0.00     0.160 A 
HETATM    7  S1  UNL     1      16.646  22.676  18.761  1.00  0.00    -0.028 SA
ENDROOT
BRANCH   1   8
HETATM    8  N2  UNL     1      14.255  23.072  17.433  1.00  0.00    -0.323 N 
ATOM      9  H2  UNL     1      13.325  23.091  17.851  1.00  0.00     0.169 HD
BRANCH   8  10
HETATM   10  C3  UNL     1      14.453  22.576  16.093  1.00  0.00     0.107 C 
BRANCH  10  11
HETATM   11  N1  UNL     1      15.245  23.211  15.348  1.00  0.00    -0.378 N 
ATOM     12  H1  UNL     1      14.862  24.049  14.911  1.00  0.00     0.160 HD
BRANCH  11  13
HETATM   13  C2  UNL     1      16.608  22.918  15.031  1.00  0.00     0.116 C 
HETATM   14  C1  UNL     1      17.559  24.072  15.260  1.00  0.00     0.026 C 
ENDBRANCH  11  13
ENDBRANCH  10  11
BRANCH  10  15
HETATM   15  C17 UNL     1      13.723  21.359  15.737  1.00  0.00     0.084 C 
HETATM   16  C22 UNL     1      12.296  21.702  15.309  1.00  0.00     0.039 C 
HETATM   17  C23 UNL     1      11.912  20.670  14.291  1.00  0.00     0.003 C 
HETATM   18  C24 UNL     1      13.153  19.814  14.065  1.00  0.00     0.003 C 
HETATM   19  C25 UNL     1      14.259  20.835  14.401  1.00  0.00     0.039 C 
BRANCH  15  20
HETATM   20  N8  UNL     1      13.762  20.279  16.647  1.00  0.00    -0.406 N 
ATOM     21  H8  UNL     1      14.475  19.555  16.557  1.00  0.00     0.154 HD
BRANCH  20  22
HETATM   22  C18 UNL     1      12.803  20.214  17.683  1.00  0.00     0.118 C 
BRANCH  22  23
HETATM   23  C19 UNL     1      13.500  19.862  19.011  1.00  0.00    -0.005 C 
HETATM   24  C20 UNL     1      12.727  18.787  19.721  1.00  0.00     0.011 C 
HETATM   25  C21 UNL     1      14.888  19.364  18.676  1.00  0.00     0.011 C 
ENDBRANCH  22  23
ENDBRANCH  20  22
ENDBRANCH  15  20
ENDBRANCH  10  15
ENDBRANCH   8  10
ENDBRANCH   1   8
BRANCH   6  26
HETATM   26  C6  UNL     1      18.730  24.096  20.166  1.00  0.00     0.276 C 
HETATM   27  O1  UNL     1      19.160  23.072  20.698  1.00  0.00    -0.265 OA
HETATM   28  N5  UNL     1      19.400  25.327  20.231  1.00  0.00    -0.355 N 
ATOM     29  H5  UNL     1      18.989  26.138  19.767  1.00  0.00     0.162 HD
BRANCH  28  30
HETATM   30  C7  UNL     1      20.649  25.485  20.932  1.00  0.00     0.125 C 
BRANCH  30  31
HETATM   31  C8  UNL     1      21.526  26.525  20.280  1.00  0.00     0.050 C 
BRANCH  31  32
HETATM   32  C9  UNL     1      20.969  26.857  18.912  1.00  0.00     0.274 C 
BRANCH  32  33
HETATM   33  N6  UNL     1      21.770  26.302  17.851  1.00  0.00     0.091 N 
HETATM   34  C10 UNL     1      20.995  25.628  16.839  1.00  0.00     0.302 C 
HETATM   35  C11 UNL     1      20.010  26.584  16.255  1.00  0.00     0.303 C 
HETATM   36  N7  UNL     1      20.564  27.871  15.963  1.00  0.00     0.095 N 
HETATM   37  C15 UNL     1      22.008  27.920  16.022  1.00  0.00     0.303 C 
HETATM   38  C16 UNL     1      22.571  27.379  17.304  1.00  0.00     0.302 C 
BRANCH  36  39
HETATM   39  C12 UNL     1      20.188  28.201  14.579  1.00  0.00     0.215 C 
HETATM   40  C13 UNL     1      21.424  28.623  13.788  1.00  0.00     0.042 C 
HETATM   41  C14 UNL     1      19.514  27.015  13.928  1.00  0.00     0.042 C 
ENDBRANCH  36  39
ENDBRANCH  32  33
ENDBRANCH  31  32
ENDBRANCH  30  31
ENDBRANCH  28  30
ENDBRANCH   6  26
TORSDOF 14
ENDMDL
MODEL 5
REMARK VINA RESULT: -7.974482542      2.446      8.716
REMARK  14 active torsions:
REMARK  status: ('A' for Active; 'I' for Inactive)
REMARK    1  A    between atoms: C2_2  and  N1_3 
REMARK    2  A    between atoms: N1_3  and  C3_5 
REMARK    3  A    between atoms: C3_5  and  N2_6 
REMARK    4  A    between atoms: C3_5  and  C17_31 
REMARK    5  A    between atoms: N2_6  and  C4_8 
REMARK    6  A    between atoms: C5_13  and  C6_14 
REMARK       I    between atoms: C6_14  and  N5_16 
REMARK    7  A    between atoms: N5_16  and  C7_18 
REMARK    8  A    between atoms: C7_18  and  C8_19 
REMARK    9  A    between atoms: C8_19  and  C9_20 
REMARK   10  A    between atoms: C9_20  and  N6_21 
REMARK   11  A    between atoms: N7_24  and  C12_25 
REMARK   12  A    between atoms: C17_31  and  N8_32 
REMARK   13  A    between atoms: N8_32  and  C18_34 
REMARK   14  A    between atoms: C18_34  and  C19_35 
ROOT
HETATM    1  C4  UNL     1      16.994  24.878  17.716  1.00  0.00     0.167 A 
HETATM    2  N3  UNL     1      16.467  24.889  18.948  1.00  0.00    -0.278 N 
ATOM      3  H3  UNL     1      15.456  24.914  19.082  1.00  0.00     0.189 HD
HETATM    4  N4  UNL     1      17.254  24.868  19.943  1.00  0.00    -0.287 N 
ATOM      5  H4  UNL     1      16.874  24.875  20.890  1.00  0.00     0.188 HD
HETATM    6  C5  UNL     1      18.564  24.836  19.764  1.00  0.00     0.160 A 
HETATM    7  S1  UNL     1      18.668  24.836  18.056  1.00  0.00    -0.028 SA
ENDROOT
BRANCH   1   8
HETATM    8  N2  UNL     1      16.331  24.895  16.581  1.00  0.00    -0.323 N 
ATOM      9  H2  UNL     1      15.659  25.636  16.381  1.00  0.00     0.169 HD
BRANCH   8  10
HETATM   10  C3  UNL     1      16.578  23.842  15.627  1.00  0.00     0.107 C 
BRANCH  10  11
HETATM   11  N1  UNL     1      17.602  23.942  14.901  1.00  0.00    -0.378 N 
ATOM     12  H1  UNL     1      18.073  23.064  14.681  1.00  0.00     0.160 HD
BRANCH  11  13
HETATM   13  C2  UNL     1      18.195  25.117  14.344  1.00  0.00     0.116 C 
HETATM   14  C1  UNL     1      19.707  25.096  14.320  1.00  0.00     0.026 C 
ENDBRANCH  11  13
ENDBRANCH  10  11
BRANCH  10  15
HETATM   15  C17 UNL     1      15.614  22.741  15.612  1.00  0.00     0.084 C 
HETATM   16  C22 UNL     1      14.187  23.282  15.689  1.00  0.00     0.039 C 
HETATM   17  C23 UNL     1      13.336  22.313  14.925  1.00  0.00     0.003 C 
HETATM   18  C24 UNL     1      14.293  21.288  14.327  1.00  0.00     0.003 C 
HETATM   19  C25 UNL     1      15.572  22.141  14.203  1.00  0.00     0.039 C 
BRANCH  15  20
HETATM   20  N8  UNL     1      15.828  21.669  16.508  1.00  0.00    -0.406 N 
ATOM     21  H8  UNL     1      16.424  20.885  16.241  1.00  0.00     0.154 HD
BRANCH  20  22
HETATM   22  C18 UNL     1      15.207  21.696  17.777  1.00  0.00     0.118 C 
BRANCH  22  23
HETATM   23  C19 UNL     1      16.008  20.824  18.763  1.00  0.00    -0.005 C 
HETATM   24  C20 UNL     1      17.410  21.352  18.883  1.00  0.00     0.011 C 
HETATM   25  C21 UNL     1      15.311  20.898  20.103  1.00  0.00     0.011 C 
ENDBRANCH  22  23
ENDBRANCH  20  22
ENDBRANCH  15  20
ENDBRANCH  10  15
ENDBRANCH   8  10
ENDBRANCH   1   8
BRANCH   6  26
HETATM   26  C6  UNL     1      19.643  24.815  20.773  1.00  0.00     0.276 C 
HETATM   27  O1  UNL     1      19.832  23.782  21.417  1.00  0.00    -0.265 OA
HETATM   28  N5  UNL     1      20.408  25.976  20.953  1.00  0.00    -0.355 N 
ATOM     29  H5  UNL     1      20.199  26.798  20.386  1.00  0.00     0.162 HD
BRANCH  28  30
HETATM   30  C7  UNL     1      21.479  26.047  21.914  1.00  0.00     0.125 C 
BRANCH  30  31
HETATM   31  C8  UNL     1      22.701  26.722  21.338  1.00  0.00     0.050 C 
BRANCH  31  32
HETATM   32  C9  UNL     1      22.434  27.078  19.891  1.00  0.00     0.274 C 
BRANCH  32  33
HETATM   33  N6  UNL     1      23.157  26.226  18.982  1.00  0.00     0.091 N 
HETATM   34  C10 UNL     1      22.350  25.728  17.896  1.00  0.00     0.302 C 
HETATM   35  C11 UNL     1      21.782  26.878  17.136  1.00  0.00     0.303 C 
HETATM   36  N7  UNL     1      22.730  27.919  16.875  1.00  0.00     0.095 N 
HETATM   37  C15 UNL     1      24.102  27.546  17.142  1.00  0.00     0.303 C 
HETATM   38  C16 UNL     1      24.308  26.972  18.513  1.00  0.00     0.302 C 
BRANCH  36  39
HETATM   39  C12 UNL     1      22.650  28.228  15.439  1.00  0.00     0.215 C 
HETATM   40  C13 UNL     1      21.195  28.457  15.034  1.00  0.00     0.042 C 
HETATM   41  C14 UNL     1      23.492  29.443  15.122  1.00  0.00     0.042 C 
ENDBRANCH  36  39
ENDBRANCH  32  33
ENDBRANCH  31  32
ENDBRANCH  30  31
ENDBRANCH  28  30
ENDBRANCH   6  26
TORSDOF 14
ENDMDL
