MODEL 1
REMARK VINA RESULT: -7.341263856      0.000      0.000
REMARK  16 active torsions:
REMARK  status: ('A' for Active; 'I' for Inactive)
REMARK    1  A    between atoms: C2_2  and  C3_3 
REMARK    2  A    between atoms: C3_3  and  N1_4 
REMARK    3  A    between atoms: C3_3  and  C10_17 
REMARK       I    between atoms: N1_4  and  C4_6 
REMARK       I    between atoms: N3_8  and  C5_10 
REMARK    4  A    between atoms: C5_10  and  O2_12 
REMARK    5  A    between atoms: O2_12  and  C6_13 
REMARK    6  A    between atoms: C10_17  and  C11_18 
REMARK    7  A    between atoms: C10_17  and  N6_28 
REMARK       I    between atoms: C11_18  and  N4_20 
REMARK    8  A    between atoms: N4_20  and  C12_22 
REMARK    9  A    between atoms: N6_28  and  C15_29 
REMARK   10  A    between atoms: N6_28  and  C20_34 
REMARK   11  A    between atoms: C15_29  and  C16_30 
REMARK   12  A    between atoms: C16_30  and  C17_31 
REMARK   13  A    between atoms: C17_31  and  C18_32 
REMARK   14  A    between atoms: C20_34  and  C21_35 
REMARK   15  A    between atoms: C21_35  and  O5_37 
REMARK   16  A    between atoms: O5_37  and  C22_38 
ROOT
HETATM    1  C10 UNL     1      14.421  21.210  17.888  1.00  0.00     0.107 C 
ENDROOT
BRANCH   1   2
HETATM    2  C3  UNL     1      14.089  21.699  16.509  1.00  0.00     0.162 C 
BRANCH   2   3
HETATM    3  C2  UNL     1      14.514  23.117  16.415  1.00  0.00    -0.006 C 
HETATM    4  C1  UNL     1      15.488  23.540  15.624  1.00  0.00     0.009 C 
ENDBRANCH   2   3
BRANCH   2   5
HETATM    5  N1  UNL     1      14.765  20.981  15.445  1.00  0.00    -0.351 N 
HETATM    6  C4  UNL     1      13.992  20.654  14.301  1.00  0.00     0.193 C 
HETATM    7  N2  UNL     1      14.424  20.921  12.981  1.00  0.00    -0.063 NA
HETATM    8  N3  UNL     1      12.851  20.089  14.470  1.00  0.00    -0.277 N 
HETATM    9  C5  UNL     1      12.017  19.728  13.374  1.00  0.00     0.367 C 
ATOM     10  H3  UNL     1      12.533  19.891  15.419  1.00  0.00     0.173 HD
HETATM   11  O1  UNL     1      10.906  20.254  13.185  1.00  0.00    -0.238 OA
ATOM     12  H1  UNL     1      15.749  20.725  15.516  1.00  0.00     0.163 HD
BRANCH   9  13
HETATM   13  O2  UNL     1      12.454  18.773  12.500  1.00  0.00    -0.294 OA
BRANCH  13  14
HETATM   14  C6  UNL     1      11.975  17.471  12.399  1.00  0.00     0.061 C 
HETATM   15  C7  UNL     1      11.320  16.931  13.622  1.00  0.00     0.046 C 
HETATM   16  C8  UNL     1      11.006  17.330  11.225  1.00  0.00     0.046 C 
HETATM   17  C9  UNL     1      13.173  16.563  12.090  1.00  0.00     0.046 C 
ENDBRANCH  13  14
ENDBRANCH   9  13
ENDBRANCH   2   5
ENDBRANCH   1   2
BRANCH   1  18
HETATM   18  C11 UNL     1      15.794  21.513  18.295  1.00  0.00     0.272 C 
HETATM   19  O3  UNL     1      16.757  20.991  17.624  1.00  0.00    -0.266 OA
HETATM   20  N4  UNL     1      16.158  22.348  19.378  1.00  0.00    -0.302 N 
ATOM     21  H4  UNL     1      15.470  22.611  20.083  1.00  0.00     0.171 HD
BRANCH  20  22
HETATM   22  C12 UNL     1      17.394  22.776  19.458  1.00  0.00     0.151 A 
HETATM   23  N5  UNL     1      18.475  22.052  19.740  1.00  0.00    -0.346 N 
HETATM   24  C13 UNL     1      19.629  22.649  19.773  1.00  0.00     0.097 A 
ATOM     25  H5  UNL     1      18.400  21.052  19.925  1.00  0.00     0.167 HD
HETATM   26  C14 UNL     1      19.672  23.992  19.516  1.00  0.00     0.070 A 
HETATM   27  S1  UNL     1      18.024  24.347  19.233  1.00  0.00    -0.064 SA
ENDBRANCH  20  22
ENDBRANCH   1  18
BRANCH   1  28
HETATM   28  N6  UNL     1      13.925  20.000  18.329  1.00  0.00    -0.348 N 
BRANCH  28  29
HETATM   29  C15 UNL     1      14.667  18.851  18.541  1.00  0.00     0.064 C 
BRANCH  29  30
HETATM   30  C16 UNL     1      14.401  18.169  19.845  1.00  0.00     0.044 C 
BRANCH  30  31
HETATM   31  C17 UNL     1      14.862  19.045  21.021  1.00  0.00     0.005 C 
BRANCH  31  32
HETATM   32  C18 UNL     1      13.877  18.892  22.170  1.00  0.00    -0.004 C 
HETATM   33  C19 UNL     1      12.950  17.735  21.963  1.00  0.00     0.005 C 
ENDBRANCH  31  32
ENDBRANCH  30  31
ENDBRANCH  29  30
ENDBRANCH  28  29
BRANCH  28  34
HETATM   34  C20 UNL     1      12.588  19.998  18.866  1.00  0.00     0.239 C 
BRANCH  34  35
HETATM   35  C21 UNL     1      11.609  19.240  18.066  1.00  0.00     0.277 C 
HETATM   36  O4  UNL     1      11.434  19.512  16.825  1.00  0.00    -0.263 OA
BRANCH  35  37
HETATM   37  O5  UNL     1      10.825  18.216  18.561  1.00  0.00    -0.321 OA
BRANCH  37  38
HETATM   38  C22 UNL     1      11.253  16.872  18.487  1.00  0.00     0.174 C 
HETATM   39  C23 UNL     1      10.244  16.105  17.672  1.00  0.00     0.034 C 
ENDBRANCH  37  38
ENDBRANCH  35  37
ENDBRANCH  34  35
ENDBRANCH  28  34
ENDBRANCH   1  28
TORSDOF 16
ENDMDL
MODEL 2
REMARK VINA RESULT: -7.315799532      2.332      4.566
REMARK  16 active torsions:
REMARK  status: ('A' for Active; 'I' for Inactive)
REMARK    1  A    between atoms: C2_2  and  C3_3 
REMARK    2  A    between atoms: C3_3  and  N1_4 
REMARK    3  A    between atoms: C3_3  and  C10_17 
REMARK       I    between atoms: N1_4  and  C4_6 
REMARK       I    between atoms: N3_8  and  C5_10 
REMARK    4  A    between atoms: C5_10  and  O2_12 
REMARK    5  A    between atoms: O2_12  and  C6_13 
REMARK    6  A    between atoms: C10_17  and  C11_18 
REMARK    7  A    between atoms: C10_17  and  N6_28 
REMARK       I    between atoms: C11_18  and  N4_20 
REMARK    8  A    between atoms: N4_20  and  C12_22 
REMARK    9  A    between atoms: N6_28  and  C15_29 
REMARK   10  A    between atoms: N6_28  and  C20_34 
REMARK   11  A    between atoms: C15_29  and  C16_30 
REMARK   12  A    between atoms: C16_30  and  C17_31 
REMARK   13  A    between atoms: C17_31  and  C18_32 
REMARK   14  A    between atoms: C20_34  and  C21_35 
REMARK   15  A    between atoms: C21_35  and  O5_37 
REMARK   16  A    between atoms: O5_37  and  C22_38 
ROOT
HETATM    1  C10 UNL     1      15.823  22.855  17.281  1.00  0.00     0.107 C 
ENDROOT
BRANCH   1   2
HETATM    2  C3  UNL     1      14.807  22.356  16.297  1.00  0.00     0.162 C 
BRANCH   2   3
HETATM    3  C2  UNL     1      14.249  23.531  15.584  1.00  0.00    -0.006 C 
HETATM    4  C1  UNL     1      12.971  23.652  15.257  1.00  0.00     0.009 C 
ENDBRANCH   2   3
BRANCH   2   5
HETATM    5  N1  UNL     1      15.345  21.463  15.289  1.00  0.00    -0.351 N 
HETATM    6  C4  UNL     1      14.410  20.826  14.432  1.00  0.00     0.193 C 
HETATM    7  N2  UNL     1      14.545  20.813  13.023  1.00  0.00    -0.063 NA
HETATM    8  N3  UNL     1      13.397  20.235  14.956  1.00  0.00    -0.277 N 
HETATM    9  C5  UNL     1      12.416  19.573  14.165  1.00  0.00     0.367 C 
ATOM     10  H3  UNL     1      13.293  20.239  15.971  1.00  0.00     0.173 HD
HETATM   11  O1  UNL     1      11.235  19.960  14.112  1.00  0.00    -0.238 OA
ATOM     12  H1  UNL     1      16.347  21.300  15.200  1.00  0.00     0.163 HD
BRANCH   9  13
HETATM   13  O2  UNL     1      12.786  18.476  13.439  1.00  0.00    -0.294 OA
BRANCH  13  14
HETATM   14  C6  UNL     1      11.930  17.601  12.777  1.00  0.00     0.061 C 
HETATM   15  C7  UNL     1      11.048  16.781  13.653  1.00  0.00     0.046 C 
HETATM   16  C8  UNL     1      11.059  18.343  11.764  1.00  0.00     0.046 C 
HETATM   17  C9  UNL     1      12.801  16.625  11.975  1.00  0.00     0.046 C 
ENDBRANCH  13  14
ENDBRANCH   9  13
ENDBRANCH   2   5
ENDBRANCH   1   2
BRANCH   1  18
HETATM   18  C11 UNL     1      16.918  23.598  16.657  1.00  0.00     0.272 C 
HETATM   19  O3  UNL     1      17.526  23.062  15.660  1.00  0.00    -0.266 OA
HETATM   20  N4  UNL     1      17.370  24.876  17.060  1.00  0.00    -0.302 N 
ATOM     21  H4  UNL     1      17.097  25.261  17.964  1.00  0.00     0.171 HD
BRANCH  20  22
HETATM   22  C12 UNL     1      18.144  25.558  16.250  1.00  0.00     0.151 A 
HETATM   23  N5  UNL     1      17.894  25.870  14.980  1.00  0.00    -0.346 N 
HETATM   24  C13 UNL     1      18.781  26.559  14.327  1.00  0.00     0.097 A 
ATOM     25  H5  UNL     1      17.028  25.575  14.530  1.00  0.00     0.167 HD
HETATM   26  C14 UNL     1      19.926  26.928  14.980  1.00  0.00     0.070 A 
HETATM   27  S1  UNL     1      19.675  26.257  16.531  1.00  0.00    -0.064 SA
ENDBRANCH  20  22
ENDBRANCH   1  18
BRANCH   1  28
HETATM   28  N6  UNL     1      16.176  22.074  18.363  1.00  0.00    -0.348 N 
BRANCH  28  29
HETATM   29  C15 UNL     1      15.341  21.710  19.405  1.00  0.00     0.064 C 
BRANCH  29  30
HETATM   30  C16 UNL     1      15.001  20.254  19.452  1.00  0.00     0.044 C 
BRANCH  30  31
HETATM   31  C17 UNL     1      14.831  19.782  20.905  1.00  0.00     0.005 C 
BRANCH  31  32
HETATM   32  C18 UNL     1      14.432  18.315  20.907  1.00  0.00    -0.004 C 
HETATM   33  C19 UNL     1      13.078  18.103  21.510  1.00  0.00     0.005 C 
ENDBRANCH  31  32
ENDBRANCH  30  31
ENDBRANCH  29  30
ENDBRANCH  28  29
BRANCH  28  34
HETATM   34  C20 UNL     1      17.425  21.362  18.275  1.00  0.00     0.239 C 
BRANCH  34  35
HETATM   35  C21 UNL     1      18.469  21.839  19.199  1.00  0.00     0.277 C 
HETATM   36  O4  UNL     1      19.111  21.010  19.937  1.00  0.00    -0.263 OA
BRANCH  35  37
HETATM   37  O5  UNL     1      18.832  23.164  19.347  1.00  0.00    -0.321 OA
BRANCH  37  38
HETATM   38  C22 UNL     1      18.375  23.924  20.446  1.00  0.00     0.174 C 
HETATM   39  C23 UNL     1      19.514  24.062  21.424  1.00  0.00     0.034 C 
ENDBRANCH  37  38
ENDBRANCH  35  37
ENDBRANCH  34  35
ENDBRANCH  28  34
ENDBRANCH   1  28
TORSDOF 16
ENDMDL
MODEL 3
REMARK VINA RESULT: -7.283662473      4.090      9.680
REMARK  16 active torsions:
REMARK  status: ('A' for Active; 'I' for Inactive)
REMARK    1  A    between atoms: C2_2  and  C3_3 
REMARK    2  A    between atoms: C3_3  and  N1_4 
REMARK    3  A    between atoms: C3_3  and  C10_17 
REMARK       I    between atoms: N1_4  and  C4_6 
REMARK       I    between atoms: N3_8  and  C5_10 
REMARK    4  A    between atoms: C5_10  and  O2_12 
REMARK    5  A    between atoms: O2_12  and  C6_13 
REMARK    6  A    between atoms: C10_17  and  C11_18 
REMARK    7  A    between atoms: C10_17  and  N6_28 
REMARK       I    between atoms: C11_18  and  N4_20 
REMARK    8  A    between atoms: N4_20  and  C12_22 
REMARK    9  A    between atoms: N6_28  and  C15_29 
REMARK   10  A    between atoms: N6_28  and  C20_34 
REMARK   11  A    between atoms: C15_29  and  C16_30 
REMARK   12  A    between atoms: C16_30  and  C17_31 
REMARK   13  A    between atoms: C17_31  and  C18_32 
REMARK   14  A    between atoms: C20_34  and  C21_35 
REMARK   15  A    between atoms: C21_35  and  O5_37 
REMARK   16  A    between atoms: O5_37  and  C22_38 
ROOT
HETATM    1  C10 UNL     1      17.076  23.664  17.820  1.00  0.00     0.107 C 
ENDROOT
BRANCH   1   2
HETATM    2  C3  UNL     1      18.197  24.145  18.693  1.00  0.00     0.162 C 
BRANCH   2   3
HETATM    3  C2  UNL     1      17.922  23.692  20.078  1.00  0.00    -0.006 C 
HETATM    4  C1  UNL     1      18.450  24.257  21.153  1.00  0.00     0.009 C 
ENDBRANCH   2   3
BRANCH   2   5
HETATM    5  N1  UNL     1      19.500  23.623  18.326  1.00  0.00    -0.351 N 
HETATM    6  C4  UNL     1      20.626  24.421  18.657  1.00  0.00     0.193 C 
HETATM    7  N2  UNL     1      21.763  23.905  19.324  1.00  0.00    -0.063 NA
HETATM    8  N3  UNL     1      20.615  25.665  18.337  1.00  0.00    -0.277 N 
HETATM    9  C5  UNL     1      21.706  26.531  18.633  1.00  0.00     0.367 C 
ATOM     10  H3  UNL     1      19.800  26.044  17.855  1.00  0.00     0.173 HD
HETATM   11  O1  UNL     1      21.598  27.488  19.420  1.00  0.00    -0.238 OA
ATOM     12  H1  UNL     1      19.603  22.726  17.853  1.00  0.00     0.163 HD
BRANCH   9  13
HETATM   13  O2  UNL     1      22.911  26.301  18.032  1.00  0.00    -0.294 OA
BRANCH  13  14
HETATM   14  C6  UNL     1      23.534  27.123  17.097  1.00  0.00     0.061 C 
HETATM   15  C7  UNL     1      22.654  28.131  16.444  1.00  0.00     0.046 C 
HETATM   16  C8  UNL     1      24.732  27.845  17.711  1.00  0.00     0.046 C 
HETATM   17  C9  UNL     1      24.087  26.220  15.988  1.00  0.00     0.046 C 
ENDBRANCH  13  14
ENDBRANCH   9  13
ENDBRANCH   2   5
ENDBRANCH   1   2
BRANCH   1  18
HETATM   18  C11 UNL     1      16.490  22.401  18.272  1.00  0.00     0.272 C 
HETATM   19  O3  UNL     1      17.270  21.396  18.446  1.00  0.00    -0.266 OA
HETATM   20  N4  UNL     1      15.118  22.191  18.544  1.00  0.00    -0.302 N 
ATOM     21  H4  UNL     1      14.417  22.857  18.221  1.00  0.00     0.171 HD
BRANCH  20  22
HETATM   22  C12 UNL     1      14.763  21.124  19.219  1.00  0.00     0.151 A 
HETATM   23  N5  UNL     1      15.205  20.754  20.420  1.00  0.00    -0.346 N 
HETATM   24  C13 UNL     1      14.736  19.660  20.941  1.00  0.00     0.097 A 
ATOM     25  H5  UNL     1      15.894  21.316  20.919  1.00  0.00     0.167 HD
HETATM   26  C14 UNL     1      13.814  18.944  20.228  1.00  0.00     0.070 A 
HETATM   27  S1  UNL     1      13.654  19.891  18.814  1.00  0.00    -0.064 SA
ENDBRANCH  20  22
ENDBRANCH   1  18
BRANCH   1  28
HETATM   28  N6  UNL     1      17.147  23.828  16.452  1.00  0.00    -0.348 N 
BRANCH  28  29
HETATM   29  C15 UNL     1      17.161  22.809  15.515  1.00  0.00     0.064 C 
BRANCH  29  30
HETATM   30  C16 UNL     1      15.940  22.735  14.655  1.00  0.00     0.044 C 
BRANCH  30  31
HETATM   31  C17 UNL     1      15.100  21.496  15.008  1.00  0.00     0.005 C 
BRANCH  31  32
HETATM   32  C18 UNL     1      13.638  21.900  15.108  1.00  0.00    -0.004 C 
HETATM   33  C19 UNL     1      13.476  23.371  15.334  1.00  0.00     0.005 C 
ENDBRANCH  31  32
ENDBRANCH  30  31
ENDBRANCH  29  30
ENDBRANCH  28  29
BRANCH  28  34
HETATM   34  C20 UNL     1      16.920  25.155  15.940  1.00  0.00     0.239 C 
BRANCH  34  35
HETATM   35  C21 UNL     1      18.074  25.745  15.238  1.00  0.00     0.277 C 
HETATM   36  O4  UNL     1      17.904  26.410  14.155  1.00  0.00    -0.263 OA
BRANCH  35  37
HETATM   37  O5  UNL     1      19.384  25.639  15.665  1.00  0.00    -0.321 OA
BRANCH  37  38
HETATM   38  C22 UNL     1      20.458  25.798  14.762  1.00  0.00     0.174 C 
HETATM   39  C23 UNL     1      20.992  24.429  14.425  1.00  0.00     0.034 C 
ENDBRANCH  37  38
ENDBRANCH  35  37
ENDBRANCH  34  35
ENDBRANCH  28  34
ENDBRANCH   1  28
TORSDOF 16
ENDMDL
MODEL 4
REMARK VINA RESULT: -7.166713453      3.916      9.197
REMARK  16 active torsions:
REMARK  status: ('A' for Active; 'I' for Inactive)
REMARK    1  A    between atoms: C2_2  and  C3_3 
REMARK    2  A    between atoms: C3_3  and  N1_4 
REMARK    3  A    between atoms: C3_3  and  C10_17 
REMARK       I    between atoms: N1_4  and  C4_6 
REMARK       I    between atoms: N3_8  and  C5_10 
REMARK    4  A    between atoms: C5_10  and  O2_12 
REMARK    5  A    between atoms: O2_12  and  C6_13 
REMARK    6  A    between atoms: C10_17  and  C11_18 
REMARK    7  A    between atoms: C10_17  and  N6_28 
REMARK       I    between atoms: C11_18  and  N4_20 
REMARK    8  A    between atoms: N4_20  and  C12_22 
REMARK    9  A    between atoms: N6_28  and  C15_29 
REMARK   10  A    between atoms: N6_28  and  C20_34 
REMARK   11  A    between atoms: C15_29  and  C16_30 
REMARK   12  A    between atoms: C16_30  and  C17_31 
REMARK   13  A    between atoms: C17_31  and  C18_32 
REMARK   14  A    between atoms: C20_34  and  C21_35 
REMARK   15  A    between atoms: C21_35  and  O5_37 
REMARK   16  A    between atoms: O5_37  and  C22_38 
ROOT
HETATM    1  C10 UNL     1      16.709  23.564  17.916  1.00  0.00     0.107 C 
ENDROOT
BRANCH   1   2
HETATM    2  C3  UNL     1      17.831  24.149  18.721  1.00  0.00     0.162 C 
BRANCH   2   3
HETATM    3  C2  UNL     1      17.613  23.780  20.141  1.00  0.00    -0.006 C 
HETATM    4  C1  UNL     1      18.477  24.045  21.109  1.00  0.00     0.009 C 
ENDBRANCH   2   3
BRANCH   2   5
HETATM    5  N1  UNL     1      19.145  23.658  18.352  1.00  0.00    -0.351 N 
HETATM    6  C4  UNL     1      20.180  24.623  18.234  1.00  0.00     0.193 C 
HETATM    7  N2  UNL     1      21.443  24.472  18.854  1.00  0.00    -0.063 NA
HETATM    8  N3  UNL     1      19.961  25.678  17.535  1.00  0.00    -0.277 N 
HETATM    9  C5  UNL     1      20.948  26.692  17.369  1.00  0.00     0.367 C 
ATOM     10  H3  UNL     1      19.053  25.794  17.085  1.00  0.00     0.173 HD
HETATM   11  O1  UNL     1      20.797  27.843  17.812  1.00  0.00    -0.238 OA
ATOM     12  H1  UNL     1      19.318  22.668  18.184  1.00  0.00     0.163 HD
BRANCH   9  13
HETATM   13  O2  UNL     1      22.100  26.386  16.700  1.00  0.00    -0.294 OA
BRANCH  13  14
HETATM   14  C6  UNL     1      23.316  27.054  16.808  1.00  0.00     0.061 C 
HETATM   15  C7  UNL     1      23.354  28.415  16.207  1.00  0.00     0.046 C 
HETATM   16  C8  UNL     1      23.763  27.151  18.266  1.00  0.00     0.046 C 
HETATM   17  C9  UNL     1      24.370  26.209  16.081  1.00  0.00     0.046 C 
ENDBRANCH  13  14
ENDBRANCH   9  13
ENDBRANCH   2   5
ENDBRANCH   1   2
BRANCH   1  18
HETATM   18  C11 UNL     1      16.245  22.271  18.422  1.00  0.00     0.272 C 
HETATM   19  O3  UNL     1      17.117  21.353  18.635  1.00  0.00    -0.266 OA
HETATM   20  N4  UNL     1      14.898  21.943  18.705  1.00  0.00    -0.302 N 
ATOM     21  H4  UNL     1      14.138  22.525  18.356  1.00  0.00     0.171 HD
BRANCH  20  22
HETATM   22  C12 UNL     1      14.646  20.876  19.425  1.00  0.00     0.151 A 
HETATM   23  N5  UNL     1      15.181  20.561  20.603  1.00  0.00    -0.346 N 
HETATM   24  C13 UNL     1      14.807  19.457  21.177  1.00  0.00     0.097 A 
ATOM     25  H5  UNL     1      15.867  21.173  21.045  1.00  0.00     0.167 HD
HETATM   26  C14 UNL     1      13.883  18.675  20.540  1.00  0.00     0.070 A 
HETATM   27  S1  UNL     1      13.585  19.574  19.118  1.00  0.00    -0.064 SA
ENDBRANCH  20  22
ENDBRANCH   1  18
BRANCH   1  28
HETATM   28  N6  UNL     1      16.700  23.701  16.543  1.00  0.00    -0.348 N 
BRANCH  28  29
HETATM   29  C15 UNL     1      16.864  24.886  15.848  1.00  0.00     0.064 C 
BRANCH  29  30
HETATM   30  C16 UNL     1      17.909  24.843  14.779  1.00  0.00     0.044 C 
BRANCH  30  31
HETATM   31  C17 UNL     1      18.258  26.263  14.302  1.00  0.00     0.005 C 
BRANCH  31  32
HETATM   32  C18 UNL     1      19.727  26.309  13.912  1.00  0.00    -0.004 C 
HETATM   33  C19 UNL     1      20.261  27.708  13.905  1.00  0.00     0.005 C 
ENDBRANCH  31  32
ENDBRANCH  30  31
ENDBRANCH  29  30
ENDBRANCH  28  29
BRANCH  28  34
HETATM   34  C20 UNL     1      16.797  22.493  15.765  1.00  0.00     0.239 C 
BRANCH  34  35
HETATM   35  C21 UNL     1      15.561  22.124  15.051  1.00  0.00     0.277 C 
HETATM   36  O4  UNL     1      15.599  21.799  13.811  1.00  0.00    -0.263 OA
BRANCH  35  37
HETATM   37  O5  UNL     1      14.306  22.098  15.629  1.00  0.00    -0.321 OA
BRANCH  37  38
HETATM   38  C22 UNL     1      13.478  20.959  15.517  1.00  0.00     0.174 C 
HETATM   39  C23 UNL     1      12.188  21.382  14.860  1.00  0.00     0.034 C 
ENDBRANCH  37  38
ENDBRANCH  35  37
ENDBRANCH  34  35
ENDBRANCH  28  34
ENDBRANCH   1  28
TORSDOF 16
ENDMDL
MODEL 5
REMARK VINA RESULT: -7.163972094      2.330      3.841
REMARK  16 active torsions:
REMARK  status: ('A' for Active; 'I' for Inactive)
REMARK    1  A    between atoms: C2_2  and  C3_3 
REMARK    2  A    between atoms: C3_3  and  N1_4 
REMARK    3  A    between atoms: C3_3  and  C10_17 
REMARK       I    between atoms: N1_4  and  C4_6 
REMARK       I    between atoms: N3_8  and  C5_10 
REMARK    4  A    between atoms: C5_10  and  O2_12 
REMARK    5  A    between atoms: O2_12  and  C6_13 
REMARK    6  A    between atoms: C10_17  and  C11_18 
REMARK    7  A    between atoms: C10_17  and  N6_28 
REMARK       I    between atoms: C11_18  and  N4_20 
REMARK    8  A    between atoms: N4_20  and  C12_22 
REMARK    9  A    between atoms: N6_28  and  C15_29 
REMARK   10  A    between atoms: N6_28  and  C20_34 
REMARK   11  A    between atoms: C15_29  and  C16_30 
REMARK   12  A    between atoms: C16_30  and  C17_31 
REMARK   13  A    between atoms: C17_31  and  C18_32 
REMARK   14  A    between atoms: C20_34  and  C21_35 
REMARK   15  A    between atoms: C21_35  and  O5_37 
REMARK   16  A    between atoms: O5_37  and  C22_38 
ROOT
HETATM    1  C10 UNL     1      15.911  22.717  17.270  1.00  0.00     0.107 C 
ENDROOT
BRANCH   1   2
HETATM    2  C3  UNL     1      14.878  22.297  16.267  1.00  0.00     0.162 C 
BRANCH   2   3
HETATM    3  C2  UNL     1      14.333  23.524  15.635  1.00  0.00    -0.006 C 
HETATM    4  C1  UNL     1      13.062  23.667  15.289  1.00  0.00     0.009 C 
ENDBRANCH   2   3
BRANCH   2   5
HETATM    5  N1  UNL     1      15.392  21.462  15.198  1.00  0.00    -0.351 N 
HETATM    6  C4  UNL     1      14.436  20.843  14.352  1.00  0.00     0.193 C 
HETATM    7  N2  UNL     1      14.514  20.895  12.940  1.00  0.00    -0.063 NA
HETATM    8  N3  UNL     1      13.458  20.207  14.890  1.00  0.00    -0.277 N 
HETATM    9  C5  UNL     1      12.458  19.559  14.109  1.00  0.00     0.367 C 
ATOM     10  H3  UNL     1      13.395  20.164  15.907  1.00  0.00     0.173 HD
HETATM   11  O1  UNL     1      11.269  19.922  14.121  1.00  0.00    -0.238 OA
ATOM     12  H1  UNL     1      16.393  21.325  15.062  1.00  0.00     0.163 HD
BRANCH   9  13
HETATM   13  O2  UNL     1      12.820  18.503  13.320  1.00  0.00    -0.294 OA
BRANCH  13  14
HETATM   14  C6  UNL     1      11.958  17.587  12.727  1.00  0.00     0.061 C 
HETATM   15  C7  UNL     1      11.100  16.813  13.665  1.00  0.00     0.046 C 
HETATM   16  C8  UNL     1      11.061  18.265  11.691  1.00  0.00     0.046 C 
HETATM   17  C9  UNL     1      12.820  16.573  11.963  1.00  0.00     0.046 C 
ENDBRANCH  13  14
ENDBRANCH   9  13
ENDBRANCH   2   5
ENDBRANCH   1   2
BRANCH   1  18
HETATM   18  C11 UNL     1      16.995  23.511  16.689  1.00  0.00     0.272 C 
HETATM   19  O3  UNL     1      17.690  22.990  15.743  1.00  0.00    -0.266 OA
HETATM   20  N4  UNL     1      17.345  24.824  17.081  1.00  0.00    -0.302 N 
ATOM     21  H4  UNL     1      16.998  25.213  17.957  1.00  0.00     0.171 HD
BRANCH  20  22
HETATM   22  C12 UNL     1      18.122  25.532  16.298  1.00  0.00     0.151 A 
HETATM   23  N5  UNL     1      17.886  25.873  15.033  1.00  0.00    -0.346 N 
HETATM   24  C13 UNL     1      18.775  26.586  14.409  1.00  0.00     0.097 A 
ATOM     25  H5  UNL     1      17.027  25.583  14.565  1.00  0.00     0.167 HD
HETATM   26  C14 UNL     1      19.908  26.948  15.084  1.00  0.00     0.070 A 
HETATM   27  S1  UNL     1      19.645  26.237  16.615  1.00  0.00    -0.064 SA
ENDBRANCH  20  22
ENDBRANCH   1  18
BRANCH   1  28
HETATM   28  N6  UNL     1      16.284  21.853  18.279  1.00  0.00    -0.348 N 
BRANCH  28  29
HETATM   29  C15 UNL     1      17.502  21.202  18.376  1.00  0.00     0.064 C 
BRANCH  29  30
HETATM   30  C16 UNL     1      18.262  21.483  19.633  1.00  0.00     0.044 C 
BRANCH  30  31
HETATM   31  C17 UNL     1      19.204  22.683  19.442  1.00  0.00     0.005 C 
BRANCH  31  32
HETATM   32  C18 UNL     1      18.709  23.844  20.289  1.00  0.00    -0.004 C 
HETATM   33  C19 UNL     1      19.608  24.111  21.456  1.00  0.00     0.005 C 
ENDBRANCH  31  32
ENDBRANCH  30  31
ENDBRANCH  29  30
ENDBRANCH  28  29
BRANCH  28  34
HETATM   34  C20 UNL     1      15.458  21.828  19.458  1.00  0.00     0.239 C 
BRANCH  34  35
HETATM   35  C21 UNL     1      14.707  20.575  19.654  1.00  0.00     0.277 C 
HETATM   36  O4  UNL     1      13.798  20.227  18.819  1.00  0.00    -0.263 OA
BRANCH  35  37
HETATM   37  O5  UNL     1      14.905  19.705  20.708  1.00  0.00    -0.321 OA
BRANCH  37  38
HETATM   38  C22 UNL     1      14.425  18.377  20.654  1.00  0.00     0.174 C 
HETATM   39  C23 UNL     1      13.384  18.213  21.733  1.00  0.00     0.034 C 
ENDBRANCH  37  38
ENDBRANCH  35  37
ENDBRANCH  34  35
ENDBRANCH  28  34
ENDBRANCH   1  28
TORSDOF 16
ENDMDL
