MODEL 1
REMARK VINA RESULT: -8.968378358      0.000      0.000
REMARK  12 active torsions:
REMARK  status: ('A' for Active; 'I' for Inactive)
REMARK    1  A    between atoms: C4_7  and  N3_8 
REMARK    2  A    between atoms: N3_8  and  C5_10 
REMARK    3  A    between atoms: C5_10  and  C6_11 
REMARK    4  A    between atoms: C6_11  and  C7_12 
REMARK    5  A    between atoms: C7_12  and  C8_13 
REMARK    6  A    between atoms: N4_16  and  C11_17 
REMARK    7  A    between atoms: C11_17  and  C12_18 
REMARK    8  A    between atoms: C12_18  and  C13_19 
REMARK    9  A    between atoms: C16_22  and  N5_23 
REMARK       I    between atoms: N5_23  and  C17_25 
REMARK   10  A    between atoms: C17_25  and  C18_27 
REMARK   11  A    between atoms: C18_27  and  C19_28 
REMARK   12  A    between atoms: C19_28  and  C20_29 
ROOT
HETATM    1  C8  UNL     1      21.743  25.236  19.458  1.00  0.00    -0.011 C 
HETATM    2  C9  UNL     1      20.760  26.074  18.723  1.00  0.00     0.035 C 
HETATM    3  C10 UNL     1      21.248  27.479  18.427  1.00  0.00     0.272 C 
HETATM    4  N4  UNL     1      22.525  27.498  17.795  1.00  0.00     0.088 N 
HETATM    5  C23 UNL     1      23.476  26.592  18.399  1.00  0.00     0.272 C 
HETATM    6  C24 UNL     1      22.986  26.068  19.730  1.00  0.00     0.035 C 
ENDROOT
BRANCH   1   7
HETATM    7  C7  UNL     1      21.204  24.648  20.737  1.00  0.00     0.006 C 
BRANCH   7   8
HETATM    8  C6  UNL     1      19.746  24.904  20.883  1.00  0.00     0.020 C 
BRANCH   8   9
HETATM    9  C5  UNL     1      18.958  23.624  20.655  1.00  0.00     0.121 C 
BRANCH   9  10
HETATM   10  N3  UNL     1      18.423  23.568  19.320  1.00  0.00    -0.373 N 
ATOM     11  H3  UNL     1      19.090  23.590  18.548  1.00  0.00     0.161 HD
BRANCH  10  12
HETATM   12  C4  UNL     1      17.178  23.492  19.019  1.00  0.00     0.145 A 
HETATM   13  C3  UNL     1      16.477  22.321  18.841  1.00  0.00     0.107 A 
HETATM   14  N2  UNL     1      16.854  21.044  18.921  1.00  0.00    -0.347 N 
HETATM   15  C26 UNL     1      15.124  22.300  18.515  1.00  0.00     0.083 A 
HETATM   16  C2  UNL     1      15.781  20.267  18.656  1.00  0.00     0.183 A 
ATOM     17  H2  UNL     1      17.792  20.712  19.144  1.00  0.00     0.167 HD
HETATM   18  N1  UNL     1      14.701  21.029  18.403  1.00  0.00    -0.344 N 
HETATM   19  C1  UNL     1      13.351  20.573  18.075  1.00  0.00     0.157 C 
HETATM   20  C25 UNL     1      14.482  23.516  18.371  1.00  0.00     0.139 A 
HETATM   21  N8  UNL     1      15.188  24.640  18.550  1.00  0.00    -0.308 N 
HETATM   22  N7  UNL     1      16.483  24.634  18.862  1.00  0.00    -0.284 N 
ATOM     23  H8  UNL     1      14.715  25.537  18.443  1.00  0.00     0.186 HD
ATOM     24  H7  UNL     1      16.964  25.525  18.986  1.00  0.00     0.188 HD
ENDBRANCH  10  12
ENDBRANCH   9  10
ENDBRANCH   8   9
ENDBRANCH   7   8
ENDBRANCH   1   7
BRANCH   4  25
HETATM   25  C11 UNL     1      22.523  27.367  16.359  1.00  0.00     0.272 C 
BRANCH  25  26
HETATM   26  C12 UNL     1      21.208  27.624  15.727  1.00  0.00     0.034 C 
BRANCH  26  27
HETATM   27  C13 UNL     1      20.956  26.788  14.531  1.00  0.00    -0.013 C 
HETATM   28  C14 UNL     1      21.228  25.319  14.781  1.00  0.00     0.007 C 
HETATM   29  C15 UNL     1      20.241  24.835  15.802  1.00  0.00     0.025 C 
HETATM   30  C16 UNL     1      18.814  25.038  15.419  1.00  0.00     0.084 C 
HETATM   31  C21 UNL     1      18.588  25.933  14.245  1.00  0.00     0.025 C 
HETATM   32  C22 UNL     1      19.634  26.889  13.873  1.00  0.00     0.007 C 
BRANCH  30  33
HETATM   33  N5  UNL     1      18.186  23.752  15.201  1.00  0.00    -0.356 N 
HETATM   34  C17 UNL     1      16.809  23.482  15.374  1.00  0.00     0.218 C 
HETATM   35  O1  UNL     1      16.090  24.448  15.748  1.00  0.00    -0.274 OA
ATOM     36  H5  UNL     1      18.783  22.982  14.899  1.00  0.00     0.162 HD
BRANCH  34  37
HETATM   37  C18 UNL     1      16.264  22.150  15.130  1.00  0.00     0.111 C 
BRANCH  37  38
HETATM   38  C19 UNL     1      15.255  22.050  14.040  1.00  0.00     0.109 C 
BRANCH  38  39
HETATM   39  C20 UNL     1      13.918  21.660  14.532  1.00  0.00     0.231 C 
HETATM   40  N6  UNL     1      13.550  20.307  14.427  1.00  0.00    -0.062 NA
HETATM   41  O2  UNL     1      13.163  22.542  15.025  1.00  0.00    -0.277 OA
ENDBRANCH  38  39
ENDBRANCH  37  38
ENDBRANCH  34  37
ENDBRANCH  30  33
ENDBRANCH  26  27
ENDBRANCH  25  26
ENDBRANCH   4  25
TORSDOF 12
ENDMDL
MODEL 2
REMARK VINA RESULT: -8.826208987      2.390      6.042
REMARK  12 active torsions:
REMARK  status: ('A' for Active; 'I' for Inactive)
REMARK    1  A    between atoms: C4_7  and  N3_8 
REMARK    2  A    between atoms: N3_8  and  C5_10 
REMARK    3  A    between atoms: C5_10  and  C6_11 
REMARK    4  A    between atoms: C6_11  and  C7_12 
REMARK    5  A    between atoms: C7_12  and  C8_13 
REMARK    6  A    between atoms: N4_16  and  C11_17 
REMARK    7  A    between atoms: C11_17  and  C12_18 
REMARK    8  A    between atoms: C12_18  and  C13_19 
REMARK    9  A    between atoms: C16_22  and  N5_23 
REMARK       I    between atoms: N5_23  and  C17_25 
REMARK   10  A    between atoms: C17_25  and  C18_27 
REMARK   11  A    between atoms: C18_27  and  C19_28 
REMARK   12  A    between atoms: C19_28  and  C20_29 
ROOT
HETATM    1  C8  UNL     1      20.839  26.493  15.713  1.00  0.00    -0.011 C 
HETATM    2  C9  UNL     1      19.663  27.135  15.072  1.00  0.00     0.035 C 
HETATM    3  C10 UNL     1      18.996  26.281  14.011  1.00  0.00     0.272 C 
HETATM    4  N4  UNL     1      18.687  24.969  14.472  1.00  0.00     0.088 N 
HETATM    5  C23 UNL     1      19.763  24.357  15.220  1.00  0.00     0.272 C 
HETATM    6  C24 UNL     1      21.055  25.128  15.078  1.00  0.00     0.035 C 
ENDROOT
BRANCH   1   7
HETATM    7  C7  UNL     1      22.097  27.321  15.639  1.00  0.00     0.006 C 
BRANCH   7   8
HETATM    8  C6  UNL     1      23.313  26.486  15.835  1.00  0.00     0.020 C 
BRANCH   8   9
HETATM    9  C5  UNL     1      23.955  26.792  17.177  1.00  0.00     0.121 C 
BRANCH   9  10
HETATM   10  N3  UNL     1      23.612  25.799  18.162  1.00  0.00    -0.373 N 
ATOM     11  H3  UNL     1      24.124  24.917  18.134  1.00  0.00     0.161 HD
BRANCH  10  12
HETATM   12  C4  UNL     1      22.717  25.931  19.072  1.00  0.00     0.145 A 
HETATM   13  C3  UNL     1      21.630  25.101  19.238  1.00  0.00     0.107 A 
HETATM   14  N2  UNL     1      21.232  24.022  18.565  1.00  0.00    -0.347 N 
HETATM   15  C26 UNL     1      20.689  25.294  20.246  1.00  0.00     0.083 A 
HETATM   16  C2  UNL     1      20.092  23.566  19.131  1.00  0.00     0.183 A 
ATOM     17  H2  UNL     1      21.706  23.611  17.761  1.00  0.00     0.167 HD
HETATM   18  N1  UNL     1      19.744  24.342  20.173  1.00  0.00    -0.344 N 
HETATM   19  C1  UNL     1      18.579  24.185  21.046  1.00  0.00     0.157 C 
HETATM   20  C25 UNL     1      20.876  26.365  21.099  1.00  0.00     0.139 A 
HETATM   21  N8  UNL     1      21.941  27.156  20.914  1.00  0.00    -0.308 N 
HETATM   22  N7  UNL     1      22.828  26.951  19.942  1.00  0.00    -0.284 N 
ATOM     23  H8  UNL     1      22.078  27.947  21.543  1.00  0.00     0.186 HD
ATOM     24  H7  UNL     1      23.619  27.589  19.855  1.00  0.00     0.188 HD
ENDBRANCH  10  12
ENDBRANCH   9  10
ENDBRANCH   8   9
ENDBRANCH   7   8
ENDBRANCH   1   7
BRANCH   4  25
HETATM   25  C11 UNL     1      17.428  24.818  15.158  1.00  0.00     0.272 C 
BRANCH  25  26
HETATM   26  C12 UNL     1      17.446  23.816  16.249  1.00  0.00     0.034 C 
BRANCH  26  27
HETATM   27  C13 UNL     1      17.168  22.437  15.787  1.00  0.00    -0.013 C 
HETATM   28  C14 UNL     1      17.751  21.386  16.709  1.00  0.00     0.007 C 
HETATM   29  C15 UNL     1      17.053  21.497  18.032  1.00  0.00     0.025 C 
HETATM   30  C16 UNL     1      15.571  21.352  17.958  1.00  0.00     0.084 C 
HETATM   31  C21 UNL     1      14.992  21.411  16.582  1.00  0.00     0.025 C 
HETATM   32  C22 UNL     1      15.762  22.060  15.518  1.00  0.00     0.007 C 
BRANCH  30  33
HETATM   33  N5  UNL     1      15.172  20.127  18.620  1.00  0.00    -0.356 N 
HETATM   34  C17 UNL     1      14.890  20.006  19.999  1.00  0.00     0.218 C 
HETATM   35  O1  UNL     1      14.999  21.056  20.689  1.00  0.00    -0.274 OA
ATOM     36  H5  UNL     1      15.090  19.287  18.046  1.00  0.00     0.162 HD
BRANCH  34  37
HETATM   37  C18 UNL     1      14.495  18.727  20.581  1.00  0.00     0.111 C 
BRANCH  37  38
HETATM   38  C19 UNL     1      13.502  17.937  19.803  1.00  0.00     0.109 C 
BRANCH  38  39
HETATM   39  C20 UNL     1      12.132  18.480  19.906  1.00  0.00     0.231 C 
HETATM   40  N6  UNL     1      11.446  18.760  18.711  1.00  0.00    -0.062 NA
HETATM   41  O2  UNL     1      11.631  18.670  21.048  1.00  0.00    -0.277 OA
ENDBRANCH  38  39
ENDBRANCH  37  38
ENDBRANCH  34  37
ENDBRANCH  30  33
ENDBRANCH  26  27
ENDBRANCH  25  26
ENDBRANCH   4  25
TORSDOF 12
ENDMDL
MODEL 3
REMARK VINA RESULT: -8.687404695      2.057      7.304
REMARK  12 active torsions:
REMARK  status: ('A' for Active; 'I' for Inactive)
REMARK    1  A    between atoms: C4_7  and  N3_8 
REMARK    2  A    between atoms: N3_8  and  C5_10 
REMARK    3  A    between atoms: C5_10  and  C6_11 
REMARK    4  A    between atoms: C6_11  and  C7_12 
REMARK    5  A    between atoms: C7_12  and  C8_13 
REMARK    6  A    between atoms: N4_16  and  C11_17 
REMARK    7  A    between atoms: C11_17  and  C12_18 
REMARK    8  A    between atoms: C12_18  and  C13_19 
REMARK    9  A    between atoms: C16_22  and  N5_23 
REMARK       I    between atoms: N5_23  and  C17_25 
REMARK   10  A    between atoms: C17_25  and  C18_27 
REMARK   11  A    between atoms: C18_27  and  C19_28 
REMARK   12  A    between atoms: C19_28  and  C20_29 
ROOT
HETATM    1  C8  UNL     1      18.026  24.542  15.791  1.00  0.00    -0.011 C 
HETATM    2  C9  UNL     1      19.343  24.003  16.216  1.00  0.00     0.035 C 
HETATM    3  C10 UNL     1      19.819  24.525  17.558  1.00  0.00     0.272 C 
HETATM    4  N4  UNL     1      18.841  24.382  18.585  1.00  0.00     0.088 N 
HETATM    5  C23 UNL     1      17.512  24.772  18.168  1.00  0.00     0.272 C 
HETATM    6  C24 UNL     1      17.532  25.514  16.851  1.00  0.00     0.035 C 
ENDROOT
BRANCH   1   7
HETATM    7  C7  UNL     1      18.048  25.197  14.434  1.00  0.00     0.006 C 
BRANCH   7   8
HETATM    8  C6  UNL     1      19.422  25.627  14.057  1.00  0.00     0.020 C 
BRANCH   8   9
HETATM    9  C5  UNL     1      19.524  27.143  14.068  1.00  0.00     0.121 C 
BRANCH   9  10
HETATM   10  N3  UNL     1      20.196  27.615  15.251  1.00  0.00    -0.373 N 
ATOM     11  H3  UNL     1      19.696  27.532  16.136  1.00  0.00     0.161 HD
BRANCH  10  12
HETATM   12  C4  UNL     1      21.369  28.132  15.285  1.00  0.00     0.145 A 
HETATM   13  C3  UNL     1      22.358  27.791  16.181  1.00  0.00     0.107 A 
HETATM   14  N2  UNL     1      22.379  26.908  17.180  1.00  0.00    -0.347 N 
HETATM   15  C26 UNL     1      23.616  28.387  16.170  1.00  0.00     0.083 A 
HETATM   16  C2  UNL     1      23.597  26.955  17.762  1.00  0.00     0.183 A 
ATOM     17  H2  UNL     1      21.608  26.301  17.456  1.00  0.00     0.167 HD
HETATM   18  N1  UNL     1      24.376  27.866  17.148  1.00  0.00    -0.344 N 
HETATM   19  C1  UNL     1      25.758  28.216  17.476  1.00  0.00     0.157 C 
HETATM   20  C25 UNL     1      23.857  29.355  15.212  1.00  0.00     0.139 A 
HETATM   21  N8  UNL     1      22.878  29.666  14.354  1.00  0.00    -0.308 N 
HETATM   22  N7  UNL     1      21.681  29.082  14.384  1.00  0.00    -0.284 N 
ATOM     23  H8  UNL     1      23.056  30.380  13.647  1.00  0.00     0.186 HD
ATOM     24  H7  UNL     1      20.978  29.363  13.701  1.00  0.00     0.188 HD
ENDBRANCH  10  12
ENDBRANCH   9  10
ENDBRANCH   8   9
ENDBRANCH   7   8
ENDBRANCH   1   7
BRANCH   4  25
HETATM   25  C11 UNL     1      18.819  23.112  19.266  1.00  0.00     0.272 C 
BRANCH  25  26
HETATM   26  C12 UNL     1      17.464  22.649  19.645  1.00  0.00     0.034 C 
BRANCH  26  27
HETATM   27  C13 UNL     1      17.106  21.336  19.060  1.00  0.00    -0.013 C 
HETATM   28  C14 UNL     1      15.673  20.941  19.355  1.00  0.00     0.007 C 
HETATM   29  C15 UNL     1      14.773  21.926  18.670  1.00  0.00     0.025 C 
HETATM   30  C16 UNL     1      14.987  22.030  17.197  1.00  0.00     0.084 C 
HETATM   31  C21 UNL     1      16.227  21.375  16.684  1.00  0.00     0.025 C 
HETATM   32  C22 UNL     1      17.334  21.130  17.613  1.00  0.00     0.007 C 
BRANCH  30  33
HETATM   33  N5  UNL     1      13.823  21.518  16.505  1.00  0.00    -0.356 N 
HETATM   34  C17 UNL     1      13.177  22.158  15.422  1.00  0.00     0.218 C 
HETATM   35  O1  UNL     1      13.668  23.257  15.046  1.00  0.00    -0.274 OA
ATOM     36  H5  UNL     1      13.439  20.628  16.823  1.00  0.00     0.162 HD
BRANCH  34  37
HETATM   37  C18 UNL     1      12.006  21.566  14.783  1.00  0.00     0.111 C 
BRANCH  37  38
HETATM   38  C19 UNL     1      11.883  20.087  14.892  1.00  0.00     0.109 C 
BRANCH  38  39
HETATM   39  C20 UNL     1      11.981  19.407  13.585  1.00  0.00     0.231 C 
HETATM   40  N6  UNL     1      10.839  19.396  12.765  1.00  0.00    -0.062 NA
HETATM   41  O2  UNL     1      13.072  18.867  13.253  1.00  0.00    -0.277 OA
ENDBRANCH  38  39
ENDBRANCH  37  38
ENDBRANCH  34  37
ENDBRANCH  30  33
ENDBRANCH  26  27
ENDBRANCH  25  26
ENDBRANCH   4  25
TORSDOF 12
ENDMDL
MODEL 4
REMARK VINA RESULT: -8.622869064      1.941      6.707
REMARK  12 active torsions:
REMARK  status: ('A' for Active; 'I' for Inactive)
REMARK    1  A    between atoms: C4_7  and  N3_8 
REMARK    2  A    between atoms: N3_8  and  C5_10 
REMARK    3  A    between atoms: C5_10  and  C6_11 
REMARK    4  A    between atoms: C6_11  and  C7_12 
REMARK    5  A    between atoms: C7_12  and  C8_13 
REMARK    6  A    between atoms: N4_16  and  C11_17 
REMARK    7  A    between atoms: C11_17  and  C12_18 
REMARK    8  A    between atoms: C12_18  and  C13_19 
REMARK    9  A    between atoms: C16_22  and  N5_23 
REMARK       I    between atoms: N5_23  and  C17_25 
REMARK   10  A    between atoms: C17_25  and  C18_27 
REMARK   11  A    between atoms: C18_27  and  C19_28 
REMARK   12  A    between atoms: C19_28  and  C20_29 
ROOT
HETATM    1  C8  UNL     1      18.202  24.271  15.949  1.00  0.00    -0.011 C 
HETATM    2  C9  UNL     1      19.425  23.576  16.430  1.00  0.00     0.035 C 
HETATM    3  C10 UNL     1      19.945  24.091  17.758  1.00  0.00     0.272 C 
HETATM    4  N4  UNL     1      18.938  24.132  18.766  1.00  0.00     0.088 N 
HETATM    5  C23 UNL     1      17.684  24.681  18.300  1.00  0.00     0.272 C 
HETATM    6  C24 UNL     1      17.829  25.350  16.953  1.00  0.00     0.035 C 
ENDROOT
BRANCH   1   7
HETATM    7  C7  UNL     1      18.339  24.852  14.566  1.00  0.00     0.006 C 
BRANCH   7   8
HETATM    8  C6  UNL     1      18.223  26.336  14.583  1.00  0.00     0.020 C 
BRANCH   8   9
HETATM    9  C5  UNL     1      19.567  26.976  14.275  1.00  0.00     0.121 C 
BRANCH   9  10
HETATM   10  N3  UNL     1      20.136  27.589  15.446  1.00  0.00    -0.373 N 
ATOM     11  H3  UNL     1      19.640  28.386  15.844  1.00  0.00     0.161 HD
BRANCH  10  12
HETATM   12  C4  UNL     1      21.216  27.217  16.031  1.00  0.00     0.145 A 
HETATM   13  C3  UNL     1      21.414  27.207  17.394  1.00  0.00     0.107 A 
HETATM   14  N2  UNL     1      20.616  27.549  18.405  1.00  0.00    -0.347 N 
HETATM   15  C26 UNL     1      22.610  26.791  17.974  1.00  0.00     0.083 A 
HETATM   16  C2  UNL     1      21.288  27.355  19.561  1.00  0.00     0.183 A 
ATOM     17  H2  UNL     1      19.661  27.899  18.320  1.00  0.00     0.167 HD
HETATM   18  N1  UNL     1      22.524  26.885  19.311  1.00  0.00    -0.344 N 
HETATM   19  C1  UNL     1      23.559  26.547  20.289  1.00  0.00     0.157 C 
HETATM   20  C25 UNL     1      23.621  26.377  17.127  1.00  0.00     0.139 A 
HETATM   21  N8  UNL     1      23.401  26.397  15.806  1.00  0.00    -0.308 N 
HETATM   22  N7  UNL     1      22.248  26.799  15.275  1.00  0.00    -0.284 N 
ATOM     23  H8  UNL     1      24.147  26.092  15.181  1.00  0.00     0.186 HD
ATOM     24  H7  UNL     1      22.143  26.790  14.260  1.00  0.00     0.188 HD
ENDBRANCH  10  12
ENDBRANCH   9  10
ENDBRANCH   8   9
ENDBRANCH   7   8
ENDBRANCH   1   7
BRANCH   4  25
HETATM   25  C11 UNL     1      18.729  22.910  19.503  1.00  0.00     0.272 C 
BRANCH  25  26
HETATM   26  C12 UNL     1      17.305  22.597  19.766  1.00  0.00     0.034 C 
BRANCH  26  27
HETATM   27  C13 UNL     1      16.882  21.283  19.229  1.00  0.00    -0.013 C 
HETATM   28  C14 UNL     1      15.409  21.011  19.454  1.00  0.00     0.007 C 
HETATM   29  C15 UNL     1      14.629  22.019  18.663  1.00  0.00     0.025 C 
HETATM   30  C16 UNL     1      14.935  22.024  17.204  1.00  0.00     0.084 C 
HETATM   31  C21 UNL     1      16.149  21.253  16.804  1.00  0.00     0.025 C 
HETATM   32  C22 UNL     1      17.178  20.980  17.811  1.00  0.00     0.007 C 
BRANCH  30  33
HETATM   33  N5  UNL     1      13.778  21.561  16.467  1.00  0.00    -0.356 N 
HETATM   34  C17 UNL     1      13.140  22.275  15.428  1.00  0.00     0.218 C 
HETATM   35  O1  UNL     1      13.631  23.399  15.134  1.00  0.00    -0.274 OA
ATOM     36  H5  UNL     1      13.394  20.650  16.718  1.00  0.00     0.162 HD
BRANCH  34  37
HETATM   37  C18 UNL     1      11.975  21.728  14.739  1.00  0.00     0.111 C 
BRANCH  37  38
HETATM   38  C19 UNL     1      11.782  20.256  14.854  1.00  0.00     0.109 C 
BRANCH  38  39
HETATM   39  C20 UNL     1      11.827  19.570  13.547  1.00  0.00     0.231 C 
HETATM   40  N6  UNL     1      13.028  18.936  13.180  1.00  0.00    -0.062 NA
HETATM   41  O2  UNL     1      10.800  19.575  12.815  1.00  0.00    -0.277 OA
ENDBRANCH  38  39
ENDBRANCH  37  38
ENDBRANCH  34  37
ENDBRANCH  30  33
ENDBRANCH  26  27
ENDBRANCH  25  26
ENDBRANCH   4  25
TORSDOF 12
ENDMDL
MODEL 5
REMARK VINA RESULT: -8.613882436      1.353      1.900
REMARK  12 active torsions:
REMARK  status: ('A' for Active; 'I' for Inactive)
REMARK    1  A    between atoms: C4_7  and  N3_8 
REMARK    2  A    between atoms: N3_8  and  C5_10 
REMARK    3  A    between atoms: C5_10  and  C6_11 
REMARK    4  A    between atoms: C6_11  and  C7_12 
REMARK    5  A    between atoms: C7_12  and  C8_13 
REMARK    6  A    between atoms: N4_16  and  C11_17 
REMARK    7  A    between atoms: C11_17  and  C12_18 
REMARK    8  A    between atoms: C12_18  and  C13_19 
REMARK    9  A    between atoms: C16_22  and  N5_23 
REMARK       I    between atoms: N5_23  and  C17_25 
REMARK   10  A    between atoms: C17_25  and  C18_27 
REMARK   11  A    between atoms: C18_27  and  C19_28 
REMARK   12  A    between atoms: C19_28  and  C20_29 
ROOT
HETATM    1  C8  UNL     1      21.813  25.512  20.520  1.00  0.00    -0.011 C 
HETATM    2  C9  UNL     1      22.576  26.770  20.728  1.00  0.00     0.035 C 
HETATM    3  C10 UNL     1      24.045  26.667  20.369  1.00  0.00     0.272 C 
HETATM    4  N4  UNL     1      24.259  26.137  19.063  1.00  0.00     0.088 N 
HETATM    5  C23 UNL     1      23.434  24.986  18.770  1.00  0.00     0.272 C 
HETATM    6  C24 UNL     1      22.768  24.442  20.013  1.00  0.00     0.035 C 
ENDROOT
BRANCH   1   7
HETATM    7  C7  UNL     1      21.082  25.035  21.749  1.00  0.00     0.006 C 
BRANCH   7   8
HETATM    8  C6  UNL     1      19.957  24.127  21.397  1.00  0.00     0.020 C 
BRANCH   8   9
HETATM    9  C5  UNL     1      19.041  24.788  20.380  1.00  0.00     0.121 C 
BRANCH   9  10
HETATM   10  N3  UNL     1      18.519  23.828  19.442  1.00  0.00    -0.373 N 
ATOM     11  H3  UNL     1      19.181  23.173  19.027  1.00  0.00     0.161 HD
BRANCH  10  12
HETATM   12  C4  UNL     1      17.290  23.728  19.086  1.00  0.00     0.145 A 
HETATM   13  C3  UNL     1      16.610  22.543  18.914  1.00  0.00     0.107 A 
HETATM   14  N2  UNL     1      16.995  21.275  19.057  1.00  0.00    -0.347 N 
HETATM   15  C26 UNL     1      15.274  22.496  18.525  1.00  0.00     0.083 A 
HETATM   16  C2  UNL     1      15.944  20.477  18.768  1.00  0.00     0.183 A 
ATOM     17  H2  UNL     1      17.925  20.961  19.336  1.00  0.00     0.167 HD
HETATM   18  N1  UNL     1      14.871  21.217  18.437  1.00  0.00    -0.344 N 
HETATM   19  C1  UNL     1      13.542  20.735  18.061  1.00  0.00     0.157 C 
HETATM   20  C25 UNL     1      14.628  23.699  18.309  1.00  0.00     0.139 A 
HETATM   21  N8  UNL     1      15.314  24.836  18.482  1.00  0.00    -0.308 N 
HETATM   22  N7  UNL     1      16.593  24.856  18.856  1.00  0.00    -0.284 N 
ATOM     23  H8  UNL     1      14.838  25.724  18.322  1.00  0.00     0.186 HD
ATOM     24  H7  UNL     1      17.058  25.756  18.971  1.00  0.00     0.188 HD
ENDBRANCH  10  12
ENDBRANCH   9  10
ENDBRANCH   8   9
ENDBRANCH   7   8
ENDBRANCH   1   7
BRANCH   4  25
HETATM   25  C11 UNL     1      24.224  27.089  17.980  1.00  0.00     0.272 C 
BRANCH  25  26
HETATM   26  C12 UNL     1      23.524  26.605  16.768  1.00  0.00     0.034 C 
BRANCH  26  27
HETATM   27  C13 UNL     1      22.340  27.418  16.408  1.00  0.00    -0.013 C 
HETATM   28  C14 UNL     1      21.733  27.005  15.082  1.00  0.00     0.007 C 
HETATM   29  C15 UNL     1      21.209  25.608  15.232  1.00  0.00     0.025 C 
HETATM   30  C16 UNL     1      20.213  25.440  16.330  1.00  0.00     0.084 C 
HETATM   31  C21 UNL     1      20.109  26.589  17.278  1.00  0.00     0.025 C 
HETATM   32  C22 UNL     1      21.237  27.519  17.389  1.00  0.00     0.007 C 
BRANCH  30  33
HETATM   33  N5  UNL     1      18.916  25.137  15.761  1.00  0.00    -0.356 N 
HETATM   34  C17 UNL     1      18.309  23.861  15.761  1.00  0.00     0.218 C 
HETATM   35  O1  UNL     1      18.964  22.928  16.301  1.00  0.00    -0.274 OA
ATOM     36  H5  UNL     1      18.401  25.904  15.329  1.00  0.00     0.162 HD
BRANCH  34  37
HETATM   37  C18 UNL     1      16.995  23.648  15.163  1.00  0.00     0.111 C 
BRANCH  37  38
HETATM   38  C19 UNL     1      16.449  22.268  15.265  1.00  0.00     0.109 C 
BRANCH  38  39
HETATM   39  C20 UNL     1      15.238  22.070  14.444  1.00  0.00     0.231 C 
HETATM   40  N6  UNL     1      14.023  22.581  14.933  1.00  0.00    -0.062 NA
HETATM   41  O2  UNL     1      15.333  21.457  13.345  1.00  0.00    -0.277 OA
ENDBRANCH  38  39
ENDBRANCH  37  38
ENDBRANCH  34  37
ENDBRANCH  30  33
ENDBRANCH  26  27
ENDBRANCH  25  26
ENDBRANCH   4  25
TORSDOF 12
ENDMDL
