MODEL 1
REMARK VINA RESULT: -9.732145442      0.000      0.000
REMARK  13 active torsions:
REMARK  status: ('A' for Active; 'I' for Inactive)
REMARK    1  A    between atoms: C4_5  and  C5_6 
REMARK    2  A    between atoms: C5_6  and  N2_7 
REMARK    3  A    between atoms: N2_7  and  C6_8 
REMARK       I    between atoms: N2_7  and  C15_20 
REMARK    4  A    between atoms: C6_8  and  C7_9 
REMARK    5  A    between atoms: C7_9  and  C8_10 
REMARK    6  A    between atoms: C8_10  and  C9_11 
REMARK    7  A    between atoms: C9_11  and  N3_12 
REMARK    8  A    between atoms: C13_16  and  C14_17 
REMARK    9  A    between atoms: C15_20  and  C16_22 
REMARK   10  A    between atoms: C16_22  and  C17_23 
REMARK   11  A    between atoms: C17_23  and  N4_24 
REMARK   12  A    between atoms: C18_25  and  O4_26 
REMARK   13  A    between atoms: C21_30  and  O5_31 
ROOT
HETATM    1  N2  UNL     1      17.270  22.348  16.659  1.00  0.00    -0.351 N 
HETATM    2  C15 UNL     1      18.370  23.170  16.201  1.00  0.00     0.224 C 
HETATM    3  O3  UNL     1      19.493  22.897  16.660  1.00  0.00    -0.273 OA
ENDROOT
BRANCH   1   4
HETATM    4  C5  UNL     1      15.938  22.672  16.247  1.00  0.00     0.130 C 
BRANCH   4   5
HETATM    5  C4  UNL     1      15.220  21.662  15.432  1.00  0.00     0.007 C 
HETATM    6  C3  UNL     1      15.364  21.827  13.933  1.00  0.00     0.036 C 
HETATM    7  C2  UNL     1      14.299  21.033  13.197  1.00  0.00     0.272 C 
HETATM    8  N1  UNL     1      13.771  19.968  14.032  1.00  0.00     0.084 N 
HETATM    9  C1  UNL     1      12.916  19.123  13.224  1.00  0.00     0.309 C 
HETATM   10  C27 UNL     1      13.052  20.478  15.167  1.00  0.00     0.272 C 
HETATM   11  C26 UNL     1      13.722  21.685  15.757  1.00  0.00     0.036 C 
ENDBRANCH   4   5
ENDBRANCH   1   4
BRANCH   1  12
HETATM   12  C6  UNL     1      17.578  21.202  17.472  1.00  0.00     0.126 C 
BRANCH  12  13
HETATM   13  C7  UNL     1      17.563  21.430  18.941  1.00  0.00     0.022 C 
BRANCH  13  14
HETATM   14  C8  UNL     1      16.207  21.400  19.558  1.00  0.00     0.032 C 
BRANCH  14  15
HETATM   15  C9  UNL     1      15.367  20.271  18.973  1.00  0.00     0.273 C 
BRANCH  15  16
HETATM   16  N3  UNL     1      14.087  20.138  19.625  1.00  0.00     0.103 N 
HETATM   17  C10 UNL     1      14.205  19.827  21.034  1.00  0.00     0.273 C 
HETATM   18  C11 UNL     1      14.704  18.382  21.071  1.00  0.00     0.033 C 
HETATM   19  C12 UNL     1      13.995  17.770  19.880  1.00  0.00     0.049 C 
HETATM   20  C13 UNL     1      13.458  18.944  19.095  1.00  0.00     0.322 C 
BRANCH  20  21
HETATM   21  C14 UNL     1      11.988  18.994  19.212  1.00  0.00     0.207 C 
HETATM   22  O1  UNL     1      11.291  19.558  18.343  1.00  0.00    -0.646 OA
HETATM   23  O2  UNL     1      11.373  18.408  20.296  1.00  0.00    -0.646 OA
ENDBRANCH  20  21
ENDBRANCH  15  16
ENDBRANCH  14  15
ENDBRANCH  13  14
ENDBRANCH  12  13
ENDBRANCH   1  12
BRANCH   2  24
HETATM   24  C16 UNL     1      18.152  24.256  15.241  1.00  0.00     0.148 C 
BRANCH  24  25
HETATM   25  C17 UNL     1      18.349  25.641  15.660  1.00  0.00     0.083 C 
BRANCH  25  26
HETATM   26  N4  UNL     1      19.555  26.326  15.437  1.00  0.00    -0.286 N 
HETATM   27  C18 UNL     1      20.749  26.114  15.991  1.00  0.00     0.155 A 
HETATM   28  C19 UNL     1      21.675  26.988  15.445  1.00  0.00     0.004 A 
HETATM   29  C20 UNL     1      21.021  27.771  14.516  1.00  0.00     0.004 A 
HETATM   30  C25 UNL     1      23.129  27.254  15.625  1.00  0.00     0.044 C 
HETATM   31  C21 UNL     1      19.716  27.327  14.546  1.00  0.00     0.155 A 
HETATM   32  C22 UNL     1      21.768  28.820  13.751  1.00  0.00     0.044 C 
HETATM   33  C23 UNL     1      22.796  29.520  14.584  1.00  0.00     0.005 C 
HETATM   34  C24 UNL     1      23.238  28.775  15.798  1.00  0.00     0.005 C 
BRANCH  27  35
HETATM   35  O4  UNL     1      21.156  25.207  16.975  1.00  0.00    -0.345 OA
ATOM     36  H4  UNL     1      21.748  25.309  17.711  1.00  0.00     0.219 HD
ENDBRANCH  27  35
BRANCH  31  37
HETATM   37  O5  UNL     1      18.707  27.839  13.766  1.00  0.00    -0.345 OA
ATOM     38  H5  UNL     1      18.002  28.386  14.093  1.00  0.00     0.219 HD
ENDBRANCH  31  37
ENDBRANCH  25  26
ENDBRANCH  24  25
ENDBRANCH   2  24
TORSDOF 13
ENDMDL
MODEL 2
REMARK VINA RESULT: -9.447650971      0.763      1.599
REMARK  13 active torsions:
REMARK  status: ('A' for Active; 'I' for Inactive)
REMARK    1  A    between atoms: C4_5  and  C5_6 
REMARK    2  A    between atoms: C5_6  and  N2_7 
REMARK    3  A    between atoms: N2_7  and  C6_8 
REMARK       I    between atoms: N2_7  and  C15_20 
REMARK    4  A    between atoms: C6_8  and  C7_9 
REMARK    5  A    between atoms: C7_9  and  C8_10 
REMARK    6  A    between atoms: C8_10  and  C9_11 
REMARK    7  A    between atoms: C9_11  and  N3_12 
REMARK    8  A    between atoms: C13_16  and  C14_17 
REMARK    9  A    between atoms: C15_20  and  C16_22 
REMARK   10  A    between atoms: C16_22  and  C17_23 
REMARK   11  A    between atoms: C17_23  and  N4_24 
REMARK   12  A    between atoms: C18_25  and  O4_26 
REMARK   13  A    between atoms: C21_30  and  O5_31 
ROOT
HETATM    1  N2  UNL     1      17.133  22.400  16.331  1.00  0.00    -0.351 N 
HETATM    2  C15 UNL     1      18.163  23.323  15.905  1.00  0.00     0.224 C 
HETATM    3  O3  UNL     1      19.311  23.108  16.331  1.00  0.00    -0.273 OA
ENDROOT
BRANCH   1   4
HETATM    4  C5  UNL     1      15.774  22.649  15.957  1.00  0.00     0.130 C 
BRANCH   4   5
HETATM    5  C4  UNL     1      15.071  21.575  15.216  1.00  0.00     0.007 C 
HETATM    6  C3  UNL     1      15.177  21.659  13.708  1.00  0.00     0.036 C 
HETATM    7  C2  UNL     1      14.122  20.793  13.041  1.00  0.00     0.272 C 
HETATM    8  N1  UNL     1      13.646  19.761  13.946  1.00  0.00     0.084 N 
HETATM    9  C1  UNL     1      12.801  18.847  13.207  1.00  0.00     0.309 C 
HETATM   10  C27 UNL     1      12.936  20.312  15.068  1.00  0.00     0.272 C 
HETATM   11  C26 UNL     1      13.580  21.570  15.575  1.00  0.00     0.036 C 
ENDBRANCH   4   5
ENDBRANCH   1   4
BRANCH   1  12
HETATM   12  C6  UNL     1      17.537  21.237  17.074  1.00  0.00     0.126 C 
BRANCH  12  13
HETATM   13  C7  UNL     1      17.646  21.416  18.546  1.00  0.00     0.022 C 
BRANCH  13  14
HETATM   14  C8  UNL     1      16.345  21.397  19.270  1.00  0.00     0.032 C 
BRANCH  14  15
HETATM   15  C9  UNL     1      15.470  20.247  18.788  1.00  0.00     0.273 C 
BRANCH  15  16
HETATM   16  N3  UNL     1      14.203  20.188  19.477  1.00  0.00     0.103 N 
HETATM   17  C10 UNL     1      14.348  19.992  20.903  1.00  0.00     0.273 C 
HETATM   18  C11 UNL     1      14.827  18.548  21.049  1.00  0.00     0.033 C 
HETATM   19  C12 UNL     1      14.083  17.851  19.928  1.00  0.00     0.049 C 
HETATM   20  C13 UNL     1      13.545  18.965  19.061  1.00  0.00     0.322 C 
BRANCH  20  21
HETATM   21  C14 UNL     1      12.079  19.048  19.204  1.00  0.00     0.207 C 
HETATM   22  O1  UNL     1      11.376  19.601  18.332  1.00  0.00    -0.646 OA
HETATM   23  O2  UNL     1      11.474  18.507  20.317  1.00  0.00    -0.646 OA
ENDBRANCH  20  21
ENDBRANCH  15  16
ENDBRANCH  14  15
ENDBRANCH  13  14
ENDBRANCH  12  13
ENDBRANCH   1  12
BRANCH   2  24
HETATM   24  C16 UNL     1      17.850  24.442  15.010  1.00  0.00     0.148 C 
BRANCH  24  25
HETATM   25  C17 UNL     1      17.912  25.811  15.517  1.00  0.00     0.083 C 
BRANCH  25  26
HETATM   26  N4  UNL     1      19.130  26.487  15.700  1.00  0.00    -0.286 N 
HETATM   27  C18 UNL     1      19.771  27.293  14.853  1.00  0.00     0.155 A 
HETATM   28  C19 UNL     1      20.914  27.787  15.460  1.00  0.00     0.004 A 
HETATM   29  C20 UNL     1      20.978  27.262  16.734  1.00  0.00     0.004 A 
HETATM   30  C25 UNL     1      22.021  28.703  15.068  1.00  0.00     0.044 C 
HETATM   31  C21 UNL     1      19.857  26.465  16.837  1.00  0.00     0.155 A 
HETATM   32  C22 UNL     1      22.114  27.618  17.643  1.00  0.00     0.044 C 
HETATM   33  C23 UNL     1      23.420  27.730  16.919  1.00  0.00     0.005 C 
HETATM   34  C24 UNL     1      23.308  27.960  15.449  1.00  0.00     0.005 C 
BRANCH  27  35
HETATM   35  O4  UNL     1      19.472  27.668  13.539  1.00  0.00    -0.345 OA
ATOM     36  H4  UNL     1      19.122  27.167  12.812  1.00  0.00     0.219 HD
ENDBRANCH  27  35
BRANCH  31  37
HETATM   37  O5  UNL     1      19.522  25.742  17.957  1.00  0.00    -0.345 OA
ATOM     38  H5  UNL     1      19.501  24.792  17.995  1.00  0.00     0.219 HD
ENDBRANCH  31  37
ENDBRANCH  25  26
ENDBRANCH  24  25
ENDBRANCH   2  24
TORSDOF 13
ENDMDL
MODEL 3
REMARK VINA RESULT: -9.369748821      0.936      1.721
REMARK  13 active torsions:
REMARK  status: ('A' for Active; 'I' for Inactive)
REMARK    1  A    between atoms: C4_5  and  C5_6 
REMARK    2  A    between atoms: C5_6  and  N2_7 
REMARK    3  A    between atoms: N2_7  and  C6_8 
REMARK       I    between atoms: N2_7  and  C15_20 
REMARK    4  A    between atoms: C6_8  and  C7_9 
REMARK    5  A    between atoms: C7_9  and  C8_10 
REMARK    6  A    between atoms: C8_10  and  C9_11 
REMARK    7  A    between atoms: C9_11  and  N3_12 
REMARK    8  A    between atoms: C13_16  and  C14_17 
REMARK    9  A    between atoms: C15_20  and  C16_22 
REMARK   10  A    between atoms: C16_22  and  C17_23 
REMARK   11  A    between atoms: C17_23  and  N4_24 
REMARK   12  A    between atoms: C18_25  and  O4_26 
REMARK   13  A    between atoms: C21_30  and  O5_31 
ROOT
HETATM    1  N2  UNL     1      17.210  22.954  15.957  1.00  0.00    -0.351 N 
HETATM    2  C15 UNL     1      18.271  23.918  15.754  1.00  0.00     0.224 C 
HETATM    3  O3  UNL     1      19.368  23.653  16.274  1.00  0.00    -0.273 OA
ENDROOT
BRANCH   1   4
HETATM    4  C5  UNL     1      15.897  23.247  15.470  1.00  0.00     0.130 C 
BRANCH   4   5
HETATM    5  C4  UNL     1      15.058  22.096  15.060  1.00  0.00     0.007 C 
HETATM    6  C3  UNL     1      15.264  21.625  13.636  1.00  0.00     0.036 C 
HETATM    7  C2  UNL     1      14.112  20.744  13.184  1.00  0.00     0.272 C 
HETATM    8  N1  UNL     1      13.409  20.181  14.323  1.00  0.00     0.084 N 
HETATM    9  C1  UNL     1      12.458  19.199  13.844  1.00  0.00     0.309 C 
HETATM   10  C27 UNL     1      12.744  21.191  15.102  1.00  0.00     0.272 C 
HETATM   11  C26 UNL     1      13.572  22.437  15.223  1.00  0.00     0.036 C 
ENDBRANCH   4   5
ENDBRANCH   1   4
BRANCH   1  12
HETATM   12  C6  UNL     1      17.545  21.712  16.601  1.00  0.00     0.126 C 
BRANCH  12  13
HETATM   13  C7  UNL     1      17.412  21.696  18.083  1.00  0.00     0.022 C 
BRANCH  13  14
HETATM   14  C8  UNL     1      16.008  21.722  18.579  1.00  0.00     0.032 C 
BRANCH  14  15
HETATM   15  C9  UNL     1      15.449  20.311  18.709  1.00  0.00     0.273 C 
BRANCH  15  16
HETATM   16  N3  UNL     1      14.211  20.271  19.448  1.00  0.00     0.103 N 
HETATM   17  C10 UNL     1      14.411  20.266  20.881  1.00  0.00     0.273 C 
HETATM   18  C11 UNL     1      14.978  18.879  21.187  1.00  0.00     0.033 C 
HETATM   19  C12 UNL     1      14.242  18.007  20.191  1.00  0.00     0.049 C 
HETATM   20  C13 UNL     1      13.612  18.972  19.213  1.00  0.00     0.322 C 
BRANCH  20  21
HETATM   21  C14 UNL     1      12.149  18.993  19.401  1.00  0.00     0.207 C 
HETATM   22  O1  UNL     1      11.623  18.482  20.411  1.00  0.00    -0.646 OA
HETATM   23  O2  UNL     1      11.351  19.586  18.449  1.00  0.00    -0.646 OA
ENDBRANCH  20  21
ENDBRANCH  15  16
ENDBRANCH  14  15
ENDBRANCH  13  14
ENDBRANCH  12  13
ENDBRANCH   1  12
BRANCH   2  24
HETATM   24  C16 UNL     1      18.044  25.133  14.966  1.00  0.00     0.148 C 
BRANCH  24  25
HETATM   25  C17 UNL     1      19.099  25.628  14.084  1.00  0.00     0.083 C 
BRANCH  25  26
HETATM   26  N4  UNL     1      20.241  26.282  14.576  1.00  0.00    -0.286 N 
HETATM   27  C18 UNL     1      20.401  27.574  14.867  1.00  0.00     0.155 A 
HETATM   28  C19 UNL     1      21.673  27.779  15.375  1.00  0.00     0.004 A 
HETATM   29  C20 UNL     1      22.322  26.562  15.397  1.00  0.00     0.004 A 
HETATM   30  C25 UNL     1      22.449  28.948  15.873  1.00  0.00     0.044 C 
HETATM   31  C21 UNL     1      21.399  25.668  14.895  1.00  0.00     0.155 A 
HETATM   32  C22 UNL     1      23.729  26.464  15.902  1.00  0.00     0.044 C 
HETATM   33  C23 UNL     1      24.566  27.641  15.510  1.00  0.00     0.005 C 
HETATM   34  C24 UNL     1      23.800  28.869  15.151  1.00  0.00     0.005 C 
BRANCH  27  35
HETATM   35  O4  UNL     1      19.530  28.660  14.731  1.00  0.00    -0.345 OA
ATOM     36  H4  UNL     1      19.619  29.567  14.997  1.00  0.00     0.219 HD
ENDBRANCH  27  35
BRANCH  31  37
HETATM   37  O5  UNL     1      21.632  24.323  14.739  1.00  0.00    -0.345 OA
ATOM     38  H5  UNL     1      22.088  23.780  15.372  1.00  0.00     0.219 HD
ENDBRANCH  31  37
ENDBRANCH  25  26
ENDBRANCH  24  25
ENDBRANCH   2  24
TORSDOF 13
ENDMDL
MODEL 4
REMARK VINA RESULT: -9.324642848      2.193      4.699
REMARK  13 active torsions:
REMARK  status: ('A' for Active; 'I' for Inactive)
REMARK    1  A    between atoms: C4_5  and  C5_6 
REMARK    2  A    between atoms: C5_6  and  N2_7 
REMARK    3  A    between atoms: N2_7  and  C6_8 
REMARK       I    between atoms: N2_7  and  C15_20 
REMARK    4  A    between atoms: C6_8  and  C7_9 
REMARK    5  A    between atoms: C7_9  and  C8_10 
REMARK    6  A    between atoms: C8_10  and  C9_11 
REMARK    7  A    between atoms: C9_11  and  N3_12 
REMARK    8  A    between atoms: C13_16  and  C14_17 
REMARK    9  A    between atoms: C15_20  and  C16_22 
REMARK   10  A    between atoms: C16_22  and  C17_23 
REMARK   11  A    between atoms: C17_23  and  N4_24 
REMARK   12  A    between atoms: C18_25  and  O4_26 
REMARK   13  A    between atoms: C21_30  and  O5_31 
ROOT
HETATM    1  N2  UNL     1      18.055  23.082  17.746  1.00  0.00    -0.351 N 
HETATM    2  C15 UNL     1      17.479  23.117  16.419  1.00  0.00     0.224 C 
HETATM    3  O3  UNL     1      17.288  22.018  15.869  1.00  0.00    -0.273 OA
ENDROOT
BRANCH   1   4
HETATM    4  C5  UNL     1      18.392  24.313  18.394  1.00  0.00     0.130 C 
BRANCH   4   5
HETATM    5  C4  UNL     1      19.704  24.377  19.081  1.00  0.00     0.007 C 
HETATM    6  C3  UNL     1      19.637  24.360  20.594  1.00  0.00     0.036 C 
HETATM    7  C2  UNL     1      20.948  24.831  21.199  1.00  0.00     0.272 C 
HETATM    8  N1  UNL     1      22.040  24.689  20.253  1.00  0.00     0.084 N 
HETATM    9  C1  UNL     1      23.288  24.957  20.937  1.00  0.00     0.309 C 
HETATM   10  C27 UNL     1      21.889  25.559  19.118  1.00  0.00     0.272 C 
HETATM   11  C26 UNL     1      20.459  25.645  18.666  1.00  0.00     0.036 C 
ENDBRANCH   4   5
ENDBRANCH   1   4
BRANCH   1  12
HETATM   12  C6  UNL     1      18.215  21.799  18.377  1.00  0.00     0.126 C 
BRANCH  12  13
HETATM   13  C7  UNL     1      17.374  21.562  19.581  1.00  0.00     0.022 C 
BRANCH  13  14
HETATM   14  C8  UNL     1      15.913  21.748  19.360  1.00  0.00     0.032 C 
BRANCH  14  15
HETATM   15  C9  UNL     1      15.248  20.434  18.968  1.00  0.00     0.273 C 
BRANCH  15  16
HETATM   16  N3  UNL     1      14.044  20.177  19.720  1.00  0.00     0.103 N 
HETATM   17  C10 UNL     1      14.309  19.810  21.095  1.00  0.00     0.273 C 
HETATM   18  C11 UNL     1      14.908  18.406  21.012  1.00  0.00     0.033 C 
HETATM   19  C12 UNL     1      14.141  17.799  19.856  1.00  0.00     0.049 C 
HETATM   20  C13 UNL     1      13.455  18.965  19.183  1.00  0.00     0.322 C 
BRANCH  20  21
HETATM   21  C14 UNL     1      12.001  18.901  19.428  1.00  0.00     0.207 C 
HETATM   22  O1  UNL     1      11.184  19.218  18.539  1.00  0.00    -0.646 OA
HETATM   23  O2  UNL     1      11.538  18.483  20.656  1.00  0.00    -0.646 OA
ENDBRANCH  20  21
ENDBRANCH  15  16
ENDBRANCH  14  15
ENDBRANCH  13  14
ENDBRANCH  12  13
ENDBRANCH   1  12
BRANCH   2  24
HETATM   24  C16 UNL     1      17.136  24.390  15.778  1.00  0.00     0.148 C 
BRANCH  24  25
HETATM   25  C17 UNL     1      17.881  24.829  14.601  1.00  0.00     0.083 C 
BRANCH  25  26
HETATM   26  N4  UNL     1      19.087  25.543  14.702  1.00  0.00    -0.286 N 
HETATM   27  C18 UNL     1      20.273  25.118  15.142  1.00  0.00     0.155 A 
HETATM   28  C19 UNL     1      21.203  26.138  15.020  1.00  0.00     0.004 A 
HETATM   29  C20 UNL     1      20.562  27.235  14.483  1.00  0.00     0.004 A 
HETATM   30  C25 UNL     1      22.652  26.302  15.321  1.00  0.00     0.044 C 
HETATM   31  C21 UNL     1      19.259  26.821  14.304  1.00  0.00     0.155 A 
HETATM   32  C22 UNL     1      21.317  28.504  14.232  1.00  0.00     0.044 C 
HETATM   33  C23 UNL     1      22.326  28.796  15.298  1.00  0.00     0.005 C 
HETATM   34  C24 UNL     1      22.750  27.617  16.107  1.00  0.00     0.005 C 
BRANCH  27  35
HETATM   35  O4  UNL     1      20.667  23.886  15.673  1.00  0.00    -0.345 OA
ATOM     36  H4  UNL     1      21.125  23.671  16.476  1.00  0.00     0.219 HD
ENDBRANCH  27  35
BRANCH  31  37
HETATM   37  O5  UNL     1      18.261  27.612  13.785  1.00  0.00    -0.345 OA
ATOM     38  H5  UNL     1      18.298  28.560  13.740  1.00  0.00     0.219 HD
ENDBRANCH  31  37
ENDBRANCH  25  26
ENDBRANCH  24  25
ENDBRANCH   2  24
TORSDOF 13
ENDMDL
MODEL 5
REMARK VINA RESULT: -9.206534981      3.188      9.448
REMARK  13 active torsions:
REMARK  status: ('A' for Active; 'I' for Inactive)
REMARK    1  A    between atoms: C4_5  and  C5_6 
REMARK    2  A    between atoms: C5_6  and  N2_7 
REMARK    3  A    between atoms: N2_7  and  C6_8 
REMARK       I    between atoms: N2_7  and  C15_20 
REMARK    4  A    between atoms: C6_8  and  C7_9 
REMARK    5  A    between atoms: C7_9  and  C8_10 
REMARK    6  A    between atoms: C8_10  and  C9_11 
REMARK    7  A    between atoms: C9_11  and  N3_12 
REMARK    8  A    between atoms: C13_16  and  C14_17 
REMARK    9  A    between atoms: C15_20  and  C16_22 
REMARK   10  A    between atoms: C16_22  and  C17_23 
REMARK   11  A    between atoms: C17_23  and  N4_24 
REMARK   12  A    between atoms: C18_25  and  O4_26 
REMARK   13  A    between atoms: C21_30  and  O5_31 
ROOT
HETATM    1  N2  UNL     1      17.821  23.214  17.187  1.00  0.00    -0.351 N 
HETATM    2  C15 UNL     1      16.967  22.129  16.754  1.00  0.00     0.224 C 
HETATM    3  O3  UNL     1      17.465  20.990  16.773  1.00  0.00    -0.273 OA
ENDROOT
BRANCH   1   4
HETATM    4  C5  UNL     1      17.342  24.560  17.096  1.00  0.00     0.130 C 
BRANCH   4   5
HETATM    5  C4  UNL     1      18.015  25.450  16.121  1.00  0.00     0.007 C 
HETATM    6  C3  UNL     1      18.308  24.823  14.774  1.00  0.00     0.036 C 
HETATM    7  C2  UNL     1      19.332  25.641  14.007  1.00  0.00     0.272 C 
HETATM    8  N1  UNL     1      19.382  27.007  14.497  1.00  0.00     0.084 N 
HETATM    9  C1  UNL     1      20.217  27.790  13.610  1.00  0.00     0.309 C 
HETATM   10  C27 UNL     1      19.871  27.080  15.847  1.00  0.00     0.272 C 
HETATM   11  C26 UNL     1      19.344  25.957  16.693  1.00  0.00     0.036 C 
ENDBRANCH   4   5
ENDBRANCH   1   4
BRANCH   1  12
HETATM   12  C6  UNL     1      19.105  22.879  17.744  1.00  0.00     0.126 C 
BRANCH  12  13
HETATM   13  C7  UNL     1      19.133  22.656  19.214  1.00  0.00     0.022 C 
BRANCH  13  14
HETATM   14  C8  UNL     1      18.784  23.854  20.028  1.00  0.00     0.032 C 
BRANCH  14  15
HETATM   15  C9  UNL     1      19.834  24.109  21.102  1.00  0.00     0.273 C 
BRANCH  15  16
HETATM   16  N3  UNL     1      20.423  25.421  21.001  1.00  0.00     0.103 N 
HETATM   17  C10 UNL     1      21.161  25.611  19.770  1.00  0.00     0.273 C 
HETATM   18  C11 UNL     1      22.409  24.742  19.928  1.00  0.00     0.033 C 
HETATM   19  C12 UNL     1      22.709  24.882  21.407  1.00  0.00     0.049 C 
HETATM   20  C13 UNL     1      21.467  25.502  22.004  1.00  0.00     0.322 C 
BRANCH  20  21
HETATM   21  C14 UNL     1      21.744  26.894  22.405  1.00  0.00     0.207 C 
HETATM   22  O1  UNL     1      22.683  27.166  23.182  1.00  0.00    -0.646 OA
HETATM   23  O2  UNL     1      20.957  27.912  21.914  1.00  0.00    -0.646 OA
ENDBRANCH  20  21
ENDBRANCH  15  16
ENDBRANCH  14  15
ENDBRANCH  13  14
ENDBRANCH  12  13
ENDBRANCH   1  12
BRANCH   2  24
HETATM   24  C16 UNL     1      15.587  22.380  16.328  1.00  0.00     0.148 C 
BRANCH  24  25
HETATM   25  C17 UNL     1      14.519  22.414  17.324  1.00  0.00     0.083 C 
BRANCH  25  26
HETATM   26  N4  UNL     1      14.273  21.338  18.194  1.00  0.00    -0.286 N 
HETATM   27  C18 UNL     1      13.498  20.270  18.000  1.00  0.00     0.155 A 
HETATM   28  C19 UNL     1      13.584  19.431  19.099  1.00  0.00     0.004 A 
HETATM   29  C20 UNL     1      14.448  20.009  20.007  1.00  0.00     0.004 A 
HETATM   30  C25 UNL     1      12.989  18.125  19.495  1.00  0.00     0.044 C 
HETATM   31  C21 UNL     1      14.847  21.184  19.405  1.00  0.00     0.155 A 
HETATM   32  C22 UNL     1      14.745  19.328  21.308  1.00  0.00     0.044 C 
HETATM   33  C23 UNL     1      13.545  18.649  21.891  1.00  0.00     0.005 C 
HETATM   34  C24 UNL     1      12.458  18.342  20.918  1.00  0.00     0.005 C 
BRANCH  27  35
HETATM   35  O4  UNL     1      12.673  19.917  16.928  1.00  0.00    -0.345 OA
ATOM     36  H4  UNL     1      11.794  19.558  16.909  1.00  0.00     0.219 HD
ENDBRANCH  27  35
BRANCH  31  37
HETATM   37  O5  UNL     1      15.720  22.084  19.969  1.00  0.00    -0.345 OA
ATOM     38  H5  UNL     1      16.579  21.857  20.307  1.00  0.00     0.219 HD
ENDBRANCH  31  37
ENDBRANCH  25  26
ENDBRANCH  24  25
ENDBRANCH   2  24
TORSDOF 13
ENDMDL
