MODEL 1
REMARK VINA RESULT: -9.019273519      0.000      0.000
REMARK  12 active torsions:
REMARK  status: ('A' for Active; 'I' for Inactive)
REMARK    1  A    between atoms: C2_2  and  N1_3 
REMARK    2  A    between atoms: N2_6  and  C5_7 
REMARK    3  A    between atoms: C5_7  and  C6_8 
REMARK    4  A    between atoms: C6_8  and  C7_9 
REMARK       I    between atoms: C7_9  and  N3_11 
REMARK    5  A    between atoms: N3_11  and  C8_13 
REMARK    6  A    between atoms: C10_15  and  C11_16 
REMARK    7  A    between atoms: C13_18  and  C14_19 
REMARK       I    between atoms: C14_19  and  N4_21 
REMARK    8  A    between atoms: N4_21  and  C15_23 
REMARK    9  A    between atoms: C15_23  and  C16_24 
REMARK   10  A    between atoms: C16_24  and  C17_25 
REMARK   11  A    between atoms: C17_25  and  N5_26 
REMARK   12  A    between atoms: C25_39  and  C26_40 
ROOT
HETATM    1  C8  UNL     1      16.858  23.537  17.446  1.00  0.00     0.052 A 
HETATM    2  C9  UNL     1      16.135  22.726  18.324  1.00  0.00     0.061 A 
HETATM    3  C10 UNL     1      15.281  21.766  17.888  1.00  0.00     0.045 A 
HETATM    4  N6  UNL     1      15.149  21.614  16.537  1.00  0.00    -0.358 N 
ATOM      5  H6  UNL     1      14.512  20.895  16.195  1.00  0.00     0.166 HD
HETATM    6  C23 UNL     1      15.802  22.346  15.644  1.00  0.00     0.021 A 
HETATM    7  C24 UNL     1      15.639  22.158  14.182  1.00  0.00     0.069 C 
HETATM    8  C25 UNL     1      16.692  23.348  16.103  1.00  0.00     0.051 A 
ENDROOT
BRANCH   3   9
HETATM    9  C11 UNL     1      14.628  20.823  18.772  1.00  0.00    -0.002 A 
HETATM   10  C12 UNL     1      13.415  20.256  18.273  1.00  0.00     0.031 A 
HETATM   11  C13 UNL     1      12.706  19.327  18.986  1.00  0.00     0.038 A 
HETATM   12  C18 UNL     1      13.143  18.917  20.204  1.00  0.00    -0.046 A 
HETATM   13  C19 UNL     1      12.394  17.940  21.007  1.00  0.00     0.049 C 
HETATM   14  C20 UNL     1      14.323  19.445  20.741  1.00  0.00     0.015 A 
HETATM   15  C21 UNL     1      15.029  20.395  19.987  1.00  0.00    -0.049 A 
HETATM   16  C22 UNL     1      16.226  20.974  20.660  1.00  0.00     0.049 C 
BRANCH  11  17
HETATM   17  C14 UNL     1      11.519  18.754  18.301  1.00  0.00     0.252 C 
HETATM   18  O2  UNL     1      10.613  19.534  17.993  1.00  0.00    -0.268 OA
HETATM   19  N4  UNL     1      11.499  17.381  18.038  1.00  0.00    -0.357 N 
ATOM     20  H4  UNL     1      12.320  16.847  18.323  1.00  0.00     0.162 HD
BRANCH  19  21
HETATM   21  C15 UNL     1      10.456  16.659  17.417  1.00  0.00     0.124 C 
BRANCH  21  22
HETATM   22  C16 UNL     1      10.044  15.346  17.921  1.00  0.00     0.047 C 
BRANCH  22  23
HETATM   23  C17 UNL     1       8.676  14.813  17.722  1.00  0.00     0.231 C 
BRANCH  23  24
HETATM   24  N5  UNL     1       7.841  15.449  18.767  1.00  0.00    -0.079 N 
ATOM     25  H53 UNL     1       8.098  15.180  19.716  1.00  0.00     0.274 HD
ATOM     26  H52 UNL     1       8.011  16.449  18.873  1.00  0.00     0.274 HD
ATOM     27  H51 UNL     1       6.876  15.223  18.527  1.00  0.00     0.274 HD
ENDBRANCH  23  24
ENDBRANCH  22  23
ENDBRANCH  21  22
ENDBRANCH  19  21
ENDBRANCH  11  17
ENDBRANCH   3   9
BRANCH   1  28
HETATM   28  N3  UNL     1      17.817  24.414  17.981  1.00  0.00    -0.326 N 
HETATM   29  C7  UNL     1      19.026  24.077  18.608  1.00  0.00     0.223 C 
HETATM   30  O1  UNL     1      19.401  22.914  18.799  1.00  0.00    -0.273 OA
ATOM     31  H3  UNL     1      17.611  25.410  17.904  1.00  0.00     0.169 HD
BRANCH  29  32
HETATM   32  C6  UNL     1      19.935  25.159  19.084  1.00  0.00     0.133 C 
BRANCH  32  33
HETATM   33  C5  UNL     1      20.220  26.142  17.957  1.00  0.00     0.281 C 
BRANCH  33  34
HETATM   34  N2  UNL     1      21.300  25.622  17.119  1.00  0.00     0.092 N 
HETATM   35  C4  UNL     1      20.796  25.338  15.809  1.00  0.00     0.291 C 
HETATM   36  C3  UNL     1      21.204  26.342  14.764  1.00  0.00     0.147 C 
HETATM   37  N1  UNL     1      21.168  27.692  15.250  1.00  0.00    -0.409 N 
HETATM   38  C28 UNL     1      21.843  27.870  16.502  1.00  0.00     0.147 C 
HETATM   39  C27 UNL     1      22.379  26.579  17.009  1.00  0.00     0.291 C 
BRANCH  37  40
HETATM   40  C2  UNL     1      21.388  28.702  14.276  1.00  0.00     0.112 C 
HETATM   41  C1  UNL     1      22.679  29.431  14.631  1.00  0.00     0.026 C 
ENDBRANCH  37  40
ENDBRANCH  33  34
ENDBRANCH  32  33
ENDBRANCH  29  32
ENDBRANCH   1  28
BRANCH   8  42
HETATM   42  C26 UNL     1      17.319  24.150  15.115  1.00  0.00     0.274 C 
HETATM   43  O3  UNL     1      17.361  25.391  15.132  1.00  0.00    -0.301 OA
ENDBRANCH   8  42
TORSDOF 12
ENDMDL
MODEL 2
REMARK VINA RESULT: -8.963920480      2.300      3.793
REMARK  12 active torsions:
REMARK  status: ('A' for Active; 'I' for Inactive)
REMARK    1  A    between atoms: C2_2  and  N1_3 
REMARK    2  A    between atoms: N2_6  and  C5_7 
REMARK    3  A    between atoms: C5_7  and  C6_8 
REMARK    4  A    between atoms: C6_8  and  C7_9 
REMARK       I    between atoms: C7_9  and  N3_11 
REMARK    5  A    between atoms: N3_11  and  C8_13 
REMARK    6  A    between atoms: C10_15  and  C11_16 
REMARK    7  A    between atoms: C13_18  and  C14_19 
REMARK       I    between atoms: C14_19  and  N4_21 
REMARK    8  A    between atoms: N4_21  and  C15_23 
REMARK    9  A    between atoms: C15_23  and  C16_24 
REMARK   10  A    between atoms: C16_24  and  C17_25 
REMARK   11  A    between atoms: C17_25  and  N5_26 
REMARK   12  A    between atoms: C25_39  and  C26_40 
ROOT
HETATM    1  C8  UNL     1      18.399  23.397  17.461  1.00  0.00     0.052 A 
HETATM    2  C9  UNL     1      17.286  22.561  17.351  1.00  0.00     0.061 A 
HETATM    3  C10 UNL     1      16.534  22.210  18.425  1.00  0.00     0.045 A 
HETATM    4  N6  UNL     1      16.906  22.712  19.639  1.00  0.00    -0.358 N 
ATOM      5  H6  UNL     1      16.348  22.459  20.455  1.00  0.00     0.166 HD
HETATM    6  C23 UNL     1      17.950  23.510  19.820  1.00  0.00     0.021 A 
HETATM    7  C24 UNL     1      18.330  24.041  21.152  1.00  0.00     0.069 C 
HETATM    8  C25 UNL     1      18.733  23.873  18.697  1.00  0.00     0.051 A 
ENDROOT
BRANCH   3   9
HETATM    9  C11 UNL     1      15.299  21.461  18.318  1.00  0.00    -0.002 A 
HETATM   10  C12 UNL     1      14.684  21.478  17.028  1.00  0.00     0.031 A 
HETATM   11  C13 UNL     1      13.529  20.789  16.771  1.00  0.00     0.038 A 
HETATM   12  C18 UNL     1      12.929  20.064  17.750  1.00  0.00    -0.046 A 
HETATM   13  C19 UNL     1      11.676  19.333  17.514  1.00  0.00     0.049 C 
HETATM   14  C20 UNL     1      13.489  20.018  19.032  1.00  0.00     0.015 A 
HETATM   15  C21 UNL     1      14.673  20.734  19.266  1.00  0.00    -0.049 A 
HETATM   16  C22 UNL     1      15.159  20.707  20.674  1.00  0.00     0.049 C 
BRANCH  11  17
HETATM   17  C14 UNL     1      13.059  20.818  15.362  1.00  0.00     0.252 C 
HETATM   18  O2  UNL     1      12.278  21.720  15.046  1.00  0.00    -0.268 OA
HETATM   19  N4  UNL     1      13.530  19.840  14.481  1.00  0.00    -0.357 N 
ATOM     20  H4  UNL     1      14.190  19.161  14.860  1.00  0.00     0.162 HD
BRANCH  19  21
HETATM   21  C15 UNL     1      13.182  19.697  13.119  1.00  0.00     0.124 C 
BRANCH  21  22
HETATM   22  C16 UNL     1      12.002  18.924  12.720  1.00  0.00     0.047 C 
BRANCH  22  23
HETATM   23  C17 UNL     1      11.902  17.462  12.932  1.00  0.00     0.231 C 
BRANCH  23  24
HETATM   24  N5  UNL     1      11.272  17.290  14.262  1.00  0.00    -0.079 N 
ATOM     25  H53 UNL     1      11.928  17.374  15.039  1.00  0.00     0.274 HD
ATOM     26  H52 UNL     1      10.665  18.065  14.529  1.00  0.00     0.274 HD
ATOM     27  H51 UNL     1      10.794  16.390  14.228  1.00  0.00     0.274 HD
ENDBRANCH  23  24
ENDBRANCH  22  23
ENDBRANCH  21  22
ENDBRANCH  19  21
ENDBRANCH  11  17
ENDBRANCH   3   9
BRANCH   1  28
HETATM   28  N3  UNL     1      19.042  23.815  16.282  1.00  0.00    -0.326 N 
HETATM   29  C7  UNL     1      18.599  24.780  15.366  1.00  0.00     0.223 C 
HETATM   30  O1  UNL     1      17.529  25.391  15.472  1.00  0.00    -0.273 OA
ATOM     31  H3  UNL     1      19.932  23.365  16.070  1.00  0.00     0.169 HD
BRANCH  29  32
HETATM   32  C6  UNL     1      19.443  25.113  14.183  1.00  0.00     0.133 C 
BRANCH  32  33
HETATM   33  C5  UNL     1      20.721  25.813  14.626  1.00  0.00     0.281 C 
BRANCH  33  34
HETATM   34  N2  UNL     1      20.391  26.862  15.590  1.00  0.00     0.092 N 
HETATM   35  C4  UNL     1      21.477  27.026  16.509  1.00  0.00     0.291 C 
HETATM   36  C3  UNL     1      22.302  28.262  16.269  1.00  0.00     0.147 C 
HETATM   37  N1  UNL     1      22.522  28.518  14.874  1.00  0.00    -0.409 N 
HETATM   38  C28 UNL     1      21.325  28.473  14.086  1.00  0.00     0.147 C 
HETATM   39  C27 UNL     1      20.148  28.122  14.923  1.00  0.00     0.291 C 
BRANCH  37  40
HETATM   40  C2  UNL     1      23.423  29.576  14.577  1.00  0.00     0.112 C 
HETATM   41  C1  UNL     1      24.506  29.593  15.651  1.00  0.00     0.026 C 
ENDBRANCH  37  40
ENDBRANCH  33  34
ENDBRANCH  32  33
ENDBRANCH  29  32
ENDBRANCH   1  28
BRANCH   8  42
HETATM   42  C26 UNL     1      19.877  24.675  18.946  1.00  0.00     0.274 C 
HETATM   43  O3  UNL     1      21.049  24.323  18.732  1.00  0.00    -0.301 OA
ENDBRANCH   8  42
TORSDOF 12
ENDMDL
MODEL 3
REMARK VINA RESULT: -8.706418826      2.709      5.414
REMARK  12 active torsions:
REMARK  status: ('A' for Active; 'I' for Inactive)
REMARK    1  A    between atoms: C2_2  and  N1_3 
REMARK    2  A    between atoms: N2_6  and  C5_7 
REMARK    3  A    between atoms: C5_7  and  C6_8 
REMARK    4  A    between atoms: C6_8  and  C7_9 
REMARK       I    between atoms: C7_9  and  N3_11 
REMARK    5  A    between atoms: N3_11  and  C8_13 
REMARK    6  A    between atoms: C10_15  and  C11_16 
REMARK    7  A    between atoms: C13_18  and  C14_19 
REMARK       I    between atoms: C14_19  and  N4_21 
REMARK    8  A    between atoms: N4_21  and  C15_23 
REMARK    9  A    between atoms: C15_23  and  C16_24 
REMARK   10  A    between atoms: C16_24  and  C17_25 
REMARK   11  A    between atoms: C17_25  and  N5_26 
REMARK   12  A    between atoms: C25_39  and  C26_40 
ROOT
HETATM    1  C8  UNL     1      20.487  24.638  18.097  1.00  0.00     0.052 A 
HETATM    2  C9  UNL     1      19.511  23.994  17.334  1.00  0.00     0.061 A 
HETATM    3  C10 UNL     1      18.454  23.355  17.898  1.00  0.00     0.045 A 
HETATM    4  N6  UNL     1      18.373  23.366  19.262  1.00  0.00    -0.358 N 
ATOM      5  H6  UNL     1      17.583  22.892  19.699  1.00  0.00     0.166 HD
HETATM    6  C23 UNL     1      19.262  23.956  20.050  1.00  0.00     0.021 A 
HETATM    7  C24 UNL     1      19.148  23.951  21.529  1.00  0.00     0.069 C 
HETATM    8  C25 UNL     1      20.364  24.620  19.458  1.00  0.00     0.051 A 
ENDROOT
BRANCH   3   9
HETATM    9  C11 UNL     1      17.359  22.802  17.129  1.00  0.00    -0.002 A 
HETATM   10  C12 UNL     1      16.532  21.869  17.828  1.00  0.00     0.031 A 
HETATM   11  C13 UNL     1      15.441  21.289  17.237  1.00  0.00     0.038 A 
HETATM   12  C18 UNL     1      15.115  21.588  15.954  1.00  0.00    -0.046 A 
HETATM   13  C19 UNL     1      13.966  20.965  15.282  1.00  0.00     0.049 C 
HETATM   14  C20 UNL     1      15.895  22.492  15.224  1.00  0.00     0.015 A 
HETATM   15  C21 UNL     1      17.007  23.071  15.855  1.00  0.00    -0.049 A 
HETATM   16  C22 UNL     1      17.837  23.954  14.989  1.00  0.00     0.049 C 
BRANCH  11  17
HETATM   17  C14 UNL     1      14.619  20.416  18.114  1.00  0.00     0.252 C 
HETATM   18  O2  UNL     1      13.522  20.851  18.475  1.00  0.00    -0.268 OA
HETATM   19  N4  UNL     1      15.125  19.162  18.471  1.00  0.00    -0.357 N 
ATOM     20  H4  UNL     1      16.036  18.910  18.089  1.00  0.00     0.162 HD
BRANCH  19  21
HETATM   21  C15 UNL     1      14.499  18.210  19.306  1.00  0.00     0.124 C 
BRANCH  21  22
HETATM   22  C16 UNL     1      14.412  18.420  20.754  1.00  0.00     0.047 C 
BRANCH  22  23
HETATM   23  C17 UNL     1      13.120  18.415  21.479  1.00  0.00     0.231 C 
BRANCH  23  24
HETATM   24  N5  UNL     1      12.311  17.344  20.853  1.00  0.00    -0.079 N 
ATOM     25  H53 UNL     1      12.641  16.403  21.069  1.00  0.00     0.274 HD
ATOM     26  H52 UNL     1      11.381  17.244  21.261  1.00  0.00     0.274 HD
ATOM     27  H51 UNL     1      12.297  17.553  19.855  1.00  0.00     0.274 HD
ENDBRANCH  23  24
ENDBRANCH  22  23
ENDBRANCH  21  22
ENDBRANCH  19  21
ENDBRANCH  11  17
ENDBRANCH   3   9
BRANCH   1  28
HETATM   28  N3  UNL     1      21.473  25.386  17.430  1.00  0.00    -0.326 N 
HETATM   29  C7  UNL     1      21.407  26.732  17.043  1.00  0.00     0.223 C 
HETATM   30  O1  UNL     1      20.418  27.453  17.225  1.00  0.00    -0.273 OA
ATOM     31  H3  UNL     1      22.336  24.892  17.202  1.00  0.00     0.169 HD
BRANCH  29  32
HETATM   32  C6  UNL     1      22.578  27.363  16.369  1.00  0.00     0.133 C 
BRANCH  32  33
HETATM   33  C5  UNL     1      23.749  26.391  16.327  1.00  0.00     0.281 C 
BRANCH  33  34
HETATM   34  N2  UNL     1      24.937  27.038  16.882  1.00  0.00     0.092 N 
HETATM   35  C4  UNL     1      24.762  27.236  18.289  1.00  0.00     0.291 C 
HETATM   36  C3  UNL     1      25.549  26.282  19.146  1.00  0.00     0.147 C 
HETATM   37  N1  UNL     1      25.555  24.945  18.623  1.00  0.00    -0.409 N 
HETATM   38  C28 UNL     1      25.896  24.872  17.233  1.00  0.00     0.147 C 
HETATM   39  C27 UNL     1      26.117  26.229  16.666  1.00  0.00     0.291 C 
BRANCH  37  40
HETATM   40  C2  UNL     1      26.144  23.960  19.461  1.00  0.00     0.112 C 
HETATM   41  C1  UNL     1      25.631  22.593  19.021  1.00  0.00     0.026 C 
ENDBRANCH  37  40
ENDBRANCH  33  34
ENDBRANCH  32  33
ENDBRANCH  29  32
ENDBRANCH   1  28
BRANCH   8  42
HETATM   42  C26 UNL     1      21.323  25.181  20.340  1.00  0.00     0.274 C 
HETATM   43  O3  UNL     1      22.520  24.854  20.386  1.00  0.00    -0.301 OA
ENDBRANCH   8  42
TORSDOF 12
ENDMDL
MODEL 4
REMARK VINA RESULT: -8.677628445      1.990      4.096
REMARK  12 active torsions:
REMARK  status: ('A' for Active; 'I' for Inactive)
REMARK    1  A    between atoms: C2_2  and  N1_3 
REMARK    2  A    between atoms: N2_6  and  C5_7 
REMARK    3  A    between atoms: C5_7  and  C6_8 
REMARK    4  A    between atoms: C6_8  and  C7_9 
REMARK       I    between atoms: C7_9  and  N3_11 
REMARK    5  A    between atoms: N3_11  and  C8_13 
REMARK    6  A    between atoms: C10_15  and  C11_16 
REMARK    7  A    between atoms: C13_18  and  C14_19 
REMARK       I    between atoms: C14_19  and  N4_21 
REMARK    8  A    between atoms: N4_21  and  C15_23 
REMARK    9  A    between atoms: C15_23  and  C16_24 
REMARK   10  A    between atoms: C16_24  and  C17_25 
REMARK   11  A    between atoms: C17_25  and  N5_26 
REMARK   12  A    between atoms: C25_39  and  C26_40 
ROOT
HETATM    1  C8  UNL     1      17.025  24.180  16.291  1.00  0.00     0.052 A 
HETATM    2  C9  UNL     1      16.145  23.359  15.584  1.00  0.00     0.061 A 
HETATM    3  C10 UNL     1      15.582  22.254  16.136  1.00  0.00     0.045 A 
HETATM    4  N6  UNL     1      15.908  21.967  17.431  1.00  0.00    -0.358 N 
ATOM      5  H6  UNL     1      15.490  21.141  17.859  1.00  0.00     0.166 HD
HETATM    6  C23 UNL     1      16.736  22.699  18.164  1.00  0.00     0.021 A 
HETATM    7  C24 UNL     1      17.071  22.363  19.569  1.00  0.00     0.069 C 
HETATM    8  C25 UNL     1      17.322  23.851  17.584  1.00  0.00     0.051 A 
ENDROOT
BRANCH   3   9
HETATM    9  C11 UNL     1      14.563  21.467  15.472  1.00  0.00    -0.002 A 
HETATM   10  C12 UNL     1      13.592  20.871  16.336  1.00  0.00     0.031 A 
HETATM   11  C13 UNL     1      12.552  20.126  15.847  1.00  0.00     0.038 A 
HETATM   12  C18 UNL     1      12.418  19.931  14.510  1.00  0.00    -0.046 A 
HETATM   13  C19 UNL     1      11.327  19.116  13.954  1.00  0.00     0.049 C 
HETATM   14  C20 UNL     1      13.343  20.489  13.622  1.00  0.00     0.015 A 
HETATM   15  C21 UNL     1      14.398  21.248  14.152  1.00  0.00    -0.049 A 
HETATM   16  C22 UNL     1      15.390  21.736  13.152  1.00  0.00     0.049 C 
BRANCH  11  17
HETATM   17  C14 UNL     1      11.568  19.652  16.853  1.00  0.00     0.252 C 
HETATM   18  O2  UNL     1      10.425  20.113  16.785  1.00  0.00    -0.268 OA
HETATM   19  N4  UNL     1      11.984  18.714  17.803  1.00  0.00    -0.357 N 
ATOM     20  H4  UNL     1      12.951  18.394  17.739  1.00  0.00     0.162 HD
BRANCH  19  21
HETATM   21  C15 UNL     1      11.201  18.165  18.842  1.00  0.00     0.124 C 
BRANCH  21  22
HETATM   22  C16 UNL     1      11.799  17.819  20.135  1.00  0.00     0.047 C 
BRANCH  22  23
HETATM   23  C17 UNL     1      12.790  18.690  20.808  1.00  0.00     0.231 C 
BRANCH  23  24
HETATM   24  N5  UNL     1      13.006  18.094  22.147  1.00  0.00    -0.079 N 
ATOM     25  H53 UNL     1      13.983  18.091  22.440  1.00  0.00     0.274 HD
ATOM     26  H52 UNL     1      12.651  18.669  22.911  1.00  0.00     0.274 HD
ATOM     27  H51 UNL     1      12.589  17.165  22.108  1.00  0.00     0.274 HD
ENDBRANCH  23  24
ENDBRANCH  22  23
ENDBRANCH  21  22
ENDBRANCH  19  21
ENDBRANCH  11  17
ENDBRANCH   3   9
BRANCH   1  28
HETATM   28  N3  UNL     1      17.458  25.374  15.689  1.00  0.00    -0.326 N 
HETATM   29  C7  UNL     1      18.503  25.534  14.767  1.00  0.00     0.223 C 
HETATM   30  O1  UNL     1      19.221  24.607  14.372  1.00  0.00    -0.273 OA
ATOM     31  H3  UNL     1      16.955  26.220  15.953  1.00  0.00     0.169 HD
BRANCH  29  32
HETATM   32  C6  UNL     1      18.793  26.886  14.210  1.00  0.00     0.133 C 
BRANCH  32  33
HETATM   33  C5  UNL     1      19.807  27.610  15.085  1.00  0.00     0.281 C 
BRANCH  33  34
HETATM   34  N2  UNL     1      21.110  27.610  14.421  1.00  0.00     0.092 N 
HETATM   35  C4  UNL     1      21.848  28.772  14.817  1.00  0.00     0.291 C 
HETATM   36  C3  UNL     1      22.956  28.491  15.796  1.00  0.00     0.147 C 
HETATM   37  N1  UNL     1      22.583  27.527  16.792  1.00  0.00    -0.409 N 
HETATM   38  C28 UNL     1      21.990  26.340  16.249  1.00  0.00     0.147 C 
HETATM   39  C27 UNL     1      21.871  26.431  14.770  1.00  0.00     0.291 C 
BRANCH  37  40
HETATM   40  C2  UNL     1      23.522  27.331  17.840  1.00  0.00     0.112 C 
HETATM   41  C1  UNL     1      24.656  26.463  17.304  1.00  0.00     0.026 C 
ENDBRANCH  37  40
ENDBRANCH  33  34
ENDBRANCH  32  33
ENDBRANCH  29  32
ENDBRANCH   1  28
BRANCH   8  42
HETATM   42  C26 UNL     1      18.251  24.568  18.383  1.00  0.00     0.274 C 
HETATM   43  O3  UNL     1      19.442  24.758  18.086  1.00  0.00    -0.301 OA
ENDBRANCH   8  42
TORSDOF 12
ENDMDL
MODEL 5
REMARK VINA RESULT: -8.657793645      1.065      1.788
REMARK  12 active torsions:
REMARK  status: ('A' for Active; 'I' for Inactive)
REMARK    1  A    between atoms: C2_2  and  N1_3 
REMARK    2  A    between atoms: N2_6  and  C5_7 
REMARK    3  A    between atoms: C5_7  and  C6_8 
REMARK    4  A    between atoms: C6_8  and  C7_9 
REMARK       I    between atoms: C7_9  and  N3_11 
REMARK    5  A    between atoms: N3_11  and  C8_13 
REMARK    6  A    between atoms: C10_15  and  C11_16 
REMARK    7  A    between atoms: C13_18  and  C14_19 
REMARK       I    between atoms: C14_19  and  N4_21 
REMARK    8  A    between atoms: N4_21  and  C15_23 
REMARK    9  A    between atoms: C15_23  and  C16_24 
REMARK   10  A    between atoms: C16_24  and  C17_25 
REMARK   11  A    between atoms: C17_25  and  N5_26 
REMARK   12  A    between atoms: C25_39  and  C26_40 
ROOT
HETATM    1  C8  UNL     1      16.786  23.540  17.212  1.00  0.00     0.052 A 
HETATM    2  C9  UNL     1      16.083  22.739  18.115  1.00  0.00     0.061 A 
HETATM    3  C10 UNL     1      15.234  21.761  17.708  1.00  0.00     0.045 A 
HETATM    4  N6  UNL     1      15.089  21.580  16.362  1.00  0.00    -0.358 N 
ATOM      5  H6  UNL     1      14.457  20.846  16.042  1.00  0.00     0.166 HD
HETATM    6  C23 UNL     1      15.723  22.301  15.447  1.00  0.00     0.021 A 
HETATM    7  C24 UNL     1      15.546  22.081  13.991  1.00  0.00     0.069 C 
HETATM    8  C25 UNL     1      16.607  23.322  15.875  1.00  0.00     0.051 A 
ENDROOT
BRANCH   3   9
HETATM    9  C11 UNL     1      14.603  20.829  18.619  1.00  0.00    -0.002 A 
HETATM   10  C12 UNL     1      13.375  20.261  18.158  1.00  0.00     0.031 A 
HETATM   11  C13 UNL     1      12.682  19.341  18.900  1.00  0.00     0.038 A 
HETATM   12  C18 UNL     1      13.152  18.942  20.109  1.00  0.00    -0.046 A 
HETATM   13  C19 UNL     1      12.421  17.975  20.941  1.00  0.00     0.049 C 
HETATM   14  C20 UNL     1      14.348  19.470  20.608  1.00  0.00     0.015 A 
HETATM   15  C21 UNL     1      15.035  20.411  19.826  1.00  0.00    -0.049 A 
HETATM   16  C22 UNL     1      16.252  20.991  20.460  1.00  0.00     0.049 C 
BRANCH  11  17
HETATM   17  C14 UNL     1      11.475  18.766  18.253  1.00  0.00     0.252 C 
HETATM   18  O2  UNL     1      10.580  19.552  17.927  1.00  0.00    -0.268 OA
HETATM   19  N4  UNL     1      11.425  17.385  18.043  1.00  0.00    -0.357 N 
ATOM     20  H4  UNL     1      12.240  16.846  18.337  1.00  0.00     0.162 HD
BRANCH  19  21
HETATM   21  C15 UNL     1      10.359  16.661  17.463  1.00  0.00     0.124 C 
BRANCH  21  22
HETATM   22  C16 UNL     1      10.043  15.301  17.909  1.00  0.00     0.047 C 
BRANCH  22  23
HETATM   23  C17 UNL     1       8.682  14.727  17.799  1.00  0.00     0.231 C 
BRANCH  23  24
HETATM   24  N5  UNL     1       7.877  15.395  18.848  1.00  0.00    -0.079 N 
ATOM     25  H53 UNL     1       6.968  14.959  19.005  1.00  0.00     0.274 HD
ATOM     26  H52 UNL     1       8.242  15.260  19.790  1.00  0.00     0.274 HD
ATOM     27  H51 UNL     1       7.817  16.374  18.570  1.00  0.00     0.274 HD
ENDBRANCH  23  24
ENDBRANCH  22  23
ENDBRANCH  21  22
ENDBRANCH  19  21
ENDBRANCH  11  17
ENDBRANCH   3   9
BRANCH   1  28
HETATM   28  N3  UNL     1      17.741  24.439  17.718  1.00  0.00    -0.326 N 
HETATM   29  C7  UNL     1      19.034  24.142  18.174  1.00  0.00     0.223 C 
HETATM   30  O1  UNL     1      19.504  22.999  18.214  1.00  0.00    -0.273 OA
ATOM     31  H3  UNL     1      17.462  25.419  17.757  1.00  0.00     0.169 HD
BRANCH  29  32
HETATM   32  C6  UNL     1      19.919  25.245  18.646  1.00  0.00     0.133 C 
BRANCH  32  33
HETATM   33  C5  UNL     1      20.363  26.104  17.470  1.00  0.00     0.281 C 
BRANCH  33  34
HETATM   34  N2  UNL     1      21.014  27.315  17.971  1.00  0.00     0.092 N 
HETATM   35  C4  UNL     1      21.671  27.027  19.210  1.00  0.00     0.291 C 
HETATM   36  C3  UNL     1      23.169  26.923  19.101  1.00  0.00     0.147 C 
HETATM   37  N1  UNL     1      23.590  26.240  17.911  1.00  0.00    -0.409 N 
HETATM   38  C28 UNL     1      22.967  26.729  16.716  1.00  0.00     0.147 C 
HETATM   39  C27 UNL     1      21.992  27.808  17.026  1.00  0.00     0.291 C 
BRANCH  37  40
HETATM   40  C2  UNL     1      24.982  25.967  17.819  1.00  0.00     0.112 C 
HETATM   41  C1  UNL     1      25.363  25.935  16.343  1.00  0.00     0.026 C 
ENDBRANCH  37  40
ENDBRANCH  33  34
ENDBRANCH  32  33
ENDBRANCH  29  32
ENDBRANCH   1  28
BRANCH   8  42
HETATM   42  C26 UNL     1      17.213  24.111  14.863  1.00  0.00     0.274 C 
HETATM   43  O3  UNL     1      17.658  25.258  15.031  1.00  0.00    -0.301 OA
ENDBRANCH   8  42
TORSDOF 12
ENDMDL
