MODEL 1
REMARK VINA RESULT: -7.935526679      0.000      0.000
REMARK  14 active torsions:
REMARK  status: ('A' for Active; 'I' for Inactive)
REMARK    1  A    between atoms: O1_2  and  C2_3 
REMARK    2  A    between atoms: C4_5  and  O2_6 
REMARK    3  A    between atoms: O2_6  and  C5_7 
REMARK    4  A    between atoms: C5_7  and  C6_8 
REMARK    5  A    between atoms: C6_8  and  C7_9 
REMARK    6  A    between atoms: C7_9  and  N1_10 
REMARK    7  A    between atoms: N1_10  and  C8_12 
REMARK    8  A    between atoms: C12_18  and  C13_19 
REMARK    9  A    between atoms: N2_23  and  C16_24 
REMARK   10  A    between atoms: C16_24  and  C17_25 
REMARK   11  A    between atoms: C17_25  and  O4_26 
REMARK   12  A    between atoms: C17_25  and  N3_28 
REMARK   13  A    between atoms: N3_28  and  C18_29 
REMARK   14  A    between atoms: C18_29  and  C19_30 
ROOT
HETATM    1  C2  UNL     1      20.198  25.570  16.844  1.00  0.00     0.081 A 
HETATM    2  C3  UNL     1      20.763  26.821  16.683  1.00  0.00     0.074 A 
HETATM    3  C4  UNL     1      20.623  27.496  15.502  1.00  0.00     0.071 A 
HETATM    4  C9  UNL     1      19.901  26.917  14.483  1.00  0.00     0.044 A 
HETATM    5  C10 UNL     1      19.323  25.642  14.658  1.00  0.00    -0.046 A 
HETATM    6  C11 UNL     1      18.531  25.129  13.516  1.00  0.00     0.049 C 
HETATM    7  C12 UNL     1      19.463  24.956  15.821  1.00  0.00     0.006 A 
ENDROOT
BRANCH   7   8
HETATM    8  C13 UNL     1      18.985  23.633  16.049  1.00  0.00     0.050 C 
HETATM    9  C14 UNL     1      17.875  23.251  16.662  1.00  0.00     0.108 A 
HETATM   10  C15 UNL     1      17.461  21.830  16.885  1.00  0.00     0.279 A 
HETATM   11  N4  UNL     1      16.839  24.018  17.220  1.00  0.00    -0.299 N 
HETATM   12  O3  UNL     1      18.173  20.819  16.502  1.00  0.00    -0.265 OA
HETATM   13  N2  UNL     1      16.256  21.739  17.538  1.00  0.00    -0.256 N 
HETATM   14  C22 UNL     1      15.863  23.142  17.751  1.00  0.00     0.332 A 
HETATM   15  O5  UNL     1      14.781  23.452  18.329  1.00  0.00    -0.246 OA
HETATM   16  C23 UNL     1      16.696  25.469  17.305  1.00  0.00     0.161 C 
BRANCH  13  17
HETATM   17  C16 UNL     1      15.455  20.680  18.105  1.00  0.00     0.237 C 
BRANCH  17  18
HETATM   18  C17 UNL     1      14.115  20.493  17.549  1.00  0.00     0.207 C 
BRANCH  18  19
HETATM   19  O4  UNL     1      13.287  20.228  18.568  1.00  0.00    -0.338 OA
ATOM     20  H4  UNL     1      12.427  20.557  18.333  1.00  0.00     0.220 HD
ENDBRANCH  18  19
BRANCH  18  21
HETATM   21  N3  UNL     1      13.669  20.557  16.271  1.00  0.00    -0.400 NA
BRANCH  21  22
HETATM   22  C18 UNL     1      13.217  20.623  14.984  1.00  0.00     0.161 C 
BRANCH  22  23
HETATM   23  C19 UNL     1      13.658  21.909  14.321  1.00  0.00     0.030 C 
HETATM   24  C20 UNL     1      13.257  23.077  15.188  1.00  0.00     0.016 C 
HETATM   25  C21 UNL     1      15.172  21.922  14.170  1.00  0.00     0.016 C 
ENDBRANCH  22  23
ENDBRANCH  21  22
ENDBRANCH  18  21
ENDBRANCH  17  18
ENDBRANCH  13  17
ENDBRANCH   7   8
BRANCH   1  26
HETATM   26  O1  UNL     1      20.351  24.875  18.045  1.00  0.00    -0.355 OA
HETATM   27  C1  UNL     1      20.847  25.390  19.240  1.00  0.00     0.210 C 
ENDBRANCH   1  26
BRANCH   3  28
HETATM   28  O2  UNL     1      21.209  28.752  15.334  1.00  0.00    -0.351 OA
BRANCH  28  29
HETATM   29  C5  UNL     1      21.969  29.096  14.238  1.00  0.00     0.177 C 
BRANCH  29  30
HETATM   30  C6  UNL     1      23.368  29.591  14.572  1.00  0.00     0.046 C 
BRANCH  30  31
HETATM   31  C7  UNL     1      23.927  28.884  15.800  1.00  0.00     0.123 C 
BRANCH  31  32
HETATM   32  N1  UNL     1      24.178  27.492  15.502  1.00  0.00    -0.375 N 
ATOM     33  H1  UNL     1      23.768  27.077  14.665  1.00  0.00     0.161 HD
BRANCH  32  34
HETATM   34  C8  UNL     1      24.997  26.680  16.363  1.00  0.00     0.145 C 
HETATM   35  S1  UNL     1      24.418  26.221  17.809  1.00  0.00    -0.052 SA
HETATM   36  S2  UNL     1      26.617  26.209  15.812  1.00  0.00    -0.021 SA
ENDBRANCH  32  34
ENDBRANCH  31  32
ENDBRANCH  30  31
ENDBRANCH  29  30
ENDBRANCH  28  29
ENDBRANCH   3  28
TORSDOF 14
ENDMDL
MODEL 2
REMARK VINA RESULT: -7.713577579      1.155      1.368
REMARK  14 active torsions:
REMARK  status: ('A' for Active; 'I' for Inactive)
REMARK    1  A    between atoms: O1_2  and  C2_3 
REMARK    2  A    between atoms: C4_5  and  O2_6 
REMARK    3  A    between atoms: O2_6  and  C5_7 
REMARK    4  A    between atoms: C5_7  and  C6_8 
REMARK    5  A    between atoms: C6_8  and  C7_9 
REMARK    6  A    between atoms: C7_9  and  N1_10 
REMARK    7  A    between atoms: N1_10  and  C8_12 
REMARK    8  A    between atoms: C12_18  and  C13_19 
REMARK    9  A    between atoms: N2_23  and  C16_24 
REMARK   10  A    between atoms: C16_24  and  C17_25 
REMARK   11  A    between atoms: C17_25  and  O4_26 
REMARK   12  A    between atoms: C17_25  and  N3_28 
REMARK   13  A    between atoms: N3_28  and  C18_29 
REMARK   14  A    between atoms: C18_29  and  C19_30 
ROOT
HETATM    1  C2  UNL     1      20.154  25.587  16.813  1.00  0.00     0.081 A 
HETATM    2  C3  UNL     1      20.707  26.842  16.647  1.00  0.00     0.074 A 
HETATM    3  C4  UNL     1      20.557  27.513  15.465  1.00  0.00     0.071 A 
HETATM    4  C9  UNL     1      19.838  26.925  14.449  1.00  0.00     0.044 A 
HETATM    5  C10 UNL     1      19.272  25.645  14.629  1.00  0.00    -0.046 A 
HETATM    6  C11 UNL     1      18.482  25.121  13.492  1.00  0.00     0.049 C 
HETATM    7  C12 UNL     1      19.422  24.963  15.794  1.00  0.00     0.006 A 
ENDROOT
BRANCH   7   8
HETATM    8  C13 UNL     1      18.956  23.637  16.027  1.00  0.00     0.050 C 
HETATM    9  C14 UNL     1      17.852  23.246  16.646  1.00  0.00     0.108 A 
HETATM   10  C15 UNL     1      17.452  21.822  16.874  1.00  0.00     0.279 A 
HETATM   11  N4  UNL     1      16.812  24.005  17.208  1.00  0.00    -0.299 N 
HETATM   12  O3  UNL     1      18.171  20.817  16.489  1.00  0.00    -0.265 OA
HETATM   13  N2  UNL     1      16.251  21.722  17.533  1.00  0.00    -0.256 N 
HETATM   14  C22 UNL     1      15.847  23.122  17.745  1.00  0.00     0.332 A 
HETATM   15  O5  UNL     1      14.765  23.424  18.328  1.00  0.00    -0.246 OA
HETATM   16  C23 UNL     1      16.657  25.455  17.291  1.00  0.00     0.161 C 
BRANCH  13  17
HETATM   17  C16 UNL     1      15.462  20.658  18.106  1.00  0.00     0.237 C 
BRANCH  17  18
HETATM   18  C17 UNL     1      14.104  20.486  17.589  1.00  0.00     0.207 C 
BRANCH  18  19
HETATM   19  O4  UNL     1      13.301  20.240  18.631  1.00  0.00    -0.338 OA
ATOM     20  H4  UNL     1      12.854  21.050  18.849  1.00  0.00     0.220 HD
ENDBRANCH  18  19
BRANCH  18  21
HETATM   21  N3  UNL     1      13.624  20.550  16.323  1.00  0.00    -0.400 NA
BRANCH  21  22
HETATM   22  C18 UNL     1      13.142  20.614  15.047  1.00  0.00     0.161 C 
BRANCH  22  23
HETATM   23  C19 UNL     1      13.597  21.883  14.360  1.00  0.00     0.030 C 
HETATM   24  C20 UNL     1      13.237  23.069  15.220  1.00  0.00     0.016 C 
HETATM   25  C21 UNL     1      15.107  21.862  14.179  1.00  0.00     0.016 C 
ENDBRANCH  22  23
ENDBRANCH  21  22
ENDBRANCH  18  21
ENDBRANCH  17  18
ENDBRANCH  13  17
ENDBRANCH   7   8
BRANCH   1  26
HETATM   26  O1  UNL     1      20.316  24.897  18.015  1.00  0.00    -0.355 OA
HETATM   27  C1  UNL     1      20.838  25.411  19.199  1.00  0.00     0.210 C 
ENDBRANCH   1  26
BRANCH   3  28
HETATM   28  O2  UNL     1      21.132  28.773  15.292  1.00  0.00    -0.351 OA
BRANCH  28  29
HETATM   29  C5  UNL     1      21.983  29.086  14.255  1.00  0.00     0.177 C 
BRANCH  29  30
HETATM   30  C6  UNL     1      23.365  29.544  14.691  1.00  0.00     0.046 C 
BRANCH  30  31
HETATM   31  C7  UNL     1      23.937  28.633  15.769  1.00  0.00     0.123 C 
BRANCH  31  32
HETATM   32  N1  UNL     1      24.906  29.351  16.565  1.00  0.00    -0.375 N 
ATOM     33  H1  UNL     1      24.690  29.572  17.538  1.00  0.00     0.161 HD
BRANCH  32  34
HETATM   34  C8  UNL     1      26.170  29.761  16.013  1.00  0.00     0.145 C 
HETATM   35  S1  UNL     1      27.117  28.659  15.288  1.00  0.00    -0.052 SA
HETATM   36  S2  UNL     1      26.653  31.465  16.146  1.00  0.00    -0.021 SA
ENDBRANCH  32  34
ENDBRANCH  31  32
ENDBRANCH  30  31
ENDBRANCH  29  30
ENDBRANCH  28  29
ENDBRANCH   3  28
TORSDOF 14
ENDMDL
MODEL 3
REMARK VINA RESULT: -7.637315093      1.748      2.831
REMARK  14 active torsions:
REMARK  status: ('A' for Active; 'I' for Inactive)
REMARK    1  A    between atoms: O1_2  and  C2_3 
REMARK    2  A    between atoms: C4_5  and  O2_6 
REMARK    3  A    between atoms: O2_6  and  C5_7 
REMARK    4  A    between atoms: C5_7  and  C6_8 
REMARK    5  A    between atoms: C6_8  and  C7_9 
REMARK    6  A    between atoms: C7_9  and  N1_10 
REMARK    7  A    between atoms: N1_10  and  C8_12 
REMARK    8  A    between atoms: C12_18  and  C13_19 
REMARK    9  A    between atoms: N2_23  and  C16_24 
REMARK   10  A    between atoms: C16_24  and  C17_25 
REMARK   11  A    between atoms: C17_25  and  O4_26 
REMARK   12  A    between atoms: C17_25  and  N3_28 
REMARK   13  A    between atoms: N3_28  and  C18_29 
REMARK   14  A    between atoms: C18_29  and  C19_30 
ROOT
HETATM    1  C2  UNL     1      20.184  25.523  16.979  1.00  0.00     0.081 A 
HETATM    2  C3  UNL     1      20.790  26.756  16.830  1.00  0.00     0.074 A 
HETATM    3  C4  UNL     1      20.720  27.421  15.638  1.00  0.00     0.071 A 
HETATM    4  C9  UNL     1      20.029  26.851  14.593  1.00  0.00     0.044 A 
HETATM    5  C10 UNL     1      19.409  25.594  14.755  1.00  0.00    -0.046 A 
HETATM    6  C11 UNL     1      18.655  25.089  13.584  1.00  0.00     0.049 C 
HETATM    7  C12 UNL     1      19.479  24.917  15.930  1.00  0.00     0.006 A 
ENDROOT
BRANCH   7   8
HETATM    8  C13 UNL     1      18.955  23.610  16.149  1.00  0.00     0.050 C 
HETATM    9  C14 UNL     1      17.772  23.266  16.635  1.00  0.00     0.108 A 
HETATM   10  C15 UNL     1      17.311  21.860  16.861  1.00  0.00     0.279 A 
HETATM   11  N4  UNL     1      16.687  24.067  17.029  1.00  0.00    -0.299 N 
HETATM   12  O3  UNL     1      18.048  20.827  16.610  1.00  0.00    -0.265 OA
HETATM   13  N2  UNL     1      16.033  21.810  17.363  1.00  0.00    -0.256 N 
HETATM   14  C22 UNL     1      15.639  23.225  17.469  1.00  0.00     0.332 A 
HETATM   15  O5  UNL     1      14.499  23.571  17.896  1.00  0.00    -0.246 OA
HETATM   16  C23 UNL     1      16.558  25.522  17.037  1.00  0.00     0.161 C 
BRANCH  13  17
HETATM   17  C16 UNL     1      15.151  20.785  17.868  1.00  0.00     0.237 C 
BRANCH  17  18
HETATM   18  C17 UNL     1      15.157  20.558  19.313  1.00  0.00     0.207 C 
BRANCH  18  19
HETATM   19  O4  UNL     1      15.513  21.707  19.903  1.00  0.00    -0.338 OA
ATOM     20  H4  UNL     1      16.375  21.941  19.580  1.00  0.00     0.220 HD
ENDBRANCH  18  19
BRANCH  18  21
HETATM   21  N3  UNL     1      14.868  19.449  20.038  1.00  0.00    -0.400 NA
BRANCH  21  22
HETATM   22  C18 UNL     1      14.578  18.331  20.765  1.00  0.00     0.161 C 
BRANCH  22  23
HETATM   23  C19 UNL     1      13.181  18.408  21.340  1.00  0.00     0.030 C 
HETATM   24  C20 UNL     1      12.183  18.495  20.211  1.00  0.00     0.016 C 
HETATM   25  C21 UNL     1      12.882  17.154  22.147  1.00  0.00     0.016 C 
ENDBRANCH  22  23
ENDBRANCH  21  22
ENDBRANCH  18  21
ENDBRANCH  17  18
ENDBRANCH  13  17
ENDBRANCH   7   8
BRANCH   1  26
HETATM   26  O1  UNL     1      20.265  24.838  18.192  1.00  0.00    -0.355 OA
HETATM   27  C1  UNL     1      20.979  25.235  19.319  1.00  0.00     0.210 C 
ENDBRANCH   1  26
BRANCH   3  28
HETATM   28  O2  UNL     1      21.347  28.659  15.483  1.00  0.00    -0.351 OA
BRANCH  28  29
HETATM   29  C5  UNL     1      22.055  29.018  14.358  1.00  0.00     0.177 C 
BRANCH  29  30
HETATM   30  C6  UNL     1      23.405  29.659  14.639  1.00  0.00     0.046 C 
BRANCH  30  31
HETATM   31  C7  UNL     1      24.117  28.966  15.794  1.00  0.00     0.123 C 
BRANCH  31  32
HETATM   32  N1  UNL     1      24.224  27.549  15.533  1.00  0.00    -0.375 N 
ATOM     33  H1  UNL     1      23.721  27.145  14.742  1.00  0.00     0.161 HD
BRANCH  32  34
HETATM   34  C8  UNL     1      25.027  26.694  16.368  1.00  0.00     0.145 C 
HETATM   35  S1  UNL     1      24.440  26.200  17.799  1.00  0.00    -0.052 SA
HETATM   36  S2  UNL     1      26.638  26.210  15.801  1.00  0.00    -0.021 SA
ENDBRANCH  32  34
ENDBRANCH  31  32
ENDBRANCH  30  31
ENDBRANCH  29  30
ENDBRANCH  28  29
ENDBRANCH   3  28
TORSDOF 14
ENDMDL
MODEL 4
REMARK VINA RESULT: -7.593199332      1.497      2.460
REMARK  14 active torsions:
REMARK  status: ('A' for Active; 'I' for Inactive)
REMARK    1  A    between atoms: O1_2  and  C2_3 
REMARK    2  A    between atoms: C4_5  and  O2_6 
REMARK    3  A    between atoms: O2_6  and  C5_7 
REMARK    4  A    between atoms: C5_7  and  C6_8 
REMARK    5  A    between atoms: C6_8  and  C7_9 
REMARK    6  A    between atoms: C7_9  and  N1_10 
REMARK    7  A    between atoms: N1_10  and  C8_12 
REMARK    8  A    between atoms: C12_18  and  C13_19 
REMARK    9  A    between atoms: N2_23  and  C16_24 
REMARK   10  A    between atoms: C16_24  and  C17_25 
REMARK   11  A    between atoms: C17_25  and  O4_26 
REMARK   12  A    between atoms: C17_25  and  N3_28 
REMARK   13  A    between atoms: N3_28  and  C18_29 
REMARK   14  A    between atoms: C18_29  and  C19_30 
ROOT
HETATM    1  C2  UNL     1      20.116  25.533  16.844  1.00  0.00     0.081 A 
HETATM    2  C3  UNL     1      20.647  26.798  16.680  1.00  0.00     0.074 A 
HETATM    3  C4  UNL     1      20.478  27.472  15.503  1.00  0.00     0.071 A 
HETATM    4  C9  UNL     1      19.761  26.877  14.489  1.00  0.00     0.044 A 
HETATM    5  C10 UNL     1      19.218  25.588  14.666  1.00  0.00    -0.046 A 
HETATM    6  C11 UNL     1      18.428  25.056  13.532  1.00  0.00     0.049 C 
HETATM    7  C12 UNL     1      19.387  24.903  15.827  1.00  0.00     0.006 A 
ENDROOT
BRANCH   7   8
HETATM    8  C13 UNL     1      18.945  23.568  16.056  1.00  0.00     0.050 C 
HETATM    9  C14 UNL     1      17.866  23.155  16.705  1.00  0.00     0.108 A 
HETATM   10  C15 UNL     1      17.490  21.723  16.926  1.00  0.00     0.279 A 
HETATM   11  N4  UNL     1      16.836  23.894  17.310  1.00  0.00    -0.299 N 
HETATM   12  O3  UNL     1      18.208  20.733  16.505  1.00  0.00    -0.265 OA
HETATM   13  N2  UNL     1      16.313  21.600  17.622  1.00  0.00    -0.256 N 
HETATM   14  C22 UNL     1      15.899  22.992  17.866  1.00  0.00     0.332 A 
HETATM   15  O5  UNL     1      14.833  23.273  18.487  1.00  0.00    -0.246 OA
HETATM   16  C23 UNL     1      16.667  25.341  17.418  1.00  0.00     0.161 C 
BRANCH  13  17
HETATM   17  C16 UNL     1      15.555  20.518  18.205  1.00  0.00     0.237 C 
BRANCH  17  18
HETATM   18  C17 UNL     1      14.242  20.240  17.624  1.00  0.00     0.207 C 
BRANCH  18  19
HETATM   19  O4  UNL     1      14.334  20.432  16.302  1.00  0.00    -0.338 OA
ATOM     20  H4  UNL     1      13.543  20.877  16.020  1.00  0.00     0.220 HD
ENDBRANCH  18  19
BRANCH  18  21
HETATM   21  N3  UNL     1      13.081  19.848  18.205  1.00  0.00    -0.400 NA
BRANCH  21  22
HETATM   22  C18 UNL     1      11.911  19.453  18.787  1.00  0.00     0.161 C 
BRANCH  22  23
HETATM   23  C19 UNL     1      12.168  18.445  19.886  1.00  0.00     0.030 C 
HETATM   24  C20 UNL     1      12.580  17.131  19.269  1.00  0.00     0.016 C 
HETATM   25  C21 UNL     1      13.298  18.930  20.781  1.00  0.00     0.016 C 
ENDBRANCH  22  23
ENDBRANCH  21  22
ENDBRANCH  18  21
ENDBRANCH  17  18
ENDBRANCH  13  17
ENDBRANCH   7   8
BRANCH   1  26
HETATM   26  O1  UNL     1      20.298  24.840  18.041  1.00  0.00    -0.355 OA
HETATM   27  C1  UNL     1      20.959  25.307  19.174  1.00  0.00     0.210 C 
ENDBRANCH   1  26
BRANCH   3  28
HETATM   28  O2  UNL     1      21.030  28.743  15.331  1.00  0.00    -0.351 OA
BRANCH  28  29
HETATM   29  C5  UNL     1      21.970  29.041  14.370  1.00  0.00     0.177 C 
BRANCH  29  30
HETATM   30  C6  UNL     1      23.319  29.476  14.921  1.00  0.00     0.046 C 
BRANCH  30  31
HETATM   31  C7  UNL     1      24.122  28.283  15.423  1.00  0.00     0.123 C 
BRANCH  31  32
HETATM   32  N1  UNL     1      23.962  28.143  16.853  1.00  0.00    -0.375 N 
ATOM     33  H1  UNL     1      23.121  28.509  17.301  1.00  0.00     0.161 HD
BRANCH  32  34
HETATM   34  C8  UNL     1      24.965  27.497  17.658  1.00  0.00     0.145 C 
HETATM   35  S1  UNL     1      26.322  28.305  18.038  1.00  0.00    -0.052 SA
HETATM   36  S2  UNL     1      24.684  25.832  18.206  1.00  0.00    -0.021 SA
ENDBRANCH  32  34
ENDBRANCH  31  32
ENDBRANCH  30  31
ENDBRANCH  29  30
ENDBRANCH  28  29
ENDBRANCH   3  28
TORSDOF 14
ENDMDL
MODEL 5
REMARK VINA RESULT: -7.443990284      1.829      2.730
REMARK  14 active torsions:
REMARK  status: ('A' for Active; 'I' for Inactive)
REMARK    1  A    between atoms: O1_2  and  C2_3 
REMARK    2  A    between atoms: C4_5  and  O2_6 
REMARK    3  A    between atoms: O2_6  and  C5_7 
REMARK    4  A    between atoms: C5_7  and  C6_8 
REMARK    5  A    between atoms: C6_8  and  C7_9 
REMARK    6  A    between atoms: C7_9  and  N1_10 
REMARK    7  A    between atoms: N1_10  and  C8_12 
REMARK    8  A    between atoms: C12_18  and  C13_19 
REMARK    9  A    between atoms: N2_23  and  C16_24 
REMARK   10  A    between atoms: C16_24  and  C17_25 
REMARK   11  A    between atoms: C17_25  and  O4_26 
REMARK   12  A    between atoms: C17_25  and  N3_28 
REMARK   13  A    between atoms: N3_28  and  C18_29 
REMARK   14  A    between atoms: C18_29  and  C19_30 
ROOT
HETATM    1  C2  UNL     1      20.078  25.599  17.349  1.00  0.00     0.081 A 
HETATM    2  C3  UNL     1      20.745  26.807  17.278  1.00  0.00     0.074 A 
HETATM    3  C4  UNL     1      21.122  27.318  16.068  1.00  0.00     0.071 A 
HETATM    4  C9  UNL     1      20.818  26.618  14.922  1.00  0.00     0.044 A 
HETATM    5  C10 UNL     1      20.132  25.388  15.003  1.00  0.00    -0.046 A 
HETATM    6  C11 UNL     1      19.816  24.737  13.711  1.00  0.00     0.049 C 
HETATM    7  C12 UNL     1      19.760  24.863  16.199  1.00  0.00     0.006 A 
ENDROOT
BRANCH   7   8
HETATM    8  C13 UNL     1      19.142  23.591  16.374  1.00  0.00     0.050 C 
HETATM    9  C14 UNL     1      17.864  23.270  16.247  1.00  0.00     0.108 A 
HETATM   10  C15 UNL     1      17.292  21.907  16.479  1.00  0.00     0.279 A 
HETATM   11  N4  UNL     1      16.765  24.060  15.868  1.00  0.00    -0.299 N 
HETATM   12  O3  UNL     1      18.009  20.895  16.846  1.00  0.00    -0.265 OA
HETATM   13  N2  UNL     1      15.936  21.871  16.260  1.00  0.00    -0.256 N 
HETATM   14  C22 UNL     1      15.604  23.252  15.870  1.00  0.00     0.332 A 
HETATM   15  O5  UNL     1      14.423  23.599  15.580  1.00  0.00    -0.246 OA
HETATM   16  C23 UNL     1      16.712  25.479  15.524  1.00  0.00     0.161 C 
BRANCH  13  17
HETATM   17  C16 UNL     1      14.877  20.906  16.436  1.00  0.00     0.237 C 
BRANCH  17  18
HETATM   18  C17 UNL     1      14.341  20.750  17.788  1.00  0.00     0.207 C 
BRANCH  18  19
HETATM   19  O4  UNL     1      13.816  21.926  18.155  1.00  0.00    -0.338 OA
ATOM     20  H4  UNL     1      13.344  21.791  18.968  1.00  0.00     0.220 HD
ENDBRANCH  18  19
BRANCH  18  21
HETATM   21  N3  UNL     1      14.312  19.674  18.612  1.00  0.00    -0.400 NA
BRANCH  21  22
HETATM   22  C18 UNL     1      14.285  18.589  19.440  1.00  0.00     0.161 C 
BRANCH  22  23
HETATM   23  C19 UNL     1      12.919  18.421  20.068  1.00  0.00     0.030 C 
HETATM   24  C20 UNL     1      12.166  17.339  19.334  1.00  0.00     0.016 C 
HETATM   25  C21 UNL     1      13.064  18.002  21.522  1.00  0.00     0.016 C 
ENDBRANCH  22  23
ENDBRANCH  21  22
ENDBRANCH  18  21
ENDBRANCH  17  18
ENDBRANCH  13  17
ENDBRANCH   7   8
BRANCH   1  26
HETATM   26  O1  UNL     1      19.703  25.070  18.585  1.00  0.00    -0.355 OA
HETATM   27  C1  UNL     1      20.508  24.963  19.716  1.00  0.00     0.210 C 
ENDBRANCH   1  26
BRANCH   3  28
HETATM   28  O2  UNL     1      21.812  28.530  15.997  1.00  0.00    -0.351 OA
BRANCH  28  29
HETATM   29  C5  UNL     1      22.339  29.039  14.832  1.00  0.00     0.177 C 
BRANCH  29  30
HETATM   30  C6  UNL     1      23.780  29.511  14.944  1.00  0.00     0.046 C 
BRANCH  30  31
HETATM   31  C7  UNL     1      24.667  28.438  15.563  1.00  0.00     0.123 C 
BRANCH  31  32
HETATM   32  N1  UNL     1      24.532  28.450  17.002  1.00  0.00    -0.375 N 
ATOM     33  H1  UNL     1      23.981  29.184  17.447  1.00  0.00     0.161 HD
BRANCH  32  34
HETATM   34  C8  UNL     1      25.160  27.446  17.820  1.00  0.00     0.145 C 
HETATM   35  S1  UNL     1      24.421  26.016  18.032  1.00  0.00    -0.052 SA
HETATM   36  S2  UNL     1      26.727  27.810  18.572  1.00  0.00    -0.021 SA
ENDBRANCH  32  34
ENDBRANCH  31  32
ENDBRANCH  30  31
ENDBRANCH  29  30
ENDBRANCH  28  29
ENDBRANCH   3  28
TORSDOF 14
ENDMDL
