MODEL 1
REMARK VINA RESULT: -8.993970970      0.000      0.000
REMARK  11 active torsions:
REMARK  status: ('A' for Active; 'I' for Inactive)
REMARK    1  A    between atoms: C2_2  and  C4_4 
REMARK    2  A    between atoms: C4_4  and  C5_6 
REMARK    3  A    between atoms: C5_6  and  N1_7 
REMARK    4  A    between atoms: C5_6  and  C22_39 
REMARK       I    between atoms: N1_7  and  C6_9 
REMARK    5  A    between atoms: C6_9  and  C7_11 
REMARK    6  A    between atoms: C7_11  and  N2_12 
REMARK    7  A    between atoms: C7_11  and  C19_36 
REMARK       I    between atoms: N2_12  and  C8_14 
REMARK    8  A    between atoms: C8_14  and  C9_16 
REMARK    9  A    between atoms: C9_16  and  C10_17 
REMARK   10  A    between atoms: C11_18  and  C12_19 
REMARK   11  A    between atoms: C16_28  and  C17_29 
ROOT
HETATM    1  N2  UNL     1      16.831  23.084  18.737  1.00  0.00    -0.347 N 
ATOM      2  H2  UNL     1      16.267  23.888  19.014  1.00  0.00     0.163 HD
HETATM    3  C8  UNL     1      16.203  21.809  18.549  1.00  0.00     0.222 C 
HETATM    4  O3  UNL     1      16.876  20.797  18.206  1.00  0.00    -0.273 OA
ENDROOT
BRANCH   3   5
HETATM    5  C9  UNL     1      14.743  21.654  18.756  1.00  0.00     0.141 C 
BRANCH   5   6
HETATM    6  C10 UNL     1      13.954  21.017  17.712  1.00  0.00    -0.020 C 
HETATM    7  C11 UNL     1      13.651  21.644  16.451  1.00  0.00     0.022 C 
HETATM    8  N3  UNL     1      12.722  21.106  15.714  1.00  0.00    -0.312 N 
HETATM    9  C15 UNL     1      11.968  19.974  16.019  1.00  0.00     0.321 C 
ATOM     10  H3  UNL     1      12.525  21.560  14.822  1.00  0.00     0.170 HD
HETATM   11  O4  UNL     1      11.080  19.452  15.310  1.00  0.00    -0.247 OA
HETATM   12  N4  UNL     1      12.257  19.347  17.292  1.00  0.00    -0.329 N 
HETATM   13  C16 UNL     1      12.751  20.289  18.316  1.00  0.00     0.170 C 
ATOM     14  H4  UNL     1      12.131  18.350  17.465  1.00  0.00     0.165 HD
BRANCH   7  15
HETATM   15  C12 UNL     1      14.231  22.880  15.857  1.00  0.00     0.028 C 
HETATM   16  C13 UNL     1      15.438  22.523  14.958  1.00  0.00     0.016 C 
HETATM   17  C14 UNL     1      13.260  23.576  14.926  1.00  0.00     0.016 C 
ENDBRANCH   7  15
BRANCH  13  18
HETATM   18  C17 UNL     1      13.183  19.423  19.483  1.00  0.00     0.061 A 
HETATM   19  C18 UNL     1      12.271  18.859  20.353  1.00  0.00     0.098 A 
HETATM   20  S1  UNL     1      13.301  18.020  21.423  1.00  0.00    -0.009 SA
HETATM   21  N5  UNL     1      14.773  18.428  20.719  1.00  0.00    -0.270 N 
HETATM   22  N6  UNL     1      14.436  19.174  19.716  1.00  0.00    -0.296 N 
ATOM     23  H5  UNL     1      15.711  18.153  21.014  1.00  0.00     0.195 HD
ATOM     24  H6  UNL     1      15.155  19.565  19.108  1.00  0.00     0.187 HD
ENDBRANCH  13  18
ENDBRANCH   5   6
ENDBRANCH   3   5
BRANCH   1  25
HETATM   25  C7  UNL     1      18.242  23.244  18.542  1.00  0.00     0.180 C 
BRANCH  25  26
HETATM   26  C6  UNL     1      18.589  24.383  17.679  1.00  0.00     0.241 C 
HETATM   27  N1  UNL     1      19.822  24.708  17.141  1.00  0.00    -0.347 N 
ATOM     28  H1  UNL     1      20.625  24.115  17.353  1.00  0.00     0.163 HD
HETATM   29  O2  UNL     1      17.615  25.164  17.402  1.00  0.00    -0.271 OA
BRANCH  27  30
HETATM   30  C5  UNL     1      20.017  25.902  16.254  1.00  0.00     0.158 C 
BRANCH  30  31
HETATM   31  C4  UNL     1      20.138  25.423  14.873  1.00  0.00     0.153 C 
HETATM   32  O1  UNL     1      21.175  24.776  14.577  1.00  0.00    -0.295 OA
BRANCH  31  33
HETATM   33  C2  UNL     1      19.176  25.602  13.808  1.00  0.00     0.049 C 
HETATM   34  C1  UNL     1      17.871  24.879  13.856  1.00  0.00     0.017 C 
HETATM   35  C3  UNL     1      18.856  27.105  13.642  1.00  0.00     0.017 C 
ENDBRANCH  31  33
ENDBRANCH  30  31
BRANCH  30  36
HETATM   36  C22 UNL     1      21.195  26.642  16.804  1.00  0.00     0.007 C 
HETATM   37  C23 UNL     1      20.979  27.113  18.203  1.00  0.00     0.012 C 
HETATM   38  C24 UNL     1      21.611  27.843  15.978  1.00  0.00     0.012 C 
ENDBRANCH  30  36
ENDBRANCH  27  30
ENDBRANCH  25  26
BRANCH  25  39
HETATM   39  C19 UNL     1      19.030  23.103  19.796  1.00  0.00     0.009 C 
HETATM   40  C20 UNL     1      19.348  21.710  20.222  1.00  0.00     0.012 C 
HETATM   41  C21 UNL     1      18.488  23.980  20.926  1.00  0.00     0.012 C 
ENDBRANCH  25  39
ENDBRANCH   1  25
TORSDOF 11
ENDMDL
MODEL 2
REMARK VINA RESULT: -8.927658932      0.909      1.988
REMARK  11 active torsions:
REMARK  status: ('A' for Active; 'I' for Inactive)
REMARK    1  A    between atoms: C2_2  and  C4_4 
REMARK    2  A    between atoms: C4_4  and  C5_6 
REMARK    3  A    between atoms: C5_6  and  N1_7 
REMARK    4  A    between atoms: C5_6  and  C22_39 
REMARK       I    between atoms: N1_7  and  C6_9 
REMARK    5  A    between atoms: C6_9  and  C7_11 
REMARK    6  A    between atoms: C7_11  and  N2_12 
REMARK    7  A    between atoms: C7_11  and  C19_36 
REMARK       I    between atoms: N2_12  and  C8_14 
REMARK    8  A    between atoms: C8_14  and  C9_16 
REMARK    9  A    between atoms: C9_16  and  C10_17 
REMARK   10  A    between atoms: C11_18  and  C12_19 
REMARK   11  A    between atoms: C16_28  and  C17_29 
ROOT
HETATM    1  N2  UNL     1      16.821  22.950  18.816  1.00  0.00    -0.347 N 
ATOM      2  H2  UNL     1      16.263  23.798  18.911  1.00  0.00     0.163 HD
HETATM    3  C8  UNL     1      16.170  21.672  18.810  1.00  0.00     0.222 C 
HETATM    4  O3  UNL     1      16.835  20.604  18.693  1.00  0.00    -0.273 OA
ENDROOT
BRANCH   3   5
HETATM    5  C9  UNL     1      14.696  21.579  18.943  1.00  0.00     0.141 C 
BRANCH   5   6
HETATM    6  C10 UNL     1      13.936  20.957  17.869  1.00  0.00    -0.020 C 
HETATM    7  C11 UNL     1      13.667  21.601  16.609  1.00  0.00     0.022 C 
HETATM    8  N3  UNL     1      12.759  21.073  15.840  1.00  0.00    -0.312 N 
HETATM    9  C15 UNL     1      11.997  19.938  16.110  1.00  0.00     0.321 C 
ATOM     10  H3  UNL     1      12.587  21.539  14.949  1.00  0.00     0.170 HD
HETATM   11  O4  UNL     1      11.129  19.426  15.370  1.00  0.00    -0.247 OA
HETATM   12  N4  UNL     1      12.250  19.294  17.382  1.00  0.00    -0.329 N 
HETATM   13  C16 UNL     1      12.717  20.222  18.430  1.00  0.00     0.170 C 
ATOM     14  H4  UNL     1      12.119  18.295  17.538  1.00  0.00     0.165 HD
BRANCH   7  15
HETATM   15  C12 UNL     1      14.264  22.844  16.048  1.00  0.00     0.028 C 
HETATM   16  C13 UNL     1      15.489  22.497  15.168  1.00  0.00     0.016 C 
HETATM   17  C14 UNL     1      13.315  23.558  15.107  1.00  0.00     0.016 C 
ENDBRANCH   7  15
BRANCH  13  18
HETATM   18  C17 UNL     1      13.115  19.341  19.598  1.00  0.00     0.061 A 
HETATM   19  C18 UNL     1      12.179  18.762  20.432  1.00  0.00     0.098 A 
HETATM   20  S1  UNL     1      13.180  17.910  21.520  1.00  0.00    -0.009 SA
HETATM   21  N5  UNL     1      14.671  18.332  20.867  1.00  0.00    -0.270 N 
HETATM   22  N6  UNL     1      14.362  19.091  19.865  1.00  0.00    -0.296 N 
ATOM     23  H5  UNL     1      15.600  18.056  21.186  1.00  0.00     0.195 HD
ATOM     24  H6  UNL     1      15.098  19.493  19.284  1.00  0.00     0.187 HD
ENDBRANCH  13  18
ENDBRANCH   5   6
ENDBRANCH   3   5
BRANCH   1  25
HETATM   25  C7  UNL     1      18.244  23.049  18.690  1.00  0.00     0.180 C 
BRANCH  25  26
HETATM   26  C6  UNL     1      18.696  23.297  17.312  1.00  0.00     0.241 C 
HETATM   27  N1  UNL     1      19.078  24.496  16.736  1.00  0.00    -0.347 N 
ATOM     28  H1  UNL     1      19.047  25.346  17.299  1.00  0.00     0.163 HD
HETATM   29  O2  UNL     1      18.733  22.260  16.564  1.00  0.00    -0.271 OA
BRANCH  27  30
HETATM   30  C5  UNL     1      19.538  24.587  15.311  1.00  0.00     0.158 C 
BRANCH  30  31
HETATM   31  C4  UNL     1      20.584  25.613  15.240  1.00  0.00     0.153 C 
HETATM   32  O1  UNL     1      21.642  25.314  14.628  1.00  0.00    -0.295 OA
BRANCH  31  33
HETATM   33  C2  UNL     1      20.525  26.949  15.789  1.00  0.00     0.049 C 
HETATM   34  C1  UNL     1      21.370  27.308  16.967  1.00  0.00     0.017 C 
HETATM   35  C3  UNL     1      20.834  27.981  14.680  1.00  0.00     0.017 C 
ENDBRANCH  31  33
ENDBRANCH  30  31
BRANCH  30  36
HETATM   36  C22 UNL     1      18.311  24.834  14.492  1.00  0.00     0.007 C 
HETATM   37  C23 UNL     1      18.613  25.466  13.175  1.00  0.00     0.012 C 
HETATM   38  C24 UNL     1      17.270  25.693  15.183  1.00  0.00     0.012 C 
ENDBRANCH  30  36
ENDBRANCH  27  30
ENDBRANCH  25  26
BRANCH  25  39
HETATM   39  C19 UNL     1      18.873  23.884  19.750  1.00  0.00     0.009 C 
HETATM   40  C20 UNL     1      20.307  23.605  20.044  1.00  0.00     0.012 C 
HETATM   41  C21 UNL     1      18.000  23.990  21.001  1.00  0.00     0.012 C 
ENDBRANCH  25  39
ENDBRANCH   1  25
TORSDOF 11
ENDMDL
MODEL 3
REMARK VINA RESULT: -8.861216471      3.086      9.306
REMARK  11 active torsions:
REMARK  status: ('A' for Active; 'I' for Inactive)
REMARK    1  A    between atoms: C2_2  and  C4_4 
REMARK    2  A    between atoms: C4_4  and  C5_6 
REMARK    3  A    between atoms: C5_6  and  N1_7 
REMARK    4  A    between atoms: C5_6  and  C22_39 
REMARK       I    between atoms: N1_7  and  C6_9 
REMARK    5  A    between atoms: C6_9  and  C7_11 
REMARK    6  A    between atoms: C7_11  and  N2_12 
REMARK    7  A    between atoms: C7_11  and  C19_36 
REMARK       I    between atoms: N2_12  and  C8_14 
REMARK    8  A    between atoms: C8_14  and  C9_16 
REMARK    9  A    between atoms: C9_16  and  C10_17 
REMARK   10  A    between atoms: C11_18  and  C12_19 
REMARK   11  A    between atoms: C16_28  and  C17_29 
ROOT
HETATM    1  N2  UNL     1      15.541  23.201  16.875  1.00  0.00    -0.347 N 
ATOM      2  H2  UNL     1      14.960  23.904  17.332  1.00  0.00     0.163 HD
HETATM    3  C8  UNL     1      16.935  23.462  16.666  1.00  0.00     0.222 C 
HETATM    4  O3  UNL     1      17.679  22.610  16.104  1.00  0.00    -0.273 OA
ENDROOT
BRANCH   3   5
HETATM    5  C9  UNL     1      17.533  24.745  17.107  1.00  0.00     0.141 C 
BRANCH   5   6
HETATM    6  C10 UNL     1      18.883  24.736  17.649  1.00  0.00    -0.020 C 
HETATM    7  C11 UNL     1      19.197  24.327  18.995  1.00  0.00     0.022 C 
HETATM    8  N3  UNL     1      20.379  24.616  19.457  1.00  0.00    -0.312 N 
HETATM    9  C15 UNL     1      21.391  25.298  18.785  1.00  0.00     0.321 C 
ATOM     10  H3  UNL     1      20.585  24.313  20.409  1.00  0.00     0.170 HD
HETATM   11  O4  UNL     1      22.530  25.571  19.224  1.00  0.00    -0.247 OA
HETATM   12  N4  UNL     1      21.078  25.726  17.437  1.00  0.00    -0.329 N 
HETATM   13  C16 UNL     1      19.643  25.993  17.221  1.00  0.00     0.170 C 
ATOM     14  H4  UNL     1      21.783  25.833  16.707  1.00  0.00     0.165 HD
BRANCH   7  15
HETATM   15  C12 UNL     1      18.330  23.632  19.987  1.00  0.00     0.028 C 
HETATM   16  C13 UNL     1      18.497  22.099  19.860  1.00  0.00     0.016 C 
HETATM   17  C14 UNL     1      18.738  23.939  21.413  1.00  0.00     0.016 C 
ENDBRANCH   7  15
BRANCH  13  18
HETATM   18  C17 UNL     1      19.497  26.222  15.729  1.00  0.00     0.061 A 
HETATM   19  C18 UNL     1      19.669  27.468  15.159  1.00  0.00     0.098 A 
HETATM   20  S1  UNL     1      19.394  27.124  13.510  1.00  0.00    -0.009 SA
HETATM   21  N5  UNL     1      19.090  25.476  13.650  1.00  0.00    -0.270 N 
HETATM   22  N6  UNL     1      19.204  25.250  14.919  1.00  0.00    -0.296 N 
ATOM     23  H5  UNL     1      18.867  24.811  12.908  1.00  0.00     0.195 HD
ATOM     24  H6  UNL     1      19.065  24.307  15.283  1.00  0.00     0.187 HD
ENDBRANCH  13  18
ENDBRANCH   5   6
ENDBRANCH   3   5
BRANCH   1  25
HETATM   25  C7  UNL     1      14.953  21.965  16.451  1.00  0.00     0.180 C 
BRANCH  25  26
HETATM   26  C6  UNL     1      14.221  21.266  17.518  1.00  0.00     0.241 C 
HETATM   27  N1  UNL     1      13.741  19.968  17.522  1.00  0.00    -0.347 N 
ATOM     28  H1  UNL     1      13.879  19.388  16.694  1.00  0.00     0.163 HD
HETATM   29  O2  UNL     1      14.008  21.963  18.569  1.00  0.00    -0.271 OA
BRANCH  27  30
HETATM   30  C5  UNL     1      13.024  19.385  18.704  1.00  0.00     0.158 C 
BRANCH  30  31
HETATM   31  C4  UNL     1      13.977  18.549  19.441  1.00  0.00     0.153 C 
HETATM   32  O1  UNL     1      14.582  17.656  18.793  1.00  0.00    -0.295 OA
BRANCH  31  33
HETATM   33  C2  UNL     1      14.314  18.650  20.844  1.00  0.00     0.049 C 
HETATM   34  C1  UNL     1      14.619  19.985  21.441  1.00  0.00     0.017 C 
HETATM   35  C3  UNL     1      13.188  18.020  21.696  1.00  0.00     0.017 C 
ENDBRANCH  31  33
ENDBRANCH  30  31
BRANCH  30  36
HETATM   36  C22 UNL     1      11.816  18.691  18.159  1.00  0.00     0.007 C 
HETATM   37  C23 UNL     1      10.914  19.609  17.406  1.00  0.00     0.012 C 
HETATM   38  C24 UNL     1      10.980  17.989  19.211  1.00  0.00     0.012 C 
ENDBRANCH  30  36
ENDBRANCH  27  30
ENDBRANCH  25  26
BRANCH  25  39
HETATM   39  C19 UNL     1      14.266  22.060  15.134  1.00  0.00     0.009 C 
HETATM   40  C20 UNL     1      15.127  21.896  13.928  1.00  0.00     0.012 C 
HETATM   41  C21 UNL     1      13.324  23.262  15.055  1.00  0.00     0.012 C 
ENDBRANCH  25  39
ENDBRANCH   1  25
TORSDOF 11
ENDMDL
MODEL 4
REMARK VINA RESULT: -8.772554837      1.180      2.159
REMARK  11 active torsions:
REMARK  status: ('A' for Active; 'I' for Inactive)
REMARK    1  A    between atoms: C2_2  and  C4_4 
REMARK    2  A    between atoms: C4_4  and  C5_6 
REMARK    3  A    between atoms: C5_6  and  N1_7 
REMARK    4  A    between atoms: C5_6  and  C22_39 
REMARK       I    between atoms: N1_7  and  C6_9 
REMARK    5  A    between atoms: C6_9  and  C7_11 
REMARK    6  A    between atoms: C7_11  and  N2_12 
REMARK    7  A    between atoms: C7_11  and  C19_36 
REMARK       I    between atoms: N2_12  and  C8_14 
REMARK    8  A    between atoms: C8_14  and  C9_16 
REMARK    9  A    between atoms: C9_16  and  C10_17 
REMARK   10  A    between atoms: C11_18  and  C12_19 
REMARK   11  A    between atoms: C16_28  and  C17_29 
ROOT
HETATM    1  N2  UNL     1      16.734  22.596  18.794  1.00  0.00    -0.347 N 
ATOM      2  H2  UNL     1      16.227  23.453  19.015  1.00  0.00     0.163 HD
HETATM    3  C8  UNL     1      16.006  21.381  18.567  1.00  0.00     0.222 C 
HETATM    4  O3  UNL     1      16.608  20.305  18.291  1.00  0.00    -0.273 OA
ENDROOT
BRANCH   3   5
HETATM    5  C9  UNL     1      14.527  21.366  18.652  1.00  0.00     0.141 C 
BRANCH   5   6
HETATM    6  C10 UNL     1      13.767  20.878  17.510  1.00  0.00    -0.020 C 
HETATM    7  C11 UNL     1      13.542  21.652  16.316  1.00  0.00     0.022 C 
HETATM    8  N3  UNL     1      12.631  21.233  15.485  1.00  0.00    -0.312 N 
HETATM    9  C15 UNL     1      11.829  20.103  15.629  1.00  0.00     0.321 C 
ATOM     10  H3  UNL     1      12.491  21.790  14.642  1.00  0.00     0.170 HD
HETATM   11  O4  UNL     1      10.958  19.696  14.829  1.00  0.00    -0.247 OA
HETATM   12  N4  UNL     1      12.038  19.329  16.835  1.00  0.00    -0.329 N 
HETATM   13  C16 UNL     1      12.515  20.133  17.977  1.00  0.00     0.170 C 
ATOM     14  H4  UNL     1      11.872  18.324  16.889  1.00  0.00     0.165 HD
BRANCH   7  15
HETATM   15  C12 UNL     1      14.188  22.923  15.890  1.00  0.00     0.028 C 
HETATM   16  C13 UNL     1      15.454  22.623  15.052  1.00  0.00     0.016 C 
HETATM   17  C14 UNL     1      13.303  23.730  14.962  1.00  0.00     0.016 C 
ENDBRANCH   7  15
BRANCH  13  18
HETATM   18  C17 UNL     1      12.864  19.128  19.058  1.00  0.00     0.061 A 
HETATM   19  C18 UNL     1      12.009  18.854  20.107  1.00  0.00     0.098 A 
HETATM   20  S1  UNL     1      12.902  17.684  20.971  1.00  0.00    -0.009 SA
HETATM   21  N5  UNL     1      14.256  17.622  19.976  1.00  0.00    -0.270 N 
HETATM   22  N6  UNL     1      13.988  18.476  19.041  1.00  0.00    -0.296 N 
ATOM     23  H5  UNL     1      15.092  17.047  20.083  1.00  0.00     0.195 HD
ATOM     24  H6  UNL     1      14.660  18.638  18.290  1.00  0.00     0.187 HD
ENDBRANCH  13  18
ENDBRANCH   5   6
ENDBRANCH   3   5
BRANCH   1  25
HETATM   25  C7  UNL     1      18.164  22.621  18.716  1.00  0.00     0.180 C 
BRANCH  25  26
HETATM   26  C6  UNL     1      18.673  23.145  17.439  1.00  0.00     0.241 C 
HETATM   27  N1  UNL     1      18.924  24.460  17.089  1.00  0.00    -0.347 N 
ATOM     28  H1  UNL     1      18.733  25.196  17.769  1.00  0.00     0.163 HD
HETATM   29  O2  UNL     1      18.908  22.256  16.550  1.00  0.00    -0.271 OA
BRANCH  27  30
HETATM   30  C5  UNL     1      19.466  24.839  15.743  1.00  0.00     0.158 C 
BRANCH  30  31
HETATM   31  C4  UNL     1      20.235  26.078  15.899  1.00  0.00     0.153 C 
HETATM   32  O1  UNL     1      20.016  26.765  16.930  1.00  0.00    -0.295 OA
BRANCH  31  33
HETATM   33  C2  UNL     1      21.240  26.594  14.996  1.00  0.00     0.049 C 
HETATM   34  C1  UNL     1      21.076  27.951  14.397  1.00  0.00     0.017 C 
HETATM   35  C3  UNL     1      22.623  26.569  15.687  1.00  0.00     0.017 C 
ENDBRANCH  31  33
ENDBRANCH  30  31
BRANCH  30  36
HETATM   36  C22 UNL     1      18.290  24.900  14.821  1.00  0.00     0.007 C 
HETATM   37  C23 UNL     1      18.654  25.354  13.448  1.00  0.00     0.012 C 
HETATM   38  C24 UNL     1      17.166  25.791  15.314  1.00  0.00     0.012 C 
ENDBRANCH  30  36
ENDBRANCH  27  30
ENDBRANCH  25  26
BRANCH  25  39
HETATM   39  C19 UNL     1      18.813  23.145  19.949  1.00  0.00     0.009 C 
HETATM   40  C20 UNL     1      18.124  24.281  20.625  1.00  0.00     0.012 C 
HETATM   41  C21 UNL     1      20.317  23.361  19.768  1.00  0.00     0.012 C 
ENDBRANCH  25  39
ENDBRANCH   1  25
TORSDOF 11
ENDMDL
MODEL 5
REMARK VINA RESULT: -8.750661608      2.577      3.862
REMARK  11 active torsions:
REMARK  status: ('A' for Active; 'I' for Inactive)
REMARK    1  A    between atoms: C2_2  and  C4_4 
REMARK    2  A    between atoms: C4_4  and  C5_6 
REMARK    3  A    between atoms: C5_6  and  N1_7 
REMARK    4  A    between atoms: C5_6  and  C22_39 
REMARK       I    between atoms: N1_7  and  C6_9 
REMARK    5  A    between atoms: C6_9  and  C7_11 
REMARK    6  A    between atoms: C7_11  and  N2_12 
REMARK    7  A    between atoms: C7_11  and  C19_36 
REMARK       I    between atoms: N2_12  and  C8_14 
REMARK    8  A    between atoms: C8_14  and  C9_16 
REMARK    9  A    between atoms: C9_16  and  C10_17 
REMARK   10  A    between atoms: C11_18  and  C12_19 
REMARK   11  A    between atoms: C16_28  and  C17_29 
ROOT
HETATM    1  N2  UNL     1      19.297  24.989  18.967  1.00  0.00    -0.347 N 
ATOM      2  H2  UNL     1      18.759  25.855  18.951  1.00  0.00     0.163 HD
HETATM    3  C8  UNL     1      18.676  23.761  18.563  1.00  0.00     0.222 C 
HETATM    4  O3  UNL     1      19.319  22.674  18.572  1.00  0.00    -0.273 OA
ENDROOT
BRANCH   3   5
HETATM    5  C9  UNL     1      17.260  23.745  18.125  1.00  0.00     0.141 C 
BRANCH   5   6
HETATM    6  C10 UNL     1      16.931  23.139  16.844  1.00  0.00    -0.020 C 
HETATM    7  C11 UNL     1      17.279  23.726  15.575  1.00  0.00     0.022 C 
HETATM    8  N3  UNL     1      16.704  23.249  14.508  1.00  0.00    -0.312 N 
HETATM    9  C15 UNL     1      15.767  22.219  14.458  1.00  0.00     0.321 C 
ATOM     10  H3  UNL     1      16.967  23.672  13.618  1.00  0.00     0.170 HD
HETATM   11  O4  UNL     1      15.219  21.754  13.434  1.00  0.00    -0.247 OA
HETATM   12  N4  UNL     1      15.401  21.634  15.731  1.00  0.00    -0.329 N 
HETATM   13  C16 UNL     1      15.510  22.573  16.865  1.00  0.00     0.170 C 
ATOM     14  H4  UNL     1      15.097  20.666  15.835  1.00  0.00     0.165 HD
BRANCH   7  15
HETATM   15  C12 UNL     1      18.198  24.861  15.290  1.00  0.00     0.028 C 
HETATM   16  C13 UNL     1      19.663  24.365  15.256  1.00  0.00     0.016 C 
HETATM   17  C14 UNL     1      17.968  25.450  13.913  1.00  0.00     0.016 C 
ENDBRANCH   7  15
BRANCH  13  18
HETATM   18  C17 UNL     1      15.290  21.731  18.106  1.00  0.00     0.061 A 
HETATM   19  C18 UNL     1      15.614  20.389  18.149  1.00  0.00     0.098 A 
HETATM   20  S1  UNL     1      15.164  19.985  19.744  1.00  0.00    -0.009 SA
HETATM   21  N5  UNL     1      14.611  21.495  20.235  1.00  0.00    -0.270 N 
HETATM   22  N6  UNL     1      14.784  22.239  19.190  1.00  0.00    -0.296 N 
ATOM     23  H5  UNL     1      14.229  21.762  21.143  1.00  0.00     0.195 HD
ATOM     24  H6  UNL     1      14.524  23.225  19.217  1.00  0.00     0.187 HD
ENDBRANCH  13  18
ENDBRANCH   5   6
ENDBRANCH   3   5
BRANCH   1  25
HETATM   25  C7  UNL     1      20.665  25.014  19.393  1.00  0.00     0.180 C 
BRANCH  25  26
HETATM   26  C6  UNL     1      21.483  26.009  18.683  1.00  0.00     0.241 C 
HETATM   27  N1  UNL     1      22.550  25.791  17.829  1.00  0.00    -0.347 N 
ATOM     28  H1  UNL     1      22.851  24.833  17.650  1.00  0.00     0.163 HD
HETATM   29  O2  UNL     1      21.152  27.226  18.893  1.00  0.00    -0.271 OA
BRANCH  27  30
HETATM   30  C5  UNL     1      23.279  26.918  17.158  1.00  0.00     0.158 C 
BRANCH  30  31
HETATM   31  C4  UNL     1      22.640  27.157  15.859  1.00  0.00     0.153 C 
HETATM   32  O1  UNL     1      22.620  26.200  15.043  1.00  0.00    -0.295 OA
BRANCH  31  33
HETATM   33  C2  UNL     1      22.010  28.381  15.416  1.00  0.00     0.049 C 
HETATM   34  C1  UNL     1      22.749  29.314  14.514  1.00  0.00     0.017 C 
HETATM   35  C3  UNL     1      20.666  28.054  14.726  1.00  0.00     0.017 C 
ENDBRANCH  31  33
ENDBRANCH  30  31
BRANCH  30  36
HETATM   36  C22 UNL     1      24.720  26.521  17.125  1.00  0.00     0.007 C 
HETATM   37  C23 UNL     1      25.303  26.349  18.487  1.00  0.00     0.012 C 
HETATM   38  C24 UNL     1      25.610  27.487  16.366  1.00  0.00     0.012 C 
ENDBRANCH  30  36
ENDBRANCH  27  30
ENDBRANCH  25  26
BRANCH  25  39
HETATM   39  C19 UNL     1      20.822  24.967  20.873  1.00  0.00     0.009 C 
HETATM   40  C20 UNL     1      22.152  24.524  21.380  1.00  0.00     0.012 C 
HETATM   41  C21 UNL     1      19.642  24.280  21.561  1.00  0.00     0.012 C 
ENDBRANCH  25  39
ENDBRANCH   1  25
TORSDOF 11
ENDMDL
