MODEL 1
REMARK VINA RESULT: -8.952693369      0.000      0.000
REMARK  12 active torsions:
REMARK  status: ('A' for Active; 'I' for Inactive)
REMARK    1  A    between atoms: C3_5  and  N2_6 
REMARK    2  A    between atoms: N4_17  and  C9_18 
REMARK    3  A    between atoms: C9_18  and  C10_19 
REMARK    4  A    between atoms: C10_19  and  C11_20 
REMARK    5  A    between atoms: C11_20  and  C12_21 
REMARK    6  A    between atoms: C12_21  and  C13_22 
REMARK       I    between atoms: C13_22  and  N5_24 
REMARK    7  A    between atoms: N5_24  and  C14_26 
REMARK    8  A    between atoms: C14_26  and  C15_27 
REMARK    9  A    between atoms: C15_27  and  C16_28 
REMARK   10  A    between atoms: C16_28  and  N6_29 
REMARK   11  A    between atoms: N7_32  and  C19_33 
REMARK   12  A    between atoms: C19_33  and  C20_34 
ROOT
HETATM    1  C12 UNL     1      13.753  19.194  18.904  1.00  0.00     0.103 C 
ENDROOT
BRANCH   1   2
HETATM    2  C11 UNL     1      12.299  19.466  18.826  1.00  0.00     0.011 C 
BRANCH   2   3
HETATM    3  C10 UNL     1      11.565  18.775  17.728  1.00  0.00     0.021 C 
BRANCH   3   4
HETATM    4  C9  UNL     1      10.991  19.789  16.743  1.00  0.00     0.134 C 
BRANCH   4   5
HETATM    5  N4  UNL     1      11.781  19.762  15.517  1.00  0.00    -0.299 N 
HETATM    6  C4  UNL     1      12.695  20.728  15.322  1.00  0.00     0.138 A 
HETATM    7  N3  UNL     1      12.881  21.710  16.238  1.00  0.00    -0.176 N 
HETATM    8  C5  UNL     1      13.460  20.720  14.165  1.00  0.00     0.032 A 
HETATM    9  C3  UNL     1      13.816  22.653  15.981  1.00  0.00     0.677 A 
ATOM     10  H3  UNL     1      12.332  21.738  17.096  1.00  0.00     0.186 HD
HETATM   11  N1  UNL     1      14.564  22.665  14.870  1.00  0.00    -0.195 N 
HETATM   12  C2  UNL     1      14.405  21.696  13.929  1.00  0.00     0.036 A 
ATOM     13  H1  UNL     1      15.255  23.403  14.730  1.00  0.00     0.184 HD
HETATM   14  C1  UNL     1      15.235  21.722  12.707  1.00  0.00     0.070 C 
HETATM   15  C6  UNL     1      13.282  19.724  13.213  1.00  0.00     0.022 A 
HETATM   16  C7  UNL     1      12.348  18.753  13.430  1.00  0.00     0.075 A 
HETATM   17  C8  UNL     1      11.608  18.797  14.597  1.00  0.00     0.249 A 
HETATM   18  O1  UNL     1      10.743  17.921  14.823  1.00  0.00    -0.268 OA
BRANCH   9  19
HETATM   19  N2  UNL     1      14.000  23.587  16.836  1.00  0.00    -0.234 N 
ATOM     20  H22 UNL     1      13.198  23.935  17.361  1.00  0.00     0.174 HD
ATOM     21  H21 UNL     1      14.946  23.947  16.954  1.00  0.00     0.174 HD
ENDBRANCH   9  19
ENDBRANCH   4   5
ENDBRANCH   3   4
ENDBRANCH   2   3
ENDBRANCH   1   2
BRANCH   1  22
HETATM   22  C13 UNL     1      14.612  20.380  18.809  1.00  0.00     0.217 C 
HETATM   23  O2  UNL     1      14.144  21.510  19.095  1.00  0.00    -0.274 OA
HETATM   24  N5  UNL     1      15.957  20.199  18.390  1.00  0.00    -0.361 N 
ATOM     25  H5  UNL     1      16.284  19.259  18.164  1.00  0.00     0.162 HD
BRANCH  24  26
HETATM   26  C14 UNL     1      16.865  21.297  18.278  1.00  0.00     0.124 C 
BRANCH  26  27
HETATM   27  C15 UNL     1      17.273  21.534  16.855  1.00  0.00     0.039 C 
BRANCH  27  28
HETATM   28  C16 UNL     1      18.447  22.514  16.751  1.00  0.00     0.118 C 
BRANCH  28  29
HETATM   29  N6  UNL     1      17.998  23.850  16.935  1.00  0.00    -0.409 N 
HETATM   30  C17 UNL     1      18.870  24.712  17.675  1.00  0.00     0.136 C 
HETATM   31  C18 UNL     1      19.264  25.887  16.785  1.00  0.00     0.136 C 
HETATM   32  N7  UNL     1      19.475  25.406  15.474  1.00  0.00    -0.409 N 
HETATM   33  C27 UNL     1      18.320  24.923  14.793  1.00  0.00     0.136 C 
HETATM   34  C28 UNL     1      17.336  24.415  15.821  1.00  0.00     0.136 C 
BRANCH  32  35
HETATM   35  C19 UNL     1      20.414  26.090  14.657  1.00  0.00     0.121 C 
BRANCH  35  36
HETATM   36  C20 UNL     1      21.233  27.135  15.384  1.00  0.00     0.003 C 
HETATM   37  C21 UNL     1      22.636  26.616  15.461  1.00  0.00     0.006 C 
HETATM   38  C22 UNL     1      23.686  27.636  15.724  1.00  0.00     0.005 C 
HETATM   39  C23 UNL     1      23.308  29.040  15.365  1.00  0.00    -0.019 C 
HETATM   40  C24 UNL     1      24.535  29.849  15.022  1.00  0.00     0.010 C 
HETATM   41  C25 UNL     1      22.385  29.022  14.166  1.00  0.00     0.005 C 
HETATM   42  C26 UNL     1      21.090  28.420  14.611  1.00  0.00     0.006 C 
ENDBRANCH  35  36
ENDBRANCH  32  35
ENDBRANCH  28  29
ENDBRANCH  27  28
ENDBRANCH  26  27
ENDBRANCH  24  26
ENDBRANCH   1  22
TORSDOF 12
ENDMDL
MODEL 2
REMARK VINA RESULT: -8.942487554      2.464      5.118
REMARK  12 active torsions:
REMARK  status: ('A' for Active; 'I' for Inactive)
REMARK    1  A    between atoms: C3_5  and  N2_6 
REMARK    2  A    between atoms: N4_17  and  C9_18 
REMARK    3  A    between atoms: C9_18  and  C10_19 
REMARK    4  A    between atoms: C10_19  and  C11_20 
REMARK    5  A    between atoms: C11_20  and  C12_21 
REMARK    6  A    between atoms: C12_21  and  C13_22 
REMARK       I    between atoms: C13_22  and  N5_24 
REMARK    7  A    between atoms: N5_24  and  C14_26 
REMARK    8  A    between atoms: C14_26  and  C15_27 
REMARK    9  A    between atoms: C15_27  and  C16_28 
REMARK   10  A    between atoms: C16_28  and  N6_29 
REMARK   11  A    between atoms: N7_32  and  C19_33 
REMARK   12  A    between atoms: C19_33  and  C20_34 
ROOT
HETATM    1  C12 UNL     1      14.552  23.089  15.381  1.00  0.00     0.103 C 
ENDROOT
BRANCH   1   2
HETATM    2  C11 UNL     1      14.601  21.672  14.952  1.00  0.00     0.011 C 
BRANCH   2   3
HETATM    3  C10 UNL     1      14.332  20.661  16.012  1.00  0.00     0.021 C 
BRANCH   3   4
HETATM    4  C9  UNL     1      13.384  21.225  17.067  1.00  0.00     0.134 C 
BRANCH   4   5
HETATM    5  N4  UNL     1      13.696  20.623  18.358  1.00  0.00    -0.299 N 
HETATM    6  C4  UNL     1      12.954  19.584  18.778  1.00  0.00     0.138 A 
HETATM    7  N3  UNL     1      11.934  19.104  18.025  1.00  0.00    -0.176 N 
HETATM    8  C5  UNL     1      13.235  18.994  20.001  1.00  0.00     0.032 A 
HETATM    9  C3  UNL     1      11.224  18.057  18.505  1.00  0.00     0.677 A 
ATOM     10  H3  UNL     1      11.707  19.520  17.122  1.00  0.00     0.186 HD
HETATM   11  N1  UNL     1      11.477  17.474  19.683  1.00  0.00    -0.195 N 
HETATM   12  C2  UNL     1      12.493  17.929  20.466  1.00  0.00     0.036 A 
ATOM     13  H1  UNL     1      10.908  16.687  19.994  1.00  0.00     0.184 HD
HETATM   14  C1  UNL     1      12.761  17.278  21.764  1.00  0.00     0.070 C 
HETATM   15  C6  UNL     1      14.274  19.473  20.789  1.00  0.00     0.022 A 
HETATM   16  C7  UNL     1      15.016  20.529  20.345  1.00  0.00     0.075 A 
HETATM   17  C8  UNL     1      14.703  21.088  19.120  1.00  0.00     0.249 A 
HETATM   18  O1  UNL     1      15.365  22.058  18.687  1.00  0.00    -0.268 OA
BRANCH   9  19
HETATM   19  N2  UNL     1      10.257  17.597  17.805  1.00  0.00    -0.234 N 
ATOM     20  H22 UNL     1       9.649  16.887  18.215  1.00  0.00     0.174 HD
ATOM     21  H21 UNL     1      10.136  17.961  16.860  1.00  0.00     0.174 HD
ENDBRANCH   9  19
ENDBRANCH   4   5
ENDBRANCH   3   4
ENDBRANCH   2   3
ENDBRANCH   1   2
BRANCH   1  22
HETATM   22  C13 UNL     1      15.848  23.670  15.750  1.00  0.00     0.217 C 
HETATM   23  O2  UNL     1      16.840  23.504  14.998  1.00  0.00    -0.274 OA
HETATM   24  N5  UNL     1      15.928  24.408  16.962  1.00  0.00    -0.361 N 
ATOM     25  H5  UNL     1      15.091  24.508  17.538  1.00  0.00     0.162 HD
BRANCH  24  26
HETATM   26  C14 UNL     1      17.147  25.016  17.394  1.00  0.00     0.124 C 
BRANCH  26  27
HETATM   27  C15 UNL     1      17.983  24.066  18.197  1.00  0.00     0.039 C 
BRANCH  27  28
HETATM   28  C16 UNL     1      17.951  24.397  19.693  1.00  0.00     0.118 C 
BRANCH  28  29
HETATM   29  N6  UNL     1      19.145  23.957  20.326  1.00  0.00    -0.409 N 
HETATM   30  C17 UNL     1      20.008  23.127  19.540  1.00  0.00     0.136 C 
HETATM   31  C18 UNL     1      21.361  23.817  19.406  1.00  0.00     0.136 C 
HETATM   32  N7  UNL     1      21.143  25.202  19.230  1.00  0.00    -0.409 N 
HETATM   33  C27 UNL     1      20.593  25.893  20.349  1.00  0.00     0.136 C 
HETATM   34  C28 UNL     1      19.767  24.919  21.156  1.00  0.00     0.136 C 
BRANCH  32  35
HETATM   35  C19 UNL     1      22.097  25.936  18.478  1.00  0.00     0.121 C 
BRANCH  35  36
HETATM   36  C20 UNL     1      21.506  27.021  17.603  1.00  0.00     0.003 C 
HETATM   37  C21 UNL     1      22.639  27.631  16.835  1.00  0.00     0.006 C 
HETATM   38  C22 UNL     1      22.253  28.389  15.615  1.00  0.00     0.005 C 
HETATM   39  C23 UNL     1      20.922  28.023  15.036  1.00  0.00    -0.019 C 
HETATM   40  C24 UNL     1      20.898  28.288  13.550  1.00  0.00     0.010 C 
HETATM   41  C25 UNL     1      20.658  26.551  15.272  1.00  0.00     0.005 C 
HETATM   42  C26 UNL     1      20.455  26.367  16.743  1.00  0.00     0.006 C 
ENDBRANCH  35  36
ENDBRANCH  32  35
ENDBRANCH  28  29
ENDBRANCH  27  28
ENDBRANCH  26  27
ENDBRANCH  24  26
ENDBRANCH   1  22
TORSDOF 12
ENDMDL
MODEL 3
REMARK VINA RESULT: -8.873284831      1.645      2.677
REMARK  12 active torsions:
REMARK  status: ('A' for Active; 'I' for Inactive)
REMARK    1  A    between atoms: C3_5  and  N2_6 
REMARK    2  A    between atoms: N4_17  and  C9_18 
REMARK    3  A    between atoms: C9_18  and  C10_19 
REMARK    4  A    between atoms: C10_19  and  C11_20 
REMARK    5  A    between atoms: C11_20  and  C12_21 
REMARK    6  A    between atoms: C12_21  and  C13_22 
REMARK       I    between atoms: C13_22  and  N5_24 
REMARK    7  A    between atoms: N5_24  and  C14_26 
REMARK    8  A    between atoms: C14_26  and  C15_27 
REMARK    9  A    between atoms: C15_27  and  C16_28 
REMARK   10  A    between atoms: C16_28  and  N6_29 
REMARK   11  A    between atoms: N7_32  and  C19_33 
REMARK   12  A    between atoms: C19_33  and  C20_34 
ROOT
HETATM    1  C12 UNL     1      11.344  18.364  19.579  1.00  0.00     0.103 C 
ENDROOT
BRANCH   1   2
HETATM    2  C11 UNL     1      11.500  17.571  18.337  1.00  0.00     0.011 C 
BRANCH   2   3
HETATM    3  C10 UNL     1      10.751  18.068  17.149  1.00  0.00     0.021 C 
BRANCH   3   4
HETATM    4  C9  UNL     1      11.090  19.530  16.871  1.00  0.00     0.134 C 
BRANCH   4   5
HETATM    5  N4  UNL     1      11.844  19.615  15.625  1.00  0.00    -0.299 N 
HETATM    6  C4  UNL     1      12.770  20.580  15.499  1.00  0.00     0.138 A 
HETATM    7  N3  UNL     1      13.002  21.462  16.503  1.00  0.00    -0.176 N 
HETATM    8  C5  UNL     1      13.500  20.678  14.324  1.00  0.00     0.032 A 
HETATM    9  C3  UNL     1      13.947  22.411  16.314  1.00  0.00     0.677 A 
ATOM     10  H3  UNL     1      12.478  21.411  17.377  1.00  0.00     0.186 HD
HETATM   11  N1  UNL     1      14.662  22.523  15.187  1.00  0.00    -0.195 N 
HETATM   12  C2  UNL     1      14.457  21.657  14.159  1.00  0.00     0.036 A 
ATOM     13  H1  UNL     1      15.362  23.260  15.101  1.00  0.00     0.184 HD
HETATM   14  C1  UNL     1      15.251  21.793  12.921  1.00  0.00     0.070 C 
HETATM   15  C6  UNL     1      13.276  19.786  13.283  1.00  0.00     0.022 A 
HETATM   16  C7  UNL     1      12.330  18.813  13.430  1.00  0.00     0.075 A 
HETATM   17  C8  UNL     1      11.625  18.751  14.617  1.00  0.00     0.249 A 
HETATM   18  O1  UNL     1      10.751  17.870  14.780  1.00  0.00    -0.268 OA
BRANCH   9  19
HETATM   19  N2  UNL     1      14.173  23.250  17.253  1.00  0.00    -0.234 N 
ATOM     20  H22 UNL     1      15.113  23.633  17.353  1.00  0.00     0.174 HD
ATOM     21  H21 UNL     1      13.398  23.501  17.865  1.00  0.00     0.174 HD
ENDBRANCH   9  19
ENDBRANCH   4   5
ENDBRANCH   3   4
ENDBRANCH   2   3
ENDBRANCH   1   2
BRANCH   1  22
HETATM   22  C13 UNL     1      12.602  18.759  20.224  1.00  0.00     0.217 C 
HETATM   23  O2  UNL     1      12.841  18.387  21.399  1.00  0.00    -0.274 OA
HETATM   24  N5  UNL     1      13.511  19.559  19.480  1.00  0.00    -0.361 N 
ATOM     25  H5  UNL     1      13.264  19.838  18.530  1.00  0.00     0.162 HD
BRANCH  24  26
HETATM   26  C14 UNL     1      14.762  19.982  20.026  1.00  0.00     0.124 C 
BRANCH  26  27
HETATM   27  C15 UNL     1      15.741  20.346  18.951  1.00  0.00     0.039 C 
BRANCH  27  28
HETATM   28  C16 UNL     1      16.513  21.626  19.288  1.00  0.00     0.118 C 
BRANCH  28  29
HETATM   29  N6  UNL     1      17.745  21.665  18.580  1.00  0.00    -0.409 N 
HETATM   30  C17 UNL     1      17.660  21.537  17.156  1.00  0.00     0.136 C 
HETATM   31  C18 UNL     1      18.251  22.789  16.517  1.00  0.00     0.136 C 
HETATM   32  N7  UNL     1      17.860  23.911  17.283  1.00  0.00    -0.409 N 
HETATM   33  C27 UNL     1      18.407  23.989  18.597  1.00  0.00     0.136 C 
HETATM   34  C28 UNL     1      18.692  22.587  19.083  1.00  0.00     0.136 C 
BRANCH  32  35
HETATM   35  C19 UNL     1      17.715  25.155  16.616  1.00  0.00     0.121 C 
BRANCH  35  36
HETATM   36  C20 UNL     1      18.756  25.420  15.549  1.00  0.00     0.003 C 
HETATM   37  C21 UNL     1      18.074  26.172  14.448  1.00  0.00     0.006 C 
HETATM   38  C22 UNL     1      18.973  26.914  13.524  1.00  0.00     0.005 C 
HETATM   39  C23 UNL     1      20.322  27.245  14.082  1.00  0.00    -0.019 C 
HETATM   40  C24 UNL     1      20.877  28.488  13.431  1.00  0.00     0.010 C 
HETATM   41  C25 UNL     1      20.205  27.487  15.572  1.00  0.00     0.005 C 
HETATM   42  C26 UNL     1      19.880  26.174  16.211  1.00  0.00     0.006 C 
ENDBRANCH  35  36
ENDBRANCH  32  35
ENDBRANCH  28  29
ENDBRANCH  27  28
ENDBRANCH  26  27
ENDBRANCH  24  26
ENDBRANCH   1  22
TORSDOF 12
ENDMDL
MODEL 4
REMARK VINA RESULT: -8.827113956      3.940     11.210
REMARK  12 active torsions:
REMARK  status: ('A' for Active; 'I' for Inactive)
REMARK    1  A    between atoms: C3_5  and  N2_6 
REMARK    2  A    between atoms: N4_17  and  C9_18 
REMARK    3  A    between atoms: C9_18  and  C10_19 
REMARK    4  A    between atoms: C10_19  and  C11_20 
REMARK    5  A    between atoms: C11_20  and  C12_21 
REMARK    6  A    between atoms: C12_21  and  C13_22 
REMARK       I    between atoms: C13_22  and  N5_24 
REMARK    7  A    between atoms: N5_24  and  C14_26 
REMARK    8  A    between atoms: C14_26  and  C15_27 
REMARK    9  A    between atoms: C15_27  and  C16_28 
REMARK   10  A    between atoms: C16_28  and  N6_29 
REMARK   11  A    between atoms: N7_32  and  C19_33 
REMARK   12  A    between atoms: C19_33  and  C20_34 
ROOT
HETATM    1  C12 UNL     1      20.777  27.064  18.080  1.00  0.00     0.103 C 
ENDROOT
BRANCH   1   2
HETATM    2  C11 UNL     1      19.905  26.567  16.990  1.00  0.00     0.011 C 
BRANCH   2   3
HETATM    3  C10 UNL     1      20.108  27.197  15.656  1.00  0.00     0.021 C 
BRANCH   3   4
HETATM    4  C9  UNL     1      21.360  26.643  14.982  1.00  0.00     0.134 C 
BRANCH   4   5
HETATM    5  N4  UNL     1      22.405  27.660  15.007  1.00  0.00    -0.299 N 
HETATM    6  C4  UNL     1      23.526  27.411  15.707  1.00  0.00     0.138 A 
HETATM    7  N3  UNL     1      23.686  26.244  16.379  1.00  0.00    -0.176 N 
HETATM    8  C5  UNL     1      24.534  28.363  15.743  1.00  0.00     0.032 A 
HETATM    9  C3  UNL     1      24.837  26.057  17.065  1.00  0.00     0.677 A 
ATOM     10  H3  UNL     1      22.960  25.529  16.368  1.00  0.00     0.186 HD
HETATM   11  N1  UNL     1      25.822  26.962  17.114  1.00  0.00    -0.195 N 
HETATM   12  C2  UNL     1      25.696  28.144  16.451  1.00  0.00     0.036 A 
ATOM     13  H1  UNL     1      26.668  26.766  17.648  1.00  0.00     0.184 HD
HETATM   14  C1  UNL     1      26.789  29.136  16.515  1.00  0.00     0.070 C 
HETATM   15  C6  UNL     1      24.388  29.566  15.063  1.00  0.00     0.022 A 
HETATM   16  C7  UNL     1      23.242  29.799  14.359  1.00  0.00     0.075 A 
HETATM   17  C8  UNL     1      22.262  28.824  14.349  1.00  0.00     0.249 A 
HETATM   18  O1  UNL     1      21.200  29.010  13.713  1.00  0.00    -0.268 OA
BRANCH   9  19
HETATM   19  N2  UNL     1      24.999  24.961  17.706  1.00  0.00    -0.234 N 
ATOM     20  H22 UNL     1      25.540  24.974  18.570  1.00  0.00     0.174 HD
ATOM     21  H21 UNL     1      24.579  24.116  17.320  1.00  0.00     0.174 HD
ENDBRANCH   9  19
ENDBRANCH   4   5
ENDBRANCH   3   4
ENDBRANCH   2   3
ENDBRANCH   1   2
BRANCH   1  22
HETATM   22  C13 UNL     1      21.080  26.081  19.128  1.00  0.00     0.217 C 
HETATM   23  O2  UNL     1      22.222  25.560  19.179  1.00  0.00    -0.274 OA
HETATM   24  N5  UNL     1      20.054  25.755  20.054  1.00  0.00    -0.361 N 
ATOM     25  H5  UNL     1      19.142  26.204  19.963  1.00  0.00     0.162 HD
BRANCH  24  26
HETATM   26  C14 UNL     1      20.264  24.816  21.111  1.00  0.00     0.124 C 
BRANCH  26  27
HETATM   27  C15 UNL     1      19.436  23.581  20.926  1.00  0.00     0.039 C 
BRANCH  27  28
HETATM   28  C16 UNL     1      18.049  23.900  20.356  1.00  0.00     0.118 C 
BRANCH  28  29
HETATM   29  N6  UNL     1      18.039  23.726  18.945  1.00  0.00    -0.409 N 
HETATM   30  C17 UNL     1      18.215  22.385  18.473  1.00  0.00     0.136 C 
HETATM   31  C18 UNL     1      16.988  21.989  17.660  1.00  0.00     0.136 C 
HETATM   32  N7  UNL     1      15.839  22.509  18.299  1.00  0.00    -0.409 N 
HETATM   33  C27 UNL     1      15.718  23.928  18.303  1.00  0.00     0.136 C 
HETATM   34  C28 UNL     1      17.104  24.529  18.252  1.00  0.00     0.136 C 
BRANCH  32  35
HETATM   35  C19 UNL     1      14.618  21.799  18.153  1.00  0.00     0.121 C 
BRANCH  35  36
HETATM   36  C20 UNL     1      14.652  20.378  18.673  1.00  0.00     0.003 C 
HETATM   37  C21 UNL     1      14.931  20.457  20.143  1.00  0.00     0.006 C 
HETATM   38  C22 UNL     1      14.573  19.247  20.930  1.00  0.00     0.005 C 
HETATM   39  C23 UNL     1      13.547  18.359  20.297  1.00  0.00    -0.019 C 
HETATM   40  C24 UNL     1      12.778  17.600  21.351  1.00  0.00     0.010 C 
HETATM   41  C25 UNL     1      12.576  19.202  19.498  1.00  0.00     0.005 C 
HETATM   42  C26 UNL     1      13.326  19.752  18.327  1.00  0.00     0.006 C 
ENDBRANCH  35  36
ENDBRANCH  32  35
ENDBRANCH  28  29
ENDBRANCH  27  28
ENDBRANCH  26  27
ENDBRANCH  24  26
ENDBRANCH   1  22
TORSDOF 12
ENDMDL
MODEL 5
REMARK VINA RESULT: -8.826065714      2.763      8.818
REMARK  12 active torsions:
REMARK  status: ('A' for Active; 'I' for Inactive)
REMARK    1  A    between atoms: C3_5  and  N2_6 
REMARK    2  A    between atoms: N4_17  and  C9_18 
REMARK    3  A    between atoms: C9_18  and  C10_19 
REMARK    4  A    between atoms: C10_19  and  C11_20 
REMARK    5  A    between atoms: C11_20  and  C12_21 
REMARK    6  A    between atoms: C12_21  and  C13_22 
REMARK       I    between atoms: C13_22  and  N5_24 
REMARK    7  A    between atoms: N5_24  and  C14_26 
REMARK    8  A    between atoms: C14_26  and  C15_27 
REMARK    9  A    between atoms: C15_27  and  C16_28 
REMARK   10  A    between atoms: C16_28  and  N6_29 
REMARK   11  A    between atoms: N7_32  and  C19_33 
REMARK   12  A    between atoms: C19_33  and  C20_34 
ROOT
HETATM    1  C12 UNL     1      17.556  24.321  15.078  1.00  0.00     0.103 C 
ENDROOT
BRANCH   1   2
HETATM    2  C11 UNL     1      17.658  25.087  16.342  1.00  0.00     0.011 C 
BRANCH   2   3
HETATM    3  C10 UNL     1      18.951  25.791  16.573  1.00  0.00     0.021 C 
BRANCH   3   4
HETATM    4  C9  UNL     1      19.972  25.408  15.506  1.00  0.00     0.134 C 
BRANCH   4   5
HETATM    5  N4  UNL     1      20.676  26.608  15.068  1.00  0.00    -0.299 N 
HETATM    6  C4  UNL     1      21.824  26.939  15.684  1.00  0.00     0.138 A 
HETATM    7  N3  UNL     1      22.321  26.181  16.693  1.00  0.00    -0.176 N 
HETATM    8  C5  UNL     1      22.512  28.074  15.282  1.00  0.00     0.032 A 
HETATM    9  C3  UNL     1      23.480  26.569  17.272  1.00  0.00     0.677 A 
ATOM     10  H3  UNL     1      21.834  25.341  17.006  1.00  0.00     0.186 HD
HETATM   11  N1  UNL     1      24.159  27.662  16.900  1.00  0.00    -0.195 N 
HETATM   12  C2  UNL     1      23.691  28.446  15.891  1.00  0.00     0.036 A 
ATOM     13  H1  UNL     1      25.029  27.906  17.374  1.00  0.00     0.184 HD
HETATM   14  C1  UNL     1      24.448  29.650  15.493  1.00  0.00     0.070 C 
HETATM   15  C6  UNL     1      22.019  28.865  14.252  1.00  0.00     0.022 A 
HETATM   16  C7  UNL     1      20.851  28.512  13.640  1.00  0.00     0.075 A 
HETATM   17  C8  UNL     1      20.197  27.373  14.071  1.00  0.00     0.249 A 
HETATM   18  O1  UNL     1      19.124  27.025  13.530  1.00  0.00    -0.268 OA
BRANCH   9  19
HETATM   19  N2  UNL     1      23.957  25.864  18.227  1.00  0.00    -0.234 N 
ATOM     20  H22 UNL     1      24.931  25.565  18.175  1.00  0.00     0.174 HD
ATOM     21  H21 UNL     1      23.338  25.629  19.002  1.00  0.00     0.174 HD
ENDBRANCH   9  19
ENDBRANCH   4   5
ENDBRANCH   3   4
ENDBRANCH   2   3
ENDBRANCH   1   2
BRANCH   1  22
HETATM   22  C13 UNL     1      16.878  23.024  15.192  1.00  0.00     0.217 C 
HETATM   23  O2  UNL     1      17.455  22.071  15.771  1.00  0.00    -0.274 OA
HETATM   24  N5  UNL     1      15.577  22.899  14.635  1.00  0.00    -0.361 N 
ATOM     25  H5  UNL     1      15.157  23.705  14.171  1.00  0.00     0.162 HD
BRANCH  24  26
HETATM   26  C14 UNL     1      14.841  21.676  14.708  1.00  0.00     0.124 C 
BRANCH  26  27
HETATM   27  C15 UNL     1      13.779  21.732  15.764  1.00  0.00     0.039 C 
BRANCH  27  28
HETATM   28  C16 UNL     1      13.890  20.566  16.752  1.00  0.00     0.118 C 
BRANCH  28  29
HETATM   29  N6  UNL     1      13.734  21.028  18.087  1.00  0.00    -0.409 N 
HETATM   30  C17 UNL     1      14.099  20.107  19.121  1.00  0.00     0.136 C 
HETATM   31  C18 UNL     1      15.213  20.728  19.957  1.00  0.00     0.136 C 
HETATM   32  N7  UNL     1      16.098  21.409  19.090  1.00  0.00    -0.409 N 
HETATM   33  C27 UNL     1      15.569  22.561  18.440  1.00  0.00     0.136 C 
HETATM   34  C28 UNL     1      14.076  22.385  18.291  1.00  0.00     0.136 C 
BRANCH  32  35
HETATM   35  C19 UNL     1      17.462  21.505  19.473  1.00  0.00     0.121 C 
BRANCH  35  36
HETATM   36  C20 UNL     1      18.028  22.908  19.427  1.00  0.00     0.003 C 
HETATM   37  C21 UNL     1      18.145  23.379  20.845  1.00  0.00     0.006 C 
HETATM   38  C22 UNL     1      19.071  24.522  21.067  1.00  0.00     0.005 C 
HETATM   39  C23 UNL     1      20.118  24.704  20.013  1.00  0.00    -0.019 C 
HETATM   40  C24 UNL     1      21.343  25.369  20.590  1.00  0.00     0.010 C 
HETATM   41  C25 UNL     1      20.513  23.353  19.457  1.00  0.00     0.005 C 
HETATM   42  C26 UNL     1      19.340  22.828  18.691  1.00  0.00     0.006 C 
ENDBRANCH  35  36
ENDBRANCH  32  35
ENDBRANCH  28  29
ENDBRANCH  27  28
ENDBRANCH  26  27
ENDBRANCH  24  26
ENDBRANCH   1  22
TORSDOF 12
ENDMDL
