MODEL 1
REMARK VINA RESULT: -8.692825717      0.000      0.000
REMARK  12 active torsions:
REMARK  status: ('A' for Active; 'I' for Inactive)
REMARK    1  A    between atoms: C4_6  and  C5_7 
REMARK       I    between atoms: C5_7  and  N2_9 
REMARK    2  A    between atoms: N2_9  and  C6_11 
REMARK    3  A    between atoms: C6_11  and  C7_12 
REMARK    4  A    between atoms: C7_12  and  N3_13 
REMARK    5  A    between atoms: N3_13  and  C8_15 
REMARK    6  A    between atoms: C8_15  and  C9_17 
REMARK    7  A    between atoms: C11_21  and  N5_22 
REMARK    8  A    between atoms: N6_26  and  C14_27 
REMARK    9  A    between atoms: C14_27  and  C15_28 
REMARK   10  A    between atoms: C15_28  and  C16_29 
REMARK   11  A    between atoms: C16_29  and  C17_30 
REMARK   12  A    between atoms: C17_30  and  C18_31 
ROOT
HETATM    1  C9  UNL     1      21.965  24.786  19.367  1.00  0.00     0.102 A 
HETATM    2  C10 UNL     1      21.364  26.020  19.088  1.00  0.00     0.139 A 
HETATM    3  N4  UNL     1      20.132  25.811  18.604  1.00  0.00    -0.199 N 
ATOM      4  H4  UNL     1      19.471  26.533  18.319  1.00  0.00     0.183 HD
HETATM    5  C11 UNL     1      19.916  24.466  18.560  1.00  0.00     0.683 A 
HETATM    6  N7  UNL     1      21.039  23.874  19.027  1.00  0.00    -0.187 N 
ATOM      7  H7  UNL     1      21.166  22.865  19.110  1.00  0.00     0.184 HD
ENDROOT
BRANCH   1   8
HETATM    8  C8  UNL     1      23.304  24.590  19.905  1.00  0.00     0.125 C 
HETATM    9  S1  UNL     1      23.505  24.418  21.512  1.00  0.00    -0.058 SA
BRANCH   8  10
HETATM   10  N3  UNL     1      24.448  24.533  19.070  1.00  0.00    -0.378 N 
ATOM     11  H3  UNL     1      24.670  23.646  18.618  1.00  0.00     0.160 HD
BRANCH  10  12
HETATM   12  C7  UNL     1      25.311  25.653  18.824  1.00  0.00     0.140 C 
BRANCH  12  13
HETATM   13  C6  UNL     1      25.419  26.054  17.381  1.00  0.00     0.142 C 
BRANCH  13  14
HETATM   14  N2  UNL     1      24.132  25.873  16.751  1.00  0.00    -0.354 N 
HETATM   15  C5  UNL     1      23.385  26.960  16.268  1.00  0.00     0.269 C 
HETATM   16  O1  UNL     1      23.895  28.127  16.412  1.00  0.00    -0.266 OA
ATOM     17  H2  UNL     1      23.756  24.930  16.655  1.00  0.00     0.162 HD
BRANCH  15  18
HETATM   18  C4  UNL     1      22.083  26.852  15.625  1.00  0.00     0.116 A 
HETATM   19  N1  UNL     1      21.598  25.643  15.227  1.00  0.00    -0.359 N 
HETATM   20  C3  UNL     1      20.396  25.542  14.633  1.00  0.00     0.113 A 
ATOM     21  H1  UNL     1      22.155  24.803  15.381  1.00  0.00     0.165 HD
HETATM   22  C2  UNL     1      19.600  26.642  14.398  1.00  0.00     0.020 A 
HETATM   23  C1  UNL     1      18.268  26.528  13.739  1.00  0.00     0.069 C 
HETATM   24  N8  UNL     1      20.068  27.840  14.786  1.00  0.00    -0.366 N 
HETATM   25  C24 UNL     1      21.291  27.949  15.391  1.00  0.00     0.123 A 
ATOM     26  H8  UNL     1      19.506  28.677  14.629  1.00  0.00     0.165 HD
ENDBRANCH  15  18
ENDBRANCH  13  14
ENDBRANCH  12  13
ENDBRANCH  10  12
ENDBRANCH   8  10
ENDBRANCH   1   8
BRANCH   5  27
HETATM   27  N5  UNL     1      18.738  23.839  18.108  1.00  0.00    -0.183 N 
HETATM   28  C12 UNL     1      18.533  23.251  16.781  1.00  0.00     0.246 C 
HETATM   29  C13 UNL     1      17.505  22.181  16.981  1.00  0.00     0.240 C 
HETATM   30  O2  UNL     1      17.057  21.444  16.095  1.00  0.00    -0.271 OA
HETATM   31  N6  UNL     1      17.179  22.218  18.399  1.00  0.00    -0.324 N 
HETATM   32  C21 UNL     1      17.451  23.607  18.782  1.00  0.00     0.120 C 
HETATM   33  C22 UNL     1      17.553  23.719  20.260  1.00  0.00     0.064 C 
HETATM   34  C23 UNL     1      16.419  24.526  18.236  1.00  0.00     0.064 C 
BRANCH  31  35
HETATM   35  C14 UNL     1      16.786  21.073  19.135  1.00  0.00     0.128 C 
BRANCH  35  36
HETATM   36  C15 UNL     1      15.328  20.833  19.322  1.00  0.00     0.020 C 
BRANCH  36  37
HETATM   37  C16 UNL     1      14.945  19.727  20.242  1.00  0.00     0.002 C 
BRANCH  37  38
HETATM   38  C17 UNL     1      14.552  18.466  19.447  1.00  0.00     0.004 C 
BRANCH  38  39
HETATM   39  C18 UNL     1      13.243  17.899  19.891  1.00  0.00    -0.023 C 
HETATM   40  C19 UNL     1      13.058  18.062  21.390  1.00  0.00     0.009 C 
HETATM   41  C20 UNL     1      12.116  18.684  19.240  1.00  0.00     0.009 C 
ENDBRANCH  38  39
ENDBRANCH  37  38
ENDBRANCH  36  37
ENDBRANCH  35  36
ENDBRANCH  31  35
ENDBRANCH   5  27
TORSDOF 12
ENDMDL
MODEL 2
REMARK VINA RESULT: -8.649551034      5.246     11.556
REMARK  12 active torsions:
REMARK  status: ('A' for Active; 'I' for Inactive)
REMARK    1  A    between atoms: C4_6  and  C5_7 
REMARK       I    between atoms: C5_7  and  N2_9 
REMARK    2  A    between atoms: N2_9  and  C6_11 
REMARK    3  A    between atoms: C6_11  and  C7_12 
REMARK    4  A    between atoms: C7_12  and  N3_13 
REMARK    5  A    between atoms: N3_13  and  C8_15 
REMARK    6  A    between atoms: C8_15  and  C9_17 
REMARK    7  A    between atoms: C11_21  and  N5_22 
REMARK    8  A    between atoms: N6_26  and  C14_27 
REMARK    9  A    between atoms: C14_27  and  C15_28 
REMARK   10  A    between atoms: C15_28  and  C16_29 
REMARK   11  A    between atoms: C16_29  and  C17_30 
REMARK   12  A    between atoms: C17_30  and  C18_31 
ROOT
HETATM    1  C9  UNL     1      11.949  19.787  14.421  1.00  0.00     0.102 A 
HETATM    2  C10 UNL     1      11.337  21.042  14.541  1.00  0.00     0.139 A 
HETATM    3  N4  UNL     1      12.022  21.784  15.423  1.00  0.00    -0.199 N 
ATOM      4  H4  UNL     1      11.799  22.739  15.701  1.00  0.00     0.183 HD
HETATM    5  C11 UNL     1      13.067  21.040  15.883  1.00  0.00     0.683 A 
HETATM    6  N7  UNL     1      12.997  19.841  15.260  1.00  0.00    -0.187 N 
ATOM      7  H7  UNL     1      13.656  19.076  15.408  1.00  0.00     0.184 HD
ENDROOT
BRANCH   1   8
HETATM    8  C8  UNL     1      11.504  18.698  13.563  1.00  0.00     0.125 C 
HETATM    9  S1  UNL     1      10.939  19.032  12.072  1.00  0.00    -0.058 SA
BRANCH   8  10
HETATM   10  N3  UNL     1      11.553  17.345  13.980  1.00  0.00    -0.378 N 
ATOM     11  H3  UNL     1      12.459  16.954  14.240  1.00  0.00     0.160 HD
BRANCH  10  12
HETATM   12  C7  UNL     1      10.401  16.493  14.059  1.00  0.00     0.140 C 
BRANCH  12  13
HETATM   13  C6  UNL     1      10.017  16.088  15.454  1.00  0.00     0.142 C 
BRANCH  13  14
HETATM   14  N2  UNL     1      10.804  16.853  16.392  1.00  0.00    -0.354 N 
HETATM   15  C5  UNL     1      10.961  16.449  17.729  1.00  0.00     0.269 C 
HETATM   16  O1  UNL     1      10.373  15.367  18.083  1.00  0.00    -0.266 OA
ATOM     17  H2  UNL     1      11.258  17.709  16.076  1.00  0.00     0.162 HD
BRANCH  15  18
HETATM   18  C4  UNL     1      11.738  17.168  18.728  1.00  0.00     0.116 A 
HETATM   19  N1  UNL     1      13.085  16.993  18.827  1.00  0.00    -0.359 N 
HETATM   20  C3  UNL     1      13.803  17.657  19.749  1.00  0.00     0.113 A 
ATOM     21  H1  UNL     1      13.555  16.347  18.193  1.00  0.00     0.165 HD
HETATM   22  C2  UNL     1      13.223  18.540  20.633  1.00  0.00     0.020 A 
HETATM   23  C1  UNL     1      14.020  19.276  21.654  1.00  0.00     0.069 C 
HETATM   24  N8  UNL     1      11.894  18.723  20.545  1.00  0.00    -0.366 N 
HETATM   25  C24 UNL     1      11.159  18.049  19.608  1.00  0.00     0.123 A 
ATOM     26  H8  UNL     1      11.430  19.369  21.182  1.00  0.00     0.165 HD
ENDBRANCH  15  18
ENDBRANCH  13  14
ENDBRANCH  12  13
ENDBRANCH  10  12
ENDBRANCH   8  10
ENDBRANCH   1   8
BRANCH   5  27
HETATM   27  N5  UNL     1      14.022  21.463  16.828  1.00  0.00    -0.183 N 
HETATM   28  C12 UNL     1      14.279  20.839  18.128  1.00  0.00     0.246 C 
HETATM   29  C13 UNL     1      15.710  21.150  18.437  1.00  0.00     0.240 C 
HETATM   30  O2  UNL     1      16.317  20.795  19.454  1.00  0.00    -0.271 OA
HETATM   31  N6  UNL     1      16.188  21.933  17.307  1.00  0.00    -0.324 N 
HETATM   32  C21 UNL     1      14.977  22.582  16.795  1.00  0.00     0.120 C 
HETATM   33  C22 UNL     1      15.212  23.093  15.420  1.00  0.00     0.064 C 
HETATM   34  C23 UNL     1      14.523  23.663  17.708  1.00  0.00     0.064 C 
BRANCH  31  35
HETATM   35  C14 UNL     1      17.532  21.906  16.858  1.00  0.00     0.128 C 
BRANCH  35  36
HETATM   36  C15 UNL     1      18.467  22.931  17.400  1.00  0.00     0.020 C 
BRANCH  36  37
HETATM   37  C16 UNL     1      19.270  23.695  16.407  1.00  0.00     0.002 C 
BRANCH  37  38
HETATM   38  C17 UNL     1      18.377  24.670  15.614  1.00  0.00     0.004 C 
BRANCH  38  39
HETATM   39  C18 UNL     1      18.919  24.957  14.251  1.00  0.00    -0.023 C 
HETATM   40  C19 UNL     1      18.643  26.394  13.846  1.00  0.00     0.009 C 
HETATM   41  C20 UNL     1      20.431  24.809  14.277  1.00  0.00     0.009 C 
ENDBRANCH  38  39
ENDBRANCH  37  38
ENDBRANCH  36  37
ENDBRANCH  35  36
ENDBRANCH  31  35
ENDBRANCH   5  27
TORSDOF 12
ENDMDL
MODEL 3
REMARK VINA RESULT: -8.585446861      1.401      2.042
REMARK  12 active torsions:
REMARK  status: ('A' for Active; 'I' for Inactive)
REMARK    1  A    between atoms: C4_6  and  C5_7 
REMARK       I    between atoms: C5_7  and  N2_9 
REMARK    2  A    between atoms: N2_9  and  C6_11 
REMARK    3  A    between atoms: C6_11  and  C7_12 
REMARK    4  A    between atoms: C7_12  and  N3_13 
REMARK    5  A    between atoms: N3_13  and  C8_15 
REMARK    6  A    between atoms: C8_15  and  C9_17 
REMARK    7  A    between atoms: C11_21  and  N5_22 
REMARK    8  A    between atoms: N6_26  and  C14_27 
REMARK    9  A    between atoms: C14_27  and  C15_28 
REMARK   10  A    between atoms: C15_28  and  C16_29 
REMARK   11  A    between atoms: C16_29  and  C17_30 
REMARK   12  A    between atoms: C17_30  and  C18_31 
ROOT
HETATM    1  C9  UNL     1      23.450  24.290  20.005  1.00  0.00     0.102 A 
HETATM    2  C10 UNL     1      22.899  24.406  21.288  1.00  0.00     0.139 A 
HETATM    3  N4  UNL     1      21.562  24.444  21.191  1.00  0.00    -0.199 N 
ATOM      4  H4  UNL     1      20.908  24.525  21.970  1.00  0.00     0.183 HD
HETATM    5  C11 UNL     1      21.229  24.356  19.872  1.00  0.00     0.683 A 
HETATM    6  N7  UNL     1      22.389  24.264  19.182  1.00  0.00    -0.187 N 
ATOM      7  H7  UNL     1      22.450  24.184  18.167  1.00  0.00     0.184 HD
ENDROOT
BRANCH   1   8
HETATM    8  C8  UNL     1      24.870  24.220  19.689  1.00  0.00     0.125 C 
HETATM    9  S1  UNL     1      25.966  24.558  20.845  1.00  0.00    -0.058 SA
BRANCH   8  10
HETATM   10  N3  UNL     1      25.335  23.855  18.401  1.00  0.00    -0.378 N 
ATOM     11  H3  UNL     1      25.112  22.921  18.055  1.00  0.00     0.160 HD
BRANCH  10  12
HETATM   12  C7  UNL     1      26.103  24.724  17.556  1.00  0.00     0.140 C 
BRANCH  12  13
HETATM   13  C6  UNL     1      25.558  26.119  17.434  1.00  0.00     0.142 C 
BRANCH  13  14
HETATM   14  N2  UNL     1      24.417  26.096  16.551  1.00  0.00    -0.354 N 
HETATM   15  C5  UNL     1      23.176  26.635  16.931  1.00  0.00     0.269 C 
HETATM   16  O1  UNL     1      23.099  27.149  18.102  1.00  0.00    -0.266 OA
ATOM     17  H2  UNL     1      24.514  25.678  15.626  1.00  0.00     0.162 HD
BRANCH  15  18
HETATM   18  C4  UNL     1      21.984  26.646  16.095  1.00  0.00     0.116 A 
HETATM   19  N1  UNL     1      21.593  25.530  15.420  1.00  0.00    -0.359 N 
HETATM   20  C3  UNL     1      20.492  25.539  14.648  1.00  0.00     0.113 A 
ATOM     21  H1  UNL     1      22.142  24.674  15.502  1.00  0.00     0.165 HD
HETATM   22  C2  UNL     1      19.711  26.664  14.499  1.00  0.00     0.020 A 
HETATM   23  C1  UNL     1      18.492  26.673  13.642  1.00  0.00     0.069 C 
HETATM   24  N8  UNL     1      20.087  27.772  15.160  1.00  0.00    -0.366 N 
HETATM   25  C24 UNL     1      21.207  27.768  15.947  1.00  0.00     0.123 A 
ATOM     26  H8  UNL     1      19.533  28.624  15.074  1.00  0.00     0.165 HD
ENDBRANCH  15  18
ENDBRANCH  13  14
ENDBRANCH  12  13
ENDBRANCH  10  12
ENDBRANCH   8  10
ENDBRANCH   1   8
BRANCH   5  27
HETATM   27  N5  UNL     1      19.919  24.365  19.355  1.00  0.00    -0.183 N 
HETATM   28  C12 UNL     1      19.357  25.375  18.454  1.00  0.00     0.246 C 
HETATM   29  C13 UNL     1      18.291  24.662  17.681  1.00  0.00     0.240 C 
HETATM   30  O2  UNL     1      17.578  25.171  16.809  1.00  0.00    -0.271 OA
HETATM   31  N6  UNL     1      18.299  23.296  18.182  1.00  0.00    -0.324 N 
HETATM   32  C21 UNL     1      18.800  23.430  19.553  1.00  0.00     0.120 C 
HETATM   33  C22 UNL     1      19.244  22.109  20.068  1.00  0.00     0.064 C 
HETATM   34  C23 UNL     1      17.777  24.044  20.439  1.00  0.00     0.064 C 
BRANCH  31  35
HETATM   35  C14 UNL     1      17.960  22.175  17.384  1.00  0.00     0.128 C 
BRANCH  35  36
HETATM   36  C15 UNL     1      16.562  21.667  17.457  1.00  0.00     0.020 C 
BRANCH  36  37
HETATM   37  C16 UNL     1      16.342  20.425  18.248  1.00  0.00     0.002 C 
BRANCH  37  38
HETATM   38  C17 UNL     1      15.543  20.728  19.530  1.00  0.00     0.004 C 
BRANCH  38  39
HETATM   39  C18 UNL     1      14.451  19.735  19.767  1.00  0.00    -0.023 C 
HETATM   40  C19 UNL     1      14.761  18.410  19.093  1.00  0.00     0.009 C 
HETATM   41  C20 UNL     1      14.364  19.440  21.256  1.00  0.00     0.009 C 
ENDBRANCH  38  39
ENDBRANCH  37  38
ENDBRANCH  36  37
ENDBRANCH  35  36
ENDBRANCH  31  35
ENDBRANCH   5  27
TORSDOF 12
ENDMDL
MODEL 4
REMARK VINA RESULT: -8.480469914      1.741      2.289
REMARK  12 active torsions:
REMARK  status: ('A' for Active; 'I' for Inactive)
REMARK    1  A    between atoms: C4_6  and  C5_7 
REMARK       I    between atoms: C5_7  and  N2_9 
REMARK    2  A    between atoms: N2_9  and  C6_11 
REMARK    3  A    between atoms: C6_11  and  C7_12 
REMARK    4  A    between atoms: C7_12  and  N3_13 
REMARK    5  A    between atoms: N3_13  and  C8_15 
REMARK    6  A    between atoms: C8_15  and  C9_17 
REMARK    7  A    between atoms: C11_21  and  N5_22 
REMARK    8  A    between atoms: N6_26  and  C14_27 
REMARK    9  A    between atoms: C14_27  and  C15_28 
REMARK   10  A    between atoms: C15_28  and  C16_29 
REMARK   11  A    between atoms: C16_29  and  C17_30 
REMARK   12  A    between atoms: C17_30  and  C18_31 
ROOT
HETATM    1  C9  UNL     1      21.960  24.479  19.994  1.00  0.00     0.102 A 
HETATM    2  C10 UNL     1      21.137  25.145  20.910  1.00  0.00     0.139 A 
HETATM    3  N4  UNL     1      19.928  25.332  20.361  1.00  0.00    -0.199 N 
ATOM      4  H4  UNL     1      19.133  25.791  20.807  1.00  0.00     0.183 HD
HETATM    5  C11 UNL     1      19.945  24.803  19.105  1.00  0.00     0.683 A 
HETATM    6  N7  UNL     1      21.184  24.295  18.913  1.00  0.00    -0.187 N 
ATOM      7  H7  UNL     1      21.490  23.832  18.056  1.00  0.00     0.184 HD
ENDROOT
BRANCH   1   8
HETATM    8  C8  UNL     1      23.348  24.095  20.214  1.00  0.00     0.125 C 
HETATM    9  S1  UNL     1      24.060  24.445  21.636  1.00  0.00    -0.058 SA
BRANCH   8  10
HETATM   10  N3  UNL     1      24.104  23.413  19.228  1.00  0.00    -0.378 N 
ATOM     11  H3  UNL     1      23.679  22.610  18.766  1.00  0.00     0.160 HD
BRANCH  10  12
HETATM   12  C7  UNL     1      25.434  23.790  18.843  1.00  0.00     0.140 C 
BRANCH  12  13
HETATM   13  C6  UNL     1      25.564  25.199  18.340  1.00  0.00     0.142 C 
BRANCH  13  14
HETATM   14  N2  UNL     1      24.584  25.414  17.303  1.00  0.00    -0.354 N 
HETATM   15  C5  UNL     1      23.693  26.500  17.340  1.00  0.00     0.269 C 
HETATM   16  O1  UNL     1      23.786  27.295  18.340  1.00  0.00    -0.266 OA
ATOM     17  H2  UNL     1      24.537  24.760  16.522  1.00  0.00     0.162 HD
BRANCH  15  18
HETATM   18  C4  UNL     1      22.680  26.778  16.331  1.00  0.00     0.116 A 
HETATM   19  N1  UNL     1      22.132  25.771  15.596  1.00  0.00    -0.359 N 
HETATM   20  C3  UNL     1      21.196  26.027  14.664  1.00  0.00     0.113 A 
ATOM     21  H1  UNL     1      22.435  24.810  15.753  1.00  0.00     0.165 HD
HETATM   22  C2  UNL     1      20.747  27.303  14.407  1.00  0.00     0.020 A 
HETATM   23  C1  UNL     1      19.711  27.584  13.374  1.00  0.00     0.069 C 
HETATM   24  N8  UNL     1      21.281  28.305  15.127  1.00  0.00    -0.366 N 
HETATM   25  C24 UNL     1      22.234  28.050  16.076  1.00  0.00     0.123 A 
ATOM     26  H8  UNL     1      20.973  29.264  14.964  1.00  0.00     0.165 HD
ENDBRANCH  15  18
ENDBRANCH  13  14
ENDBRANCH  12  13
ENDBRANCH  10  12
ENDBRANCH   8  10
ENDBRANCH   1   8
BRANCH   5  27
HETATM   27  N5  UNL     1      18.865  24.801  18.201  1.00  0.00    -0.183 N 
HETATM   28  C12 UNL     1      18.720  25.676  17.034  1.00  0.00     0.246 C 
HETATM   29  C13 UNL     1      17.870  24.907  16.071  1.00  0.00     0.240 C 
HETATM   30  O2  UNL     1      17.517  25.302  14.953  1.00  0.00    -0.271 OA
HETATM   31  N6  UNL     1      17.574  23.647  16.737  1.00  0.00    -0.324 N 
HETATM   32  C21 UNL     1      17.644  23.982  18.163  1.00  0.00     0.120 C 
HETATM   33  C22 UNL     1      17.761  22.743  18.974  1.00  0.00     0.064 C 
HETATM   34  C23 UNL     1      16.473  24.797  18.579  1.00  0.00     0.064 C 
BRANCH  31  35
HETATM   35  C14 UNL     1      17.375  22.429  16.040  1.00  0.00     0.128 C 
BRANCH  35  36
HETATM   36  C15 UNL     1      16.044  22.197  15.413  1.00  0.00     0.020 C 
BRANCH  36  37
HETATM   37  C16 UNL     1      14.854  22.340  16.297  1.00  0.00     0.002 C 
BRANCH  37  38
HETATM   38  C17 UNL     1      14.187  20.973  16.542  1.00  0.00     0.004 C 
BRANCH  38  39
HETATM   39  C18 UNL     1      14.132  20.618  17.993  1.00  0.00    -0.023 C 
HETATM   40  C19 UNL     1      15.317  19.754  18.389  1.00  0.00     0.009 C 
HETATM   41  C20 UNL     1      14.244  21.890  18.818  1.00  0.00     0.009 C 
ENDBRANCH  38  39
ENDBRANCH  37  38
ENDBRANCH  36  37
ENDBRANCH  35  36
ENDBRANCH  31  35
ENDBRANCH   5  27
TORSDOF 12
ENDMDL
MODEL 5
REMARK VINA RESULT: -8.425585476      2.324      2.939
REMARK  12 active torsions:
REMARK  status: ('A' for Active; 'I' for Inactive)
REMARK    1  A    between atoms: C4_6  and  C5_7 
REMARK       I    between atoms: C5_7  and  N2_9 
REMARK    2  A    between atoms: N2_9  and  C6_11 
REMARK    3  A    between atoms: C6_11  and  C7_12 
REMARK    4  A    between atoms: C7_12  and  N3_13 
REMARK    5  A    between atoms: N3_13  and  C8_15 
REMARK    6  A    between atoms: C8_15  and  C9_17 
REMARK    7  A    between atoms: C11_21  and  N5_22 
REMARK    8  A    between atoms: N6_26  and  C14_27 
REMARK    9  A    between atoms: C14_27  and  C15_28 
REMARK   10  A    between atoms: C15_28  and  C16_29 
REMARK   11  A    between atoms: C16_29  and  C17_30 
REMARK   12  A    between atoms: C17_30  and  C18_31 
ROOT
HETATM    1  C9  UNL     1      23.191  24.152  20.132  1.00  0.00     0.102 A 
HETATM    2  C10 UNL     1      22.517  24.463  21.319  1.00  0.00     0.139 A 
HETATM    3  N4  UNL     1      21.199  24.508  21.078  1.00  0.00    -0.199 N 
ATOM      4  H4  UNL     1      20.472  24.712  21.764  1.00  0.00     0.183 HD
HETATM    5  C11 UNL     1      20.999  24.234  19.757  1.00  0.00     0.683 A 
HETATM    6  N7  UNL     1      22.219  24.023  19.214  1.00  0.00    -0.187 N 
ATOM      7  H7  UNL     1      22.381  23.795  18.232  1.00  0.00     0.184 HD
ENDROOT
BRANCH   1   8
HETATM    8  C8  UNL     1      24.633  24.012  19.980  1.00  0.00     0.125 C 
HETATM    9  S1  UNL     1      25.606  24.321  21.249  1.00  0.00    -0.058 SA
BRANCH   8  10
HETATM   10  N3  UNL     1      25.224  23.606  18.757  1.00  0.00    -0.378 N 
ATOM     11  H3  UNL     1      25.072  22.646  18.446  1.00  0.00     0.160 HD
BRANCH  10  12
HETATM   12  C7  UNL     1      26.023  24.466  17.933  1.00  0.00     0.140 C 
BRANCH  12  13
HETATM   13  C6  UNL     1      25.529  25.882  17.845  1.00  0.00     0.142 C 
BRANCH  13  14
HETATM   14  N2  UNL     1      24.455  25.940  16.883  1.00  0.00    -0.354 N 
HETATM   15  C5  UNL     1      23.227  26.556  17.179  1.00  0.00     0.269 C 
HETATM   16  O1  UNL     1      23.101  27.068  18.347  1.00  0.00    -0.266 OA
ATOM     17  H2  UNL     1      24.590  25.521  15.963  1.00  0.00     0.162 HD
BRANCH  15  18
HETATM   18  C4  UNL     1      22.102  26.650  16.261  1.00  0.00     0.116 A 
HETATM   19  N1  UNL     1      21.752  25.596  15.473  1.00  0.00    -0.359 N 
HETATM   20  C3  UNL     1      20.713  25.681  14.624  1.00  0.00     0.113 A 
ATOM     21  H1  UNL     1      22.287  24.729  15.527  1.00  0.00     0.165 HD
HETATM   22  C2  UNL     1      19.955  26.826  14.507  1.00  0.00     0.020 A 
HETATM   23  C1  UNL     1      18.803  26.919  13.566  1.00  0.00     0.069 C 
HETATM   24  N8  UNL     1      20.290  27.873  15.280  1.00  0.00    -0.366 N 
HETATM   25  C24 UNL     1      21.347  27.791  16.145  1.00  0.00     0.123 A 
ATOM     26  H8  UNL     1      19.752  28.737  15.220  1.00  0.00     0.165 HD
ENDBRANCH  15  18
ENDBRANCH  13  14
ENDBRANCH  12  13
ENDBRANCH  10  12
ENDBRANCH   8  10
ENDBRANCH   1   8
BRANCH   5  27
HETATM   27  N5  UNL     1      19.749  24.188  19.109  1.00  0.00    -0.183 N 
HETATM   28  C12 UNL     1      19.258  25.153  18.121  1.00  0.00     0.246 C 
HETATM   29  C13 UNL     1      18.295  24.386  17.269  1.00  0.00     0.240 C 
HETATM   30  O2  UNL     1      17.662  24.845  16.312  1.00  0.00    -0.271 OA
HETATM   31  N6  UNL     1      18.285  23.037  17.816  1.00  0.00    -0.324 N 
HETATM   32  C21 UNL     1      18.639  23.229  19.225  1.00  0.00     0.120 C 
HETATM   33  C22 UNL     1      19.061  21.939  19.829  1.00  0.00     0.064 C 
HETATM   34  C23 UNL     1      17.516  23.842  19.981  1.00  0.00     0.064 C 
BRANCH  31  35
HETATM   35  C14 UNL     1      18.058  21.882  17.027  1.00  0.00     0.128 C 
BRANCH  35  36
HETATM   36  C15 UNL     1      16.794  21.127  17.247  1.00  0.00     0.020 C 
BRANCH  36  37
HETATM   37  C16 UNL     1      15.528  21.823  16.884  1.00  0.00     0.002 C 
BRANCH  37  38
HETATM   38  C17 UNL     1      15.530  22.218  15.395  1.00  0.00     0.004 C 
BRANCH  38  39
HETATM   39  C18 UNL     1      14.446  21.535  14.623  1.00  0.00    -0.023 C 
HETATM   40  C19 UNL     1      13.139  22.302  14.724  1.00  0.00     0.009 C 
HETATM   41  C20 UNL     1      14.817  21.528  13.149  1.00  0.00     0.009 C 
ENDBRANCH  38  39
ENDBRANCH  37  38
ENDBRANCH  36  37
ENDBRANCH  35  36
ENDBRANCH  31  35
ENDBRANCH   5  27
TORSDOF 12
ENDMDL
