MODEL 1
REMARK VINA RESULT: -8.406234800      0.000      0.000
REMARK  14 active torsions:
REMARK  status: ('A' for Active; 'I' for Inactive)
REMARK    1  A    between atoms: C2_2  and  O1_3 
REMARK    2  A    between atoms: C2_2  and  C3_5 
REMARK    3  A    between atoms: C3_5  and  C4_6 
REMARK    4  A    between atoms: C4_6  and  C5_7 
REMARK    5  A    between atoms: C5_7  and  O2_8 
REMARK    6  A    between atoms: O2_8  and  C6_9 
REMARK    7  A    between atoms: C10_14  and  N1_15 
REMARK       I    between atoms: N1_15  and  C11_17 
REMARK       I    between atoms: C11_17  and  N2_19 
REMARK    8  A    between atoms: N2_19  and  C12_21 
REMARK    9  A    between atoms: C12_21  and  C13_22 
REMARK   10  A    between atoms: C15_24  and  C16_25 
REMARK   11  A    between atoms: C16_25  and  C17_26 
REMARK   12  A    between atoms: C17_26  and  C19_28 
REMARK   13  A    between atoms: C19_28  and  C21_30 
REMARK   14  A    between atoms: C25_35  and  O6_37 
ROOT
HETATM    1  C6  UNL     1     -20.278 -17.553 -18.555  1.00  0.00     0.334 C 
HETATM    2  O3  UNL     1     -19.878 -18.165 -17.367  1.00  0.00    -0.342 OA
HETATM    3  C7  UNL     1     -18.614 -18.673 -17.393  1.00  0.00     0.081 C 
HETATM    4  C8  UNL     1     -18.391 -19.337 -16.026  1.00  0.00     0.048 C 
HETATM    5  C9  UNL     1     -17.616 -17.513 -17.432  1.00  0.00     0.048 C 
HETATM    6  C10 UNL     1     -18.310 -19.633 -18.480  1.00  0.00     0.161 C 
HETATM    7  C25 UNL     1     -19.066 -19.422 -19.754  1.00  0.00     0.142 C 
HETATM    8  C26 UNL     1     -18.287 -18.671 -20.807  1.00  0.00     0.057 C 
HETATM    9  C27 UNL     1     -20.350 -18.684 -19.551  1.00  0.00     0.217 C 
HETATM   10  O7  UNL     1     -21.373 -18.965 -20.135  1.00  0.00    -0.289 OA
ENDROOT
BRANCH   6  11
HETATM   11  N1  UNL     1     -16.872 -19.693 -18.662  1.00  0.00    -0.332 N 
HETATM   12  C11 UNL     1     -16.123 -20.878 -18.449  1.00  0.00     0.316 C 
HETATM   13  O4  UNL     1     -16.751 -21.903 -18.090  1.00  0.00    -0.247 OA
HETATM   14  N2  UNL     1     -14.717 -20.907 -18.633  1.00  0.00    -0.339 N 
ATOM     15  H2  UNL     1     -14.209 -20.072 -18.924  1.00  0.00     0.164 HD
ATOM     16  H1  UNL     1     -16.380 -18.849 -18.955  1.00  0.00     0.164 HD
BRANCH  14  17
HETATM   17  C12 UNL     1     -14.034 -22.134 -18.400  1.00  0.00     0.157 C 
BRANCH  17  18
HETATM   18  C13 UNL     1     -13.291 -22.262 -17.144  1.00  0.00    -0.070 C 
HETATM   19  C14 UNL     1     -11.968 -23.000 -17.245  1.00  0.00     0.044 C 
HETATM   20  C15 UNL     1     -13.667 -21.805 -15.960  1.00  0.00    -0.022 C 
BRANCH  20  21
HETATM   21  C16 UNL     1     -12.851 -21.977 -14.729  1.00  0.00     0.032 C 
BRANCH  21  22
HETATM   22  C17 UNL     1     -13.444 -22.962 -13.755  1.00  0.00    -0.009 C 
HETATM   23  C18 UNL     1     -14.212 -22.281 -12.667  1.00  0.00     0.011 C 
BRANCH  22  24
HETATM   24  C19 UNL     1     -12.298 -23.800 -13.203  1.00  0.00     0.017 C 
HETATM   25  C20 UNL     1     -11.121 -22.984 -12.780  1.00  0.00     0.013 C 
BRANCH  24  26
HETATM   26  C21 UNL     1     -12.752 -24.735 -12.104  1.00  0.00     0.160 A 
HETATM   27  O5  UNL     1     -13.622 -25.778 -12.449  1.00  0.00    -0.370 OA
HETATM   28  C22 UNL     1     -12.244 -26.110 -12.090  1.00  0.00     0.081 A 
HETATM   29  C23 UNL     1     -11.427 -26.640 -13.232  1.00  0.00     0.048 C 
HETATM   30  C24 UNL     1     -12.155 -26.842 -10.745  1.00  0.00     0.048 C 
ENDBRANCH  24  26
ENDBRANCH  22  24
ENDBRANCH  21  22
ENDBRANCH  20  21
ENDBRANCH  17  18
ENDBRANCH  14  17
ENDBRANCH   6  11
BRANCH   7  31
HETATM   31  O6  UNL     1     -19.425 -20.658 -20.336  1.00  0.00    -0.380 OA
ATOM     32  H6  UNL     1     -19.936 -20.524 -21.126  1.00  0.00     0.211 HD
ENDBRANCH   7  31
BRANCH   1  33
HETATM   33  O2  UNL     1     -21.504 -16.940 -18.394  1.00  0.00    -0.350 OA
BRANCH  33  34
HETATM   34  C5  UNL     1     -21.251 -15.714 -17.722  1.00  0.00     0.199 C 
BRANCH  34  35
HETATM   35  C4  UNL     1     -22.012 -15.602 -16.494  1.00  0.00     0.002 C 
BRANCH  35  36
HETATM   36  C3  UNL     1     -21.593 -15.552 -15.292  1.00  0.00     0.029 C 
BRANCH  36  37
HETATM   37  C2  UNL     1     -20.322 -15.247 -14.743  1.00  0.00     0.039 C 
HETATM   38  C1  UNL     1     -19.336 -16.190 -14.198  1.00  0.00     0.076 C 
BRANCH  37  39
HETATM   39  O1  UNL     1     -19.932 -13.997 -14.692  1.00  0.00    -0.365 OA
ATOM     40  H1  UNL     1     -20.128 -13.508 -15.483  1.00  0.00     0.217 HD
ENDBRANCH  37  39
ENDBRANCH  36  37
ENDBRANCH  35  36
ENDBRANCH  34  35
ENDBRANCH  33  34
ENDBRANCH   1  33
TORSDOF 14
ENDMDL
MODEL 2
REMARK VINA RESULT: -8.404002824      3.175     10.423
REMARK  14 active torsions:
REMARK  status: ('A' for Active; 'I' for Inactive)
REMARK    1  A    between atoms: C2_2  and  O1_3 
REMARK    2  A    between atoms: C2_2  and  C3_5 
REMARK    3  A    between atoms: C3_5  and  C4_6 
REMARK    4  A    between atoms: C4_6  and  C5_7 
REMARK    5  A    between atoms: C5_7  and  O2_8 
REMARK    6  A    between atoms: O2_8  and  C6_9 
REMARK    7  A    between atoms: C10_14  and  N1_15 
REMARK       I    between atoms: N1_15  and  C11_17 
REMARK       I    between atoms: C11_17  and  N2_19 
REMARK    8  A    between atoms: N2_19  and  C12_21 
REMARK    9  A    between atoms: C12_21  and  C13_22 
REMARK   10  A    between atoms: C15_24  and  C16_25 
REMARK   11  A    between atoms: C16_25  and  C17_26 
REMARK   12  A    between atoms: C17_26  and  C19_28 
REMARK   13  A    between atoms: C19_28  and  C21_30 
REMARK   14  A    between atoms: C25_35  and  O6_37 
ROOT
HETATM    1  C6  UNL     1     -13.880 -21.929 -17.778  1.00  0.00     0.334 C 
HETATM    2  O3  UNL     1     -15.252 -22.053 -18.000  1.00  0.00    -0.342 OA
HETATM    3  C7  UNL     1     -15.977 -20.946 -17.679  1.00  0.00     0.081 C 
HETATM    4  C8  UNL     1     -17.446 -21.302 -17.948  1.00  0.00     0.048 C 
HETATM    5  C9  UNL     1     -15.654 -19.836 -18.683  1.00  0.00     0.048 C 
HETATM    6  C10 UNL     1     -15.822 -20.432 -16.298  1.00  0.00     0.161 C 
HETATM    7  C25 UNL     1     -14.484 -20.668 -15.670  1.00  0.00     0.142 C 
HETATM    8  C26 UNL     1     -13.561 -19.476 -15.738  1.00  0.00     0.057 C 
HETATM    9  C27 UNL     1     -13.754 -21.822 -16.278  1.00  0.00     0.217 C 
HETATM   10  O7  UNL     1     -13.110 -22.614 -15.626  1.00  0.00    -0.289 OA
ENDROOT
BRANCH   6  11
HETATM   11  N1  UNL     1     -16.242 -19.044 -16.265  1.00  0.00    -0.332 N 
HETATM   12  C11 UNL     1     -16.891 -18.467 -15.144  1.00  0.00     0.316 C 
HETATM   13  O4  UNL     1     -17.100 -19.206 -14.153  1.00  0.00    -0.247 OA
HETATM   14  N2  UNL     1     -17.292 -17.107 -15.141  1.00  0.00    -0.339 N 
ATOM     15  H2  UNL     1     -17.122 -16.508 -15.950  1.00  0.00     0.164 HD
ATOM     16  H1  UNL     1     -16.062 -18.459 -17.081  1.00  0.00     0.164 HD
BRANCH  14  17
HETATM   17  C12 UNL     1     -17.938 -16.599 -13.980  1.00  0.00     0.157 C 
BRANCH  17  18
HETATM   18  C13 UNL     1     -19.389 -16.405 -14.048  1.00  0.00    -0.070 C 
HETATM   19  C14 UNL     1     -20.218 -17.676 -13.985  1.00  0.00     0.044 C 
HETATM   20  C15 UNL     1     -20.020 -15.248 -14.162  1.00  0.00    -0.022 C 
BRANCH  20  21
HETATM   21  C16 UNL     1     -21.502 -15.136 -14.225  1.00  0.00     0.032 C 
BRANCH  21  22
HETATM   22  C17 UNL     1     -22.012 -14.731 -15.584  1.00  0.00    -0.009 C 
HETATM   23  C18 UNL     1     -23.214 -13.846 -15.490  1.00  0.00     0.011 C 
BRANCH  22  24
HETATM   24  C19 UNL     1     -22.306 -16.010 -16.357  1.00  0.00     0.017 C 
HETATM   25  C20 UNL     1     -23.715 -16.479 -16.207  1.00  0.00     0.013 C 
BRANCH  24  26
HETATM   26  C21 UNL     1     -21.906 -15.901 -17.812  1.00  0.00     0.160 A 
HETATM   27  O5  UNL     1     -20.680 -15.294 -18.111  1.00  0.00    -0.370 OA
HETATM   28  C22 UNL     1     -20.808 -16.737 -18.309  1.00  0.00     0.081 A 
HETATM   29  C23 UNL     1     -19.979 -17.558 -17.365  1.00  0.00     0.048 C 
HETATM   30  C24 UNL     1     -20.798 -17.123 -19.793  1.00  0.00     0.048 C 
ENDBRANCH  24  26
ENDBRANCH  22  24
ENDBRANCH  21  22
ENDBRANCH  20  21
ENDBRANCH  17  18
ENDBRANCH  14  17
ENDBRANCH   6  11
BRANCH   7  31
HETATM   31  O6  UNL     1     -14.621 -20.983 -14.300  1.00  0.00    -0.380 OA
ATOM     32  H6  UNL     1     -14.183 -21.801 -14.096  1.00  0.00     0.211 HD
ENDBRANCH   7  31
BRANCH   1  33
HETATM   33  O2  UNL     1     -13.209 -23.033 -18.265  1.00  0.00    -0.350 OA
BRANCH  33  34
HETATM   34  C5  UNL     1     -13.833 -23.365 -19.498  1.00  0.00     0.199 C 
BRANCH  34  35
HETATM   35  C4  UNL     1     -13.472 -24.695 -19.946  1.00  0.00     0.002 C 
BRANCH  35  36
HETATM   36  C3  UNL     1     -12.687 -25.540 -19.405  1.00  0.00     0.029 C 
BRANCH  36  37
HETATM   37  C2  UNL     1     -11.293 -25.509 -19.148  1.00  0.00     0.039 C 
HETATM   38  C1  UNL     1     -10.565 -26.219 -18.089  1.00  0.00     0.076 C 
BRANCH  37  39
HETATM   39  O1  UNL     1     -10.520 -24.778 -19.912  1.00  0.00    -0.365 OA
ATOM     40  H1  UNL     1     -10.636 -24.949 -20.840  1.00  0.00     0.217 HD
ENDBRANCH  37  39
ENDBRANCH  36  37
ENDBRANCH  35  36
ENDBRANCH  34  35
ENDBRANCH  33  34
ENDBRANCH   1  33
TORSDOF 14
ENDMDL
MODEL 3
REMARK VINA RESULT: -8.393004630      0.920      1.389
REMARK  14 active torsions:
REMARK  status: ('A' for Active; 'I' for Inactive)
REMARK    1  A    between atoms: C2_2  and  O1_3 
REMARK    2  A    between atoms: C2_2  and  C3_5 
REMARK    3  A    between atoms: C3_5  and  C4_6 
REMARK    4  A    between atoms: C4_6  and  C5_7 
REMARK    5  A    between atoms: C5_7  and  O2_8 
REMARK    6  A    between atoms: O2_8  and  C6_9 
REMARK    7  A    between atoms: C10_14  and  N1_15 
REMARK       I    between atoms: N1_15  and  C11_17 
REMARK       I    between atoms: C11_17  and  N2_19 
REMARK    8  A    between atoms: N2_19  and  C12_21 
REMARK    9  A    between atoms: C12_21  and  C13_22 
REMARK   10  A    between atoms: C15_24  and  C16_25 
REMARK   11  A    between atoms: C16_25  and  C17_26 
REMARK   12  A    between atoms: C17_26  and  C19_28 
REMARK   13  A    between atoms: C19_28  and  C21_30 
REMARK   14  A    between atoms: C25_35  and  O6_37 
ROOT
HETATM    1  C6  UNL     1     -20.428 -17.399 -18.511  1.00  0.00     0.334 C 
HETATM    2  O3  UNL     1     -20.054 -18.043 -17.331  1.00  0.00    -0.342 OA
HETATM    3  C7  UNL     1     -18.793 -18.555 -17.345  1.00  0.00     0.081 C 
HETATM    4  C8  UNL     1     -18.599 -19.254 -15.991  1.00  0.00     0.048 C 
HETATM    5  C9  UNL     1     -17.789 -17.399 -17.335  1.00  0.00     0.048 C 
HETATM    6  C10 UNL     1     -18.471 -19.489 -18.449  1.00  0.00     0.161 C 
HETATM    7  C25 UNL     1     -19.200 -19.242 -19.732  1.00  0.00     0.142 C 
HETATM    8  C26 UNL     1     -18.398 -18.469 -20.751  1.00  0.00     0.057 C 
HETATM    9  C27 UNL     1     -20.485 -18.505 -19.537  1.00  0.00     0.217 C 
HETATM   10  O7  UNL     1     -21.498 -18.767 -20.147  1.00  0.00    -0.289 OA
ENDROOT
BRANCH   6  11
HETATM   11  N1  UNL     1     -17.029 -19.551 -18.604  1.00  0.00    -0.332 N 
HETATM   12  C11 UNL     1     -16.331 -20.772 -18.782  1.00  0.00     0.316 C 
HETATM   13  O4  UNL     1     -17.007 -21.827 -18.804  1.00  0.00    -0.247 OA
HETATM   14  N2  UNL     1     -14.920 -20.802 -18.929  1.00  0.00    -0.339 N 
ATOM     15  H2  UNL     1     -14.372 -19.942 -18.910  1.00  0.00     0.164 HD
ATOM     16  H1  UNL     1     -16.497 -18.681 -18.584  1.00  0.00     0.164 HD
BRANCH  14  17
HETATM   17  C12 UNL     1     -14.291 -22.066 -19.104  1.00  0.00     0.157 C 
BRANCH  17  18
HETATM   18  C13 UNL     1     -13.373 -22.511 -18.052  1.00  0.00    -0.070 C 
HETATM   19  C14 UNL     1     -12.289 -23.475 -18.501  1.00  0.00     0.044 C 
HETATM   20  C15 UNL     1     -13.412 -22.158 -16.777  1.00  0.00    -0.022 C 
BRANCH  20  21
HETATM   21  C16 UNL     1     -12.439 -22.657 -15.769  1.00  0.00     0.032 C 
BRANCH  21  22
HETATM   22  C17 UNL     1     -12.305 -21.752 -14.572  1.00  0.00    -0.009 C 
HETATM   23  C18 UNL     1     -10.959 -21.102 -14.508  1.00  0.00     0.011 C 
BRANCH  22  24
HETATM   24  C19 UNL     1     -12.590 -22.592 -13.334  1.00  0.00     0.017 C 
HETATM   25  C20 UNL     1     -14.002 -22.486 -12.860  1.00  0.00     0.013 C 
BRANCH  24  26
HETATM   26  C21 UNL     1     -12.169 -24.034 -13.515  1.00  0.00     0.160 A 
HETATM   27  O5  UNL     1     -10.826 -24.292 -13.816  1.00  0.00    -0.370 OA
HETATM   28  C22 UNL     1     -11.326 -24.659 -12.492  1.00  0.00     0.081 A 
HETATM   29  C23 UNL     1     -10.743 -23.845 -11.373  1.00  0.00     0.048 C 
HETATM   30  C24 UNL     1     -11.410 -26.178 -12.303  1.00  0.00     0.048 C 
ENDBRANCH  24  26
ENDBRANCH  22  24
ENDBRANCH  21  22
ENDBRANCH  20  21
ENDBRANCH  17  18
ENDBRANCH  14  17
ENDBRANCH   6  11
BRANCH   7  31
HETATM   31  O6  UNL     1     -19.552 -20.462 -20.352  1.00  0.00    -0.380 OA
ATOM     32  H6  UNL     1     -20.495 -20.580 -20.354  1.00  0.00     0.211 HD
ENDBRANCH   7  31
BRANCH   1  33
HETATM   33  O2  UNL     1     -21.655 -16.785 -18.359  1.00  0.00    -0.350 OA
BRANCH  33  34
HETATM   34  C5  UNL     1     -21.402 -15.543 -17.716  1.00  0.00     0.199 C 
BRANCH  34  35
HETATM   35  C4  UNL     1     -22.058 -15.457 -16.427  1.00  0.00     0.002 C 
BRANCH  35  36
HETATM   36  C3  UNL     1     -21.568 -15.631 -15.263  1.00  0.00     0.029 C 
BRANCH  36  37
HETATM   37  C2  UNL     1     -20.318 -15.275 -14.699  1.00  0.00     0.039 C 
HETATM   38  C1  UNL     1     -19.322 -16.171 -14.096  1.00  0.00     0.076 C 
BRANCH  37  39
HETATM   39  O1  UNL     1     -19.960 -14.015 -14.687  1.00  0.00    -0.365 OA
ATOM     40  H1  UNL     1     -19.496 -13.747 -15.472  1.00  0.00     0.217 HD
ENDBRANCH  37  39
ENDBRANCH  36  37
ENDBRANCH  35  36
ENDBRANCH  34  35
ENDBRANCH  33  34
ENDBRANCH   1  33
TORSDOF 14
ENDMDL
MODEL 4
REMARK VINA RESULT: -8.332528068      3.518     11.137
REMARK  14 active torsions:
REMARK  status: ('A' for Active; 'I' for Inactive)
REMARK    1  A    between atoms: C2_2  and  O1_3 
REMARK    2  A    between atoms: C2_2  and  C3_5 
REMARK    3  A    between atoms: C3_5  and  C4_6 
REMARK    4  A    between atoms: C4_6  and  C5_7 
REMARK    5  A    between atoms: C5_7  and  O2_8 
REMARK    6  A    between atoms: O2_8  and  C6_9 
REMARK    7  A    between atoms: C10_14  and  N1_15 
REMARK       I    between atoms: N1_15  and  C11_17 
REMARK       I    between atoms: C11_17  and  N2_19 
REMARK    8  A    between atoms: N2_19  and  C12_21 
REMARK    9  A    between atoms: C12_21  and  C13_22 
REMARK   10  A    between atoms: C15_24  and  C16_25 
REMARK   11  A    between atoms: C16_25  and  C17_26 
REMARK   12  A    between atoms: C17_26  and  C19_28 
REMARK   13  A    between atoms: C19_28  and  C21_30 
REMARK   14  A    between atoms: C25_35  and  O6_37 
ROOT
HETATM    1  C6  UNL     1     -14.355 -21.931 -17.530  1.00  0.00     0.334 C 
HETATM    2  O3  UNL     1     -13.596 -21.066 -16.741  1.00  0.00    -0.342 OA
HETATM    3  C7  UNL     1     -14.318 -20.346 -15.838  1.00  0.00     0.081 C 
HETATM    4  C8  UNL     1     -13.315 -19.435 -15.115  1.00  0.00     0.048 C 
HETATM    5  C9  UNL     1     -14.837 -21.294 -14.753  1.00  0.00     0.048 C 
HETATM    6  C10 UNL     1     -15.439 -19.542 -16.379  1.00  0.00     0.161 C 
HETATM    7  C25 UNL     1     -16.097 -20.098 -17.603  1.00  0.00     0.142 C 
HETATM    8  C26 UNL     1     -17.370 -20.858 -17.318  1.00  0.00     0.057 C 
HETATM    9  C27 UNL     1     -15.204 -21.014 -18.376  1.00  0.00     0.217 C 
HETATM   10  O7  UNL     1     -15.158 -21.026 -19.586  1.00  0.00    -0.289 OA
ENDROOT
BRANCH   6  11
HETATM   11  N1  UNL     1     -16.367 -19.250 -15.302  1.00  0.00    -0.332 N 
HETATM   12  C11 UNL     1     -17.203 -18.105 -15.303  1.00  0.00     0.316 C 
HETATM   13  O4  UNL     1     -17.120 -17.328 -16.284  1.00  0.00    -0.247 OA
HETATM   14  N2  UNL     1     -18.101 -17.844 -14.236  1.00  0.00    -0.339 N 
ATOM     15  H2  UNL     1     -18.165 -18.478 -13.439  1.00  0.00     0.164 HD
ATOM     16  H1  UNL     1     -16.421 -19.895 -14.514  1.00  0.00     0.164 HD
BRANCH  14  17
HETATM   17  C12 UNL     1     -18.907 -16.675 -14.308  1.00  0.00     0.157 C 
BRANCH  17  18
HETATM   18  C13 UNL     1     -20.293 -16.840 -14.756  1.00  0.00    -0.070 C 
HETATM   19  C14 UNL     1     -20.836 -18.257 -14.680  1.00  0.00     0.044 C 
HETATM   20  C15 UNL     1     -21.086 -15.887 -15.216  1.00  0.00    -0.022 C 
BRANCH  20  21
HETATM   21  C16 UNL     1     -22.486 -16.138 -15.654  1.00  0.00     0.032 C 
BRANCH  21  22
HETATM   22  C17 UNL     1     -23.239 -14.878 -15.995  1.00  0.00    -0.009 C 
HETATM   23  C18 UNL     1     -23.057 -13.819 -14.955  1.00  0.00     0.011 C 
BRANCH  22  24
HETATM   24  C19 UNL     1     -24.703 -15.259 -16.171  1.00  0.00     0.017 C 
HETATM   25  C20 UNL     1     -25.621 -14.506 -15.266  1.00  0.00     0.013 C 
BRANCH  24  26
HETATM   26  C21 UNL     1     -25.146 -15.169 -17.615  1.00  0.00     0.160 A 
HETATM   27  O5  UNL     1     -24.424 -15.899 -18.568  1.00  0.00    -0.370 OA
HETATM   28  C22 UNL     1     -25.778 -16.337 -18.235  1.00  0.00     0.081 A 
HETATM   29  C23 UNL     1     -25.834 -17.654 -17.516  1.00  0.00     0.048 C 
HETATM   30  C24 UNL     1     -26.764 -16.109 -19.387  1.00  0.00     0.048 C 
ENDBRANCH  24  26
ENDBRANCH  22  24
ENDBRANCH  21  22
ENDBRANCH  20  21
ENDBRANCH  17  18
ENDBRANCH  14  17
ENDBRANCH   6  11
BRANCH   7  31
HETATM   31  O6  UNL     1     -16.448 -19.062 -18.498  1.00  0.00    -0.380 OA
ATOM     32  H6  UNL     1     -16.935 -19.406 -19.237  1.00  0.00     0.211 HD
ENDBRANCH   7  31
BRANCH   1  33
HETATM   33  O2  UNL     1     -13.535 -22.722 -18.308  1.00  0.00    -0.350 OA
BRANCH  33  34
HETATM   34  C5  UNL     1     -14.235 -23.942 -18.510  1.00  0.00     0.199 C 
BRANCH  34  35
HETATM   35  C4  UNL     1     -13.937 -24.530 -19.800  1.00  0.00     0.002 C 
BRANCH  35  36
HETATM   36  C3  UNL     1     -12.869 -25.105 -20.193  1.00  0.00     0.029 C 
BRANCH  36  37
HETATM   37  C2  UNL     1     -11.597 -25.257 -19.587  1.00  0.00     0.039 C 
HETATM   38  C1  UNL     1     -11.259 -26.066 -18.409  1.00  0.00     0.076 C 
BRANCH  37  39
HETATM   39  O1  UNL     1     -10.568 -24.624 -20.096  1.00  0.00    -0.365 OA
ATOM     40  H1  UNL     1     -10.208 -25.048 -20.866  1.00  0.00     0.217 HD
ENDBRANCH  37  39
ENDBRANCH  36  37
ENDBRANCH  35  36
ENDBRANCH  34  35
ENDBRANCH  33  34
ENDBRANCH   1  33
TORSDOF 14
ENDMDL
MODEL 5
REMARK VINA RESULT: -8.275268627      1.877      9.915
REMARK  14 active torsions:
REMARK  status: ('A' for Active; 'I' for Inactive)
REMARK    1  A    between atoms: C2_2  and  O1_3 
REMARK    2  A    between atoms: C2_2  and  C3_5 
REMARK    3  A    between atoms: C3_5  and  C4_6 
REMARK    4  A    between atoms: C4_6  and  C5_7 
REMARK    5  A    between atoms: C5_7  and  O2_8 
REMARK    6  A    between atoms: O2_8  and  C6_9 
REMARK    7  A    between atoms: C10_14  and  N1_15 
REMARK       I    between atoms: N1_15  and  C11_17 
REMARK       I    between atoms: C11_17  and  N2_19 
REMARK    8  A    between atoms: N2_19  and  C12_21 
REMARK    9  A    between atoms: C12_21  and  C13_22 
REMARK   10  A    between atoms: C15_24  and  C16_25 
REMARK   11  A    between atoms: C16_25  and  C17_26 
REMARK   12  A    between atoms: C17_26  and  C19_28 
REMARK   13  A    between atoms: C19_28  and  C21_30 
REMARK   14  A    between atoms: C25_35  and  O6_37 
ROOT
HETATM    1  C6  UNL     1     -13.601 -21.498 -15.329  1.00  0.00     0.334 C 
HETATM    2  O3  UNL     1     -13.783 -22.551 -16.225  1.00  0.00    -0.342 OA
HETATM    3  C7  UNL     1     -14.413 -22.206 -17.382  1.00  0.00     0.081 C 
HETATM    4  C8  UNL     1     -14.554 -23.501 -18.196  1.00  0.00     0.048 C 
HETATM    5  C9  UNL     1     -13.475 -21.324 -18.211  1.00  0.00     0.048 C 
HETATM    6  C10 UNL     1     -15.731 -21.545 -17.244  1.00  0.00     0.161 C 
HETATM    7  C25 UNL     1     -15.910 -20.718 -16.010  1.00  0.00     0.142 C 
HETATM    8  C26 UNL     1     -15.694 -19.240 -16.231  1.00  0.00     0.057 C 
HETATM    9  C27 UNL     1     -15.001 -21.131 -14.898  1.00  0.00     0.217 C 
HETATM   10  O7  UNL     1     -15.350 -21.173 -13.739  1.00  0.00    -0.289 OA
ENDROOT
BRANCH   6  11
HETATM   11  N1  UNL     1     -16.026 -20.828 -18.471  1.00  0.00    -0.332 N 
HETATM   12  C11 UNL     1     -17.350 -20.616 -18.933  1.00  0.00     0.316 C 
HETATM   13  O4  UNL     1     -18.286 -21.074 -18.237  1.00  0.00    -0.247 OA
HETATM   14  N2  UNL     1     -17.608 -19.913 -20.138  1.00  0.00    -0.339 N 
ATOM     15  H2  UNL     1     -16.843 -19.542 -20.703  1.00  0.00     0.164 HD
ATOM     16  H1  UNL     1     -15.250 -20.463 -19.022  1.00  0.00     0.164 HD
BRANCH  14  17
HETATM   17  C12 UNL     1     -18.962 -19.739 -20.537  1.00  0.00     0.157 C 
BRANCH  17  18
HETATM   18  C13 UNL     1     -19.706 -18.633 -19.927  1.00  0.00    -0.070 C 
HETATM   19  C14 UNL     1     -20.355 -17.670 -20.905  1.00  0.00     0.044 C 
HETATM   20  C15 UNL     1     -19.851 -18.407 -18.631  1.00  0.00    -0.022 C 
BRANCH  20  21
HETATM   21  C16 UNL     1     -20.625 -17.257 -18.091  1.00  0.00     0.032 C 
BRANCH  21  22
HETATM   22  C17 UNL     1     -19.943 -16.569 -16.937  1.00  0.00    -0.009 C 
HETATM   23  C18 UNL     1     -18.571 -17.113 -16.693  1.00  0.00     0.011 C 
BRANCH  22  24
HETATM   24  C19 UNL     1     -20.843 -16.728 -15.719  1.00  0.00     0.017 C 
HETATM   25  C20 UNL     1     -20.487 -17.905 -14.872  1.00  0.00     0.013 C 
BRANCH  24  26
HETATM   26  C21 UNL     1     -20.925 -15.458 -14.901  1.00  0.00     0.160 A 
HETATM   27  O5  UNL     1     -20.758 -14.238 -15.569  1.00  0.00    -0.370 OA
HETATM   28  C22 UNL     1     -22.088 -14.582 -15.070  1.00  0.00     0.081 A 
HETATM   29  C23 UNL     1     -23.096 -14.842 -16.152  1.00  0.00     0.048 C 
HETATM   30  C24 UNL     1     -22.515 -13.698 -13.892  1.00  0.00     0.048 C 
ENDBRANCH  24  26
ENDBRANCH  22  24
ENDBRANCH  21  22
ENDBRANCH  20  21
ENDBRANCH  17  18
ENDBRANCH  14  17
ENDBRANCH   6  11
BRANCH   7  31
HETATM   31  O6  UNL     1     -17.221 -20.852 -15.500  1.00  0.00    -0.380 OA
ATOM     32  H6  UNL     1     -17.609 -20.000 -15.338  1.00  0.00     0.211 HD
ENDBRANCH   7  31
BRANCH   1  33
HETATM   33  O2  UNL     1     -12.830 -21.899 -14.258  1.00  0.00    -0.350 OA
BRANCH  33  34
HETATM   34  C5  UNL     1     -12.012 -22.960 -14.732  1.00  0.00     0.199 C 
BRANCH  34  35
HETATM   35  C4  UNL     1     -11.806 -23.979 -13.723  1.00  0.00     0.002 C 
BRANCH  35  36
HETATM   36  C3  UNL     1     -12.583 -24.346 -12.782  1.00  0.00     0.029 C 
BRANCH  36  37
HETATM   37  C2  UNL     1     -12.915 -25.626 -12.273  1.00  0.00     0.039 C 
HETATM   38  C1  UNL     1     -11.993 -26.717 -11.931  1.00  0.00     0.076 C 
BRANCH  37  39
HETATM   39  O1  UNL     1     -14.174 -25.923 -12.064  1.00  0.00    -0.365 OA
ATOM     40  H1  UNL     1     -14.626 -26.221 -12.845  1.00  0.00     0.217 HD
ENDBRANCH  37  39
ENDBRANCH  36  37
ENDBRANCH  35  36
ENDBRANCH  34  35
ENDBRANCH  33  34
ENDBRANCH   1  33
TORSDOF 14
ENDMDL
