MODEL 1
REMARK VINA RESULT: -8.267827803      0.000      0.000
REMARK  13 active torsions:
REMARK  status: ('A' for Active; 'I' for Inactive)
REMARK    1  A    between atoms: C2_2  and  C3_3 
REMARK    2  A    between atoms: C3_3  and  C4_4 
REMARK    3  A    between atoms: C4_4  and  C5_5 
REMARK    4  A    between atoms: C5_5  and  C6_6 
REMARK    5  A    between atoms: N1_9  and  C9_10 
REMARK    6  A    between atoms: C9_10  and  C10_11 
REMARK    7  A    between atoms: C10_11  and  N2_12 
REMARK    8  A    between atoms: C17_24  and  N5_25 
REMARK    9  A    between atoms: N5_25  and  C18_27 
REMARK   10  A    between atoms: C18_27  and  C19_28 
REMARK   11  A    between atoms: C19_28  and  C20_29 
REMARK   12  A    between atoms: C20_29  and  C21_30 
REMARK   13  A    between atoms: C21_30  and  N6_31 
ROOT
HETATM    1  N2  UNL     1     -16.468 -19.669 -18.681  1.00  0.00    -0.321 N 
HETATM    2  C11 UNL     1     -15.972 -20.840 -19.065  1.00  0.00     0.102 A 
HETATM    3  C12 UNL     1     -14.944 -21.530 -18.448  1.00  0.00    -0.034 A 
HETATM    4  C13 UNL     1     -14.578 -22.807 -19.069  1.00  0.00     0.050 C 
HETATM    5  C14 UNL     1     -14.343 -20.966 -17.302  1.00  0.00     0.011 A 
HETATM    6  C15 UNL     1     -14.872 -19.758 -16.924  1.00  0.00     0.087 A 
HETATM    7  S1  UNL     1     -13.966 -19.330 -15.544  1.00  0.00    -0.064 SA
HETATM    8  C16 UNL     1     -12.939 -20.677 -15.465  1.00  0.00     0.104 A 
HETATM    9  N3  UNL     1     -11.912 -21.239 -14.755  1.00  0.00    -0.291 N 
ATOM     10  H3  UNL     1     -11.458 -20.853 -13.926  1.00  0.00     0.187 HD
HETATM   11  N4  UNL     1     -11.632 -22.357 -15.344  1.00  0.00    -0.284 N 
ATOM     12  H4  UNL     1     -10.905 -23.006 -15.043  1.00  0.00     0.188 HD
HETATM   13  C17 UNL     1     -12.448 -22.549 -16.427  1.00  0.00     0.130 A 
HETATM   14  C22 UNL     1     -13.321 -21.451 -16.530  1.00  0.00     0.056 A 
HETATM   15  C23 UNL     1     -15.921 -19.110 -17.598  1.00  0.00     0.265 A 
HETATM   16  O1  UNL     1     -16.294 -18.008 -17.128  1.00  0.00    -0.266 OA
ENDROOT
BRANCH   1  17
HETATM   17  C10 UNL     1     -17.540 -18.987 -19.364  1.00  0.00     0.152 C 
BRANCH  17  18
HETATM   18  C9  UNL     1     -18.891 -19.522 -18.937  1.00  0.00     0.152 C 
BRANCH  18  19
HETATM   19  N1  UNL     1     -19.599 -18.560 -18.119  1.00  0.00    -0.322 N 
HETATM   20  C7  UNL     1     -19.617 -18.538 -16.774  1.00  0.00     0.033 A 
HETATM   21  C6  UNL     1     -20.396 -17.467 -16.395  1.00  0.00     0.036 A 
HETATM   22  C8  UNL     1     -18.918 -19.500 -15.857  1.00  0.00     0.070 C 
HETATM   23  N8  UNL     1     -20.850 -16.842 -17.492  1.00  0.00    -0.327 N 
HETATM   24  C24 UNL     1     -20.348 -17.532 -18.558  1.00  0.00     0.197 A 
HETATM   25  C25 UNL     1     -21.701 -15.668 -17.610  1.00  0.00     0.159 C 
HETATM   26  N7  UNL     1     -20.585 -17.206 -19.926  1.00  0.00    -0.063 NA
BRANCH  21  27
HETATM   27  C5  UNL     1     -20.682 -17.079 -15.009  1.00  0.00     0.059 C 
BRANCH  27  28
HETATM   28  C4  UNL     1     -19.670 -16.130 -14.434  1.00  0.00     0.006 C 
BRANCH  28  29
HETATM   29  C3  UNL     1     -20.018 -14.686 -14.546  1.00  0.00     0.000 C 
BRANCH  29  30
HETATM   30  C2  UNL     1     -21.222 -14.463 -13.616  1.00  0.00    -0.005 C 
HETATM   31  C1  UNL     1     -22.303 -13.726 -14.360  1.00  0.00     0.005 C 
ENDBRANCH  29  30
ENDBRANCH  28  29
ENDBRANCH  27  28
ENDBRANCH  21  27
ENDBRANCH  18  19
ENDBRANCH  17  18
ENDBRANCH   1  17
BRANCH  13  32
HETATM   32  N5  UNL     1     -12.298 -23.600 -17.119  1.00  0.00    -0.374 N 
ATOM     33  H5  UNL     1     -13.097 -24.231 -17.178  1.00  0.00     0.161 HD
BRANCH  32  34
HETATM   34  C18 UNL     1     -11.111 -23.986 -17.826  1.00  0.00     0.121 C 
BRANCH  34  35
HETATM   35  C19 UNL     1     -11.254 -25.396 -18.310  1.00  0.00     0.021 C 
BRANCH  35  36
HETATM   36  C20 UNL     1     -11.982 -25.478 -19.634  1.00  0.00     0.029 C 
BRANCH  36  37
HETATM   37  C21 UNL     1     -11.656 -24.340 -20.551  1.00  0.00     0.229 C 
BRANCH  37  38
HETATM   38  N6  UNL     1     -12.601 -24.318 -21.648  1.00  0.00    -0.079 N 
ATOM     39  H63 UNL     1     -13.127 -25.190 -21.721  1.00  0.00     0.274 HD
ATOM     40  H62 UNL     1     -13.385 -23.691 -21.469  1.00  0.00     0.274 HD
ATOM     41  H61 UNL     1     -12.113 -24.089 -22.513  1.00  0.00     0.274 HD
ENDBRANCH  37  38
ENDBRANCH  36  37
ENDBRANCH  35  36
ENDBRANCH  34  35
ENDBRANCH  32  34
ENDBRANCH  13  32
TORSDOF 13
ENDMDL
MODEL 2
REMARK VINA RESULT: -8.245496018      1.859      3.210
REMARK  13 active torsions:
REMARK  status: ('A' for Active; 'I' for Inactive)
REMARK    1  A    between atoms: C2_2  and  C3_3 
REMARK    2  A    between atoms: C3_3  and  C4_4 
REMARK    3  A    between atoms: C4_4  and  C5_5 
REMARK    4  A    between atoms: C5_5  and  C6_6 
REMARK    5  A    between atoms: N1_9  and  C9_10 
REMARK    6  A    between atoms: C9_10  and  C10_11 
REMARK    7  A    between atoms: C10_11  and  N2_12 
REMARK    8  A    between atoms: C17_24  and  N5_25 
REMARK    9  A    between atoms: N5_25  and  C18_27 
REMARK   10  A    between atoms: C18_27  and  C19_28 
REMARK   11  A    between atoms: C19_28  and  C20_29 
REMARK   12  A    between atoms: C20_29  and  C21_30 
REMARK   13  A    between atoms: C21_30  and  N6_31 
ROOT
HETATM    1  N2  UNL     1     -16.200 -19.570 -18.464  1.00  0.00    -0.321 N 
HETATM    2  C11 UNL     1     -15.459 -19.305 -17.395  1.00  0.00     0.102 A 
HETATM    3  C12 UNL     1     -14.423 -20.084 -16.909  1.00  0.00    -0.034 A 
HETATM    4  C13 UNL     1     -13.758 -19.571 -15.707  1.00  0.00     0.050 C 
HETATM    5  C14 UNL     1     -14.100 -21.279 -17.587  1.00  0.00     0.011 A 
HETATM    6  C15 UNL     1     -14.878 -21.531 -18.688  1.00  0.00     0.087 A 
HETATM    7  S1  UNL     1     -14.270 -23.007 -19.287  1.00  0.00    -0.064 SA
HETATM    8  C16 UNL     1     -13.048 -23.282 -18.144  1.00  0.00     0.104 A 
HETATM    9  N3  UNL     1     -12.057 -24.153 -17.778  1.00  0.00    -0.291 N 
ATOM     10  H3  UNL     1     -11.804 -25.023 -18.247  1.00  0.00     0.187 HD
HETATM   11  N4  UNL     1     -11.506 -23.653 -16.719  1.00  0.00    -0.284 N 
ATOM     12  H4  UNL     1     -10.731 -24.079 -16.211  1.00  0.00     0.188 HD
HETATM   13  C17 UNL     1     -12.109 -22.473 -16.374  1.00  0.00     0.130 A 
HETATM   14  C22 UNL     1     -13.133 -22.205 -17.300  1.00  0.00     0.056 A 
HETATM   15  C23 UNL     1     -15.917 -20.694 -19.130  1.00  0.00     0.265 A 
HETATM   16  O1  UNL     1     -16.537 -21.064 -20.155  1.00  0.00    -0.266 OA
ENDROOT
BRANCH   1  17
HETATM   17  C10 UNL     1     -17.274 -18.726 -18.928  1.00  0.00     0.152 C 
BRANCH  17  18
HETATM   18  C9  UNL     1     -18.625 -19.337 -18.619  1.00  0.00     0.152 C 
BRANCH  18  19
HETATM   19  N1  UNL     1     -19.437 -18.436 -17.829  1.00  0.00    -0.322 N 
HETATM   20  C7  UNL     1     -19.417 -18.337 -16.487  1.00  0.00     0.033 A 
HETATM   21  C6  UNL     1     -20.328 -17.364 -16.138  1.00  0.00     0.036 A 
HETATM   22  C8  UNL     1     -18.562 -19.136 -15.546  1.00  0.00     0.070 C 
HETATM   23  N8  UNL     1     -20.899 -16.875 -17.249  1.00  0.00    -0.327 N 
HETATM   24  C24 UNL     1     -20.336 -17.550 -18.294  1.00  0.00     0.197 A 
HETATM   25  C25 UNL     1     -21.911 -15.841 -17.398  1.00  0.00     0.159 C 
HETATM   26  N7  UNL     1     -20.658 -17.343 -19.667  1.00  0.00    -0.063 NA
BRANCH  21  27
HETATM   27  C5  UNL     1     -20.624 -16.938 -14.765  1.00  0.00     0.059 C 
BRANCH  27  28
HETATM   28  C4  UNL     1     -19.738 -15.828 -14.281  1.00  0.00     0.006 C 
BRANCH  28  29
HETATM   29  C3  UNL     1     -20.234 -14.451 -14.559  1.00  0.00     0.000 C 
BRANCH  29  30
HETATM   30  C2  UNL     1     -21.484 -14.262 -13.685  1.00  0.00    -0.005 C 
HETATM   31  C1  UNL     1     -22.556 -13.566 -14.481  1.00  0.00     0.005 C 
ENDBRANCH  29  30
ENDBRANCH  28  29
ENDBRANCH  27  28
ENDBRANCH  21  27
ENDBRANCH  18  19
ENDBRANCH  17  18
ENDBRANCH   1  17
BRANCH  13  32
HETATM   32  N5  UNL     1     -11.688 -21.855 -15.350  1.00  0.00    -0.374 N 
ATOM     33  H5  UNL     1     -11.314 -20.918 -15.497  1.00  0.00     0.161 HD
BRANCH  32  34
HETATM   34  C18 UNL     1     -11.687 -22.351 -14.004  1.00  0.00     0.121 C 
BRANCH  34  35
HETATM   35  C19 UNL     1     -13.067 -22.802 -13.637  1.00  0.00     0.021 C 
BRANCH  35  36
HETATM   36  C20 UNL     1     -13.065 -24.128 -12.909  1.00  0.00     0.029 C 
BRANCH  36  37
HETATM   37  C21 UNL     1     -11.694 -24.714 -12.768  1.00  0.00     0.229 C 
BRANCH  37  38
HETATM   38  N6  UNL     1     -11.546 -25.823 -13.688  1.00  0.00    -0.079 N 
ATOM     39  H63 UNL     1     -12.394 -26.386 -13.751  1.00  0.00     0.274 HD
ATOM     40  H62 UNL     1     -11.502 -25.515 -14.659  1.00  0.00     0.274 HD
ATOM     41  H61 UNL     1     -10.733 -26.378 -13.422  1.00  0.00     0.274 HD
ENDBRANCH  37  38
ENDBRANCH  36  37
ENDBRANCH  35  36
ENDBRANCH  34  35
ENDBRANCH  32  34
ENDBRANCH  13  32
TORSDOF 13
ENDMDL
MODEL 3
REMARK VINA RESULT: -8.231189912      2.849     10.586
REMARK  13 active torsions:
REMARK  status: ('A' for Active; 'I' for Inactive)
REMARK    1  A    between atoms: C2_2  and  C3_3 
REMARK    2  A    between atoms: C3_3  and  C4_4 
REMARK    3  A    between atoms: C4_4  and  C5_5 
REMARK    4  A    between atoms: C5_5  and  C6_6 
REMARK    5  A    between atoms: N1_9  and  C9_10 
REMARK    6  A    between atoms: C9_10  and  C10_11 
REMARK    7  A    between atoms: C10_11  and  N2_12 
REMARK    8  A    between atoms: C17_24  and  N5_25 
REMARK    9  A    between atoms: N5_25  and  C18_27 
REMARK   10  A    between atoms: C18_27  and  C19_28 
REMARK   11  A    between atoms: C19_28  and  C20_29 
REMARK   12  A    between atoms: C20_29  and  C21_30 
REMARK   13  A    between atoms: C21_30  and  N6_31 
ROOT
HETATM    1  N2  UNL     1     -18.549 -17.963 -17.282  1.00  0.00    -0.321 N 
HETATM    2  C11 UNL     1     -19.694 -17.576 -17.831  1.00  0.00     0.102 A 
HETATM    3  C12 UNL     1     -20.601 -16.687 -17.280  1.00  0.00    -0.034 A 
HETATM    4  C13 UNL     1     -21.796 -16.422 -18.088  1.00  0.00     0.050 C 
HETATM    5  C14 UNL     1     -20.312 -16.122 -16.019  1.00  0.00     0.011 A 
HETATM    6  C15 UNL     1     -19.125 -16.537 -15.473  1.00  0.00     0.087 A 
HETATM    7  S1  UNL     1     -19.050 -15.708 -13.984  1.00  0.00    -0.064 SA
HETATM    8  C16 UNL     1     -20.512 -14.854 -14.073  1.00  0.00     0.104 A 
HETATM    9  N3  UNL     1     -21.313 -13.968 -13.405  1.00  0.00    -0.291 N 
ATOM     10  H3  UNL     1     -21.132 -13.547 -12.494  1.00  0.00     0.187 HD
HETATM   11  N4  UNL     1     -22.347 -13.772 -14.160  1.00  0.00    -0.284 N 
ATOM     12  H4  UNL     1     -23.126 -13.155 -13.929  1.00  0.00     0.188 HD
HETATM   13  C17 UNL     1     -22.250 -14.507 -15.311  1.00  0.00     0.130 A 
HETATM   14  C22 UNL     1     -21.046 -15.233 -15.278  1.00  0.00     0.056 A 
HETATM   15  C23 UNL     1     -18.247 -17.445 -16.088  1.00  0.00     0.265 A 
HETATM   16  O1  UNL     1     -17.198 -17.724 -15.460  1.00  0.00    -0.266 OA
ENDROOT
BRANCH   1  17
HETATM   17  C10 UNL     1     -17.639 -18.899 -17.896  1.00  0.00     0.152 C 
BRANCH  17  18
HETATM   18  C9  UNL     1     -17.756 -20.272 -17.267  1.00  0.00     0.152 C 
BRANCH  18  19
HETATM   19  N1  UNL     1     -16.473 -20.941 -17.228  1.00  0.00    -0.322 N 
HETATM   20  C7  UNL     1     -15.819 -21.441 -18.292  1.00  0.00     0.033 A 
HETATM   21  C6  UNL     1     -14.641 -21.984 -17.826  1.00  0.00     0.036 A 
HETATM   22  C8  UNL     1     -16.284 -21.414 -19.719  1.00  0.00     0.070 C 
HETATM   23  N8  UNL     1     -14.574 -21.819 -16.497  1.00  0.00    -0.327 N 
HETATM   24  C24 UNL     1     -15.721 -21.169 -16.136  1.00  0.00     0.197 A 
HETATM   25  C25 UNL     1     -13.536 -22.217 -15.559  1.00  0.00     0.159 C 
HETATM   26  N7  UNL     1     -16.061 -20.793 -14.804  1.00  0.00    -0.063 NA
BRANCH  21  27
HETATM   27  C5  UNL     1     -13.625 -22.639 -18.660  1.00  0.00     0.059 C 
BRANCH  27  28
HETATM   28  C4  UNL     1     -13.955 -24.065 -18.992  1.00  0.00     0.006 C 
BRANCH  28  29
HETATM   29  C3  UNL     1     -14.064 -24.369 -20.446  1.00  0.00     0.000 C 
BRANCH  29  30
HETATM   30  C2  UNL     1     -12.624 -24.435 -20.979  1.00  0.00    -0.005 C 
HETATM   31  C1  UNL     1     -11.844 -25.459 -20.199  1.00  0.00     0.005 C 
ENDBRANCH  29  30
ENDBRANCH  28  29
ENDBRANCH  27  28
ENDBRANCH  21  27
ENDBRANCH  18  19
ENDBRANCH  17  18
ENDBRANCH   1  17
BRANCH  13  32
HETATM   32  N5  UNL     1     -23.189 -14.430 -16.158  1.00  0.00    -0.374 N 
ATOM     33  H5  UNL     1     -22.929 -14.193 -17.115  1.00  0.00     0.161 HD
BRANCH  32  34
HETATM   34  C18 UNL     1     -24.583 -14.645 -15.898  1.00  0.00     0.121 C 
BRANCH  34  35
HETATM   35  C19 UNL     1     -24.873 -16.115 -15.910  1.00  0.00     0.021 C 
BRANCH  35  36
HETATM   36  C20 UNL     1     -25.550 -16.557 -17.188  1.00  0.00     0.029 C 
BRANCH  36  37
HETATM   37  C21 UNL     1     -26.709 -17.476 -16.947  1.00  0.00     0.229 C 
BRANCH  37  38
HETATM   38  N6  UNL     1     -27.220 -17.267 -15.608  1.00  0.00    -0.079 N 
ATOM     39  H63 UNL     1     -26.697 -16.551 -15.104  1.00  0.00     0.274 HD
ATOM     40  H62 UNL     1     -28.130 -16.808 -15.611  1.00  0.00     0.274 HD
ATOM     41  H61 UNL     1     -27.237 -18.155 -15.109  1.00  0.00     0.274 HD
ENDBRANCH  37  38
ENDBRANCH  36  37
ENDBRANCH  35  36
ENDBRANCH  34  35
ENDBRANCH  32  34
ENDBRANCH  13  32
TORSDOF 13
ENDMDL
MODEL 4
REMARK VINA RESULT: -8.228215197      2.315     10.863
REMARK  13 active torsions:
REMARK  status: ('A' for Active; 'I' for Inactive)
REMARK    1  A    between atoms: C2_2  and  C3_3 
REMARK    2  A    between atoms: C3_3  and  C4_4 
REMARK    3  A    between atoms: C4_4  and  C5_5 
REMARK    4  A    between atoms: C5_5  and  C6_6 
REMARK    5  A    between atoms: N1_9  and  C9_10 
REMARK    6  A    between atoms: C9_10  and  C10_11 
REMARK    7  A    between atoms: C10_11  and  N2_12 
REMARK    8  A    between atoms: C17_24  and  N5_25 
REMARK    9  A    between atoms: N5_25  and  C18_27 
REMARK   10  A    between atoms: C18_27  and  C19_28 
REMARK   11  A    between atoms: C19_28  and  C20_29 
REMARK   12  A    between atoms: C20_29  and  C21_30 
REMARK   13  A    between atoms: C21_30  and  N6_31 
ROOT
HETATM    1  N2  UNL     1     -16.379 -20.228 -18.872  1.00  0.00    -0.321 N 
HETATM    2  C11 UNL     1     -16.368 -19.409 -17.828  1.00  0.00     0.102 A 
HETATM    3  C12 UNL     1     -17.407 -18.587 -17.427  1.00  0.00    -0.034 A 
HETATM    4  C13 UNL     1     -17.144 -17.774 -16.235  1.00  0.00     0.050 C 
HETATM    5  C14 UNL     1     -18.602 -18.594 -18.177  1.00  0.00     0.011 A 
HETATM    6  C15 UNL     1     -18.590 -19.448 -19.250  1.00  0.00     0.087 A 
HETATM    7  S1  UNL     1     -20.132 -19.243 -19.950  1.00  0.00    -0.064 SA
HETATM    8  C16 UNL     1     -20.766 -18.089 -18.882  1.00  0.00     0.104 A 
HETATM    9  N3  UNL     1     -21.871 -17.329 -18.610  1.00  0.00    -0.291 N 
ATOM     10  H3  UNL     1     -22.746 -17.312 -19.136  1.00  0.00     0.187 HD
HETATM   11  N4  UNL     1     -21.585 -16.636 -17.555  1.00  0.00    -0.284 N 
ATOM     12  H4  UNL     1     -22.217 -15.972 -17.108  1.00  0.00     0.188 HD
HETATM   13  C17 UNL     1     -20.317 -16.918 -17.122  1.00  0.00     0.130 A 
HETATM   14  C22 UNL     1     -19.753 -17.876 -17.983  1.00  0.00     0.056 A 
HETATM   15  C23 UNL     1     -17.498 -20.259 -19.602  1.00  0.00     0.265 A 
HETATM   16  O1  UNL     1     -17.643 -20.987 -20.613  1.00  0.00    -0.266 OA
ENDROOT
BRANCH   1  17
HETATM   17  C10 UNL     1     -15.265 -21.063 -19.252  1.00  0.00     0.152 C 
BRANCH  17  18
HETATM   18  C9  UNL     1     -15.258 -22.358 -18.467  1.00  0.00     0.152 C 
BRANCH  18  19
HETATM   19  N1  UNL     1     -13.912 -22.863 -18.302  1.00  0.00    -0.322 N 
HETATM   20  C7  UNL     1     -13.313 -23.770 -19.095  1.00  0.00     0.033 A 
HETATM   21  C6  UNL     1     -12.042 -23.968 -18.599  1.00  0.00     0.036 A 
HETATM   22  C8  UNL     1     -13.916 -24.442 -20.295  1.00  0.00     0.070 C 
HETATM   23  N8  UNL     1     -11.865 -23.193 -17.519  1.00  0.00    -0.327 N 
HETATM   24  C24 UNL     1     -13.035 -22.510 -17.344  1.00  0.00     0.197 A 
HETATM   25  C25 UNL     1     -10.702 -23.048 -16.657  1.00  0.00     0.159 C 
HETATM   26  N7  UNL     1     -13.283 -21.570 -16.302  1.00  0.00    -0.063 NA
BRANCH  21  27
HETATM   27  C5  UNL     1     -11.047 -24.884 -19.168  1.00  0.00     0.059 C 
BRANCH  27  28
HETATM   28  C4  UNL     1     -11.045 -26.239 -18.522  1.00  0.00     0.006 C 
BRANCH  28  29
HETATM   29  C3  UNL     1      -9.790 -26.599 -17.806  1.00  0.00     0.000 C 
BRANCH  29  30
HETATM   30  C2  UNL     1      -9.949 -28.066 -17.373  1.00  0.00    -0.005 C 
HETATM   31  C1  UNL     1      -9.015 -28.932 -18.174  1.00  0.00     0.005 C 
ENDBRANCH  29  30
ENDBRANCH  28  29
ENDBRANCH  27  28
ENDBRANCH  21  27
ENDBRANCH  18  19
ENDBRANCH  17  18
ENDBRANCH   1  17
BRANCH  13  32
HETATM   32  N5  UNL     1     -19.881 -16.316 -16.096  1.00  0.00    -0.374 N 
ATOM     33  H5  UNL     1     -19.018 -15.784 -16.205  1.00  0.00     0.161 HD
BRANCH  32  34
HETATM   34  C18 UNL     1     -20.486 -16.312 -14.795  1.00  0.00     0.121 C 
BRANCH  34  35
HETATM   35  C19 UNL     1     -20.143 -15.037 -14.089  1.00  0.00     0.021 C 
BRANCH  35  36
HETATM   36  C20 UNL     1     -21.374 -14.259 -13.676  1.00  0.00     0.029 C 
BRANCH  36  37
HETATM   37  C21 UNL     1     -22.259 -13.910 -14.833  1.00  0.00     0.229 C 
BRANCH  37  38
HETATM   38  N6  UNL     1     -23.399 -13.153 -14.357  1.00  0.00    -0.079 N 
ATOM     39  H63 UNL     1     -23.979 -13.693 -13.714  1.00  0.00     0.274 HD
ATOM     40  H62 UNL     1     -23.126 -12.408 -13.717  1.00  0.00     0.274 HD
ATOM     41  H61 UNL     1     -23.930 -12.803 -15.154  1.00  0.00     0.274 HD
ENDBRANCH  37  38
ENDBRANCH  36  37
ENDBRANCH  35  36
ENDBRANCH  34  35
ENDBRANCH  32  34
ENDBRANCH  13  32
TORSDOF 13
ENDMDL
MODEL 5
REMARK VINA RESULT: -8.144084232      2.526     10.178
REMARK  13 active torsions:
REMARK  status: ('A' for Active; 'I' for Inactive)
REMARK    1  A    between atoms: C2_2  and  C3_3 
REMARK    2  A    between atoms: C3_3  and  C4_4 
REMARK    3  A    between atoms: C4_4  and  C5_5 
REMARK    4  A    between atoms: C5_5  and  C6_6 
REMARK    5  A    between atoms: N1_9  and  C9_10 
REMARK    6  A    between atoms: C9_10  and  C10_11 
REMARK    7  A    between atoms: C10_11  and  N2_12 
REMARK    8  A    between atoms: C17_24  and  N5_25 
REMARK    9  A    between atoms: N5_25  and  C18_27 
REMARK   10  A    between atoms: C18_27  and  C19_28 
REMARK   11  A    between atoms: C19_28  and  C20_29 
REMARK   12  A    between atoms: C20_29  and  C21_30 
REMARK   13  A    between atoms: C21_30  and  N6_31 
ROOT
HETATM    1  N2  UNL     1     -17.842 -18.217 -17.201  1.00  0.00    -0.321 N 
HETATM    2  C11 UNL     1     -18.949 -17.842 -17.831  1.00  0.00     0.102 A 
HETATM    3  C12 UNL     1     -19.909 -16.972 -17.342  1.00  0.00    -0.034 A 
HETATM    4  C13 UNL     1     -21.044 -16.718 -18.236  1.00  0.00     0.050 C 
HETATM    5  C14 UNL     1     -19.726 -16.417 -16.058  1.00  0.00     0.011 A 
HETATM    6  C15 UNL     1     -18.577 -16.818 -15.428  1.00  0.00     0.087 A 
HETATM    7  S1  UNL     1     -18.628 -16.005 -13.930  1.00  0.00    -0.064 SA
HETATM    8  C16 UNL     1     -20.093 -15.173 -14.122  1.00  0.00     0.104 A 
HETATM    9  N3  UNL     1     -20.957 -14.307 -13.508  1.00  0.00    -0.291 N 
ATOM     10  H3  UNL     1     -20.852 -13.892 -12.581  1.00  0.00     0.187 HD
HETATM   11  N4  UNL     1     -21.934 -14.118 -14.336  1.00  0.00    -0.284 N 
ATOM     12  H4  UNL     1     -22.738 -13.516 -14.160  1.00  0.00     0.188 HD
HETATM   13  C17 UNL     1     -21.738 -14.839 -15.484  1.00  0.00     0.130 A 
HETATM   14  C22 UNL     1     -20.528 -15.547 -15.367  1.00  0.00     0.056 A 
HETATM   15  C23 UNL     1     -17.640 -17.706 -15.983  1.00  0.00     0.265 A 
HETATM   16  O1  UNL     1     -16.637 -17.976 -15.280  1.00  0.00    -0.266 OA
ENDROOT
BRANCH   1  17
HETATM   17  C10 UNL     1     -16.873 -19.132 -17.754  1.00  0.00     0.152 C 
BRANCH  17  18
HETATM   18  C9  UNL     1     -17.023 -20.516 -17.156  1.00  0.00     0.152 C 
BRANCH  18  19
HETATM   19  N1  UNL     1     -15.732 -21.114 -16.892  1.00  0.00    -0.322 N 
HETATM   20  C7  UNL     1     -14.853 -21.523 -17.825  1.00  0.00     0.033 A 
HETATM   21  C6  UNL     1     -13.755 -22.023 -17.158  1.00  0.00     0.036 A 
HETATM   22  C8  UNL     1     -15.033 -21.449 -19.314  1.00  0.00     0.070 C 
HETATM   23  N8  UNL     1     -13.959 -21.922 -15.836  1.00  0.00    -0.327 N 
HETATM   24  C24 UNL     1     -15.192 -21.355 -15.683  1.00  0.00     0.197 A 
HETATM   25  C25 UNL     1     -13.098 -22.308 -14.729  1.00  0.00     0.159 C 
HETATM   26  N7  UNL     1     -15.808 -21.067 -14.431  1.00  0.00    -0.063 NA
BRANCH  21  27
HETATM   27  C5  UNL     1     -12.557 -22.577 -17.800  1.00  0.00     0.059 C 
BRANCH  27  28
HETATM   28  C4  UNL     1     -12.799 -23.896 -18.474  1.00  0.00     0.006 C 
BRANCH  28  29
HETATM   29  C3  UNL     1     -11.652 -24.424 -19.266  1.00  0.00     0.000 C 
BRANCH  29  30
HETATM   30  C2  UNL     1     -12.152 -24.542 -20.715  1.00  0.00    -0.005 C 
HETATM   31  C1  UNL     1     -13.656 -24.571 -20.729  1.00  0.00     0.005 C 
ENDBRANCH  29  30
ENDBRANCH  28  29
ENDBRANCH  27  28
ENDBRANCH  21  27
ENDBRANCH  18  19
ENDBRANCH  17  18
ENDBRANCH   1  17
BRANCH  13  32
HETATM   32  N5  UNL     1     -22.611 -14.768 -16.399  1.00  0.00    -0.374 N 
ATOM     33  H5  UNL     1     -22.285 -14.504 -17.329  1.00  0.00     0.161 HD
BRANCH  32  34
HETATM   34  C18 UNL     1     -24.015 -15.025 -16.251  1.00  0.00     0.121 C 
BRANCH  34  35
HETATM   35  C19 UNL     1     -24.256 -16.503 -16.258  1.00  0.00     0.021 C 
BRANCH  35  36
HETATM   36  C20 UNL     1     -25.375 -16.900 -17.196  1.00  0.00     0.029 C 
BRANCH  36  37
HETATM   37  C21 UNL     1     -24.943 -16.959 -18.629  1.00  0.00     0.229 C 
BRANCH  37  38
HETATM   38  N6  UNL     1     -24.328 -18.243 -18.895  1.00  0.00    -0.079 N 
ATOM     39  H63 UNL     1     -23.326 -18.237 -18.706  1.00  0.00     0.274 HD
ATOM     40  H62 UNL     1     -24.601 -18.949 -18.213  1.00  0.00     0.274 HD
ATOM     41  H61 UNL     1     -24.539 -18.528 -19.851  1.00  0.00     0.274 HD
ENDBRANCH  37  38
ENDBRANCH  36  37
ENDBRANCH  35  36
ENDBRANCH  34  35
ENDBRANCH  32  34
ENDBRANCH  13  32
TORSDOF 13
ENDMDL
