MODEL 1
REMARK VINA RESULT: -8.693070626      0.000      0.000
REMARK  12 active torsions:
REMARK  status: ('A' for Active; 'I' for Inactive)
REMARK    1  A    between atoms: C2_2  and  N1_3 
REMARK    2  A    between atoms: N1_3  and  C4_5 
REMARK    3  A    between atoms: C4_5  and  C5_6 
REMARK    4  A    between atoms: C5_6  and  C6_7 
REMARK    5  A    between atoms: C6_7  and  N2_8 
REMARK    6  A    between atoms: N2_8  and  S1_10 
REMARK    7  A    between atoms: S1_10  and  C7_13 
REMARK    8  A    between atoms: C12_18  and  N3_19 
REMARK       I    between atoms: N3_19  and  C13_21 
REMARK    9  A    between atoms: C13_21  and  C14_23 
REMARK   10  A    between atoms: C14_23  and  C15_24 
REMARK   11  A    between atoms: C15_24  and  C16_25 
REMARK       I    between atoms: C16_25  and  N4_27 
REMARK   12  A    between atoms: N4_27  and  C17_29 
ROOT
HETATM    1  C7  UNL     1     -18.694 -18.924 -19.616  1.00  0.00     0.087 A 
HETATM    2  C8  UNL     1     -18.582 -19.825 -20.598  1.00  0.00     0.026 A 
HETATM    3  C9  UNL     1     -17.642 -20.861 -20.477  1.00  0.00     0.011 A 
HETATM    4  C10 UNL     1     -16.867 -20.897 -19.328  1.00  0.00    -0.035 A 
HETATM    5  C11 UNL     1     -15.876 -22.020 -19.248  1.00  0.00     0.050 C 
HETATM    6  C12 UNL     1     -17.012 -19.962 -18.355  1.00  0.00     0.048 A 
HETATM    7  C22 UNL     1     -17.944 -18.961 -18.509  1.00  0.00    -0.011 A 
HETATM    8  C23 UNL     1     -18.151 -17.902 -17.460  1.00  0.00     0.052 C 
ENDROOT
BRANCH   6   9
HETATM    9  N3  UNL     1     -16.226 -20.006 -17.188  1.00  0.00    -0.326 N 
HETATM   10  C13 UNL     1     -14.910 -19.525 -17.167  1.00  0.00     0.222 C 
HETATM   11  O3  UNL     1     -14.316 -19.016 -18.142  1.00  0.00    -0.273 OA
ATOM     12  H3  UNL     1     -16.625 -20.398 -16.335  1.00  0.00     0.169 HD
BRANCH  10  13
HETATM   13  C14 UNL     1     -14.137 -19.615 -15.890  1.00  0.00     0.112 C 
BRANCH  13  14
HETATM   14  C15 UNL     1     -13.847 -21.031 -15.472  1.00  0.00     0.112 C 
BRANCH  14  15
HETATM   15  C16 UNL     1     -14.637 -21.335 -14.259  1.00  0.00     0.224 C 
HETATM   16  O4  UNL     1     -15.905 -21.133 -14.344  1.00  0.00    -0.273 OA
HETATM   17  N4  UNL     1     -14.145 -21.819 -13.042  1.00  0.00    -0.307 N 
ATOM     18  H4  UNL     1     -14.332 -21.317 -12.174  1.00  0.00     0.171 HD
BRANCH  17  19
HETATM   19  C17 UNL     1     -13.440 -22.927 -13.032  1.00  0.00     0.151 A 
HETATM   20  N5  UNL     1     -13.801 -24.080 -12.448  1.00  0.00    -0.339 N 
HETATM   21  C18 UNL     1     -12.999 -25.096 -12.516  1.00  0.00     0.020 A 
ATOM     22  H5  UNL     1     -14.692 -24.156 -11.959  1.00  0.00     0.168 HD
HETATM   23  C19 UNL     1     -13.307 -26.452 -11.888  1.00  0.00     0.069 C 
HETATM   24  C20 UNL     1     -11.811 -24.932 -13.188  1.00  0.00     0.004 A 
HETATM   25  C21 UNL     1     -10.720 -25.955 -13.398  1.00  0.00     0.058 C 
HETATM   26  S2  UNL     1     -11.915 -23.307 -13.695  1.00  0.00    -0.057 SA
ENDBRANCH  17  19
ENDBRANCH  14  15
ENDBRANCH  13  14
ENDBRANCH  10  13
ENDBRANCH   6   9
BRANCH   1  27
HETATM   27  S1  UNL     1     -20.157 -17.472 -19.830  1.00  0.00     0.259 S 
HETATM   28  O1  UNL     1     -21.245 -19.417 -19.927  1.00  0.00    -0.201 OA
HETATM   29  O2  UNL     1     -20.997 -17.560 -21.425  1.00  0.00    -0.201 OA
BRANCH  27  30
HETATM   30  N2  UNL     1     -21.258 -17.552 -18.232  1.00  0.00    -0.315 N 
ATOM     31  H2  UNL     1     -21.487 -18.408 -17.728  1.00  0.00     0.172 HD
BRANCH  30  32
HETATM   32  C6  UNL     1     -21.707 -16.239 -17.858  1.00  0.00     0.134 C 
BRANCH  32  33
HETATM   33  C5  UNL     1     -20.917 -15.722 -16.696  1.00  0.00     0.050 C 
BRANCH  33  34
HETATM   34  C4  UNL     1     -21.658 -16.086 -15.425  1.00  0.00     0.273 C 
BRANCH  34  35
HETATM   35  N1  UNL     1     -20.731 -16.666 -14.497  1.00  0.00     0.083 N 
HETATM   36  C3  UNL     1     -20.562 -18.091 -14.678  1.00  0.00     0.309 C 
BRANCH  35  37
HETATM   37  C2  UNL     1     -19.455 -15.978 -14.475  1.00  0.00     0.267 C 
HETATM   38  C1  UNL     1     -18.361 -16.824 -13.894  1.00  0.00     0.037 C 
ENDBRANCH  35  37
ENDBRANCH  34  35
ENDBRANCH  33  34
ENDBRANCH  32  33
ENDBRANCH  30  32
ENDBRANCH  27  30
ENDBRANCH   1  27
TORSDOF 12
ENDMDL
MODEL 2
REMARK VINA RESULT: -8.651514084      2.217      9.889
REMARK  12 active torsions:
REMARK  status: ('A' for Active; 'I' for Inactive)
REMARK    1  A    between atoms: C2_2  and  N1_3 
REMARK    2  A    between atoms: N1_3  and  C4_5 
REMARK    3  A    between atoms: C4_5  and  C5_6 
REMARK    4  A    between atoms: C5_6  and  C6_7 
REMARK    5  A    between atoms: C6_7  and  N2_8 
REMARK    6  A    between atoms: N2_8  and  S1_10 
REMARK    7  A    between atoms: S1_10  and  C7_13 
REMARK    8  A    between atoms: C12_18  and  N3_19 
REMARK       I    between atoms: N3_19  and  C13_21 
REMARK    9  A    between atoms: C13_21  and  C14_23 
REMARK   10  A    between atoms: C14_23  and  C15_24 
REMARK   11  A    between atoms: C15_24  and  C16_25 
REMARK       I    between atoms: C16_25  and  N4_27 
REMARK   12  A    between atoms: N4_27  and  C17_29 
ROOT
HETATM    1  C7  UNL     1     -13.562 -21.948 -14.771  1.00  0.00     0.087 A 
HETATM    2  C8  UNL     1     -14.041 -21.463 -13.620  1.00  0.00     0.026 A 
HETATM    3  C9  UNL     1     -15.208 -20.682 -13.635  1.00  0.00     0.011 A 
HETATM    4  C10 UNL     1     -15.813 -20.451 -14.862  1.00  0.00    -0.035 A 
HETATM    5  C11 UNL     1     -17.053 -19.608 -14.825  1.00  0.00     0.050 C 
HETATM    6  C12 UNL     1     -15.294 -20.960 -16.007  1.00  0.00     0.048 A 
HETATM    7  C22 UNL     1     -14.148 -21.721 -15.953  1.00  0.00    -0.011 A 
HETATM    8  C23 UNL     1     -13.532 -22.317 -17.190  1.00  0.00     0.052 C 
ENDROOT
BRANCH   6   9
HETATM    9  N3  UNL     1     -15.914 -20.727 -17.249  1.00  0.00    -0.326 N 
HETATM   10  C13 UNL     1     -17.055 -21.436 -17.648  1.00  0.00     0.222 C 
HETATM   11  O3  UNL     1     -17.629 -22.314 -16.968  1.00  0.00    -0.273 OA
ATOM     12  H3  UNL     1     -15.523 -20.022 -17.874  1.00  0.00     0.169 HD
BRANCH  10  13
HETATM   13  C14 UNL     1     -17.650 -21.136 -18.986  1.00  0.00     0.112 C 
BRANCH  13  14
HETATM   14  C15 UNL     1     -18.770 -20.133 -18.925  1.00  0.00     0.112 C 
BRANCH  14  15
HETATM   15  C16 UNL     1     -18.232 -18.803 -19.284  1.00  0.00     0.224 C 
HETATM   16  O4  UNL     1     -18.048 -18.587 -20.538  1.00  0.00    -0.273 OA
HETATM   17  N4  UNL     1     -17.909 -17.767 -18.401  1.00  0.00    -0.307 N 
ATOM     18  H4  UNL     1     -16.975 -17.359 -18.404  1.00  0.00     0.171 HD
BRANCH  17  19
HETATM   19  C17 UNL     1     -18.824 -17.328 -17.568  1.00  0.00     0.151 A 
HETATM   20  N5  UNL     1     -18.628 -17.024 -16.276  1.00  0.00    -0.339 N 
HETATM   21  C18 UNL     1     -19.629 -16.603 -15.570  1.00  0.00     0.020 A 
ATOM     22  H5  UNL     1     -17.703 -17.124 -15.855  1.00  0.00     0.168 HD
HETATM   23  C19 UNL     1     -19.519 -16.231 -14.094  1.00  0.00     0.069 C 
HETATM   24  C20 UNL     1     -20.849 -16.490 -16.191  1.00  0.00     0.004 A 
HETATM   25  C21 UNL     1     -22.155 -16.031 -15.587  1.00  0.00     0.058 C 
HETATM   26  S2  UNL     1     -20.486 -17.000 -17.777  1.00  0.00    -0.057 SA
ENDBRANCH  17  19
ENDBRANCH  14  15
ENDBRANCH  13  14
ENDBRANCH  10  13
ENDBRANCH   6   9
BRANCH   1  27
HETATM   27  S1  UNL     1     -11.883 -23.156 -14.660  1.00  0.00     0.259 S 
HETATM   28  O1  UNL     1     -11.101 -21.067 -14.669  1.00  0.00    -0.201 OA
HETATM   29  O2  UNL     1     -10.799 -22.974 -16.092  1.00  0.00    -0.201 OA
BRANCH  27  30
HETATM   30  N2  UNL     1     -11.104 -22.867 -12.905  1.00  0.00    -0.315 N 
ATOM     31  H2  UNL     1     -10.497 -22.084 -12.662  1.00  0.00     0.172 HD
BRANCH  30  32
HETATM   32  C6  UNL     1     -11.498 -23.907 -11.996  1.00  0.00     0.134 C 
BRANCH  32  33
HETATM   33  C5  UNL     1     -12.380 -24.904 -12.684  1.00  0.00     0.050 C 
BRANCH  33  34
HETATM   34  C4  UNL     1     -11.762 -26.277 -12.510  1.00  0.00     0.273 C 
BRANCH  34  35
HETATM   35  N1  UNL     1     -12.592 -27.054 -11.636  1.00  0.00     0.083 N 
HETATM   36  C3  UNL     1     -12.097 -27.106 -10.278  1.00  0.00     0.309 C 
BRANCH  35  37
HETATM   37  C2  UNL     1     -13.984 -26.648 -11.679  1.00  0.00     0.267 C 
HETATM   38  C1  UNL     1     -14.743 -27.082 -10.460  1.00  0.00     0.037 C 
ENDBRANCH  35  37
ENDBRANCH  34  35
ENDBRANCH  33  34
ENDBRANCH  32  33
ENDBRANCH  30  32
ENDBRANCH  27  30
ENDBRANCH   1  27
TORSDOF 12
ENDMDL
MODEL 3
REMARK VINA RESULT: -8.563091672      2.693      9.867
REMARK  12 active torsions:
REMARK  status: ('A' for Active; 'I' for Inactive)
REMARK    1  A    between atoms: C2_2  and  N1_3 
REMARK    2  A    between atoms: N1_3  and  C4_5 
REMARK    3  A    between atoms: C4_5  and  C5_6 
REMARK    4  A    between atoms: C5_6  and  C6_7 
REMARK    5  A    between atoms: C6_7  and  N2_8 
REMARK    6  A    between atoms: N2_8  and  S1_10 
REMARK    7  A    between atoms: S1_10  and  C7_13 
REMARK    8  A    between atoms: C12_18  and  N3_19 
REMARK       I    between atoms: N3_19  and  C13_21 
REMARK    9  A    between atoms: C13_21  and  C14_23 
REMARK   10  A    between atoms: C14_23  and  C15_24 
REMARK   11  A    between atoms: C15_24  and  C16_25 
REMARK       I    between atoms: C16_25  and  N4_27 
REMARK   12  A    between atoms: N4_27  and  C17_29 
ROOT
HETATM    1  C7  UNL     1     -12.935 -22.923 -17.640  1.00  0.00     0.087 A 
HETATM    2  C8  UNL     1     -12.679 -22.331 -16.469  1.00  0.00     0.026 A 
HETATM    3  C9  UNL     1     -13.486 -21.262 -16.047  1.00  0.00     0.011 A 
HETATM    4  C10 UNL     1     -14.523 -20.870 -16.881  1.00  0.00    -0.035 A 
HETATM    5  C11 UNL     1     -15.354 -19.722 -16.387  1.00  0.00     0.050 C 
HETATM    6  C12 UNL     1     -14.749 -21.497 -18.062  1.00  0.00     0.048 A 
HETATM    7  C22 UNL     1     -13.936 -22.541 -18.442  1.00  0.00    -0.011 A 
HETATM    8  C23 UNL     1     -14.143 -23.276 -19.739  1.00  0.00     0.052 C 
ENDROOT
BRANCH   6   9
HETATM    9  N3  UNL     1     -15.806 -21.098 -18.902  1.00  0.00    -0.326 N 
HETATM   10  C13 UNL     1     -17.135 -21.453 -18.634  1.00  0.00     0.222 C 
HETATM   11  O3  UNL     1     -17.513 -22.129 -17.653  1.00  0.00    -0.273 OA
ATOM     12  H3  UNL     1     -15.599 -20.536 -19.728  1.00  0.00     0.169 HD
BRANCH  10  13
HETATM   13  C14 UNL     1     -18.200 -20.998 -19.580  1.00  0.00     0.112 C 
BRANCH  13  14
HETATM   14  C15 UNL     1     -19.046 -19.884 -19.026  1.00  0.00     0.112 C 
BRANCH  14  15
HETATM   15  C16 UNL     1     -18.363 -18.599 -19.287  1.00  0.00     0.224 C 
HETATM   16  O4  UNL     1     -18.351 -18.202 -20.510  1.00  0.00    -0.273 OA
HETATM   17  N4  UNL     1     -17.737 -17.780 -18.341  1.00  0.00    -0.307 N 
ATOM     18  H4  UNL     1     -16.761 -17.508 -18.459  1.00  0.00     0.171 HD
BRANCH  17  19
HETATM   19  C17 UNL     1     -18.421 -17.366 -17.299  1.00  0.00     0.151 A 
HETATM   20  N5  UNL     1     -18.035 -17.463 -16.018  1.00  0.00    -0.339 N 
HETATM   21  C18 UNL     1     -18.819 -17.013 -15.090  1.00  0.00     0.020 A 
ATOM     22  H5  UNL     1     -17.139 -17.886 -15.778  1.00  0.00     0.168 HD
HETATM   23  C19 UNL     1     -18.481 -17.074 -13.603  1.00  0.00     0.069 C 
HETATM   24  C20 UNL     1     -20.015 -16.456 -15.474  1.00  0.00     0.004 A 
HETATM   25  C21 UNL     1     -21.089 -15.872 -14.588  1.00  0.00     0.058 C 
HETATM   26  S2  UNL     1     -19.946 -16.609 -17.171  1.00  0.00    -0.057 SA
ENDBRANCH  17  19
ENDBRANCH  14  15
ENDBRANCH  13  14
ENDBRANCH  10  13
ENDBRANCH   6   9
BRANCH   1  27
HETATM   27  S1  UNL     1     -11.752 -24.542 -18.158  1.00  0.00     0.259 S 
HETATM   28  O1  UNL     1     -10.322 -22.876 -17.767  1.00  0.00    -0.201 OA
HETATM   29  O2  UNL     1     -10.803 -24.258 -19.667  1.00  0.00    -0.201 OA
BRANCH  27  30
HETATM   30  N2  UNL     1     -10.765 -25.044 -16.562  1.00  0.00    -0.315 N 
ATOM     31  H2  UNL     1     -10.545 -24.410 -15.794  1.00  0.00     0.172 HD
BRANCH  30  32
HETATM   32  C6  UNL     1     -10.388 -26.429 -16.612  1.00  0.00     0.134 C 
BRANCH  32  33
HETATM   33  C5  UNL     1     -10.176 -26.970 -15.232  1.00  0.00     0.050 C 
BRANCH  33  34
HETATM   34  C4  UNL     1     -10.741 -25.968 -14.244  1.00  0.00     0.273 C 
BRANCH  34  35
HETATM   35  N1  UNL     1     -11.395 -26.679 -13.183  1.00  0.00     0.083 N 
HETATM   36  C3  UNL     1     -10.475 -27.401 -12.332  1.00  0.00     0.309 C 
BRANCH  35  37
HETATM   37  C2  UNL     1     -12.285 -25.835 -12.410  1.00  0.00     0.267 C 
HETATM   38  C1  UNL     1     -13.391 -26.616 -11.762  1.00  0.00     0.037 C 
ENDBRANCH  35  37
ENDBRANCH  34  35
ENDBRANCH  33  34
ENDBRANCH  32  33
ENDBRANCH  30  32
ENDBRANCH  27  30
ENDBRANCH   1  27
TORSDOF 12
ENDMDL
MODEL 4
REMARK VINA RESULT: -8.508575914      2.250     10.097
REMARK  12 active torsions:
REMARK  status: ('A' for Active; 'I' for Inactive)
REMARK    1  A    between atoms: C2_2  and  N1_3 
REMARK    2  A    between atoms: N1_3  and  C4_5 
REMARK    3  A    between atoms: C4_5  and  C5_6 
REMARK    4  A    between atoms: C5_6  and  C6_7 
REMARK    5  A    between atoms: C6_7  and  N2_8 
REMARK    6  A    between atoms: N2_8  and  S1_10 
REMARK    7  A    between atoms: S1_10  and  C7_13 
REMARK    8  A    between atoms: C12_18  and  N3_19 
REMARK       I    between atoms: N3_19  and  C13_21 
REMARK    9  A    between atoms: C13_21  and  C14_23 
REMARK   10  A    between atoms: C14_23  and  C15_24 
REMARK   11  A    between atoms: C15_24  and  C16_25 
REMARK       I    between atoms: C16_25  and  N4_27 
REMARK   12  A    between atoms: N4_27  and  C17_29 
ROOT
HETATM    1  C7  UNL     1     -13.524 -22.034 -14.723  1.00  0.00     0.087 A 
HETATM    2  C8  UNL     1     -14.015 -21.560 -13.573  1.00  0.00     0.026 A 
HETATM    3  C9  UNL     1     -15.176 -20.770 -13.593  1.00  0.00     0.011 A 
HETATM    4  C10 UNL     1     -15.762 -20.518 -14.825  1.00  0.00    -0.035 A 
HETATM    5  C11 UNL     1     -16.996 -19.667 -14.794  1.00  0.00     0.050 C 
HETATM    6  C12 UNL     1     -15.231 -21.018 -15.969  1.00  0.00     0.048 A 
HETATM    7  C22 UNL     1     -14.092 -21.788 -15.910  1.00  0.00    -0.011 A 
HETATM    8  C23 UNL     1     -13.463 -22.373 -17.146  1.00  0.00     0.052 C 
ENDROOT
BRANCH   6   9
HETATM    9  N3  UNL     1     -15.833 -20.764 -17.217  1.00  0.00    -0.326 N 
HETATM   10  C13 UNL     1     -16.975 -21.457 -17.639  1.00  0.00     0.222 C 
HETATM   11  O3  UNL     1     -17.566 -22.337 -16.977  1.00  0.00    -0.273 OA
ATOM     12  H3  UNL     1     -15.427 -20.056 -17.829  1.00  0.00     0.169 HD
BRANCH  10  13
HETATM   13  C14 UNL     1     -17.549 -21.136 -18.981  1.00  0.00     0.112 C 
BRANCH  13  14
HETATM   14  C15 UNL     1     -18.691 -20.159 -18.918  1.00  0.00     0.112 C 
BRANCH  14  15
HETATM   15  C16 UNL     1     -18.189 -18.820 -19.297  1.00  0.00     0.224 C 
HETATM   16  O4  UNL     1     -18.043 -18.606 -20.556  1.00  0.00    -0.273 OA
HETATM   17  N4  UNL     1     -17.860 -17.775 -18.426  1.00  0.00    -0.307 N 
ATOM     18  H4  UNL     1     -16.934 -17.349 -18.457  1.00  0.00     0.171 HD
BRANCH  17  19
HETATM   19  C17 UNL     1     -18.760 -17.349 -17.570  1.00  0.00     0.151 A 
HETATM   20  N5  UNL     1     -18.542 -17.074 -16.275  1.00  0.00    -0.339 N 
HETATM   21  C18 UNL     1     -19.530 -16.663 -15.545  1.00  0.00     0.020 A 
ATOM     22  H5  UNL     1     -17.612 -17.187 -15.872  1.00  0.00     0.168 HD
HETATM   23  C19 UNL     1     -19.395 -16.324 -14.064  1.00  0.00     0.069 C 
HETATM   24  C20 UNL     1     -20.760 -16.532 -16.144  1.00  0.00     0.004 A 
HETATM   25  C21 UNL     1     -22.053 -16.080 -15.510  1.00  0.00     0.058 C 
HETATM   26  S2  UNL     1     -20.423 -17.011 -17.746  1.00  0.00    -0.057 SA
ENDBRANCH  17  19
ENDBRANCH  14  15
ENDBRANCH  13  14
ENDBRANCH  10  13
ENDBRANCH   6   9
BRANCH   1  27
HETATM   27  S1  UNL     1     -11.856 -23.256 -14.605  1.00  0.00     0.259 S 
HETATM   28  O1  UNL     1     -11.064 -21.175 -14.486  1.00  0.00    -0.201 OA
HETATM   29  O2  UNL     1     -10.717 -23.015 -15.984  1.00  0.00    -0.201 OA
BRANCH  27  30
HETATM   30  N2  UNL     1     -11.143 -23.054 -12.810  1.00  0.00    -0.315 N 
ATOM     31  H2  UNL     1     -10.666 -22.221 -12.466  1.00  0.00     0.172 HD
BRANCH  30  32
HETATM   32  C6  UNL     1     -11.381 -24.239 -12.032  1.00  0.00     0.134 C 
BRANCH  32  33
HETATM   33  C5  UNL     1     -12.557 -24.995 -12.567  1.00  0.00     0.050 C 
BRANCH  33  34
HETATM   34  C4  UNL     1     -12.381 -26.456 -12.204  1.00  0.00     0.273 C 
BRANCH  34  35
HETATM   35  N1  UNL     1     -11.036 -26.852 -12.508  1.00  0.00     0.083 N 
HETATM   36  C3  UNL     1     -10.460 -27.721 -11.505  1.00  0.00     0.309 C 
BRANCH  35  37
HETATM   37  C2  UNL     1     -10.904 -27.413 -13.838  1.00  0.00     0.267 C 
HETATM   38  C1  UNL     1      -9.954 -26.630 -14.696  1.00  0.00     0.037 C 
ENDBRANCH  35  37
ENDBRANCH  34  35
ENDBRANCH  33  34
ENDBRANCH  32  33
ENDBRANCH  30  32
ENDBRANCH  27  30
ENDBRANCH   1  27
TORSDOF 12
ENDMDL
MODEL 5
REMARK VINA RESULT: -8.497678415      2.241      2.904
REMARK  12 active torsions:
REMARK  status: ('A' for Active; 'I' for Inactive)
REMARK    1  A    between atoms: C2_2  and  N1_3 
REMARK    2  A    between atoms: N1_3  and  C4_5 
REMARK    3  A    between atoms: C4_5  and  C5_6 
REMARK    4  A    between atoms: C5_6  and  C6_7 
REMARK    5  A    between atoms: C6_7  and  N2_8 
REMARK    6  A    between atoms: N2_8  and  S1_10 
REMARK    7  A    between atoms: S1_10  and  C7_13 
REMARK    8  A    between atoms: C12_18  and  N3_19 
REMARK       I    between atoms: N3_19  and  C13_21 
REMARK    9  A    between atoms: C13_21  and  C14_23 
REMARK   10  A    between atoms: C14_23  and  C15_24 
REMARK   11  A    between atoms: C15_24  and  C16_25 
REMARK       I    between atoms: C16_25  and  N4_27 
REMARK   12  A    between atoms: N4_27  and  C17_29 
ROOT
HETATM    1  C7  UNL     1     -18.898 -18.893 -19.773  1.00  0.00     0.087 A 
HETATM    2  C8  UNL     1     -18.782 -19.791 -20.758  1.00  0.00     0.026 A 
HETATM    3  C9  UNL     1     -17.810 -20.800 -20.658  1.00  0.00     0.011 A 
HETATM    4  C10 UNL     1     -17.009 -20.813 -19.526  1.00  0.00    -0.035 A 
HETATM    5  C11 UNL     1     -15.985 -21.907 -19.468  1.00  0.00     0.050 C 
HETATM    6  C12 UNL     1     -17.159 -19.882 -18.550  1.00  0.00     0.048 A 
HETATM    7  C22 UNL     1     -18.122 -18.909 -18.683  1.00  0.00    -0.011 A 
HETATM    8  C23 UNL     1     -18.337 -17.855 -17.629  1.00  0.00     0.052 C 
ENDROOT
BRANCH   6   9
HETATM    9  N3  UNL     1     -16.347 -19.903 -17.400  1.00  0.00    -0.326 N 
HETATM   10  C13 UNL     1     -16.652 -20.710 -16.296  1.00  0.00     0.222 C 
HETATM   11  O3  UNL     1     -17.636 -21.477 -16.218  1.00  0.00    -0.273 OA
ATOM     12  H3  UNL     1     -15.514 -19.315 -17.370  1.00  0.00     0.169 HD
BRANCH  10  13
HETATM   13  C14 UNL     1     -15.744 -20.669 -15.109  1.00  0.00     0.112 C 
BRANCH  13  14
HETATM   14  C15 UNL     1     -14.291 -20.550 -15.479  1.00  0.00     0.112 C 
BRANCH  14  15
HETATM   15  C16 UNL     1     -13.531 -21.586 -14.746  1.00  0.00     0.224 C 
HETATM   16  O4  UNL     1     -14.049 -21.991 -13.641  1.00  0.00    -0.273 OA
HETATM   17  N4  UNL     1     -12.316 -22.161 -15.134  1.00  0.00    -0.307 N 
ATOM     18  H4  UNL     1     -11.511 -22.139 -14.509  1.00  0.00     0.171 HD
BRANCH  17  19
HETATM   19  C17 UNL     1     -12.226 -22.731 -16.314  1.00  0.00     0.151 A 
HETATM   20  N5  UNL     1     -11.359 -23.696 -16.655  1.00  0.00    -0.339 N 
HETATM   21  C18 UNL     1     -11.382 -24.165 -17.862  1.00  0.00     0.020 A 
ATOM     22  H5  UNL     1     -10.690 -24.055 -15.973  1.00  0.00     0.168 HD
HETATM   23  C19 UNL     1     -10.442 -25.259 -18.357  1.00  0.00     0.069 C 
HETATM   24  C20 UNL     1     -12.305 -23.641 -18.736  1.00  0.00     0.004 A 
HETATM   25  C21 UNL     1     -12.524 -24.014 -20.183  1.00  0.00     0.058 C 
HETATM   26  S2  UNL     1     -13.099 -22.489 -17.760  1.00  0.00    -0.057 SA
ENDBRANCH  17  19
ENDBRANCH  14  15
ENDBRANCH  13  14
ENDBRANCH  10  13
ENDBRANCH   6   9
BRANCH   1  27
HETATM   27  S1  UNL     1     -20.405 -17.484 -19.954  1.00  0.00     0.259 S 
HETATM   28  O1  UNL     1     -21.450 -19.454 -19.904  1.00  0.00    -0.201 OA
HETATM   29  O2  UNL     1     -21.340 -17.657 -21.489  1.00  0.00    -0.201 OA
BRANCH  27  30
HETATM   30  N2  UNL     1     -21.405 -17.520 -18.289  1.00  0.00    -0.315 N 
ATOM     31  H2  UNL     1     -21.811 -18.359 -17.875  1.00  0.00     0.172 HD
BRANCH  30  32
HETATM   32  C6  UNL     1     -21.494 -16.203 -17.721  1.00  0.00     0.134 C 
BRANCH  32  33
HETATM   33  C5  UNL     1     -22.211 -16.241 -16.407  1.00  0.00     0.050 C 
BRANCH  33  34
HETATM   34  C4  UNL     1     -21.252 -16.777 -15.363  1.00  0.00     0.273 C 
BRANCH  34  35
HETATM   35  N1  UNL     1     -20.402 -15.709 -14.921  1.00  0.00     0.083 N 
HETATM   36  C3  UNL     1     -21.070 -14.782 -14.034  1.00  0.00     0.309 C 
BRANCH  35  37
HETATM   37  C2  UNL     1     -19.156 -16.185 -14.353  1.00  0.00     0.267 C 
HETATM   38  C1  UNL     1     -19.182 -17.658 -14.073  1.00  0.00     0.037 C 
ENDBRANCH  35  37
ENDBRANCH  34  35
ENDBRANCH  33  34
ENDBRANCH  32  33
ENDBRANCH  30  32
ENDBRANCH  27  30
ENDBRANCH   1  27
TORSDOF 12
ENDMDL
