MODEL 1
REMARK VINA RESULT: -9.237118611      0.000      0.000
REMARK  11 active torsions:
REMARK  status: ('A' for Active; 'I' for Inactive)
REMARK    1  A    between atoms: C2_2  and  C3_3 
REMARK    2  A    between atoms: C3_3  and  C4_4 
REMARK    3  A    between atoms: C4_4  and  N1_5 
REMARK    4  A    between atoms: C6_8  and  N3_9 
REMARK    5  A    between atoms: N3_9  and  C7_10 
REMARK       I    between atoms: N3_9  and  C17_23 
REMARK    6  A    between atoms: C7_10  and  C8_11 
REMARK    7  A    between atoms: C8_11  and  C9_12 
REMARK    8  A    between atoms: C9_12  and  C10_13 
REMARK       I    between atoms: C10_13  and  N4_15 
REMARK    9  A    between atoms: N4_15  and  C11_17 
REMARK   10  A    between atoms: C11_17  and  C12_18 
REMARK   11  A    between atoms: C17_23  and  C18_25 
ROOT
HETATM    1  C18 UNL     1      10.278  17.925  15.885  1.00  0.00     0.096 C 
HETATM    2  C19 UNL     1       9.263  16.827  15.965  1.00  0.00     0.015 C 
HETATM    3  C20 UNL     1       9.068  16.073  14.669  1.00  0.00     0.001 C 
HETATM    4  C21 UNL     1      10.204  16.212  13.709  1.00  0.00     0.001 C 
HETATM    5  C22 UNL     1      10.600  17.624  13.438  1.00  0.00     0.020 C 
HETATM    6  C23 UNL     1      10.166  18.579  14.518  1.00  0.00     0.106 C 
HETATM    7  C24 UNL     1       8.776  18.957  14.262  1.00  0.00     0.065 C 
HETATM    8  N5  UNL     1       7.663  19.283  14.055  1.00  0.00    -0.197 NA
ENDROOT
BRANCH   1   9
HETATM    9  C17 UNL     1      10.007  18.946  16.916  1.00  0.00     0.230 C 
HETATM   10  N3  UNL     1      10.897  19.902  17.426  1.00  0.00    -0.310 N 
HETATM   11  O2  UNL     1       8.810  18.937  17.395  1.00  0.00    -0.273 OA
BRANCH  10  12
HETATM   12  C6  UNL     1      12.199  20.057  16.909  1.00  0.00     0.147 A 
HETATM   13  C5  UNL     1      12.524  21.053  15.990  1.00  0.00     0.155 A 
HETATM   14  N1  UNL     1      13.768  21.176  15.496  1.00  0.00    -0.285 N 
HETATM   15  N2  UNL     1      11.532  21.948  15.573  1.00  0.00    -0.080 NA
HETATM   16  C26 UNL     1      14.755  20.353  15.857  1.00  0.00     0.330 A 
HETATM   17  N6  UNL     1      14.484  19.379  16.741  1.00  0.00    -0.273 N 
HETATM   18  O4  UNL     1      15.937  20.473  15.384  1.00  0.00    -0.246 OA
HETATM   19  C25 UNL     1      13.255  19.221  17.259  1.00  0.00     0.279 A 
ATOM     20  H6  UNL     1      15.230  18.744  17.025  1.00  0.00     0.173 HD
HETATM   21  O3  UNL     1      13.029  18.290  18.091  1.00  0.00    -0.265 OA
BRANCH  14  22
HETATM   22  C4  UNL     1      14.047  22.216  14.557  1.00  0.00     0.135 C 
BRANCH  22  23
HETATM   23  C3  UNL     1      13.958  21.744  13.121  1.00  0.00     0.020 C 
BRANCH  23  24
HETATM   24  C2  UNL     1      14.588  22.780  12.212  1.00  0.00    -0.003 C 
HETATM   25  C1  UNL     1      15.624  23.581  12.963  1.00  0.00     0.005 C 
ENDBRANCH  23  24
ENDBRANCH  22  23
ENDBRANCH  14  22
ENDBRANCH  10  12
BRANCH  10  26
HETATM   26  C7  UNL     1      10.481  20.762  18.524  1.00  0.00     0.133 C 
BRANCH  26  27
HETATM   27  C8  UNL     1      11.428  20.720  19.690  1.00  0.00     0.029 C 
BRANCH  27  28
HETATM   28  C9  UNL     1      12.024  22.081  19.884  1.00  0.00     0.104 C 
BRANCH  28  29
HETATM   29  C10 UNL     1      13.300  22.343  19.235  1.00  0.00     0.217 C 
HETATM   30  O1  UNL     1      14.300  21.562  19.253  1.00  0.00    -0.274 OA
HETATM   31  N4  UNL     1      13.450  23.562  18.524  1.00  0.00    -0.361 N 
ATOM     32  H4  UNL     1      12.682  24.232  18.474  1.00  0.00     0.162 HD
BRANCH  31  33
HETATM   33  C11 UNL     1      14.711  23.839  17.870  1.00  0.00     0.127 C 
BRANCH  33  34
HETATM   34  C12 UNL     1      15.415  25.005  18.491  1.00  0.00     0.003 C 
HETATM   35  C13 UNL     1      15.336  25.061  19.982  1.00  0.00     0.006 C 
HETATM   36  C14 UNL     1      16.726  25.417  20.479  1.00  0.00     0.000 C 
HETATM   37  C15 UNL     1      17.544  25.726  19.224  1.00  0.00     0.000 C 
HETATM   38  C16 UNL     1      16.901  24.842  18.201  1.00  0.00     0.006 C 
ENDBRANCH  33  34
ENDBRANCH  31  33
ENDBRANCH  28  29
ENDBRANCH  27  28
ENDBRANCH  26  27
ENDBRANCH  10  26
ENDBRANCH   1   9
TORSDOF 11
ENDMDL
MODEL 2
REMARK VINA RESULT: -8.649950948      0.932      1.191
REMARK  11 active torsions:
REMARK  status: ('A' for Active; 'I' for Inactive)
REMARK    1  A    between atoms: C2_2  and  C3_3 
REMARK    2  A    between atoms: C3_3  and  C4_4 
REMARK    3  A    between atoms: C4_4  and  N1_5 
REMARK    4  A    between atoms: C6_8  and  N3_9 
REMARK    5  A    between atoms: N3_9  and  C7_10 
REMARK       I    between atoms: N3_9  and  C17_23 
REMARK    6  A    between atoms: C7_10  and  C8_11 
REMARK    7  A    between atoms: C8_11  and  C9_12 
REMARK    8  A    between atoms: C9_12  and  C10_13 
REMARK       I    between atoms: C10_13  and  N4_15 
REMARK    9  A    between atoms: N4_15  and  C11_17 
REMARK   10  A    between atoms: C11_17  and  C12_18 
REMARK   11  A    between atoms: C17_23  and  C18_25 
ROOT
HETATM    1  C18 UNL     1      10.034  19.139  15.462  1.00  0.00     0.096 C 
HETATM    2  C19 UNL     1      11.115  18.140  15.186  1.00  0.00     0.015 C 
HETATM    3  C20 UNL     1      10.823  17.221  14.021  1.00  0.00     0.001 C 
HETATM    4  C21 UNL     1       9.789  17.746  13.079  1.00  0.00     0.001 C 
HETATM    5  C22 UNL     1       8.522  18.168  13.743  1.00  0.00     0.020 C 
HETATM    6  C23 UNL     1       8.693  18.472  15.208  1.00  0.00     0.106 C 
HETATM    7  C24 UNL     1       8.619  17.212  15.947  1.00  0.00     0.065 C 
HETATM    8  N5  UNL     1       8.541  16.205  16.554  1.00  0.00    -0.197 NA
ENDROOT
BRANCH   1   9
HETATM    9  C17 UNL     1      10.085  19.568  16.873  1.00  0.00     0.230 C 
HETATM   10  N3  UNL     1      11.207  20.002  17.593  1.00  0.00    -0.310 N 
HETATM   11  O2  UNL     1       8.958  19.528  17.499  1.00  0.00    -0.273 OA
BRANCH  10  12
HETATM   12  C6  UNL     1      12.465  20.170  16.982  1.00  0.00     0.147 A 
HETATM   13  C5  UNL     1      12.737  21.220  16.108  1.00  0.00     0.155 A 
HETATM   14  N1  UNL     1      13.938  21.356  15.522  1.00  0.00    -0.285 N 
HETATM   15  N2  UNL     1      11.734  22.158  15.834  1.00  0.00    -0.080 NA
HETATM   16  C26 UNL     1      14.933  20.494  15.744  1.00  0.00     0.330 A 
HETATM   17  N6  UNL     1      14.713  19.466  16.580  1.00  0.00    -0.273 N 
HETATM   18  O4  UNL     1      16.075  20.625  15.183  1.00  0.00    -0.246 OA
HETATM   19  C25 UNL     1      13.527  19.294  17.187  1.00  0.00     0.279 A 
ATOM     20  H6  UNL     1      15.465  18.801  16.759  1.00  0.00     0.173 HD
HETATM   21  O3  UNL     1      13.349  18.313  17.971  1.00  0.00    -0.265 OA
BRANCH  14  22
HETATM   22  C4  UNL     1      14.163  22.452  14.633  1.00  0.00     0.135 C 
BRANCH  22  23
HETATM   23  C3  UNL     1      14.154  22.035  13.178  1.00  0.00     0.020 C 
BRANCH  23  24
HETATM   24  C2  UNL     1      14.934  23.046  12.361  1.00  0.00    -0.003 C 
HETATM   25  C1  UNL     1      16.090  23.594  13.163  1.00  0.00     0.005 C 
ENDBRANCH  23  24
ENDBRANCH  22  23
ENDBRANCH  14  22
ENDBRANCH  10  12
BRANCH  10  26
HETATM   26  C7  UNL     1      11.084  20.285  19.016  1.00  0.00     0.133 C 
BRANCH  26  27
HETATM   27  C8  UNL     1      11.242  21.744  19.338  1.00  0.00     0.029 C 
BRANCH  27  28
HETATM   28  C9  UNL     1      12.537  21.947  20.063  1.00  0.00     0.104 C 
BRANCH  28  29
HETATM   29  C10 UNL     1      13.673  22.405  19.276  1.00  0.00     0.217 C 
HETATM   30  O1  UNL     1      14.719  21.727  19.044  1.00  0.00    -0.274 OA
HETATM   31  N4  UNL     1      13.616  23.710  18.719  1.00  0.00    -0.361 N 
ATOM     32  H4  UNL     1      12.802  24.305  18.872  1.00  0.00     0.162 HD
BRANCH  31  33
HETATM   33  C11 UNL     1      14.735  24.181  17.931  1.00  0.00     0.127 C 
BRANCH  33  34
HETATM   34  C12 UNL     1      15.412  25.352  18.572  1.00  0.00     0.003 C 
HETATM   35  C13 UNL     1      15.441  25.317  20.065  1.00  0.00     0.006 C 
HETATM   36  C14 UNL     1      16.841  25.732  20.483  1.00  0.00     0.000 C 
HETATM   37  C15 UNL     1      17.543  26.166  19.195  1.00  0.00     0.000 C 
HETATM   38  C16 UNL     1      16.879  25.302  18.168  1.00  0.00     0.006 C 
ENDBRANCH  33  34
ENDBRANCH  31  33
ENDBRANCH  28  29
ENDBRANCH  27  28
ENDBRANCH  26  27
ENDBRANCH  10  26
ENDBRANCH   1   9
TORSDOF 11
ENDMDL
MODEL 3
REMARK VINA RESULT: -8.388211197      1.784      5.473
REMARK  11 active torsions:
REMARK  status: ('A' for Active; 'I' for Inactive)
REMARK    1  A    between atoms: C2_2  and  C3_3 
REMARK    2  A    between atoms: C3_3  and  C4_4 
REMARK    3  A    between atoms: C4_4  and  N1_5 
REMARK    4  A    between atoms: C6_8  and  N3_9 
REMARK    5  A    between atoms: N3_9  and  C7_10 
REMARK       I    between atoms: N3_9  and  C17_23 
REMARK    6  A    between atoms: C7_10  and  C8_11 
REMARK    7  A    between atoms: C8_11  and  C9_12 
REMARK    8  A    between atoms: C9_12  and  C10_13 
REMARK       I    between atoms: C10_13  and  N4_15 
REMARK    9  A    between atoms: N4_15  and  C11_17 
REMARK   10  A    between atoms: C11_17  and  C12_18 
REMARK   11  A    between atoms: C17_23  and  C18_25 
ROOT
HETATM    1  C18 UNL     1      13.383  21.192  15.143  1.00  0.00     0.096 C 
HETATM    2  C19 UNL     1      14.349  22.329  15.272  1.00  0.00     0.015 C 
HETATM    3  C20 UNL     1      14.942  22.787  13.958  1.00  0.00     0.001 C 
HETATM    4  C21 UNL     1      14.145  22.384  12.761  1.00  0.00     0.001 C 
HETATM    5  C22 UNL     1      13.820  20.929  12.710  1.00  0.00     0.020 C 
HETATM    6  C23 UNL     1      13.888  20.259  14.056  1.00  0.00     0.106 C 
HETATM    7  C24 UNL     1      15.282  19.901  14.318  1.00  0.00     0.065 C 
HETATM    8  N5  UNL     1      16.399  19.592  14.531  1.00  0.00    -0.197 NA
ENDROOT
BRANCH   1   9
HETATM    9  C17 UNL     1      13.309  20.440  16.410  1.00  0.00     0.230 C 
HETATM   10  N3  UNL     1      12.254  19.637  16.866  1.00  0.00    -0.310 N 
HETATM   11  O2  UNL     1      14.342  20.551  17.175  1.00  0.00    -0.273 OA
BRANCH  10  12
HETATM   12  C6  UNL     1      11.121  19.375  16.071  1.00  0.00     0.147 A 
HETATM   13  C5  UNL     1      11.000  18.222  15.298  1.00  0.00     0.155 A 
HETATM   14  N1  UNL     1       9.919  17.997  14.533  1.00  0.00    -0.285 N 
HETATM   15  N2  UNL     1      12.031  17.275  15.319  1.00  0.00    -0.080 NA
HETATM   16  C26 UNL     1       8.905  18.862  14.473  1.00  0.00     0.330 A 
HETATM   17  N6  UNL     1       8.980  19.987  15.203  1.00  0.00    -0.273 N 
HETATM   18  O4  UNL     1       7.877  18.645  13.743  1.00  0.00    -0.246 OA
HETATM   19  C25 UNL     1      10.043  20.252  15.980  1.00  0.00     0.279 A 
ATOM     20  H6  UNL     1       8.212  20.656  15.165  1.00  0.00     0.173 HD
HETATM   21  O3  UNL     1      10.087  21.323  16.658  1.00  0.00    -0.265 OA
BRANCH  14  22
HETATM   22  C4  UNL     1       9.847  16.797  13.760  1.00  0.00     0.135 C 
BRANCH  22  23
HETATM   23  C3  UNL     1       9.131  15.677  14.485  1.00  0.00     0.020 C 
BRANCH  23  24
HETATM   24  C2  UNL     1       7.998  15.162  13.619  1.00  0.00    -0.003 C 
HETATM   25  C1  UNL     1       6.875  14.634  14.478  1.00  0.00     0.005 C 
ENDBRANCH  23  24
ENDBRANCH  22  23
ENDBRANCH  14  22
ENDBRANCH  10  12
BRANCH  10  26
HETATM   26  C7  UNL     1      12.315  19.055  18.200  1.00  0.00     0.133 C 
BRANCH  26  27
HETATM   27  C8  UNL     1      11.135  19.426  19.053  1.00  0.00     0.029 C 
BRANCH  27  28
HETATM   28  C9  UNL     1      11.568  20.433  20.074  1.00  0.00     0.104 C 
BRANCH  28  29
HETATM   29  C10 UNL     1      11.994  21.734  19.582  1.00  0.00     0.217 C 
HETATM   30  O1  UNL     1      11.226  22.612  19.083  1.00  0.00    -0.274 OA
HETATM   31  N4  UNL     1      13.374  22.059  19.662  1.00  0.00    -0.361 N 
ATOM     32  H4  UNL     1      14.043  21.394  20.052  1.00  0.00     0.162 HD
BRANCH  31  33
HETATM   33  C11 UNL     1      13.816  23.350  19.180  1.00  0.00     0.127 C 
BRANCH  33  34
HETATM   34  C12 UNL     1      15.279  23.561  19.417  1.00  0.00     0.003 C 
HETATM   35  C13 UNL     1      16.027  24.121  18.251  1.00  0.00     0.006 C 
HETATM   36  C14 UNL     1      16.946  25.198  18.800  1.00  0.00     0.000 C 
HETATM   37  C15 UNL     1      16.819  25.110  20.322  1.00  0.00     0.000 C 
HETATM   38  C16 UNL     1      15.412  24.629  20.495  1.00  0.00     0.006 C 
ENDBRANCH  33  34
ENDBRANCH  31  33
ENDBRANCH  28  29
ENDBRANCH  27  28
ENDBRANCH  26  27
ENDBRANCH  10  26
ENDBRANCH   1   9
TORSDOF 11
ENDMDL
MODEL 4
REMARK VINA RESULT: -8.274401818      2.321      6.940
REMARK  11 active torsions:
REMARK  status: ('A' for Active; 'I' for Inactive)
REMARK    1  A    between atoms: C2_2  and  C3_3 
REMARK    2  A    between atoms: C3_3  and  C4_4 
REMARK    3  A    between atoms: C4_4  and  N1_5 
REMARK    4  A    between atoms: C6_8  and  N3_9 
REMARK    5  A    between atoms: N3_9  and  C7_10 
REMARK       I    between atoms: N3_9  and  C17_23 
REMARK    6  A    between atoms: C7_10  and  C8_11 
REMARK    7  A    between atoms: C8_11  and  C9_12 
REMARK    8  A    between atoms: C9_12  and  C10_13 
REMARK       I    between atoms: C10_13  and  N4_15 
REMARK    9  A    between atoms: N4_15  and  C11_17 
REMARK   10  A    between atoms: C11_17  and  C12_18 
REMARK   11  A    between atoms: C17_23  and  C18_25 
ROOT
HETATM    1  C18 UNL     1      14.510  22.656  15.162  1.00  0.00     0.096 C 
HETATM    2  C19 UNL     1      15.823  23.192  14.681  1.00  0.00     0.015 C 
HETATM    3  C20 UNL     1      16.042  23.041  13.192  1.00  0.00     0.001 C 
HETATM    4  C21 UNL     1      14.785  22.843  12.411  1.00  0.00     0.001 C 
HETATM    5  C22 UNL     1      13.918  21.744  12.926  1.00  0.00     0.020 C 
HETATM    6  C23 UNL     1      14.187  21.402  14.367  1.00  0.00     0.106 C 
HETATM    7  C24 UNL     1      15.322  20.480  14.413  1.00  0.00     0.065 C 
HETATM    8  N5  UNL     1      16.223  19.723  14.462  1.00  0.00    -0.197 NA
ENDROOT
BRANCH   1   9
HETATM    9  C17 UNL     1      14.598  22.296  16.590  1.00  0.00     0.230 C 
HETATM   10  N3  UNL     1      13.632  21.640  17.366  1.00  0.00    -0.310 N 
HETATM   11  O2  UNL     1      15.695  22.638  17.175  1.00  0.00    -0.273 OA
BRANCH  10  12
HETATM   12  C6  UNL     1      12.438  21.144  16.806  1.00  0.00     0.147 A 
HETATM   13  C5  UNL     1      12.235  19.787  16.562  1.00  0.00     0.155 A 
HETATM   14  N1  UNL     1      11.096  19.333  16.012  1.00  0.00    -0.285 N 
HETATM   15  N2  UNL     1      13.241  18.874  16.899  1.00  0.00    -0.080 NA
HETATM   16  C26 UNL     1      10.101  20.155  15.670  1.00  0.00     0.330 A 
HETATM   17  N6  UNL     1      10.256  21.471  15.888  1.00  0.00    -0.273 N 
HETATM   18  O4  UNL     1       9.019  19.720  15.146  1.00  0.00    -0.246 OA
HETATM   19  C25 UNL     1      11.378  21.967  16.436  1.00  0.00     0.279 A 
ATOM     20  H6  UNL     1       9.503  22.109  15.632  1.00  0.00     0.173 HD
HETATM   21  O3  UNL     1      11.496  23.215  16.628  1.00  0.00    -0.265 OA
BRANCH  14  22
HETATM   22  C4  UNL     1      10.940  17.931  15.784  1.00  0.00     0.135 C 
BRANCH  22  23
HETATM   23  C3  UNL     1      11.205  17.541  14.345  1.00  0.00     0.020 C 
BRANCH  23  24
HETATM   24  C2  UNL     1      10.084  16.647  13.853  1.00  0.00    -0.003 C 
HETATM   25  C1  UNL     1       9.160  16.285  14.989  1.00  0.00     0.005 C 
ENDBRANCH  23  24
ENDBRANCH  22  23
ENDBRANCH  14  22
ENDBRANCH  10  12
BRANCH  10  26
HETATM   26  C7  UNL     1      13.852  21.465  18.795  1.00  0.00     0.133 C 
BRANCH  26  27
HETATM   27  C8  UNL     1      13.121  22.481  19.627  1.00  0.00     0.029 C 
BRANCH  27  28
HETATM   28  C9  UNL     1      12.113  21.776  20.483  1.00  0.00     0.104 C 
BRANCH  28  29
HETATM   29  C10 UNL     1      10.779  21.604  19.930  1.00  0.00     0.217 C 
HETATM   30  O1  UNL     1       9.977  22.548  19.654  1.00  0.00    -0.274 OA
HETATM   31  N4  UNL     1      10.327  20.282  19.673  1.00  0.00    -0.361 N 
ATOM     32  H4  UNL     1      10.925  19.481  19.876  1.00  0.00     0.162 HD
BRANCH  31  33
HETATM   33  C11 UNL     1       9.003  20.092  19.120  1.00  0.00     0.127 C 
BRANCH  33  34
HETATM   34  C12 UNL     1       8.388  18.808  19.580  1.00  0.00     0.003 C 
HETATM   35  C13 UNL     1       6.985  18.931  20.078  1.00  0.00     0.006 C 
HETATM   36  C14 UNL     1       6.210  17.766  19.488  1.00  0.00     0.000 C 
HETATM   37  C15 UNL     1       7.251  16.893  18.787  1.00  0.00     0.000 C 
HETATM   38  C16 UNL     1       8.275  17.899  18.363  1.00  0.00     0.006 C 
ENDBRANCH  33  34
ENDBRANCH  31  33
ENDBRANCH  28  29
ENDBRANCH  27  28
ENDBRANCH  26  27
ENDBRANCH  10  26
ENDBRANCH   1   9
TORSDOF 11
ENDMDL
MODEL 5
REMARK VINA RESULT: -8.250284747      1.847      8.260
REMARK  11 active torsions:
REMARK  status: ('A' for Active; 'I' for Inactive)
REMARK    1  A    between atoms: C2_2  and  C3_3 
REMARK    2  A    between atoms: C3_3  and  C4_4 
REMARK    3  A    between atoms: C4_4  and  N1_5 
REMARK    4  A    between atoms: C6_8  and  N3_9 
REMARK    5  A    between atoms: N3_9  and  C7_10 
REMARK       I    between atoms: N3_9  and  C17_23 
REMARK    6  A    between atoms: C7_10  and  C8_11 
REMARK    7  A    between atoms: C8_11  and  C9_12 
REMARK    8  A    between atoms: C9_12  and  C10_13 
REMARK       I    between atoms: C10_13  and  N4_15 
REMARK    9  A    between atoms: N4_15  and  C11_17 
REMARK   10  A    between atoms: C11_17  and  C12_18 
REMARK   11  A    between atoms: C17_23  and  C18_25 
ROOT
HETATM    1  C18 UNL     1      15.744  23.298  18.047  1.00  0.00     0.096 C 
HETATM    2  C19 UNL     1      16.952  24.176  18.165  1.00  0.00     0.015 C 
HETATM    3  C20 UNL     1      17.084  24.866  19.504  1.00  0.00     0.001 C 
HETATM    4  C21 UNL     1      16.305  24.217  20.600  1.00  0.00     0.001 C 
HETATM    5  C22 UNL     1      14.869  23.987  20.269  1.00  0.00     0.020 C 
HETATM    6  C23 UNL     1      14.597  23.964  18.788  1.00  0.00     0.106 C 
HETATM    7  C24 UNL     1      14.446  25.345  18.331  1.00  0.00     0.065 C 
HETATM    8  N5  UNL     1      14.303  26.452  17.954  1.00  0.00    -0.197 NA
ENDROOT
BRANCH   1   9
HETATM    9  C17 UNL     1      15.361  23.146  16.630  1.00  0.00     0.230 C 
HETATM   10  N3  UNL     1      14.444  22.235  16.087  1.00  0.00    -0.310 N 
HETATM   11  O2  UNL     1      15.952  23.950  15.813  1.00  0.00    -0.273 OA
BRANCH  10  12
HETATM   12  C6  UNL     1      13.678  21.376  16.899  1.00  0.00     0.147 A 
HETATM   13  C5  UNL     1      12.370  21.673  17.277  1.00  0.00     0.155 A 
HETATM   14  N1  UNL     1      11.660  20.849  18.065  1.00  0.00    -0.285 N 
HETATM   15  N2  UNL     1      11.781  22.860  16.822  1.00  0.00    -0.080 NA
HETATM   16  C26 UNL     1      12.167  19.705  18.529  1.00  0.00     0.330 A 
HETATM   17  N6  UNL     1      13.425  19.380  18.189  1.00  0.00    -0.273 N 
HETATM   18  O4  UNL     1      11.489  18.924  19.280  1.00  0.00    -0.246 OA
HETATM   19  C25 UNL     1      14.170  20.175  17.403  1.00  0.00     0.279 A 
ATOM     20  H6  UNL     1      13.824  18.508  18.536  1.00  0.00     0.173 HD
HETATM   21  O3  UNL     1      15.356  19.841  17.100  1.00  0.00    -0.265 OA
BRANCH  14  22
HETATM   22  C4  UNL     1      10.322  21.203  18.422  1.00  0.00     0.135 C 
BRANCH  22  23
HETATM   23  C3  UNL     1      10.246  21.944  19.740  1.00  0.00     0.020 C 
BRANCH  23  24
HETATM   24  C2  UNL     1       9.120  21.368  20.576  1.00  0.00    -0.003 C 
HETATM   25  C1  UNL     1       8.379  20.305  19.802  1.00  0.00     0.005 C 
ENDBRANCH  23  24
ENDBRANCH  22  23
ENDBRANCH  14  22
ENDBRANCH  10  12
BRANCH  10  26
HETATM   26  C7  UNL     1      14.273  22.159  14.643  1.00  0.00     0.133 C 
BRANCH  26  27
HETATM   27  C8  UNL     1      14.472  20.770  14.104  1.00  0.00     0.029 C 
BRANCH  27  28
HETATM   28  C9  UNL     1      13.216  20.328  13.416  1.00  0.00     0.104 C 
BRANCH  28  29
HETATM   29  C10 UNL     1      12.586  19.112  13.906  1.00  0.00     0.217 C 
HETATM   30  O1  UNL     1      12.838  18.558  15.019  1.00  0.00    -0.274 OA
HETATM   31  N4  UNL     1      11.611  18.487  13.084  1.00  0.00    -0.361 N 
ATOM     32  H4  UNL     1      11.365  18.884  12.177  1.00  0.00     0.162 HD
BRANCH  31  33
HETATM   33  C11 UNL     1      10.971  17.278  13.556  1.00  0.00     0.127 C 
BRANCH  33  34
HETATM   34  C12 UNL     1       9.481  17.359  13.450  1.00  0.00     0.003 C 
HETATM   35  C13 UNL     1       8.737  16.476  14.398  1.00  0.00     0.006 C 
HETATM   36  C14 UNL     1       7.600  17.306  14.966  1.00  0.00     0.000 C 
HETATM   37  C15 UNL     1       7.622  18.622  14.186  1.00  0.00     0.000 C 
HETATM   38  C16 UNL     1       9.075  18.770  13.856  1.00  0.00     0.006 C 
ENDBRANCH  33  34
ENDBRANCH  31  33
ENDBRANCH  28  29
ENDBRANCH  27  28
ENDBRANCH  26  27
ENDBRANCH  10  26
ENDBRANCH   1   9
TORSDOF 11
ENDMDL
