MODEL 1
REMARK VINA RESULT: -8.883770669      0.000      0.000
REMARK  12 active torsions:
REMARK  status: ('A' for Active; 'I' for Inactive)
REMARK    1  A    between atoms: C2_2  and  C3_3 
REMARK    2  A    between atoms: C3_3  and  C4_4 
REMARK    3  A    between atoms: C4_4  and  C5_5 
REMARK    4  A    between atoms: C5_5  and  N1_6 
REMARK    5  A    between atoms: C9_15  and  C10_16 
REMARK    6  A    between atoms: C13_21  and  O2_22 
REMARK    7  A    between atoms: O2_22  and  C14_23 
REMARK    8  A    between atoms: C14_23  and  C15_24 
REMARK    9  A    between atoms: C15_24  and  N5_25 
REMARK   10  A    between atoms: C16_27  and  C17_28 
REMARK   11  A    between atoms: C17_28  and  C18_29 
REMARK   12  A    between atoms: N7_35  and  O3_37 
ROOT
HETATM    1  C10 UNL     1      14.802  23.015  18.883  1.00  0.00     0.134 A 
HETATM    2  N4  UNL     1      14.871  23.917  19.855  1.00  0.00    -0.350 N 
ATOM      3  H4  UNL     1      14.094  23.969  20.515  1.00  0.00     0.166 HD
HETATM    4  C11 UNL     1      15.897  24.764  20.025  1.00  0.00     0.094 A 
HETATM    5  C12 UNL     1      16.944  24.689  19.132  1.00  0.00     0.073 A 
HETATM    6  C13 UNL     1      16.899  23.748  18.096  1.00  0.00     0.145 A 
HETATM    7  N8  UNL     1      15.821  22.941  18.011  1.00  0.00    -0.321 N 
ATOM      8  H8  UNL     1      15.777  22.253  17.259  1.00  0.00     0.169 HD
ENDROOT
BRANCH   1   9
HETATM    9  C9  UNL     1      13.635  22.133  18.783  1.00  0.00     0.079 A 
HETATM   10  N3  UNL     1      12.437  22.300  19.387  1.00  0.00    -0.339 N 
HETATM   11  C8  UNL     1      11.606  21.280  19.058  1.00  0.00     0.124 A 
ATOM     12  H3  UNL     1      12.195  23.079  20.000  1.00  0.00     0.167 HD
HETATM   13  N2  UNL     1      10.260  21.128  19.512  1.00  0.00    -0.311 N 
HETATM   14  C24 UNL     1      12.310  20.445  18.219  1.00  0.00     0.078 A 
HETATM   15  C7  UNL     1       9.313  20.180  19.025  1.00  0.00     0.241 C 
ATOM     16  H2  UNL     1       9.947  21.755  20.252  1.00  0.00     0.170 HD
HETATM   17  C6  UNL     1       9.241  19.462  17.732  1.00  0.00     0.229 C 
HETATM   18  O1  UNL     1       8.371  19.906  19.843  1.00  0.00    -0.271 OA
HETATM   19  N1  UNL     1      10.464  18.793  17.357  1.00  0.00    -0.339 N 
HETATM   20  C25 UNL     1      11.797  19.212  17.617  1.00  0.00     0.258 C 
HETATM   21  O4  UNL     1      12.720  18.393  17.279  1.00  0.00    -0.267 OA
HETATM   22  C23 UNL     1      13.546  20.983  18.064  1.00  0.00     0.054 A 
BRANCH  19  23
HETATM   23  C5  UNL     1      10.388  17.563  16.628  1.00  0.00     0.127 C 
BRANCH  23  24
HETATM   24  C4  UNL     1       9.156  17.372  15.811  1.00  0.00     0.020 C 
BRANCH  24  25
HETATM   25  C3  UNL     1       9.435  16.815  14.431  1.00  0.00     0.001 C 
BRANCH  25  26
HETATM   26  C2  UNL     1       9.120  17.919  13.418  1.00  0.00    -0.004 C 
HETATM   27  C1  UNL     1       8.118  18.875  13.998  1.00  0.00     0.005 C 
ENDBRANCH  25  26
ENDBRANCH  24  25
ENDBRANCH  23  24
ENDBRANCH  19  23
ENDBRANCH   1   9
BRANCH   6  28
HETATM   28  O2  UNL     1      17.965  23.694  17.210  1.00  0.00    -0.328 OA
BRANCH  28  29
HETATM   29  C14 UNL     1      17.890  24.358  15.963  1.00  0.00     0.255 C 
BRANCH  29  30
HETATM   30  C15 UNL     1      17.619  23.459  14.848  1.00  0.00     0.125 C 
HETATM   31  N7  UNL     1      17.772  23.857  13.639  1.00  0.00    -0.253 N 
ATOM     32  H7  UNL     1      17.584  23.223  12.862  1.00  0.00     0.195 HD
BRANCH  30  33
HETATM   33  N5  UNL     1      17.183  22.122  15.059  1.00  0.00    -0.356 N 
HETATM   34  C16 UNL     1      16.109  21.658  14.563  1.00  0.00     0.068 C 
ATOM     35  H5  UNL     1      17.759  21.508  15.635  1.00  0.00     0.166 HD
BRANCH  34  36
HETATM   36  C17 UNL     1      15.742  20.250  14.843  1.00  0.00     0.101 C 
BRANCH  36  37
HETATM   37  C18 UNL     1      14.344  19.931  14.500  1.00  0.00     0.013 A 
HETATM   38  C19 UNL     1      13.324  20.867  14.334  1.00  0.00     0.026 A 
HETATM   39  C20 UNL     1      12.165  20.185  14.020  1.00  0.00     0.019 A 
HETATM   40  C21 UNL     1      12.516  18.840  14.005  1.00  0.00     0.088 A 
HETATM   41  N6  UNL     1      13.816  18.711  14.294  1.00  0.00    -0.369 N 
ATOM     42  H6  UNL     1      14.325  17.829  14.349  1.00  0.00     0.165 HD
ENDBRANCH  36  37
ENDBRANCH  34  36
ENDBRANCH  30  33
BRANCH  31  43
HETATM   43  O3  UNL     1      18.188  25.128  13.398  1.00  0.00    -0.284 OA
HETATM   44  C22 UNL     1      17.342  25.966  12.620  1.00  0.00     0.237 C 
ENDBRANCH  31  43
ENDBRANCH  29  30
ENDBRANCH  28  29
ENDBRANCH   6  28
TORSDOF 12
ENDMDL
MODEL 2
REMARK VINA RESULT: -8.749798613      2.021      2.826
REMARK  12 active torsions:
REMARK  status: ('A' for Active; 'I' for Inactive)
REMARK    1  A    between atoms: C2_2  and  C3_3 
REMARK    2  A    between atoms: C3_3  and  C4_4 
REMARK    3  A    between atoms: C4_4  and  C5_5 
REMARK    4  A    between atoms: C5_5  and  N1_6 
REMARK    5  A    between atoms: C9_15  and  C10_16 
REMARK    6  A    between atoms: C13_21  and  O2_22 
REMARK    7  A    between atoms: O2_22  and  C14_23 
REMARK    8  A    between atoms: C14_23  and  C15_24 
REMARK    9  A    between atoms: C15_24  and  N5_25 
REMARK   10  A    between atoms: C16_27  and  C17_28 
REMARK   11  A    between atoms: C17_28  and  C18_29 
REMARK   12  A    between atoms: N7_35  and  O3_37 
ROOT
HETATM    1  C10 UNL     1      15.335  24.184  18.835  1.00  0.00     0.134 A 
HETATM    2  N4  UNL     1      15.609  24.315  20.129  1.00  0.00    -0.350 N 
ATOM      3  H4  UNL     1      15.230  23.617  20.770  1.00  0.00     0.166 HD
HETATM    4  C11 UNL     1      16.352  25.305  20.644  1.00  0.00     0.094 A 
HETATM    5  C12 UNL     1      16.862  26.244  19.774  1.00  0.00     0.073 A 
HETATM    6  C13 UNL     1      16.589  26.133  18.405  1.00  0.00     0.145 A 
HETATM    7  N8  UNL     1      15.830  25.099  17.985  1.00  0.00    -0.321 N 
ATOM      8  H8  UNL     1      15.624  25.009  16.990  1.00  0.00     0.169 HD
ENDROOT
BRANCH   1   9
HETATM    9  C9  UNL     1      14.512  23.063  18.371  1.00  0.00     0.079 A 
HETATM   10  N3  UNL     1      14.753  21.747  18.559  1.00  0.00    -0.339 N 
HETATM   11  C8  UNL     1      13.769  21.009  17.985  1.00  0.00     0.124 A 
ATOM     12  H3  UNL     1      15.555  21.365  19.059  1.00  0.00     0.167 HD
HETATM   13  N2  UNL     1      13.694  19.583  17.986  1.00  0.00    -0.311 N 
HETATM   14  C24 UNL     1      12.882  21.898  17.418  1.00  0.00     0.078 A 
HETATM   15  C7  UNL     1      12.578  18.801  17.567  1.00  0.00     0.241 C 
ATOM     16  H2  UNL     1      14.515  19.077  18.317  1.00  0.00     0.170 HD
HETATM   17  C6  UNL     1      11.141  19.144  17.468  1.00  0.00     0.229 C 
HETATM   18  O1  UNL     1      12.870  17.608  17.218  1.00  0.00    -0.271 OA
HETATM   19  N1  UNL     1      10.870  20.360  16.738  1.00  0.00    -0.339 N 
HETATM   20  C25 UNL     1      11.664  21.537  16.689  1.00  0.00     0.258 C 
HETATM   21  O4  UNL     1      11.269  22.448  15.882  1.00  0.00    -0.267 OA
HETATM   22  C23 UNL     1      13.354  23.146  17.663  1.00  0.00     0.054 A 
BRANCH  19  23
HETATM   23  C5  UNL     1       9.671  20.450  15.960  1.00  0.00     0.127 C 
BRANCH  23  24
HETATM   24  C4  UNL     1       9.094  19.151  15.509  1.00  0.00     0.020 C 
BRANCH  24  25
HETATM   25  C3  UNL     1       9.360  18.855  14.049  1.00  0.00     0.001 C 
BRANCH  25  26
HETATM   26  C2  UNL     1      10.536  17.876  13.985  1.00  0.00    -0.004 C 
HETATM   27  C1  UNL     1      11.766  18.586  13.499  1.00  0.00     0.005 C 
ENDBRANCH  25  26
ENDBRANCH  24  25
ENDBRANCH  23  24
ENDBRANCH  19  23
ENDBRANCH   1   9
BRANCH   6  28
HETATM   28  O2  UNL     1      17.113  27.092  17.550  1.00  0.00    -0.328 OA
BRANCH  28  29
HETATM   29  C14 UNL     1      18.380  26.897  16.950  1.00  0.00     0.255 C 
BRANCH  29  30
HETATM   30  C15 UNL     1      18.307  26.220  15.661  1.00  0.00     0.125 C 
HETATM   31  N7  UNL     1      18.213  26.896  14.576  1.00  0.00    -0.253 N 
ATOM     32  H7  UNL     1      18.165  26.419  13.676  1.00  0.00     0.195 HD
BRANCH  30  33
HETATM   33  N5  UNL     1      18.341  24.803  15.562  1.00  0.00    -0.356 N 
HETATM   34  C16 UNL     1      17.530  24.139  14.842  1.00  0.00     0.068 C 
ATOM     35  H5  UNL     1      19.049  24.294  16.093  1.00  0.00     0.166 HD
BRANCH  34  36
HETATM   36  C17 UNL     1      17.648  22.662  14.807  1.00  0.00     0.101 C 
BRANCH  36  37
HETATM   37  C18 UNL     1      16.363  21.978  14.576  1.00  0.00     0.013 A 
HETATM   38  C19 UNL     1      15.240  22.557  13.987  1.00  0.00     0.026 A 
HETATM   39  C20 UNL     1      14.240  21.605  13.947  1.00  0.00     0.019 A 
HETATM   40  C21 UNL     1      14.789  20.464  14.519  1.00  0.00     0.088 A 
HETATM   41  N6  UNL     1      16.052  20.708  14.888  1.00  0.00    -0.369 N 
ATOM     42  H6  UNL     1      16.678  20.037  15.334  1.00  0.00     0.165 HD
ENDBRANCH  36  37
ENDBRANCH  34  36
ENDBRANCH  30  33
BRANCH  31  43
HETATM   43  O3  UNL     1      18.178  28.254  14.631  1.00  0.00    -0.284 OA
HETATM   44  C22 UNL     1      18.522  28.974  13.454  1.00  0.00     0.237 C 
ENDBRANCH  31  43
ENDBRANCH  29  30
ENDBRANCH  28  29
ENDBRANCH   6  28
TORSDOF 12
ENDMDL
MODEL 3
REMARK VINA RESULT: -8.723596299      2.704      8.378
REMARK  12 active torsions:
REMARK  status: ('A' for Active; 'I' for Inactive)
REMARK    1  A    between atoms: C2_2  and  C3_3 
REMARK    2  A    between atoms: C3_3  and  C4_4 
REMARK    3  A    between atoms: C4_4  and  C5_5 
REMARK    4  A    between atoms: C5_5  and  N1_6 
REMARK    5  A    between atoms: C9_15  and  C10_16 
REMARK    6  A    between atoms: C13_21  and  O2_22 
REMARK    7  A    between atoms: O2_22  and  C14_23 
REMARK    8  A    between atoms: C14_23  and  C15_24 
REMARK    9  A    between atoms: C15_24  and  N5_25 
REMARK   10  A    between atoms: C16_27  and  C17_28 
REMARK   11  A    between atoms: C17_28  and  C18_29 
REMARK   12  A    between atoms: N7_35  and  O3_37 
ROOT
HETATM    1  C10 UNL     1       9.196  18.920  18.805  1.00  0.00     0.134 A 
HETATM    2  N4  UNL     1       8.180  19.198  19.615  1.00  0.00    -0.350 N 
ATOM      3  H4  UNL     1       8.224  20.060  20.158  1.00  0.00     0.166 HD
HETATM    4  C11 UNL     1       7.099  18.417  19.762  1.00  0.00     0.094 A 
HETATM    5  C12 UNL     1       7.044  17.254  19.025  1.00  0.00     0.073 A 
HETATM    6  C13 UNL     1       8.101  16.934  18.164  1.00  0.00     0.145 A 
HETATM    7  N8  UNL     1       9.145  17.786  18.087  1.00  0.00    -0.321 N 
ATOM      8  H8  UNL     1       9.920  17.562  17.464  1.00  0.00     0.169 HD
ENDROOT
BRANCH   1   9
HETATM    9  C9  UNL     1      10.333  19.840  18.715  1.00  0.00     0.079 A 
HETATM   10  N3  UNL     1      11.042  20.358  19.743  1.00  0.00    -0.339 N 
HETATM   11  C8  UNL     1      12.020  21.170  19.269  1.00  0.00     0.124 A 
ATOM     12  H3  UNL     1      10.868  20.166  20.729  1.00  0.00     0.167 HD
HETATM   13  N2  UNL     1      12.963  21.887  20.067  1.00  0.00    -0.311 N 
HETATM   14  C24 UNL     1      11.917  21.160  17.895  1.00  0.00     0.078 A 
HETATM   15  C7  UNL     1      14.112  22.581  19.588  1.00  0.00     0.241 C 
ATOM     16  H2  UNL     1      12.799  21.904  21.073  1.00  0.00     0.170 HD
HETATM   17  C6  UNL     1      14.893  22.412  18.341  1.00  0.00     0.229 C 
HETATM   18  O1  UNL     1      14.536  23.501  20.365  1.00  0.00    -0.271 OA
HETATM   19  N1  UNL     1      14.094  22.410  17.138  1.00  0.00    -0.339 N 
HETATM   20  C25 UNL     1      12.778  21.902  16.971  1.00  0.00     0.258 C 
HETATM   21  O4  UNL     1      12.234  22.113  15.832  1.00  0.00    -0.267 OA
HETATM   22  C23 UNL     1      10.881  20.343  17.577  1.00  0.00     0.054 A 
BRANCH  19  23
HETATM   23  C5  UNL     1      14.644  22.967  15.939  1.00  0.00     0.127 C 
BRANCH  23  24
HETATM   24  C4  UNL     1      15.864  22.290  15.412  1.00  0.00     0.020 C 
BRANCH  24  25
HETATM   25  C3  UNL     1      15.664  21.683  14.041  1.00  0.00     0.001 C 
BRANCH  25  26
HETATM   26  C2  UNL     1      14.893  22.700  13.195  1.00  0.00    -0.004 C 
HETATM   27  C1  UNL     1      13.975  21.984  12.247  1.00  0.00     0.005 C 
ENDBRANCH  25  26
ENDBRANCH  24  25
ENDBRANCH  23  24
ENDBRANCH  19  23
ENDBRANCH   1   9
BRANCH   6  28
HETATM   28  O2  UNL     1       8.021  15.756  17.434  1.00  0.00    -0.328 OA
BRANCH  28  29
HETATM   29  C14 UNL     1       6.947  15.544  16.538  1.00  0.00     0.255 C 
BRANCH  29  30
HETATM   30  C15 UNL     1       6.850  16.568  15.504  1.00  0.00     0.125 C 
HETATM   31  N7  UNL     1       5.813  17.318  15.427  1.00  0.00    -0.253 N 
ATOM     32  H7  UNL     1       5.751  18.034  14.703  1.00  0.00     0.195 HD
BRANCH  30  33
HETATM   33  N5  UNL     1       7.891  16.770  14.557  1.00  0.00    -0.356 N 
HETATM   34  C16 UNL     1       8.411  17.908  14.333  1.00  0.00     0.068 C 
ATOM     35  H5  UNL     1       8.236  15.965  14.034  1.00  0.00     0.166 HD
BRANCH  34  36
HETATM   36  C17 UNL     1       9.492  18.014  13.325  1.00  0.00     0.101 C 
BRANCH  36  37
HETATM   37  C18 UNL     1      10.824  18.235  13.917  1.00  0.00     0.013 A 
HETATM   38  C19 UNL     1      11.862  18.944  13.314  1.00  0.00     0.026 A 
HETATM   39  C20 UNL     1      12.943  18.932  14.174  1.00  0.00     0.019 A 
HETATM   40  C21 UNL     1      12.527  18.207  15.284  1.00  0.00     0.088 A 
HETATM   41  N6  UNL     1      11.264  17.801  15.111  1.00  0.00    -0.369 N 
ATOM     42  H6  UNL     1      10.723  17.251  15.777  1.00  0.00     0.165 HD
ENDBRANCH  36  37
ENDBRANCH  34  36
ENDBRANCH  30  33
BRANCH  31  43
HETATM   43  O3  UNL     1       4.798  17.154  16.315  1.00  0.00    -0.284 OA
HETATM   44  C22 UNL     1       3.574  16.615  15.831  1.00  0.00     0.237 C 
ENDBRANCH  31  43
ENDBRANCH  29  30
ENDBRANCH  28  29
ENDBRANCH   6  28
TORSDOF 12
ENDMDL
MODEL 4
REMARK VINA RESULT: -8.718188906      2.678      9.628
REMARK  12 active torsions:
REMARK  status: ('A' for Active; 'I' for Inactive)
REMARK    1  A    between atoms: C2_2  and  C3_3 
REMARK    2  A    between atoms: C3_3  and  C4_4 
REMARK    3  A    between atoms: C4_4  and  C5_5 
REMARK    4  A    between atoms: C5_5  and  N1_6 
REMARK    5  A    between atoms: C9_15  and  C10_16 
REMARK    6  A    between atoms: C13_21  and  O2_22 
REMARK    7  A    between atoms: O2_22  and  C14_23 
REMARK    8  A    between atoms: C14_23  and  C15_24 
REMARK    9  A    between atoms: C15_24  and  N5_25 
REMARK   10  A    between atoms: C16_27  and  C17_28 
REMARK   11  A    between atoms: C17_28  and  C18_29 
REMARK   12  A    between atoms: N7_35  and  O3_37 
ROOT
HETATM    1  C10 UNL     1       9.888  17.394  15.069  1.00  0.00     0.134 A 
HETATM    2  N4  UNL     1       9.506  16.911  13.891  1.00  0.00    -0.350 N 
ATOM      3  H4  UNL     1       9.984  17.253  13.057  1.00  0.00     0.166 HD
HETATM    4  C11 UNL     1       8.533  16.003  13.730  1.00  0.00     0.094 A 
HETATM    5  C12 UNL     1       7.890  15.544  14.860  1.00  0.00     0.073 A 
HETATM    6  C13 UNL     1       8.271  16.035  16.114  1.00  0.00     0.145 A 
HETATM    7  N8  UNL     1       9.263  16.948  16.171  1.00  0.00    -0.321 N 
ATOM      8  H8  UNL     1       9.547  17.313  17.080  1.00  0.00     0.169 HD
ENDROOT
BRANCH   1   9
HETATM    9  C9  UNL     1      10.965  18.385  15.139  1.00  0.00     0.079 A 
HETATM   10  N3  UNL     1      11.398  19.186  14.140  1.00  0.00    -0.339 N 
HETATM   11  C8  UNL     1      12.411  19.972  14.582  1.00  0.00     0.124 A 
ATOM     12  H3  UNL     1      11.018  19.197  13.194  1.00  0.00     0.167 HD
HETATM   13  N2  UNL     1      13.111  20.941  13.800  1.00  0.00    -0.311 N 
HETATM   14  C24 UNL     1      12.619  19.651  15.905  1.00  0.00     0.078 A 
HETATM   15  C7  UNL     1      14.035  21.909  14.293  1.00  0.00     0.241 C 
ATOM     16  H2  UNL     1      12.933  20.941  12.796  1.00  0.00     0.170 HD
HETATM   17  C6  UNL     1      14.194  22.492  15.645  1.00  0.00     0.229 C 
HETATM   18  O1  UNL     1      14.862  22.342  13.421  1.00  0.00    -0.271 OA
HETATM   19  N1  UNL     1      14.281  21.515  16.704  1.00  0.00    -0.339 N 
HETATM   20  C25 UNL     1      13.623  20.258  16.782  1.00  0.00     0.258 C 
HETATM   21  O4  UNL     1      13.944  19.515  17.774  1.00  0.00    -0.267 OA
HETATM   22  C23 UNL     1      11.727  18.680  16.226  1.00  0.00     0.054 A 
BRANCH  19  23
HETATM   23  C5  UNL     1      15.107  21.794  17.841  1.00  0.00     0.127 C 
BRANCH  23  24
HETATM   24  C4  UNL     1      15.445  23.230  18.056  1.00  0.00     0.020 C 
BRANCH  24  25
HETATM   25  C3  UNL     1      14.881  23.789  19.344  1.00  0.00     0.001 C 
BRANCH  25  26
HETATM   26  C2  UNL     1      15.399  25.223  19.489  1.00  0.00    -0.004 C 
HETATM   27  C1  UNL     1      16.529  25.260  20.477  1.00  0.00     0.005 C 
ENDBRANCH  25  26
ENDBRANCH  24  25
ENDBRANCH  23  24
ENDBRANCH  19  23
ENDBRANCH   1   9
BRANCH   6  28
HETATM   28  O2  UNL     1       7.608  15.557  17.236  1.00  0.00    -0.328 OA
BRANCH  28  29
HETATM   29  C14 UNL     1       6.361  16.108  17.616  1.00  0.00     0.255 C 
BRANCH  29  30
HETATM   30  C15 UNL     1       6.486  17.237  18.530  1.00  0.00     0.125 C 
HETATM   31  N7  UNL     1       5.526  18.077  18.661  1.00  0.00    -0.253 N 
ATOM     32  H7  UNL     1       5.617  18.864  19.303  1.00  0.00     0.195 HD
BRANCH  30  33
HETATM   33  N5  UNL     1       7.662  17.443  19.302  1.00  0.00    -0.356 N 
HETATM   34  C16 UNL     1       8.348  18.511  19.246  1.00  0.00     0.068 C 
ATOM     35  H5  UNL     1       7.969  16.699  19.930  1.00  0.00     0.166 HD
BRANCH  34  36
HETATM   36  C17 UNL     1       9.560  18.628  20.091  1.00  0.00     0.101 C 
BRANCH  36  37
HETATM   37  C18 UNL     1      10.237  19.932  19.966  1.00  0.00     0.013 A 
HETATM   38  C19 UNL     1       9.601  21.172  19.987  1.00  0.00     0.026 A 
HETATM   39  C20 UNL     1      10.566  22.149  19.842  1.00  0.00     0.019 A 
HETATM   40  C21 UNL     1      11.773  21.469  19.736  1.00  0.00     0.088 A 
HETATM   41  N6  UNL     1      11.555  20.151  19.811  1.00  0.00    -0.369 N 
ATOM     42  H6  UNL     1      12.273  19.428  19.758  1.00  0.00     0.165 HD
ENDBRANCH  36  37
ENDBRANCH  34  36
ENDBRANCH  30  33
BRANCH  31  43
HETATM   43  O3  UNL     1       4.387  17.912  17.940  1.00  0.00    -0.284 OA
HETATM   44  C22 UNL     1       3.314  18.815  18.179  1.00  0.00     0.237 C 
ENDBRANCH  31  43
ENDBRANCH  29  30
ENDBRANCH  28  29
ENDBRANCH   6  28
TORSDOF 12
ENDMDL
MODEL 5
REMARK VINA RESULT: -8.651785070      2.426      5.536
REMARK  12 active torsions:
REMARK  status: ('A' for Active; 'I' for Inactive)
REMARK    1  A    between atoms: C2_2  and  C3_3 
REMARK    2  A    between atoms: C3_3  and  C4_4 
REMARK    3  A    between atoms: C4_4  and  C5_5 
REMARK    4  A    between atoms: C5_5  and  N1_6 
REMARK    5  A    between atoms: C9_15  and  C10_16 
REMARK    6  A    between atoms: C13_21  and  O2_22 
REMARK    7  A    between atoms: O2_22  and  C14_23 
REMARK    8  A    between atoms: C14_23  and  C15_24 
REMARK    9  A    between atoms: C15_24  and  N5_25 
REMARK   10  A    between atoms: C16_27  and  C17_28 
REMARK   11  A    between atoms: C17_28  and  C18_29 
REMARK   12  A    between atoms: N7_35  and  O3_37 
ROOT
HETATM    1  C10 UNL     1      15.224  22.765  14.227  1.00  0.00     0.134 A 
HETATM    2  N4  UNL     1      15.300  23.387  13.056  1.00  0.00    -0.350 N 
ATOM      3  H4  UNL     1      14.528  23.265  12.399  1.00  0.00     0.166 HD
HETATM    4  C11 UNL     1      16.325  24.166  12.682  1.00  0.00     0.094 A 
HETATM    5  C12 UNL     1      17.365  24.329  13.572  1.00  0.00     0.073 A 
HETATM    6  C13 UNL     1      17.313  23.685  14.815  1.00  0.00     0.145 A 
HETATM    7  N8  UNL     1      16.236  22.922  15.096  1.00  0.00    -0.321 N 
ATOM      8  H8  UNL     1      16.189  22.448  15.998  1.00  0.00     0.169 HD
ENDROOT
BRANCH   1   9
HETATM    9  C9  UNL     1      14.058  21.935  14.542  1.00  0.00     0.079 A 
HETATM   10  N3  UNL     1      13.268  22.025  15.635  1.00  0.00    -0.339 N 
HETATM   11  C8  UNL     1      12.288  21.089  15.577  1.00  0.00     0.124 A 
ATOM     12  H3  UNL     1      13.392  22.697  16.392  1.00  0.00     0.167 HD
HETATM   13  N2  UNL     1      11.271  20.891  16.560  1.00  0.00    -0.311 N 
HETATM   14  C24 UNL     1      12.472  20.390  14.405  1.00  0.00     0.078 A 
HETATM   15  C7  UNL     1      10.124  20.055  16.424  1.00  0.00     0.241 C 
ATOM     16  H2  UNL     1      11.374  21.394  17.441  1.00  0.00     0.170 HD
HETATM   17  C6  UNL     1       9.426  19.561  15.215  1.00  0.00     0.229 C 
HETATM   18  O1  UNL     1       9.618  19.669  17.531  1.00  0.00    -0.271 OA
HETATM   19  N1  UNL     1      10.293  18.938  14.243  1.00  0.00    -0.339 N 
HETATM   20  C25 UNL     1      11.637  19.282  13.933  1.00  0.00     0.258 C 
HETATM   21  O4  UNL     1      12.239  18.511  13.108  1.00  0.00    -0.267 OA
HETATM   22  C23 UNL     1      13.557  20.921  13.788  1.00  0.00     0.054 A 
BRANCH  19  23
HETATM   23  C5  UNL     1       9.793  17.845  13.465  1.00  0.00     0.127 C 
BRANCH  23  24
HETATM   24  C4  UNL     1       8.524  17.233  13.952  1.00  0.00     0.020 C 
BRANCH  24  25
HETATM   25  C3  UNL     1       8.672  15.777  14.334  1.00  0.00     0.001 C 
BRANCH  25  26
HETATM   26  C2  UNL     1       7.758  14.964  13.413  1.00  0.00    -0.004 C 
HETATM   27  C1  UNL     1       6.727  14.238  14.228  1.00  0.00     0.005 C 
ENDBRANCH  25  26
ENDBRANCH  24  25
ENDBRANCH  23  24
ENDBRANCH  19  23
ENDBRANCH   1   9
BRANCH   6  28
HETATM   28  O2  UNL     1      18.372  23.864  15.693  1.00  0.00    -0.328 OA
BRANCH  28  29
HETATM   29  C14 UNL     1      18.128  24.192  17.048  1.00  0.00     0.255 C 
BRANCH  29  30
HETATM   30  C15 UNL     1      18.615  25.515  17.417  1.00  0.00     0.125 C 
HETATM   31  N7  UNL     1      18.590  25.901  18.639  1.00  0.00    -0.253 N 
ATOM     32  H7  UNL     1      18.933  26.826  18.893  1.00  0.00     0.195 HD
BRANCH  30  33
HETATM   33  N5  UNL     1      19.133  26.415  16.445  1.00  0.00    -0.356 N 
HETATM   34  C16 UNL     1      18.498  27.439  16.042  1.00  0.00     0.068 C 
ATOM     35  H5  UNL     1      20.057  26.229  16.054  1.00  0.00     0.166 HD
BRANCH  34  36
HETATM   36  C17 UNL     1      19.125  28.315  15.025  1.00  0.00     0.101 C 
BRANCH  36  37
HETATM   37  C18 UNL     1      18.872  27.878  13.640  1.00  0.00     0.013 A 
HETATM   38  C19 UNL     1      17.719  28.158  12.908  1.00  0.00     0.026 A 
HETATM   39  C20 UNL     1      17.855  27.581  11.660  1.00  0.00     0.019 A 
HETATM   40  C21 UNL     1      19.098  26.959  11.670  1.00  0.00     0.088 A 
HETATM   41  N6  UNL     1      19.686  27.147  12.857  1.00  0.00    -0.369 N 
ATOM     42  H6  UNL     1      20.604  26.793  13.126  1.00  0.00     0.165 HD
ENDBRANCH  36  37
ENDBRANCH  34  36
ENDBRANCH  30  33
BRANCH  31  43
HETATM   43  O3  UNL     1      18.102  25.068  19.595  1.00  0.00    -0.284 OA
HETATM   44  C22 UNL     1      16.972  25.504  20.341  1.00  0.00     0.237 C 
ENDBRANCH  31  43
ENDBRANCH  29  30
ENDBRANCH  28  29
ENDBRANCH   6  28
TORSDOF 12
ENDMDL
