MODEL 1
REMARK VINA RESULT: -7.919162026      0.000      0.000
REMARK  15 active torsions:
REMARK  status: ('A' for Active; 'I' for Inactive)
REMARK    1  A    between atoms: C2_2  and  C3_3 
REMARK    2  A    between atoms: C3_3  and  C4_4 
REMARK    3  A    between atoms: C4_4  and  C5_5 
REMARK    4  A    between atoms: C5_5  and  C6_6 
REMARK    5  A    between atoms: C6_6  and  O1_7 
REMARK    6  A    between atoms: C6_6  and  C16_24 
REMARK    7  A    between atoms: O1_7  and  C7_8 
REMARK    8  A    between atoms: C7_8  and  C9_10 
REMARK       I    between atoms: C9_10  and  N1_12 
REMARK    9  A    between atoms: C10_13  and  O3_14 
REMARK   10  A    between atoms: C13_19  and  C14_20 
REMARK   11  A    between atoms: C14_20  and  C15_21 
REMARK   12  A    between atoms: C16_24  and  O7_25 
REMARK   13  A    between atoms: C16_24  and  C21_30 
REMARK   14  A    between atoms: O7_25  and  C17_26 
REMARK       I    between atoms: C21_30  and  N2_32 
REMARK   15  A    between atoms: N2_32  and  C22_34 
ROOT
HETATM    1  C6  UNL     1      13.964  22.677  17.756  1.00  0.00     0.160 C 
ENDROOT
BRANCH   1   2
HETATM    2  C5  UNL     1      14.134  21.840  19.013  1.00  0.00     0.035 C 
BRANCH   2   3
HETATM    3  C4  UNL     1      13.079  22.127  20.037  1.00  0.00     0.002 C 
BRANCH   3   4
HETATM    4  C3  UNL     1      11.882  21.205  19.918  1.00  0.00    -0.000 C 
BRANCH   4   5
HETATM    5  C2  UNL     1      10.681  22.138  19.729  1.00  0.00    -0.005 C 
HETATM    6  C1  UNL     1       9.645  21.965  20.788  1.00  0.00     0.005 C 
ENDBRANCH   4   5
ENDBRANCH   3   4
ENDBRANCH   2   3
ENDBRANCH   1   2
BRANCH   1   7
HETATM    7  O1  UNL     1      13.925  21.745  16.718  1.00  0.00    -0.368 OA
BRANCH   7   8
HETATM    8  C7  UNL     1      12.637  21.289  16.461  1.00  0.00     0.210 C 
HETATM    9  C8  UNL     1      11.766  22.517  16.332  1.00  0.00     0.050 C 
BRANCH   8  10
HETATM   10  C9  UNL     1      12.531  20.566  15.174  1.00  0.00     0.251 C 
HETATM   11  O2  UNL     1      13.502  20.778  14.364  1.00  0.00    -0.270 OA
HETATM   12  N1  UNL     1      11.463  19.697  14.812  1.00  0.00    -0.311 N 
HETATM   13  C10 UNL     1      11.505  19.036  13.486  1.00  0.00     0.230 C 
HETATM   14  C13 UNL     1      10.270  19.308  15.488  1.00  0.00     0.169 C 
HETATM   15  C11 UNL     1      10.405  18.038  13.463  1.00  0.00     0.134 C 
HETATM   16  C12 UNL     1       9.470  18.561  14.470  1.00  0.00     0.154 C 
HETATM   17  O4  UNL     1       8.264  18.410  14.468  1.00  0.00    -0.296 OA
BRANCH  13  18
HETATM   18  O3  UNL     1      12.759  18.531  13.224  1.00  0.00    -0.376 OA
ATOM     19  H3  UNL     1      13.022  17.908  13.890  1.00  0.00     0.212 HD
ENDBRANCH  13  18
BRANCH  14  20
HETATM   20  C14 UNL     1      10.423  18.404  16.664  1.00  0.00     0.146 C 
BRANCH  20  21
HETATM   21  C15 UNL     1       9.292  18.362  17.587  1.00  0.00     0.174 C 
HETATM   22  O5  UNL     1       8.642  17.308  17.744  1.00  0.00    -0.648 OA
HETATM   23  O6  UNL     1       8.926  19.485  18.300  1.00  0.00    -0.648 OA
ENDBRANCH  20  21
ENDBRANCH  14  20
ENDBRANCH   8  10
ENDBRANCH   7   8
ENDBRANCH   1   7
BRANCH   1  24
HETATM   24  C16 UNL     1      15.054  23.696  17.607  1.00  0.00     0.243 C 
BRANCH  24  25
HETATM   25  O7  UNL     1      15.911  23.690  18.724  1.00  0.00    -0.364 OA
BRANCH  25  26
HETATM   26  C17 UNL     1      16.026  24.923  19.306  1.00  0.00     0.051 C 
HETATM   27  C18 UNL     1      15.152  26.007  18.778  1.00  0.00     0.045 C 
HETATM   28  C19 UNL     1      17.480  25.408  19.347  1.00  0.00     0.045 C 
HETATM   29  C20 UNL     1      15.647  24.735  20.783  1.00  0.00     0.045 C 
ENDBRANCH  25  26
ENDBRANCH  24  25
BRANCH  24  30
HETATM   30  C21 UNL     1      15.918  23.376  16.402  1.00  0.00     0.249 C 
HETATM   31  O8  UNL     1      17.115  23.017  16.515  1.00  0.00    -0.271 OA
HETATM   32  N2  UNL     1      15.409  23.471  15.092  1.00  0.00    -0.351 N 
ATOM     33  H2  UNL     1      14.439  23.763  14.969  1.00  0.00     0.163 HD
BRANCH  32  34
HETATM   34  C22 UNL     1      16.191  23.175  13.912  1.00  0.00     0.022 C 
HETATM   35  C23 UNL     1      16.837  21.814  13.983  1.00  0.00     0.037 C 
HETATM   36  C24 UNL     1      17.290  24.198  13.723  1.00  0.00     0.037 C 
HETATM   37  C25 UNL     1      15.332  23.239  12.656  1.00  0.00     0.037 C 
ENDBRANCH  32  34
ENDBRANCH  24  30
ENDBRANCH   1  24
TORSDOF 15
ENDMDL
MODEL 2
REMARK VINA RESULT: -7.830634250      2.128      8.094
REMARK  15 active torsions:
REMARK  status: ('A' for Active; 'I' for Inactive)
REMARK    1  A    between atoms: C2_2  and  C3_3 
REMARK    2  A    between atoms: C3_3  and  C4_4 
REMARK    3  A    between atoms: C4_4  and  C5_5 
REMARK    4  A    between atoms: C5_5  and  C6_6 
REMARK    5  A    between atoms: C6_6  and  O1_7 
REMARK    6  A    between atoms: C6_6  and  C16_24 
REMARK    7  A    between atoms: O1_7  and  C7_8 
REMARK    8  A    between atoms: C7_8  and  C9_10 
REMARK       I    between atoms: C9_10  and  N1_12 
REMARK    9  A    between atoms: C10_13  and  O3_14 
REMARK   10  A    between atoms: C13_19  and  C14_20 
REMARK   11  A    between atoms: C14_20  and  C15_21 
REMARK   12  A    between atoms: C16_24  and  O7_25 
REMARK   13  A    between atoms: C16_24  and  C21_30 
REMARK   14  A    between atoms: O7_25  and  C17_26 
REMARK       I    between atoms: C21_30  and  N2_32 
REMARK   15  A    between atoms: N2_32  and  C22_34 
ROOT
HETATM    1  C6  UNL     1      12.892  20.813  17.249  1.00  0.00     0.160 C 
ENDROOT
BRANCH   1   2
HETATM    2  C5  UNL     1      13.905  19.803  16.737  1.00  0.00     0.035 C 
BRANCH   2   3
HETATM    3  C4  UNL     1      14.504  20.208  15.425  1.00  0.00     0.002 C 
BRANCH   3   4
HETATM    4  C3  UNL     1      13.880  19.484  14.249  1.00  0.00    -0.000 C 
BRANCH   4   5
HETATM    5  C2  UNL     1      13.353  20.595  13.334  1.00  0.00    -0.005 C 
HETATM    6  C1  UNL     1      14.112  21.871  13.480  1.00  0.00     0.005 C 
ENDBRANCH   4   5
ENDBRANCH   3   4
ENDBRANCH   2   3
ENDBRANCH   1   2
BRANCH   1   7
HETATM    7  O1  UNL     1      13.520  21.414  18.341  1.00  0.00    -0.368 OA
BRANCH   7   8
HETATM    8  C7  UNL     1      14.220  22.561  17.988  1.00  0.00     0.210 C 
HETATM    9  C8  UNL     1      13.263  23.418  17.191  1.00  0.00     0.050 C 
BRANCH   8  10
HETATM   10  C9  UNL     1      14.625  23.369  19.159  1.00  0.00     0.251 C 
HETATM   11  O2  UNL     1      14.000  23.087  20.242  1.00  0.00    -0.270 OA
HETATM   12  N1  UNL     1      15.619  24.388  19.143  1.00  0.00    -0.311 N 
HETATM   13  C10 UNL     1      15.921  25.104  20.405  1.00  0.00     0.230 C 
HETATM   14  C13 UNL     1      16.434  24.919  18.101  1.00  0.00     0.169 C 
HETATM   15  C11 UNL     1      17.124  25.940  20.154  1.00  0.00     0.134 C 
HETATM   16  C12 UNL     1      17.094  26.121  18.695  1.00  0.00     0.154 C 
HETATM   17  O4  UNL     1      17.531  27.080  18.088  1.00  0.00    -0.296 OA
BRANCH  13  18
HETATM   18  O3  UNL     1      16.029  24.226  21.459  1.00  0.00    -0.376 OA
ATOM     19  H3  UNL     1      15.293  24.313  22.053  1.00  0.00     0.212 HD
ENDBRANCH  13  18
BRANCH  14  20
HETATM   20  C14 UNL     1      17.523  24.042  17.581  1.00  0.00     0.146 C 
BRANCH  20  21
HETATM   21  C15 UNL     1      17.635  23.958  16.127  1.00  0.00     0.174 C 
HETATM   22  O5  UNL     1      18.544  24.567  15.527  1.00  0.00    -0.648 OA
HETATM   23  O6  UNL     1      16.739  23.205  15.397  1.00  0.00    -0.648 OA
ENDBRANCH  20  21
ENDBRANCH  14  20
ENDBRANCH   8  10
ENDBRANCH   7   8
ENDBRANCH   1   7
BRANCH   1  24
HETATM   24  C16 UNL     1      11.579  20.172  17.588  1.00  0.00     0.243 C 
BRANCH  24  25
HETATM   25  O7  UNL     1      10.731  21.077  18.253  1.00  0.00    -0.364 OA
BRANCH  25  26
HETATM   26  C17 UNL     1      10.263  20.585  19.441  1.00  0.00     0.051 C 
HETATM   27  C18 UNL     1      11.028  19.467  20.060  1.00  0.00     0.045 C 
HETATM   28  C19 UNL     1       8.777  20.215  19.368  1.00  0.00     0.045 C 
HETATM   29  C20 UNL     1      10.314  21.754  20.437  1.00  0.00     0.045 C 
ENDBRANCH  25  26
ENDBRANCH  24  25
BRANCH  24  30
HETATM   30  C21 UNL     1      10.852  19.751  16.325  1.00  0.00     0.249 C 
HETATM   31  O8  UNL     1      10.544  20.571  15.428  1.00  0.00    -0.271 OA
HETATM   32  N2  UNL     1      10.486  18.408  16.107  1.00  0.00    -0.351 N 
ATOM     33  H2  UNL     1      10.722  17.719  16.821  1.00  0.00     0.163 HD
BRANCH  32  34
HETATM   34  C22 UNL     1       9.795  17.957  14.920  1.00  0.00     0.022 C 
HETATM   35  C23 UNL     1       8.661  18.875  14.537  1.00  0.00     0.037 C 
HETATM   36  C24 UNL     1       9.217  16.574  15.126  1.00  0.00     0.037 C 
HETATM   37  C25 UNL     1      10.750  17.846  13.738  1.00  0.00     0.037 C 
ENDBRANCH  32  34
ENDBRANCH  24  30
ENDBRANCH   1  24
TORSDOF 15
ENDMDL
MODEL 3
REMARK VINA RESULT: -7.755227091      1.818      5.099
REMARK  15 active torsions:
REMARK  status: ('A' for Active; 'I' for Inactive)
REMARK    1  A    between atoms: C2_2  and  C3_3 
REMARK    2  A    between atoms: C3_3  and  C4_4 
REMARK    3  A    between atoms: C4_4  and  C5_5 
REMARK    4  A    between atoms: C5_5  and  C6_6 
REMARK    5  A    between atoms: C6_6  and  O1_7 
REMARK    6  A    between atoms: C6_6  and  C16_24 
REMARK    7  A    between atoms: O1_7  and  C7_8 
REMARK    8  A    between atoms: C7_8  and  C9_10 
REMARK       I    between atoms: C9_10  and  N1_12 
REMARK    9  A    between atoms: C10_13  and  O3_14 
REMARK   10  A    between atoms: C13_19  and  C14_20 
REMARK   11  A    between atoms: C14_20  and  C15_21 
REMARK   12  A    between atoms: C16_24  and  O7_25 
REMARK   13  A    between atoms: C16_24  and  C21_30 
REMARK   14  A    between atoms: O7_25  and  C17_26 
REMARK       I    between atoms: C21_30  and  N2_32 
REMARK   15  A    between atoms: N2_32  and  C22_34 
ROOT
HETATM    1  C6  UNL     1      14.418  21.303  16.173  1.00  0.00     0.160 C 
ENDROOT
BRANCH   1   2
HETATM    2  C5  UNL     1      13.141  21.619  15.415  1.00  0.00     0.035 C 
BRANCH   2   3
HETATM    3  C4  UNL     1      13.108  20.980  14.060  1.00  0.00     0.002 C 
BRANCH   3   4
HETATM    4  C3  UNL     1      13.850  19.659  14.019  1.00  0.00    -0.000 C 
BRANCH   4   5
HETATM    5  C2  UNL     1      12.763  18.589  14.175  1.00  0.00    -0.005 C 
HETATM    6  C1  UNL     1      11.844  18.526  13.001  1.00  0.00     0.005 C 
ENDBRANCH   4   5
ENDBRANCH   3   4
ENDBRANCH   2   3
ENDBRANCH   1   2
BRANCH   1   7
HETATM    7  O1  UNL     1      13.991  21.004  17.468  1.00  0.00    -0.368 OA
BRANCH   7   8
HETATM    8  C7  UNL     1      12.815  20.264  17.484  1.00  0.00     0.210 C 
HETATM    9  C8  UNL     1      13.199  18.860  17.890  1.00  0.00     0.050 C 
BRANCH   8  10
HETATM   10  C9  UNL     1      11.849  20.743  18.497  1.00  0.00     0.251 C 
HETATM   11  O2  UNL     1      12.282  21.699  19.233  1.00  0.00    -0.270 OA
HETATM   12  N1  UNL     1      10.538  20.222  18.684  1.00  0.00    -0.311 N 
HETATM   13  C10 UNL     1       9.683  20.817  19.739  1.00  0.00     0.230 C 
HETATM   14  C13 UNL     1       9.822  19.169  18.044  1.00  0.00     0.169 C 
HETATM   15  C11 UNL     1       8.322  20.244  19.569  1.00  0.00     0.134 C 
HETATM   16  C12 UNL     1       8.586  18.982  18.864  1.00  0.00     0.154 C 
HETATM   17  O4  UNL     1       7.915  17.971  18.940  1.00  0.00    -0.296 OA
BRANCH  13  18
HETATM   18  O3  UNL     1       9.747  22.191  19.712  1.00  0.00    -0.376 OA
ATOM     19  H3  UNL     1       9.197  22.572  20.387  1.00  0.00     0.212 HD
ENDBRANCH  13  18
BRANCH  14  20
HETATM   20  C14 UNL     1       9.375  19.410  16.641  1.00  0.00     0.146 C 
BRANCH  20  21
HETATM   21  C15 UNL     1       9.364  18.240  15.767  1.00  0.00     0.174 C 
HETATM   22  O5  UNL     1      10.004  17.214  16.076  1.00  0.00    -0.648 OA
HETATM   23  O6  UNL     1       8.648  18.252  14.588  1.00  0.00    -0.648 OA
ENDBRANCH  20  21
ENDBRANCH  14  20
ENDBRANCH   8  10
ENDBRANCH   7   8
ENDBRANCH   1   7
BRANCH   1  24
HETATM   24  C16 UNL     1      15.403  22.432  16.112  1.00  0.00     0.243 C 
BRANCH  24  25
HETATM   25  O7  UNL     1      15.290  23.139  14.900  1.00  0.00    -0.364 OA
BRANCH  25  26
HETATM   26  C17 UNL     1      16.421  23.058  14.135  1.00  0.00     0.051 C 
HETATM   27  C18 UNL     1      17.089  21.729  14.052  1.00  0.00     0.045 C 
HETATM   28  C19 UNL     1      17.450  24.130  14.510  1.00  0.00     0.045 C 
HETATM   29  C20 UNL     1      15.996  23.424  12.704  1.00  0.00     0.045 C 
ENDBRANCH  25  26
ENDBRANCH  24  25
BRANCH  24  30
HETATM   30  C21 UNL     1      15.133  23.433  17.219  1.00  0.00     0.249 C 
HETATM   31  O8  UNL     1      14.076  24.107  17.267  1.00  0.00    -0.271 OA
HETATM   32  N2  UNL     1      16.068  23.652  18.251  1.00  0.00    -0.351 N 
ATOM     33  H2  UNL     1      16.938  23.120  18.236  1.00  0.00     0.163 HD
BRANCH  32  34
HETATM   34  C22 UNL     1      15.856  24.593  19.328  1.00  0.00     0.022 C 
HETATM   35  C23 UNL     1      15.290  25.902  18.838  1.00  0.00     0.037 C 
HETATM   36  C24 UNL     1      17.154  24.892  20.046  1.00  0.00     0.037 C 
HETATM   37  C25 UNL     1      14.913  24.019  20.378  1.00  0.00     0.037 C 
ENDBRANCH  32  34
ENDBRANCH  24  30
ENDBRANCH   1  24
TORSDOF 15
ENDMDL
MODEL 4
REMARK VINA RESULT: -7.713399477      2.497      4.826
REMARK  15 active torsions:
REMARK  status: ('A' for Active; 'I' for Inactive)
REMARK    1  A    between atoms: C2_2  and  C3_3 
REMARK    2  A    between atoms: C3_3  and  C4_4 
REMARK    3  A    between atoms: C4_4  and  C5_5 
REMARK    4  A    between atoms: C5_5  and  C6_6 
REMARK    5  A    between atoms: C6_6  and  O1_7 
REMARK    6  A    between atoms: C6_6  and  C16_24 
REMARK    7  A    between atoms: O1_7  and  C7_8 
REMARK    8  A    between atoms: C7_8  and  C9_10 
REMARK       I    between atoms: C9_10  and  N1_12 
REMARK    9  A    between atoms: C10_13  and  O3_14 
REMARK   10  A    between atoms: C13_19  and  C14_20 
REMARK   11  A    between atoms: C14_20  and  C15_21 
REMARK   12  A    between atoms: C16_24  and  O7_25 
REMARK   13  A    between atoms: C16_24  and  C21_30 
REMARK   14  A    between atoms: O7_25  and  C17_26 
REMARK       I    between atoms: C21_30  and  N2_32 
REMARK   15  A    between atoms: N2_32  and  C22_34 
ROOT
HETATM    1  C6  UNL     1      11.964  19.453  16.798  1.00  0.00     0.160 C 
ENDROOT
BRANCH   1   2
HETATM    2  C5  UNL     1      12.164  19.086  18.258  1.00  0.00     0.035 C 
BRANCH   2   3
HETATM    3  C4  UNL     1      11.136  19.710  19.151  1.00  0.00     0.002 C 
BRANCH   3   4
HETATM    4  C3  UNL     1      10.564  20.990  18.577  1.00  0.00    -0.000 C 
BRANCH   4   5
HETATM    5  C2  UNL     1      10.851  22.062  19.635  1.00  0.00    -0.005 C 
HETATM    6  C1  UNL     1       9.846  22.068  20.737  1.00  0.00     0.005 C 
ENDBRANCH   4   5
ENDBRANCH   3   4
ENDBRANCH   2   3
ENDBRANCH   1   2
BRANCH   1   7
HETATM    7  O1  UNL     1      11.473  18.287  16.209  1.00  0.00    -0.368 OA
BRANCH   7   8
HETATM    8  C7  UNL     1      10.085  18.273  16.132  1.00  0.00     0.210 C 
HETATM    9  C8  UNL     1       9.683  19.552  15.434  1.00  0.00     0.050 C 
BRANCH   8  10
HETATM   10  C9  UNL     1       9.568  17.164  15.300  1.00  0.00     0.251 C 
HETATM   11  O2  UNL     1      10.296  16.878  14.284  1.00  0.00    -0.270 OA
HETATM   12  N1  UNL     1       8.369  16.441  15.558  1.00  0.00    -0.311 N 
HETATM   13  C10 UNL     1       7.989  15.346  14.634  1.00  0.00     0.230 C 
HETATM   14  C13 UNL     1       7.376  16.559  16.573  1.00  0.00     0.169 C 
HETATM   15  C11 UNL     1       6.840  14.636  15.252  1.00  0.00     0.134 C 
HETATM   16  C12 UNL     1       6.265  15.657  16.140  1.00  0.00     0.154 C 
HETATM   17  O4  UNL     1       5.096  15.746  16.459  1.00  0.00    -0.296 OA
BRANCH  13  18
HETATM   18  O3  UNL     1       9.073  14.553  14.333  1.00  0.00    -0.376 OA
ATOM     19  H3  UNL     1       9.837  14.814  14.833  1.00  0.00     0.212 HD
ENDBRANCH  13  18
BRANCH  14  20
HETATM   20  C14 UNL     1       7.762  16.136  17.950  1.00  0.00     0.146 C 
BRANCH  20  21
HETATM   21  C15 UNL     1       7.468  17.089  19.016  1.00  0.00     0.174 C 
HETATM   22  O5  UNL     1       7.869  18.269  18.937  1.00  0.00    -0.648 OA
HETATM   23  O6  UNL     1       6.744  16.702  20.124  1.00  0.00    -0.648 OA
ENDBRANCH  20  21
ENDBRANCH  14  20
ENDBRANCH   8  10
ENDBRANCH   7   8
ENDBRANCH   1   7
BRANCH   1  24
HETATM   24  C16 UNL     1      13.226  19.960  16.166  1.00  0.00     0.243 C 
BRANCH  24  25
HETATM   25  O7  UNL     1      12.944  20.760  15.043  1.00  0.00    -0.364 OA
BRANCH  25  26
HETATM   26  C17 UNL     1      13.705  20.427  13.955  1.00  0.00     0.051 C 
HETATM   27  C18 UNL     1      15.061  19.872  14.220  1.00  0.00     0.045 C 
HETATM   28  C19 UNL     1      13.806  21.577  12.947  1.00  0.00     0.045 C 
HETATM   29  C20 UNL     1      12.924  19.335  13.206  1.00  0.00     0.045 C 
ENDBRANCH  25  26
ENDBRANCH  24  25
BRANCH  24  30
HETATM   30  C21 UNL     1      13.990  20.839  17.137  1.00  0.00     0.249 C 
HETATM   31  O8  UNL     1      14.854  20.376  17.919  1.00  0.00    -0.271 OA
HETATM   32  N2  UNL     1      13.758  22.228  17.204  1.00  0.00    -0.351 N 
ATOM     33  H2  UNL     1      13.059  22.632  16.582  1.00  0.00     0.163 HD
BRANCH  32  34
HETATM   34  C22 UNL     1      14.461  23.107  18.110  1.00  0.00     0.022 C 
HETATM   35  C23 UNL     1      14.246  22.728  19.555  1.00  0.00     0.037 C 
HETATM   36  C24 UNL     1      14.003  24.539  17.937  1.00  0.00     0.037 C 
HETATM   37  C25 UNL     1      15.958  23.104  17.826  1.00  0.00     0.037 C 
ENDBRANCH  32  34
ENDBRANCH  24  30
ENDBRANCH   1  24
TORSDOF 15
ENDMDL
MODEL 5
REMARK VINA RESULT: -7.586441488      1.894      7.674
REMARK  15 active torsions:
REMARK  status: ('A' for Active; 'I' for Inactive)
REMARK    1  A    between atoms: C2_2  and  C3_3 
REMARK    2  A    between atoms: C3_3  and  C4_4 
REMARK    3  A    between atoms: C4_4  and  C5_5 
REMARK    4  A    between atoms: C5_5  and  C6_6 
REMARK    5  A    between atoms: C6_6  and  O1_7 
REMARK    6  A    between atoms: C6_6  and  C16_24 
REMARK    7  A    between atoms: O1_7  and  C7_8 
REMARK    8  A    between atoms: C7_8  and  C9_10 
REMARK       I    between atoms: C9_10  and  N1_12 
REMARK    9  A    between atoms: C10_13  and  O3_14 
REMARK   10  A    between atoms: C13_19  and  C14_20 
REMARK   11  A    between atoms: C14_20  and  C15_21 
REMARK   12  A    between atoms: C16_24  and  O7_25 
REMARK   13  A    between atoms: C16_24  and  C21_30 
REMARK   14  A    between atoms: O7_25  and  C17_26 
REMARK       I    between atoms: C21_30  and  N2_32 
REMARK   15  A    between atoms: N2_32  and  C22_34 
ROOT
HETATM    1  C6  UNL     1      11.532  20.752  15.947  1.00  0.00     0.160 C 
ENDROOT
BRANCH   1   2
HETATM    2  C5  UNL     1      11.036  22.070  16.516  1.00  0.00     0.035 C 
BRANCH   2   3
HETATM    3  C4  UNL     1      11.818  22.504  17.718  1.00  0.00     0.002 C 
BRANCH   3   4
HETATM    4  C3  UNL     1      11.945  21.410  18.759  1.00  0.00    -0.000 C 
BRANCH   4   5
HETATM    5  C2  UNL     1      11.493  22.058  20.072  1.00  0.00    -0.005 C 
HETATM    6  C1  UNL     1      10.016  22.254  20.140  1.00  0.00     0.005 C 
ENDBRANCH   4   5
ENDBRANCH   3   4
ENDBRANCH   2   3
ENDBRANCH   1   2
BRANCH   1   7
HETATM    7  O1  UNL     1      12.177  21.105  14.761  1.00  0.00    -0.368 OA
BRANCH   7   8
HETATM    8  C7  UNL     1      13.559  20.989  14.851  1.00  0.00     0.210 C 
HETATM    9  C8  UNL     1      13.900  19.583  14.417  1.00  0.00     0.050 C 
BRANCH   8  10
HETATM   10  C9  UNL     1      14.273  21.896  13.926  1.00  0.00     0.251 C 
HETATM   11  O2  UNL     1      13.754  21.978  12.757  1.00  0.00    -0.270 OA
HETATM   12  N1  UNL     1      15.443  22.639  14.251  1.00  0.00    -0.311 N 
HETATM   13  C10 UNL     1      16.038  23.515  13.214  1.00  0.00     0.230 C 
HETATM   14  C13 UNL     1      16.232  22.718  15.435  1.00  0.00     0.169 C 
HETATM   15  C11 UNL     1      17.094  24.321  13.879  1.00  0.00     0.134 C 
HETATM   16  C12 UNL     1      17.448  23.495  15.044  1.00  0.00     0.154 C 
HETATM   17  O4  UNL     1      18.535  23.457  15.585  1.00  0.00    -0.296 OA
BRANCH  13  18
HETATM   18  O3  UNL     1      15.067  24.244  12.565  1.00  0.00    -0.376 OA
ATOM     19  H3  UNL     1      14.198  23.943  12.802  1.00  0.00     0.212 HD
ENDBRANCH  13  18
BRANCH  14  20
HETATM   20  C14 UNL     1      15.629  23.421  16.604  1.00  0.00     0.146 C 
BRANCH  20  21
HETATM   21  C15 UNL     1      15.352  22.591  17.774  1.00  0.00     0.174 C 
HETATM   22  O5  UNL     1      15.190  23.114  18.895  1.00  0.00    -0.648 OA
HETATM   23  O6  UNL     1      15.265  21.220  17.656  1.00  0.00    -0.648 OA
ENDBRANCH  20  21
ENDBRANCH  14  20
ENDBRANCH   8  10
ENDBRANCH   7   8
ENDBRANCH   1   7
BRANCH   1  24
HETATM   24  C16 UNL     1      10.418  19.766  15.754  1.00  0.00     0.243 C 
BRANCH  24  25
HETATM   25  O7  UNL     1      10.800  18.736  14.874  1.00  0.00    -0.364 OA
BRANCH  25  26
HETATM   26  C17 UNL     1       9.742  18.224  14.172  1.00  0.00     0.051 C 
HETATM   27  C18 UNL     1       8.490  19.030  14.149  1.00  0.00     0.045 C 
HETATM   28  C19 UNL     1       9.421  16.783  14.583  1.00  0.00     0.045 C 
HETATM   29  C20 UNL     1      10.214  18.108  12.714  1.00  0.00     0.045 C 
ENDBRANCH  25  26
ENDBRANCH  24  25
BRANCH  24  30
HETATM   30  C21 UNL     1      10.067  19.098  17.070  1.00  0.00     0.249 C 
HETATM   31  O8  UNL     1      10.800  18.225  17.591  1.00  0.00    -0.271 OA
HETATM   32  N2  UNL     1       8.889  19.433  17.767  1.00  0.00    -0.351 N 
ATOM     33  H2  UNL     1       8.272  20.139  17.365  1.00  0.00     0.163 HD
BRANCH  32  34
HETATM   34  C22 UNL     1       8.511  18.827  19.024  1.00  0.00     0.022 C 
HETATM   35  C23 UNL     1       9.670  18.738  19.985  1.00  0.00     0.037 C 
HETATM   36  C24 UNL     1       7.982  17.426  18.810  1.00  0.00     0.037 C 
HETATM   37  C25 UNL     1       7.386  19.608  19.692  1.00  0.00     0.037 C 
ENDBRANCH  32  34
ENDBRANCH  24  30
ENDBRANCH   1  24
TORSDOF 15
ENDMDL
