MODEL 1
REMARK VINA RESULT: -7.845474530      0.000      0.000
REMARK  14 active torsions:
REMARK  status: ('A' for Active; 'I' for Inactive)
REMARK    1  A    between atoms: O1_2  and  N1_3 
REMARK    2  A    between atoms: C2_5  and  C3_6 
REMARK    3  A    between atoms: C2_5  and  N5_33 
REMARK    4  A    between atoms: C3_6  and  N2_7 
REMARK    5  A    between atoms: C3_6  and  C16_29 
REMARK       I    between atoms: N2_7  and  C4_9 
REMARK    6  A    between atoms: C4_9  and  C5_11 
REMARK    7  A    between atoms: C5_11  and  C6_12 
REMARK    8  A    between atoms: C6_12  and  C7_13 
REMARK    9  A    between atoms: C7_13  and  C8_14 
REMARK   10  A    between atoms: C8_14  and  C9_15 
REMARK   11  A    between atoms: C9_15  and  N3_16 
REMARK       I    between atoms: N4_20  and  C10_22 
REMARK   12  A    between atoms: C10_22  and  C11_24 
REMARK   13  A    between atoms: C11_24  and  C12_25 
REMARK   14  A    between atoms: C22_37  and  C23_38 
ROOT
HETATM    1  N2  UNL     1      10.317  18.041  16.392  1.00  0.00    -0.344 N 
ATOM      2  H2  UNL     1       9.909  18.530  17.189  1.00  0.00     0.163 HD
HETATM    3  C4  UNL     1      11.691  18.165  16.180  1.00  0.00     0.264 C 
HETATM    4  O2  UNL     1      12.221  17.581  15.218  1.00  0.00    -0.266 OA
ENDROOT
BRANCH   1   5
HETATM    5  C3  UNL     1       9.430  17.253  15.542  1.00  0.00     0.161 C 
BRANCH   5   6
HETATM    6  C2  UNL     1       8.437  16.468  16.264  1.00  0.00     0.125 C 
HETATM    7  N1  UNL     1       8.033  15.329  15.851  1.00  0.00    -0.253 N 
ATOM      8  H1  UNL     1       7.336  14.836  16.410  1.00  0.00     0.195 HD
BRANCH   7   9
HETATM    9  O1  UNL     1       8.468  14.745  14.735  1.00  0.00    -0.284 OA
HETATM   10  C1  UNL     1       7.769  14.635  13.515  1.00  0.00     0.237 C 
ENDBRANCH   7   9
BRANCH   6  11
HETATM   11  N5  UNL     1       7.789  16.882  17.505  1.00  0.00    -0.343 N 
HETATM   12  C20 UNL     1       8.010  18.112  18.216  1.00  0.00     0.199 C 
HETATM   13  S1  UNL     1       7.959  17.540  19.954  1.00  0.00    -0.147 SA
HETATM   14  C21 UNL     1       7.632  15.761  19.563  1.00  0.00     0.112 C 
HETATM   15  C22 UNL     1       6.872  16.063  18.228  1.00  0.00     0.197 C 
BRANCH  15  16
HETATM   16  C23 UNL     1       5.601  16.635  18.656  1.00  0.00     0.197 C 
HETATM   17  O4  UNL     1       5.061  16.410  19.741  1.00  0.00    -0.646 OA
HETATM   18  O5  UNL     1       4.881  17.524  17.812  1.00  0.00    -0.646 OA
ENDBRANCH  15  16
ENDBRANCH   6  11
ENDBRANCH   5   6
BRANCH   5  19
HETATM   19  C16 UNL     1       8.932  18.193  14.496  1.00  0.00    -0.024 C 
HETATM   20  C17 UNL     1       9.603  18.051  13.163  1.00  0.00     0.017 C 
HETATM   21  C18 UNL     1       7.412  18.139  14.363  1.00  0.00     0.017 C 
HETATM   22  C19 UNL     1       9.211  19.634  14.958  1.00  0.00     0.017 C 
ENDBRANCH   5  19
ENDBRANCH   1   5
BRANCH   3  23
HETATM   23  C5  UNL     1      12.571  18.970  17.067  1.00  0.00     0.080 C 
HETATM   24  N4  UNL     1      13.528  19.527  16.505  1.00  0.00    -0.326 N 
HETATM   25  C10 UNL     1      14.596  20.329  16.756  1.00  0.00     0.222 C 
ATOM     26  H4  UNL     1      13.505  19.305  15.509  1.00  0.00     0.168 HD
HETATM   27  O3  UNL     1      15.460  20.441  15.810  1.00  0.00    -0.273 OA
BRANCH  23  28
HETATM   28  C6  UNL     1      12.369  19.064  18.519  1.00  0.00     0.063 C 
BRANCH  28  29
HETATM   29  C7  UNL     1      11.233  19.866  19.011  1.00  0.00     0.008 C 
BRANCH  29  30
HETATM   30  C8  UNL     1      11.486  20.902  20.028  1.00  0.00     0.027 C 
BRANCH  30  31
HETATM   31  C9  UNL     1      10.444  22.029  19.856  1.00  0.00     0.229 C 
BRANCH  31  32
HETATM   32  N3  UNL     1       9.866  22.403  21.122  1.00  0.00    -0.079 N 
ATOM     33  H33 UNL     1       9.910  21.638  21.795  1.00  0.00     0.274 HD
ATOM     34  H32 UNL     1      10.450  23.080  21.616  1.00  0.00     0.274 HD
ATOM     35  H31 UNL     1       8.912  22.746  21.006  1.00  0.00     0.274 HD
ENDBRANCH  31  32
ENDBRANCH  30  31
ENDBRANCH  29  30
ENDBRANCH  28  29
ENDBRANCH  23  28
BRANCH  25  36
HETATM   36  C11 UNL     1      14.847  21.064  17.977  1.00  0.00     0.111 C 
BRANCH  36  37
HETATM   37  C12 UNL     1      14.454  22.513  17.945  1.00  0.00    -0.043 C 
HETATM   38  C13 UNL     1      14.320  22.994  19.389  1.00  0.00     0.015 C 
HETATM   39  C14 UNL     1      13.168  22.796  17.259  1.00  0.00     0.015 C 
HETATM   40  C15 UNL     1      15.533  23.367  17.312  1.00  0.00     0.015 C 
ENDBRANCH  36  37
ENDBRANCH  25  36
ENDBRANCH   3  23
TORSDOF 14
ENDMDL
MODEL 2
REMARK VINA RESULT: -7.592540415      2.367      3.957
REMARK  14 active torsions:
REMARK  status: ('A' for Active; 'I' for Inactive)
REMARK    1  A    between atoms: O1_2  and  N1_3 
REMARK    2  A    between atoms: C2_5  and  C3_6 
REMARK    3  A    between atoms: C2_5  and  N5_33 
REMARK    4  A    between atoms: C3_6  and  N2_7 
REMARK    5  A    between atoms: C3_6  and  C16_29 
REMARK       I    between atoms: N2_7  and  C4_9 
REMARK    6  A    between atoms: C4_9  and  C5_11 
REMARK    7  A    between atoms: C5_11  and  C6_12 
REMARK    8  A    between atoms: C6_12  and  C7_13 
REMARK    9  A    between atoms: C7_13  and  C8_14 
REMARK   10  A    between atoms: C8_14  and  C9_15 
REMARK   11  A    between atoms: C9_15  and  N3_16 
REMARK       I    between atoms: N4_20  and  C10_22 
REMARK   12  A    between atoms: C10_22  and  C11_24 
REMARK   13  A    between atoms: C11_24  and  C12_25 
REMARK   14  A    between atoms: C22_37  and  C23_38 
ROOT
HETATM    1  N2  UNL     1      11.249  19.511  16.907  1.00  0.00    -0.344 N 
ATOM      2  H2  UNL     1      10.989  20.484  16.743  1.00  0.00     0.163 HD
HETATM    3  C4  UNL     1      12.508  19.251  17.451  1.00  0.00     0.264 C 
HETATM    4  O2  UNL     1      12.856  18.077  17.664  1.00  0.00    -0.266 OA
ENDROOT
BRANCH   1   5
HETATM    5  C3  UNL     1      10.283  18.475  16.559  1.00  0.00     0.161 C 
BRANCH   5   6
HETATM    6  C2  UNL     1       9.118  18.413  17.433  1.00  0.00     0.125 C 
HETATM    7  N1  UNL     1       8.811  19.362  18.230  1.00  0.00    -0.253 N 
ATOM      8  H1  UNL     1       7.981  19.249  18.812  1.00  0.00     0.195 HD
BRANCH   7   9
HETATM    9  O1  UNL     1       9.510  20.491  18.349  1.00  0.00    -0.284 OA
HETATM   10  C1  UNL     1       9.640  21.284  19.508  1.00  0.00     0.237 C 
ENDBRANCH   7   9
BRANCH   6  11
HETATM   11  N5  UNL     1       8.194  17.286  17.512  1.00  0.00    -0.343 N 
HETATM   12  C20 UNL     1       8.430  15.951  17.032  1.00  0.00     0.199 C 
HETATM   13  S1  UNL     1       6.788  15.516  16.350  1.00  0.00    -0.147 SA
HETATM   14  C21 UNL     1       5.967  17.116  16.785  1.00  0.00     0.112 C 
HETATM   15  C22 UNL     1       6.871  17.386  18.035  1.00  0.00     0.197 C 
BRANCH  15  16
HETATM   16  C23 UNL     1       6.426  16.408  19.021  1.00  0.00     0.197 C 
HETATM   17  O4  UNL     1       5.255  16.061  19.185  1.00  0.00    -0.646 OA
HETATM   18  O5  UNL     1       7.356  15.770  19.886  1.00  0.00    -0.646 OA
ENDBRANCH  15  16
ENDBRANCH   6  11
ENDBRANCH   5   6
BRANCH   5  19
HETATM   19  C16 UNL     1      10.035  18.627  15.096  1.00  0.00    -0.024 C 
HETATM   20  C17 UNL     1       8.652  19.086  14.745  1.00  0.00     0.017 C 
HETATM   21  C18 UNL     1      11.097  19.498  14.428  1.00  0.00     0.017 C 
HETATM   22  C19 UNL     1      10.209  17.254  14.423  1.00  0.00     0.017 C 
ENDBRANCH   5  19
ENDBRANCH   1   5
BRANCH   3  23
HETATM   23  C5  UNL     1      13.470  20.330  17.801  1.00  0.00     0.080 C 
HETATM   24  N4  UNL     1      13.161  21.020  18.786  1.00  0.00    -0.326 N 
HETATM   25  C10 UNL     1      13.594  22.067  19.536  1.00  0.00     0.222 C 
ATOM     26  H4  UNL     1      12.275  20.684  19.164  1.00  0.00     0.168 HD
HETATM   27  O3  UNL     1      12.745  22.567  20.361  1.00  0.00    -0.273 OA
BRANCH  23  28
HETATM   28  C6  UNL     1      14.677  20.609  17.011  1.00  0.00     0.063 C 
BRANCH  28  29
HETATM   29  C7  UNL     1      14.544  20.693  15.545  1.00  0.00     0.008 C 
BRANCH  29  30
HETATM   30  C8  UNL     1      13.909  21.887  14.960  1.00  0.00     0.027 C 
BRANCH  30  31
HETATM   31  C9  UNL     1      14.821  22.432  13.838  1.00  0.00     0.229 C 
BRANCH  31  32
HETATM   32  N3  UNL     1      15.583  23.569  14.289  1.00  0.00    -0.079 N 
ATOM     33  H33 UNL     1      15.345  23.822  15.249  1.00  0.00     0.274 HD
ATOM     34  H32 UNL     1      16.565  23.330  14.429  1.00  0.00     0.274 HD
ATOM     35  H31 UNL     1      15.475  24.361  13.655  1.00  0.00     0.274 HD
ENDBRANCH  31  32
ENDBRANCH  30  31
ENDBRANCH  29  30
ENDBRANCH  28  29
ENDBRANCH  23  28
BRANCH  25  36
HETATM   36  C11 UNL     1      14.911  22.666  19.492  1.00  0.00     0.111 C 
BRANCH  36  37
HETATM   37  C12 UNL     1      15.023  23.906  18.654  1.00  0.00    -0.043 C 
HETATM   38  C13 UNL     1      15.171  25.099  19.598  1.00  0.00     0.015 C 
HETATM   39  C14 UNL     1      13.856  24.175  17.777  1.00  0.00     0.015 C 
HETATM   40  C15 UNL     1      16.271  23.886  17.797  1.00  0.00     0.015 C 
ENDBRANCH  36  37
ENDBRANCH  25  36
ENDBRANCH   3  23
TORSDOF 14
ENDMDL
MODEL 3
REMARK VINA RESULT: -7.498297450      2.293      3.918
REMARK  14 active torsions:
REMARK  status: ('A' for Active; 'I' for Inactive)
REMARK    1  A    between atoms: O1_2  and  N1_3 
REMARK    2  A    between atoms: C2_5  and  C3_6 
REMARK    3  A    between atoms: C2_5  and  N5_33 
REMARK    4  A    between atoms: C3_6  and  N2_7 
REMARK    5  A    between atoms: C3_6  and  C16_29 
REMARK       I    between atoms: N2_7  and  C4_9 
REMARK    6  A    between atoms: C4_9  and  C5_11 
REMARK    7  A    between atoms: C5_11  and  C6_12 
REMARK    8  A    between atoms: C6_12  and  C7_13 
REMARK    9  A    between atoms: C7_13  and  C8_14 
REMARK   10  A    between atoms: C8_14  and  C9_15 
REMARK   11  A    between atoms: C9_15  and  N3_16 
REMARK       I    between atoms: N4_20  and  C10_22 
REMARK   12  A    between atoms: C10_22  and  C11_24 
REMARK   13  A    between atoms: C11_24  and  C12_25 
REMARK   14  A    between atoms: C22_37  and  C23_38 
ROOT
HETATM    1  N2  UNL     1      10.918  19.092  16.701  1.00  0.00    -0.344 N 
ATOM      2  H2  UNL     1      10.634  20.070  16.645  1.00  0.00     0.163 HD
HETATM    3  C4  UNL     1      12.207  18.808  17.157  1.00  0.00     0.264 C 
HETATM    4  O2  UNL     1      12.584  17.627  17.238  1.00  0.00    -0.266 OA
ENDROOT
BRANCH   1   5
HETATM    5  C3  UNL     1       9.953  18.073  16.300  1.00  0.00     0.161 C 
BRANCH   5   6
HETATM    6  C2  UNL     1       8.754  18.014  17.127  1.00  0.00     0.125 C 
HETATM    7  N1  UNL     1       8.496  18.890  18.020  1.00  0.00    -0.253 N 
ATOM      8  H1  UNL     1       7.637  18.785  18.561  1.00  0.00     0.195 HD
BRANCH   7   9
HETATM    9  O1  UNL     1       9.281  19.934  18.289  1.00  0.00    -0.284 OA
HETATM   10  C1  UNL     1       9.287  20.699  19.474  1.00  0.00     0.237 C 
ENDBRANCH   7   9
BRANCH   6  11
HETATM   11  N5  UNL     1       7.738  16.970  17.048  1.00  0.00    -0.343 N 
HETATM   12  C20 UNL     1       7.964  15.573  16.789  1.00  0.00     0.199 C 
HETATM   13  S1  UNL     1       6.542  15.170  15.711  1.00  0.00    -0.147 SA
HETATM   14  C21 UNL     1       5.795  16.862  15.733  1.00  0.00     0.112 C 
HETATM   15  C22 UNL     1       6.338  17.222  17.157  1.00  0.00     0.197 C 
BRANCH  15  16
HETATM   16  C23 UNL     1       5.542  16.403  18.064  1.00  0.00     0.197 C 
HETATM   17  O4  UNL     1       4.420  15.962  17.810  1.00  0.00    -0.646 OA
HETATM   18  O5  UNL     1       6.036  16.051  19.350  1.00  0.00    -0.646 OA
ENDBRANCH  15  16
ENDBRANCH   6  11
ENDBRANCH   5   6
BRANCH   5  19
HETATM   19  C16 UNL     1       9.765  18.249  14.832  1.00  0.00    -0.024 C 
HETATM   20  C17 UNL     1       9.762  16.972  14.048  1.00  0.00     0.017 C 
HETATM   21  C18 UNL     1       8.536  19.099  14.516  1.00  0.00     0.017 C 
HETATM   22  C19 UNL     1      10.939  19.080  14.282  1.00  0.00     0.017 C 
ENDBRANCH   5  19
ENDBRANCH   1   5
BRANCH   3  23
HETATM   23  C5  UNL     1      13.166  19.868  17.564  1.00  0.00     0.080 C 
HETATM   24  N4  UNL     1      12.791  20.595  18.499  1.00  0.00    -0.326 N 
HETATM   25  C10 UNL     1      13.188  21.651  19.257  1.00  0.00     0.222 C 
ATOM     26  H4  UNL     1      11.865  20.296  18.803  1.00  0.00     0.168 HD
HETATM   27  O3  UNL     1      12.284  22.199  19.989  1.00  0.00    -0.273 OA
BRANCH  23  28
HETATM   28  C6  UNL     1      14.447  20.090  16.880  1.00  0.00     0.063 C 
BRANCH  28  29
HETATM   29  C7  UNL     1      14.420  20.403  15.439  1.00  0.00     0.008 C 
BRANCH  29  30
HETATM   30  C8  UNL     1      15.653  20.225  14.653  1.00  0.00     0.027 C 
BRANCH  30  31
HETATM   31  C9  UNL     1      16.206  21.617  14.278  1.00  0.00     0.229 C 
BRANCH  31  32
HETATM   32  N3  UNL     1      17.601  21.736  14.622  1.00  0.00    -0.079 N 
ATOM     33  H33 UNL     1      17.963  20.869  15.020  1.00  0.00     0.274 HD
ATOM     34  H32 UNL     1      18.189  21.784  13.790  1.00  0.00     0.274 HD
ATOM     35  H31 UNL     1      17.762  22.529  15.242  1.00  0.00     0.274 HD
ENDBRANCH  31  32
ENDBRANCH  30  31
ENDBRANCH  29  30
ENDBRANCH  28  29
ENDBRANCH  23  28
BRANCH  25  36
HETATM   36  C11 UNL     1      14.521  22.210  19.317  1.00  0.00     0.111 C 
BRANCH  36  37
HETATM   37  C12 UNL     1      14.744  23.428  18.466  1.00  0.00    -0.043 C 
HETATM   38  C13 UNL     1      14.987  24.613  19.399  1.00  0.00     0.015 C 
HETATM   39  C14 UNL     1      13.610  23.785  17.577  1.00  0.00     0.015 C 
HETATM   40  C15 UNL     1      15.992  23.292  17.619  1.00  0.00     0.015 C 
ENDBRANCH  36  37
ENDBRANCH  25  36
ENDBRANCH   3  23
TORSDOF 14
ENDMDL
MODEL 4
REMARK VINA RESULT: -7.484288836      2.671      5.202
REMARK  14 active torsions:
REMARK  status: ('A' for Active; 'I' for Inactive)
REMARK    1  A    between atoms: O1_2  and  N1_3 
REMARK    2  A    between atoms: C2_5  and  C3_6 
REMARK    3  A    between atoms: C2_5  and  N5_33 
REMARK    4  A    between atoms: C3_6  and  N2_7 
REMARK    5  A    between atoms: C3_6  and  C16_29 
REMARK       I    between atoms: N2_7  and  C4_9 
REMARK    6  A    between atoms: C4_9  and  C5_11 
REMARK    7  A    between atoms: C5_11  and  C6_12 
REMARK    8  A    between atoms: C6_12  and  C7_13 
REMARK    9  A    between atoms: C7_13  and  C8_14 
REMARK   10  A    between atoms: C8_14  and  C9_15 
REMARK   11  A    between atoms: C9_15  and  N3_16 
REMARK       I    between atoms: N4_20  and  C10_22 
REMARK   12  A    between atoms: C10_22  and  C11_24 
REMARK   13  A    between atoms: C11_24  and  C12_25 
REMARK   14  A    between atoms: C22_37  and  C23_38 
ROOT
HETATM    1  N2  UNL     1      11.873  20.905  17.863  1.00  0.00    -0.344 N 
ATOM      2  H2  UNL     1      12.431  20.690  18.690  1.00  0.00     0.163 HD
HETATM    3  C4  UNL     1      12.309  21.935  17.028  1.00  0.00     0.264 C 
HETATM    4  O2  UNL     1      11.653  22.223  16.012  1.00  0.00    -0.266 OA
ENDROOT
BRANCH   1   5
HETATM    5  C3  UNL     1      10.667  20.119  17.625  1.00  0.00     0.161 C 
BRANCH   5   6
HETATM    6  C2  UNL     1      10.890  18.871  16.904  1.00  0.00     0.125 C 
HETATM    7  N1  UNL     1      11.939  18.162  17.072  1.00  0.00    -0.253 N 
ATOM      8  H1  UNL     1      12.027  17.301  16.533  1.00  0.00     0.195 HD
BRANCH   7   9
HETATM    9  O1  UNL     1      12.927  18.481  17.908  1.00  0.00    -0.284 OA
HETATM   10  C1  UNL     1      14.176  19.038  17.562  1.00  0.00     0.237 C 
ENDBRANCH   7   9
BRANCH   6  11
HETATM   11  N5  UNL     1       9.974  18.302  15.920  1.00  0.00    -0.343 N 
HETATM   12  C20 UNL     1       9.410  18.980  14.784  1.00  0.00     0.199 C 
HETATM   13  S1  UNL     1       7.707  18.311  14.772  1.00  0.00    -0.147 SA
HETATM   14  C21 UNL     1       7.923  17.203  16.237  1.00  0.00     0.112 C 
HETATM   15  C22 UNL     1       9.454  16.977  16.001  1.00  0.00     0.197 C 
BRANCH  15  16
HETATM   16  C23 UNL     1       9.515  16.122  14.820  1.00  0.00     0.197 C 
HETATM   17  O4  UNL     1      10.201  16.352  13.823  1.00  0.00    -0.646 OA
HETATM   18  O5  UNL     1       8.753  14.925  14.748  1.00  0.00    -0.646 OA
ENDBRANCH  15  16
ENDBRANCH   6  11
ENDBRANCH   5   6
BRANCH   5  19
HETATM   19  C16 UNL     1       9.971  20.035  18.941  1.00  0.00    -0.024 C 
HETATM   20  C17 UNL     1       8.595  19.445  18.880  1.00  0.00     0.017 C 
HETATM   21  C18 UNL     1      10.830  19.336  19.993  1.00  0.00     0.017 C 
HETATM   22  C19 UNL     1       9.797  21.460  19.496  1.00  0.00     0.017 C 
ENDBRANCH   5  19
ENDBRANCH   1   5
BRANCH   3  23
HETATM   23  C5  UNL     1      13.546  22.716  17.295  1.00  0.00     0.080 C 
HETATM   24  N4  UNL     1      13.827  22.875  18.494  1.00  0.00    -0.326 N 
HETATM   25  C10 UNL     1      14.751  23.450  19.308  1.00  0.00     0.222 C 
ATOM     26  H4  UNL     1      13.120  22.415  19.066  1.00  0.00     0.168 HD
HETATM   27  O3  UNL     1      14.447  23.522  20.555  1.00  0.00    -0.273 OA
BRANCH  23  28
HETATM   28  C6  UNL     1      14.358  23.313  16.226  1.00  0.00     0.063 C 
BRANCH  28  29
HETATM   29  C7  UNL     1      15.120  22.408  15.345  1.00  0.00     0.008 C 
BRANCH  29  30
HETATM   30  C8  UNL     1      14.566  22.081  14.019  1.00  0.00     0.027 C 
BRANCH  30  31
HETATM   31  C9  UNL     1      14.195  20.581  13.994  1.00  0.00     0.229 C 
BRANCH  31  32
HETATM   32  N3  UNL     1      12.773  20.397  13.848  1.00  0.00    -0.079 N 
ATOM     33  H33 UNL     1      12.274  20.647  14.702  1.00  0.00     0.274 HD
ATOM     34  H32 UNL     1      12.368  21.092  13.220  1.00  0.00     0.274 HD
ATOM     35  H31 UNL     1      12.553  19.447  13.549  1.00  0.00     0.274 HD
ENDBRANCH  31  32
ENDBRANCH  30  31
ENDBRANCH  29  30
ENDBRANCH  28  29
ENDBRANCH  23  28
BRANCH  25  36
HETATM   36  C11 UNL     1      16.035  23.983  18.905  1.00  0.00     0.111 C 
BRANCH  36  37
HETATM   37  C12 UNL     1      16.134  25.482  18.906  1.00  0.00    -0.043 C 
HETATM   38  C13 UNL     1      16.573  25.921  20.303  1.00  0.00     0.015 C 
HETATM   39  C14 UNL     1      14.870  26.192  18.591  1.00  0.00     0.015 C 
HETATM   40  C15 UNL     1      17.207  25.967  17.953  1.00  0.00     0.015 C 
ENDBRANCH  36  37
ENDBRANCH  25  36
ENDBRANCH   3  23
TORSDOF 14
ENDMDL
MODEL 5
REMARK VINA RESULT: -7.438337269      4.100      9.268
REMARK  14 active torsions:
REMARK  status: ('A' for Active; 'I' for Inactive)
REMARK    1  A    between atoms: O1_2  and  N1_3 
REMARK    2  A    between atoms: C2_5  and  C3_6 
REMARK    3  A    between atoms: C2_5  and  N5_33 
REMARK    4  A    between atoms: C3_6  and  N2_7 
REMARK    5  A    between atoms: C3_6  and  C16_29 
REMARK       I    between atoms: N2_7  and  C4_9 
REMARK    6  A    between atoms: C4_9  and  C5_11 
REMARK    7  A    between atoms: C5_11  and  C6_12 
REMARK    8  A    between atoms: C6_12  and  C7_13 
REMARK    9  A    between atoms: C7_13  and  C8_14 
REMARK   10  A    between atoms: C8_14  and  C9_15 
REMARK   11  A    between atoms: C9_15  and  N3_16 
REMARK       I    between atoms: N4_20  and  C10_22 
REMARK   12  A    between atoms: C10_22  and  C11_24 
REMARK   13  A    between atoms: C11_24  and  C12_25 
REMARK   14  A    between atoms: C22_37  and  C23_38 
ROOT
HETATM    1  N2  UNL     1      14.399  21.862  17.210  1.00  0.00    -0.344 N 
ATOM      2  H2  UNL     1      13.722  22.246  16.551  1.00  0.00     0.163 HD
HETATM    3  C4  UNL     1      14.406  20.482  17.416  1.00  0.00     0.264 C 
HETATM    4  O2  UNL     1      15.219  19.982  18.213  1.00  0.00    -0.266 OA
ENDROOT
BRANCH   1   5
HETATM    5  C3  UNL     1      15.304  22.790  17.882  1.00  0.00     0.161 C 
BRANCH   5   6
HETATM    6  C2  UNL     1      16.320  23.379  17.018  1.00  0.00     0.125 C 
HETATM    7  N1  UNL     1      17.322  24.022  17.480  1.00  0.00    -0.253 N 
ATOM      8  H1  UNL     1      17.993  24.406  16.815  1.00  0.00     0.195 HD
BRANCH   7   9
HETATM    9  O1  UNL     1      17.544  24.221  18.780  1.00  0.00    -0.284 OA
HETATM   10  C1  UNL     1      17.832  25.451  19.406  1.00  0.00     0.237 C 
ENDBRANCH   7   9
BRANCH   6  11
HETATM   11  N5  UNL     1      16.309  23.321  15.559  1.00  0.00    -0.343 N 
HETATM   12  C20 UNL     1      15.150  23.372  14.710  1.00  0.00     0.199 C 
HETATM   13  S1  UNL     1      15.596  22.157  13.416  1.00  0.00    -0.147 SA
HETATM   14  C21 UNL     1      17.256  21.731  14.113  1.00  0.00     0.112 C 
HETATM   15  C22 UNL     1      17.481  23.135  14.769  1.00  0.00     0.197 C 
BRANCH  15  16
HETATM   16  C23 UNL     1      17.720  24.028  13.640  1.00  0.00     0.197 C 
HETATM   17  O4  UNL     1      18.306  23.707  12.605  1.00  0.00    -0.646 OA
HETATM   18  O5  UNL     1      17.270  25.376  13.669  1.00  0.00    -0.646 OA
ENDBRANCH  15  16
ENDBRANCH   6  11
ENDBRANCH   5   6
BRANCH   5  19
HETATM   19  C16 UNL     1      14.430  23.725  18.648  1.00  0.00    -0.024 C 
HETATM   20  C17 UNL     1      14.708  23.770  20.119  1.00  0.00     0.017 C 
HETATM   21  C18 UNL     1      14.427  25.126  18.039  1.00  0.00     0.017 C 
HETATM   22  C19 UNL     1      12.970  23.259  18.507  1.00  0.00     0.017 C 
ENDBRANCH   5  19
ENDBRANCH   1   5
BRANCH   3  23
HETATM   23  C5  UNL     1      13.475  19.561  16.713  1.00  0.00     0.080 C 
HETATM   24  N4  UNL     1      13.497  19.626  15.473  1.00  0.00    -0.326 N 
HETATM   25  C10 UNL     1      12.926  19.087  14.364  1.00  0.00     0.222 C 
ATOM     26  H4  UNL     1      14.180  20.328  15.188  1.00  0.00     0.168 HD
HETATM   27  O3  UNL     1      13.149  19.697  13.254  1.00  0.00    -0.273 OA
BRANCH  23  28
HETATM   28  C6  UNL     1      12.547  18.670  17.422  1.00  0.00     0.063 C 
BRANCH  28  29
HETATM   29  C7  UNL     1      11.778  19.225  18.552  1.00  0.00     0.008 C 
BRANCH  29  30
HETATM   30  C8  UNL     1      10.730  20.221  18.272  1.00  0.00     0.027 C 
BRANCH  30  31
HETATM   31  C9  UNL     1       9.414  19.754  18.934  1.00  0.00     0.229 C 
BRANCH  31  32
HETATM   32  N3  UNL     1       8.537  19.136  17.972  1.00  0.00    -0.079 N 
ATOM     33  H33 UNL     1       8.855  18.199  17.722  1.00  0.00     0.274 HD
ATOM     34  H32 UNL     1       7.638  18.890  18.388  1.00  0.00     0.274 HD
ATOM     35  H31 UNL     1       8.419  19.724  17.147  1.00  0.00     0.274 HD
ENDBRANCH  31  32
ENDBRANCH  30  31
ENDBRANCH  29  30
ENDBRANCH  28  29
ENDBRANCH  23  28
BRANCH  25  36
HETATM   36  C11 UNL     1      12.099  17.901  14.316  1.00  0.00     0.111 C 
BRANCH  36  37
HETATM   37  C12 UNL     1      10.618  18.152  14.327  1.00  0.00    -0.043 C 
HETATM   38  C13 UNL     1      10.098  17.948  12.904  1.00  0.00     0.015 C 
HETATM   39  C14 UNL     1      10.219  19.516  14.756  1.00  0.00     0.015 C 
HETATM   40  C15 UNL     1       9.891  17.145  15.193  1.00  0.00     0.015 C 
ENDBRANCH  36  37
ENDBRANCH  25  36
ENDBRANCH   3  23
TORSDOF 14
ENDMDL
