MODEL 1
REMARK VINA RESULT: -8.431446685      0.000      0.000
REMARK  16 active torsions:
REMARK  status: ('A' for Active; 'I' for Inactive)
REMARK    1  A    between atoms: C2_2  and  O1_3 
REMARK    2  A    between atoms: O1_3  and  C3_4 
REMARK    3  A    between atoms: C3_4  and  C4_6 
REMARK    4  A    between atoms: C6_8  and  O3_9 
REMARK    5  A    between atoms: C7_11  and  N1_12 
REMARK    6  A    between atoms: N1_12  and  C9_14 
REMARK    7  A    between atoms: N1_12  and  C17_24 
REMARK    8  A    between atoms: C9_14  and  C10_15 
REMARK    9  A    between atoms: C10_15  and  C11_16 
REMARK   10  A    between atoms: C11_16  and  C13_18 
REMARK   11  A    between atoms: C13_18  and  O4_19 
REMARK   12  A    between atoms: C13_18  and  C14_21 
REMARK   13  A    between atoms: C17_24  and  O5_25 
REMARK   14  A    between atoms: O5_25  and  C18_26 
REMARK   15  A    between atoms: C18_26  and  C19_28 
REMARK   16  A    between atoms: C23_32  and  O7_34 
ROOT
HETATM    1  N1  UNL     1      11.730  19.303  15.934  1.00  0.00    -0.040 N 
HETATM    2  C8  UNL     1      12.232  17.988  16.293  1.00  0.00     0.276 C 
ENDROOT
BRANCH   1   3
HETATM    3  C7  UNL     1      12.721  20.315  15.910  1.00  0.00     0.262 C 
HETATM    4  C6  UNL     1      13.610  20.373  17.136  1.00  0.00     0.103 A 
HETATM    5  C5  UNL     1      14.791  21.248  16.678  1.00  0.00     0.051 A 
HETATM    6  C25 UNL     1      13.921  21.613  17.754  1.00  0.00     0.004 A 
HETATM    7  C4  UNL     1      14.583  21.528  15.231  1.00  0.00     0.129 C 
HETATM    8  C23 UNL     1      13.695  20.343  14.805  1.00  0.00     0.099 C 
HETATM    9  C24 UNL     1      13.168  20.721  13.457  1.00  0.00     0.049 C 
HETATM   10  C26 UNL     1      14.155  22.008  19.098  1.00  0.00     0.018 A 
HETATM   11  C27 UNL     1      13.231  22.784  18.107  1.00  0.00    -0.006 A 
HETATM   12  C28 UNL     1      13.785  24.137  17.698  1.00  0.00     0.011 C 
BRANCH   4  13
HETATM   13  O3  UNL     1      14.031  19.192  17.739  1.00  0.00    -0.386 OA
ATOM     14  H3  UNL     1      13.302  18.641  18.003  1.00  0.00     0.210 HD
ENDBRANCH   4  13
BRANCH   7  15
HETATM   15  C3  UNL     1      15.848  21.522  14.452  1.00  0.00     0.266 C 
HETATM   16  O2  UNL     1      16.786  20.732  14.725  1.00  0.00    -0.265 OA
BRANCH  15  17
HETATM   17  O1  UNL     1      16.041  22.393  13.388  1.00  0.00    -0.321 OA
BRANCH  17  18
HETATM   18  C2  UNL     1      15.521  23.686  13.430  1.00  0.00     0.174 C 
HETATM   19  C1  UNL     1      16.184  24.656  12.505  1.00  0.00     0.034 C 
ENDBRANCH  17  18
ENDBRANCH  15  17
ENDBRANCH   7  15
BRANCH   8  20
HETATM   20  O7  UNL     1      14.520  19.267  14.681  1.00  0.00    -0.387 OA
ATOM     21  H7  UNL     1      14.843  19.073  15.553  1.00  0.00     0.210 HD
ENDBRANCH   8  20
ENDBRANCH   1   3
BRANCH   1  22
HETATM   22  C9  UNL     1      11.073  19.281  14.639  1.00  0.00     0.240 C 
BRANCH  22  23
HETATM   23  C10 UNL     1      11.051  17.938  13.986  1.00  0.00     0.034 C 
BRANCH  23  24
HETATM   24  C11 UNL     1       9.626  17.589  13.600  1.00  0.00     0.012 C 
HETATM   25  C12 UNL     1       8.718  18.685  14.054  1.00  0.00     0.012 C 
BRANCH  24  26
HETATM   26  C13 UNL     1       9.179  16.291  14.212  1.00  0.00     0.125 C 
BRANCH  26  27
HETATM   27  O4  UNL     1       9.292  16.442  15.607  1.00  0.00    -0.395 OA
ATOM     28  H4  UNL     1       9.982  15.854  15.890  1.00  0.00     0.210 HD
ENDBRANCH  26  27
BRANCH  26  29
HETATM   29  C14 UNL     1       7.719  15.989  13.945  1.00  0.00     0.006 C 
HETATM   30  C15 UNL     1       6.995  15.717  15.257  1.00  0.00     0.012 C 
HETATM   31  C16 UNL     1       7.685  14.698  13.128  1.00  0.00     0.012 C 
ENDBRANCH  26  29
ENDBRANCH  24  26
ENDBRANCH  23  24
ENDBRANCH  22  23
ENDBRANCH   1  22
BRANCH   1  32
HETATM   32  C17 UNL     1      10.684  19.614  16.909  1.00  0.00     0.415 C 
BRANCH  32  33
HETATM   33  O5  UNL     1      10.311  18.473  17.657  1.00  0.00    -0.293 OA
BRANCH  33  34
HETATM   34  C18 UNL     1       9.115  18.350  18.315  1.00  0.00     0.268 C 
HETATM   35  O6  UNL     1       8.127  17.886  17.721  1.00  0.00    -0.264 OA
BRANCH  34  36
HETATM   36  C19 UNL     1       8.983  18.772  19.751  1.00  0.00     0.037 C 
HETATM   37  C20 UNL     1      10.323  19.114  20.342  1.00  0.00     0.025 C 
HETATM   38  C21 UNL     1       8.122  20.040  19.812  1.00  0.00     0.025 C 
HETATM   39  C22 UNL     1       8.248  17.708  20.537  1.00  0.00     0.025 C 
ENDBRANCH  34  36
ENDBRANCH  33  34
ENDBRANCH  32  33
ENDBRANCH   1  32
TORSDOF 16
ENDMDL
MODEL 2
REMARK VINA RESULT: -8.402819016      2.119      8.641
REMARK  16 active torsions:
REMARK  status: ('A' for Active; 'I' for Inactive)
REMARK    1  A    between atoms: C2_2  and  O1_3 
REMARK    2  A    between atoms: O1_3  and  C3_4 
REMARK    3  A    between atoms: C3_4  and  C4_6 
REMARK    4  A    between atoms: C6_8  and  O3_9 
REMARK    5  A    between atoms: C7_11  and  N1_12 
REMARK    6  A    between atoms: N1_12  and  C9_14 
REMARK    7  A    between atoms: N1_12  and  C17_24 
REMARK    8  A    between atoms: C9_14  and  C10_15 
REMARK    9  A    between atoms: C10_15  and  C11_16 
REMARK   10  A    between atoms: C11_16  and  C13_18 
REMARK   11  A    between atoms: C13_18  and  O4_19 
REMARK   12  A    between atoms: C13_18  and  C14_21 
REMARK   13  A    between atoms: C17_24  and  O5_25 
REMARK   14  A    between atoms: O5_25  and  C18_26 
REMARK   15  A    between atoms: C18_26  and  C19_28 
REMARK   16  A    between atoms: C23_32  and  O7_34 
ROOT
HETATM    1  N1  UNL     1      13.420  20.519  16.957  1.00  0.00    -0.040 N 
HETATM    2  C8  UNL     1      14.307  19.641  17.700  1.00  0.00     0.276 C 
ENDROOT
BRANCH   1   3
HETATM    3  C7  UNL     1      12.054  20.145  17.016  1.00  0.00     0.262 C 
HETATM    4  C6  UNL     1      11.764  18.705  16.643  1.00  0.00     0.103 A 
HETATM    5  C5  UNL     1      10.334  18.483  17.167  1.00  0.00     0.051 A 
HETATM    6  C25 UNL     1      10.684  18.377  15.784  1.00  0.00     0.004 A 
HETATM    7  C4  UNL     1       9.944  19.721  17.895  1.00  0.00     0.129 C 
HETATM    8  C23 UNL     1      11.317  20.304  18.283  1.00  0.00     0.099 C 
HETATM    9  C24 UNL     1      11.032  21.705  18.720  1.00  0.00     0.049 C 
HETATM   10  C26 UNL     1      10.479  17.366  14.807  1.00  0.00     0.018 A 
HETATM   11  C27 UNL     1      10.136  18.874  14.590  1.00  0.00    -0.006 A 
HETATM   12  C28 UNL     1       8.645  19.147  14.502  1.00  0.00     0.011 C 
BRANCH   4  13
HETATM   13  O3  UNL     1      12.637  17.699  17.048  1.00  0.00    -0.386 OA
ATOM     14  H3  UNL     1      13.372  18.039  17.547  1.00  0.00     0.210 HD
ENDBRANCH   4  13
BRANCH   7  15
HETATM   15  C3  UNL     1       9.144  19.449  19.116  1.00  0.00     0.266 C 
HETATM   16  O2  UNL     1       8.197  20.199  19.463  1.00  0.00    -0.265 OA
BRANCH  15  17
HETATM   17  O1  UNL     1       9.413  18.351  19.923  1.00  0.00    -0.321 OA
BRANCH  17  18
HETATM   18  C2  UNL     1       8.371  17.576  20.431  1.00  0.00     0.174 C 
HETATM   19  C1  UNL     1       7.814  16.572  19.472  1.00  0.00     0.034 C 
ENDBRANCH  17  18
ENDBRANCH  15  17
ENDBRANCH   7  15
BRANCH   8  20
HETATM   20  O7  UNL     1      11.758  19.579  19.348  1.00  0.00    -0.387 OA
ATOM     21  H7  UNL     1      12.688  19.441  19.214  1.00  0.00     0.210 HD
ENDBRANCH   8  20
ENDBRANCH   1   3
BRANCH   1  22
HETATM   22  C9  UNL     1      13.533  21.893  17.413  1.00  0.00     0.240 C 
BRANCH  22  23
HETATM   23  C10 UNL     1      14.738  22.161  18.254  1.00  0.00     0.034 C 
BRANCH  23  24
HETATM   24  C11 UNL     1      14.737  23.615  18.686  1.00  0.00     0.012 C 
HETATM   25  C12 UNL     1      13.866  24.396  17.758  1.00  0.00     0.012 C 
BRANCH  24  26
HETATM   26  C13 UNL     1      16.120  24.206  18.680  1.00  0.00     0.125 C 
BRANCH  26  27
HETATM   27  O4  UNL     1      16.051  25.386  17.915  1.00  0.00    -0.395 OA
ATOM     28  H4  UNL     1      16.856  25.863  18.078  1.00  0.00     0.210 HD
ENDBRANCH  26  27
BRANCH  26  29
HETATM   29  C14 UNL     1      16.582  24.631  20.058  1.00  0.00     0.006 C 
HETATM   30  C15 UNL     1      15.423  24.551  21.043  1.00  0.00     0.012 C 
HETATM   31  C16 UNL     1      16.984  26.101  19.946  1.00  0.00     0.012 C 
ENDBRANCH  26  29
ENDBRANCH  24  26
ENDBRANCH  23  24
ENDBRANCH  22  23
ENDBRANCH   1  22
BRANCH   1  32
HETATM   32  C17 UNL     1      13.907  20.512  15.578  1.00  0.00     0.415 C 
BRANCH  32  33
HETATM   33  O5  UNL     1      13.845  21.800  14.996  1.00  0.00    -0.293 OA
BRANCH  33  34
HETATM   34  C18 UNL     1      14.446  22.131  13.810  1.00  0.00     0.268 C 
HETATM   35  O6  UNL     1      13.813  22.026  12.746  1.00  0.00    -0.264 OA
BRANCH  34  36
HETATM   36  C19 UNL     1      15.866  22.620  13.780  1.00  0.00     0.037 C 
HETATM   37  C20 UNL     1      16.111  23.502  12.587  1.00  0.00     0.025 C 
HETATM   38  C21 UNL     1      16.119  23.469  15.033  1.00  0.00     0.025 C 
HETATM   39  C22 UNL     1      16.819  21.447  13.850  1.00  0.00     0.025 C 
ENDBRANCH  34  36
ENDBRANCH  33  34
ENDBRANCH  32  33
ENDBRANCH   1  32
TORSDOF 16
ENDMDL
MODEL 3
REMARK VINA RESULT: -8.376069113      2.211      6.333
REMARK  16 active torsions:
REMARK  status: ('A' for Active; 'I' for Inactive)
REMARK    1  A    between atoms: C2_2  and  O1_3 
REMARK    2  A    between atoms: O1_3  and  C3_4 
REMARK    3  A    between atoms: C3_4  and  C4_6 
REMARK    4  A    between atoms: C6_8  and  O3_9 
REMARK    5  A    between atoms: C7_11  and  N1_12 
REMARK    6  A    between atoms: N1_12  and  C9_14 
REMARK    7  A    between atoms: N1_12  and  C17_24 
REMARK    8  A    between atoms: C9_14  and  C10_15 
REMARK    9  A    between atoms: C10_15  and  C11_16 
REMARK   10  A    between atoms: C11_16  and  C13_18 
REMARK   11  A    between atoms: C13_18  and  O4_19 
REMARK   12  A    between atoms: C13_18  and  C14_21 
REMARK   13  A    between atoms: C17_24  and  O5_25 
REMARK   14  A    between atoms: O5_25  and  C18_26 
REMARK   15  A    between atoms: C18_26  and  C19_28 
REMARK   16  A    between atoms: C23_32  and  O7_34 
ROOT
HETATM    1  N1  UNL     1      13.210  21.896  17.506  1.00  0.00    -0.040 N 
HETATM    2  C8  UNL     1      13.779  20.956  18.455  1.00  0.00     0.276 C 
ENDROOT
BRANCH   1   3
HETATM    3  C7  UNL     1      13.119  21.399  16.182  1.00  0.00     0.262 C 
HETATM    4  C6  UNL     1      14.414  20.859  15.608  1.00  0.00     0.103 A 
HETATM    5  C5  UNL     1      13.950  20.055  14.380  1.00  0.00     0.051 A 
HETATM    6  C25 UNL     1      14.819  21.187  14.288  1.00  0.00     0.004 A 
HETATM    7  C4  UNL     1      12.462  20.073  14.390  1.00  0.00     0.129 C 
HETATM    8  C23 UNL     1      12.160  20.322  15.880  1.00  0.00     0.099 C 
HETATM    9  C24 UNL     1      10.710  20.686  15.925  1.00  0.00     0.049 C 
HETATM   10  C26 UNL     1      16.083  21.391  13.673  1.00  0.00     0.018 A 
HETATM   11  C27 UNL     1      14.855  22.337  13.482  1.00  0.00    -0.006 A 
HETATM   12  C28 UNL     1      14.271  22.294  12.081  1.00  0.00     0.011 C 
BRANCH   4  13
HETATM   13  O3  UNL     1      15.277  20.131  16.421  1.00  0.00    -0.386 OA
ATOM     14  H3  UNL     1      15.899  19.617  15.917  1.00  0.00     0.210 HD
ENDBRANCH   4  13
BRANCH   7  15
HETATM   15  C3  UNL     1      11.863  18.785  13.958  1.00  0.00     0.266 C 
HETATM   16  O2  UNL     1      12.396  17.682  14.240  1.00  0.00    -0.265 OA
BRANCH  15  17
HETATM   17  O1  UNL     1      10.685  18.750  13.222  1.00  0.00    -0.321 OA
BRANCH  17  18
HETATM   18  C2  UNL     1       9.627  17.935  13.622  1.00  0.00     0.174 C 
HETATM   19  C1  UNL     1       8.362  18.666  13.943  1.00  0.00     0.034 C 
ENDBRANCH  17  18
ENDBRANCH  15  17
ENDBRANCH   7  15
BRANCH   8  20
HETATM   20  O7  UNL     1      12.346  19.132  16.516  1.00  0.00    -0.387 OA
ATOM     21  H7  UNL     1      11.553  18.628  16.382  1.00  0.00     0.210 HD
ENDBRANCH   8  20
ENDBRANCH   1   3
BRANCH   1  22
HETATM   22  C9  UNL     1      11.886  22.326  17.920  1.00  0.00     0.240 C 
BRANCH  22  23
HETATM   23  C10 UNL     1      11.567  22.037  19.350  1.00  0.00     0.034 C 
BRANCH  23  24
HETATM   24  C11 UNL     1      10.205  21.378  19.439  1.00  0.00     0.012 C 
HETATM   25  C12 UNL     1       9.567  21.754  20.737  1.00  0.00     0.012 C 
BRANCH  24  26
HETATM   26  C13 UNL     1      10.297  19.879  19.351  1.00  0.00     0.125 C 
BRANCH  26  27
HETATM   27  O4  UNL     1      10.845  19.436  20.570  1.00  0.00    -0.395 OA
ATOM     28  H4  UNL     1      10.128  19.069  21.073  1.00  0.00     0.210 HD
ENDBRANCH  26  27
BRANCH  26  29
HETATM   29  C14 UNL     1       8.941  19.214  19.239  1.00  0.00     0.006 C 
HETATM   30  C15 UNL     1       8.787  18.160  20.328  1.00  0.00     0.012 C 
HETATM   31  C16 UNL     1       8.924  18.487  17.894  1.00  0.00     0.012 C 
ENDBRANCH  26  29
ENDBRANCH  24  26
ENDBRANCH  23  24
ENDBRANCH  22  23
ENDBRANCH   1  22
BRANCH   1  32
HETATM   32  C17 UNL     1      14.055  23.088  17.563  1.00  0.00     0.415 C 
BRANCH  32  33
HETATM   33  O5  UNL     1      15.270  22.835  18.242  1.00  0.00    -0.293 OA
BRANCH  33  34
HETATM   34  C18 UNL     1      16.230  23.786  18.469  1.00  0.00     0.268 C 
HETATM   35  O6  UNL     1      17.310  23.734  17.857  1.00  0.00    -0.264 OA
BRANCH  34  36
HETATM   36  C19 UNL     1      15.991  24.895  19.454  1.00  0.00     0.037 C 
HETATM   37  C20 UNL     1      15.257  24.395  20.669  1.00  0.00     0.025 C 
HETATM   38  C21 UNL     1      17.348  25.428  19.932  1.00  0.00     0.025 C 
HETATM   39  C22 UNL     1      15.285  26.048  18.775  1.00  0.00     0.025 C 
ENDBRANCH  34  36
ENDBRANCH  33  34
ENDBRANCH  32  33
ENDBRANCH   1  32
TORSDOF 16
ENDMDL
MODEL 4
REMARK VINA RESULT: -8.190188623      1.756      2.526
REMARK  16 active torsions:
REMARK  status: ('A' for Active; 'I' for Inactive)
REMARK    1  A    between atoms: C2_2  and  O1_3 
REMARK    2  A    between atoms: O1_3  and  C3_4 
REMARK    3  A    between atoms: C3_4  and  C4_6 
REMARK    4  A    between atoms: C6_8  and  O3_9 
REMARK    5  A    between atoms: C7_11  and  N1_12 
REMARK    6  A    between atoms: N1_12  and  C9_14 
REMARK    7  A    between atoms: N1_12  and  C17_24 
REMARK    8  A    between atoms: C9_14  and  C10_15 
REMARK    9  A    between atoms: C10_15  and  C11_16 
REMARK   10  A    between atoms: C11_16  and  C13_18 
REMARK   11  A    between atoms: C13_18  and  O4_19 
REMARK   12  A    between atoms: C13_18  and  C14_21 
REMARK   13  A    between atoms: C17_24  and  O5_25 
REMARK   14  A    between atoms: O5_25  and  C18_26 
REMARK   15  A    between atoms: C18_26  and  C19_28 
REMARK   16  A    between atoms: C23_32  and  O7_34 
ROOT
HETATM    1  N1  UNL     1      13.227  20.755  16.042  1.00  0.00    -0.040 N 
HETATM    2  C8  UNL     1      13.484  19.667  16.969  1.00  0.00     0.276 C 
ENDROOT
BRANCH   1   3
HETATM    3  C7  UNL     1      14.129  21.841  16.159  1.00  0.00     0.262 C 
HETATM    4  C6  UNL     1      14.849  21.939  17.489  1.00  0.00     0.103 A 
HETATM    5  C5  UNL     1      16.005  22.913  17.198  1.00  0.00     0.051 A 
HETATM    6  C25 UNL     1      14.980  23.183  18.159  1.00  0.00     0.004 A 
HETATM    7  C4  UNL     1      15.959  23.211  15.740  1.00  0.00     0.129 C 
HETATM    8  C23 UNL     1      15.229  21.972  15.187  1.00  0.00     0.099 C 
HETATM    9  C24 UNL     1      14.847  22.340  13.789  1.00  0.00     0.049 C 
HETATM   10  C26 UNL     1      15.011  23.562  19.527  1.00  0.00     0.018 A 
HETATM   11  C27 UNL     1      14.159  24.288  18.438  1.00  0.00    -0.006 A 
HETATM   12  C28 UNL     1      14.651  25.690  18.123  1.00  0.00     0.011 C 
BRANCH   4  13
HETATM   13  O3  UNL     1      15.285  20.779  18.124  1.00  0.00    -0.386 OA
ATOM     14  H3  UNL     1      16.111  20.465  17.774  1.00  0.00     0.210 HD
ENDBRANCH   4  13
BRANCH   7  15
HETATM   15  C3  UNL     1      17.308  23.323  15.128  1.00  0.00     0.266 C 
HETATM   16  O2  UNL     1      18.354  23.204  15.814  1.00  0.00    -0.265 OA
BRANCH  15  17
HETATM   17  O1  UNL     1      17.463  23.563  13.769  1.00  0.00    -0.321 OA
BRANCH  17  18
HETATM   18  C2  UNL     1      17.565  24.868  13.290  1.00  0.00     0.174 C 
HETATM   19  C1  UNL     1      16.667  25.182  12.136  1.00  0.00     0.034 C 
ENDBRANCH  17  18
ENDBRANCH  15  17
ENDBRANCH   7  15
BRANCH   8  20
HETATM   20  O7  UNL     1      16.147  20.966  15.154  1.00  0.00    -0.387 OA
ATOM     21  H7  UNL     1      15.861  20.363  14.479  1.00  0.00     0.210 HD
ENDBRANCH   8  20
ENDBRANCH   1   3
BRANCH   1  22
HETATM   22  C9  UNL     1      13.251  20.293  14.666  1.00  0.00     0.240 C 
BRANCH  22  23
HETATM   23  C10 UNL     1      11.911  19.913  14.124  1.00  0.00     0.034 C 
BRANCH  23  24
HETATM   24  C11 UNL     1      11.896  18.428  13.817  1.00  0.00     0.012 C 
HETATM   25  C12 UNL     1      11.826  18.240  12.337  1.00  0.00     0.012 C 
BRANCH  24  26
HETATM   26  C13 UNL     1      10.727  17.732  14.459  1.00  0.00     0.125 C 
BRANCH  26  27
HETATM   27  O4  UNL     1      10.385  18.486  15.598  1.00  0.00    -0.395 OA
ATOM     28  H4  UNL     1      10.847  18.097  16.331  1.00  0.00     0.210 HD
ENDBRANCH  26  27
BRANCH  26  29
HETATM   29  C14 UNL     1       9.494  17.725  13.580  1.00  0.00     0.006 C 
HETATM   30  C15 UNL     1       8.523  18.806  14.036  1.00  0.00     0.012 C 
HETATM   31  C16 UNL     1       8.811  16.375  13.802  1.00  0.00     0.012 C 
ENDBRANCH  26  29
ENDBRANCH  24  26
ENDBRANCH  23  24
ENDBRANCH  22  23
ENDBRANCH   1  22
BRANCH   1  32
HETATM   32  C17 UNL     1      11.852  21.184  16.297  1.00  0.00     0.415 C 
BRANCH  32  33
HETATM   33  O5  UNL     1      11.354  20.651  17.509  1.00  0.00    -0.293 OA
BRANCH  33  34
HETATM   34  C18 UNL     1      10.887  21.416  18.545  1.00  0.00     0.268 C 
HETATM   35  O6  UNL     1      11.058  22.647  18.531  1.00  0.00    -0.264 OA
BRANCH  34  36
HETATM   36  C19 UNL     1      10.170  20.783  19.703  1.00  0.00     0.037 C 
HETATM   37  C20 UNL     1       9.873  21.794  20.777  1.00  0.00     0.025 C 
HETATM   38  C21 UNL     1       8.823  20.239  19.208  1.00  0.00     0.025 C 
HETATM   39  C22 UNL     1      10.958  19.596  20.214  1.00  0.00     0.025 C 
ENDBRANCH  34  36
ENDBRANCH  33  34
ENDBRANCH  32  33
ENDBRANCH   1  32
TORSDOF 16
ENDMDL
MODEL 5
REMARK VINA RESULT: -8.158144660      2.177      6.999
REMARK  16 active torsions:
REMARK  status: ('A' for Active; 'I' for Inactive)
REMARK    1  A    between atoms: C2_2  and  O1_3 
REMARK    2  A    between atoms: O1_3  and  C3_4 
REMARK    3  A    between atoms: C3_4  and  C4_6 
REMARK    4  A    between atoms: C6_8  and  O3_9 
REMARK    5  A    between atoms: C7_11  and  N1_12 
REMARK    6  A    between atoms: N1_12  and  C9_14 
REMARK    7  A    between atoms: N1_12  and  C17_24 
REMARK    8  A    between atoms: C9_14  and  C10_15 
REMARK    9  A    between atoms: C10_15  and  C11_16 
REMARK   10  A    between atoms: C11_16  and  C13_18 
REMARK   11  A    between atoms: C13_18  and  O4_19 
REMARK   12  A    between atoms: C13_18  and  C14_21 
REMARK   13  A    between atoms: C17_24  and  O5_25 
REMARK   14  A    between atoms: O5_25  and  C18_26 
REMARK   15  A    between atoms: C18_26  and  C19_28 
REMARK   16  A    between atoms: C23_32  and  O7_34 
ROOT
HETATM    1  N1  UNL     1      12.724  21.431  17.650  1.00  0.00    -0.040 N 
HETATM    2  C8  UNL     1      11.770  22.478  17.971  1.00  0.00     0.276 C 
ENDROOT
BRANCH   1   3
HETATM    3  C7  UNL     1      12.697  21.018  16.295  1.00  0.00     0.262 C 
HETATM    4  C6  UNL     1      14.002  20.457  15.768  1.00  0.00     0.103 A 
HETATM    5  C5  UNL     1      13.585  19.747  14.467  1.00  0.00     0.051 A 
HETATM    6  C25 UNL     1      14.503  20.844  14.497  1.00  0.00     0.004 A 
HETATM    7  C4  UNL     1      12.101  19.830  14.389  1.00  0.00     0.129 C 
HETATM    8  C23 UNL     1      11.716  20.003  15.870  1.00  0.00     0.099 C 
HETATM    9  C24 UNL     1      10.282  20.427  15.850  1.00  0.00     0.049 C 
HETATM   10  C26 UNL     1      15.810  21.028  13.972  1.00  0.00     0.018 A 
HETATM   11  C27 UNL     1      14.635  22.036  13.767  1.00  0.00    -0.006 A 
HETATM   12  C28 UNL     1      14.138  22.101  12.334  1.00  0.00     0.011 C 
BRANCH   4  13
HETATM   13  O3  UNL     1      14.784  19.644  16.585  1.00  0.00    -0.386 OA
ATOM     14  H3  UNL     1      15.088  20.100  17.361  1.00  0.00     0.210 HD
ENDBRANCH   4  13
BRANCH   7  15
HETATM   15  C3  UNL     1      11.479  18.597  13.843  1.00  0.00     0.266 C 
HETATM   16  O2  UNL     1      11.984  17.462  14.038  1.00  0.00    -0.265 OA
BRANCH  15  17
HETATM   17  O1  UNL     1      10.311  18.651  13.094  1.00  0.00    -0.321 OA
BRANCH  17  18
HETATM   18  C2  UNL     1       9.227  17.834  13.415  1.00  0.00     0.174 C 
HETATM   19  C1  UNL     1       8.064  18.550  14.024  1.00  0.00     0.034 C 
ENDBRANCH  17  18
ENDBRANCH  15  17
ENDBRANCH   7  15
BRANCH   8  20
HETATM   20  O7  UNL     1      11.815  18.771  16.443  1.00  0.00    -0.387 OA
ATOM     21  H7  UNL     1      12.363  18.874  17.211  1.00  0.00     0.210 HD
ENDBRANCH   8  20
ENDBRANCH   1   3
BRANCH   1  22
HETATM   22  C9  UNL     1      14.081  21.837  17.973  1.00  0.00     0.240 C 
BRANCH  22  23
HETATM   23  C10 UNL     1      14.170  23.102  18.763  1.00  0.00     0.034 C 
BRANCH  23  24
HETATM   24  C11 UNL     1      15.169  24.035  18.107  1.00  0.00     0.012 C 
HETATM   25  C12 UNL     1      15.763  23.353  16.918  1.00  0.00     0.012 C 
BRANCH  24  26
HETATM   26  C13 UNL     1      16.271  24.434  19.049  1.00  0.00     0.125 C 
BRANCH  26  27
HETATM   27  O4  UNL     1      17.483  24.073  18.429  1.00  0.00    -0.395 OA
ATOM     28  H4  UNL     1      18.131  24.002  19.120  1.00  0.00     0.210 HD
ENDBRANCH  26  27
BRANCH  26  29
HETATM   29  C14 UNL     1      16.345  25.931  19.265  1.00  0.00     0.006 C 
HETATM   30  C15 UNL     1      17.349  26.546  18.299  1.00  0.00     0.012 C 
HETATM   31  C16 UNL     1      16.886  26.139  20.680  1.00  0.00     0.012 C 
ENDBRANCH  26  29
ENDBRANCH  24  26
ENDBRANCH  23  24
ENDBRANCH  22  23
ENDBRANCH   1  22
BRANCH   1  32
HETATM   32  C17 UNL     1      12.416  20.316  18.545  1.00  0.00     0.415 C 
BRANCH  32  33
HETATM   33  O5  UNL     1      11.081  20.374  19.010  1.00  0.00    -0.293 OA
BRANCH  33  34
HETATM   34  C18 UNL     1      10.482  19.377  19.734  1.00  0.00     0.268 C 
HETATM   35  O6  UNL     1      11.105  18.818  20.653  1.00  0.00    -0.264 OA
BRANCH  34  36
HETATM   36  C19 UNL     1       9.075  18.948  19.430  1.00  0.00     0.037 C 
HETATM   37  C20 UNL     1       8.987  18.293  18.078  1.00  0.00     0.025 C 
HETATM   38  C21 UNL     1       8.643  17.905  20.468  1.00  0.00     0.025 C 
HETATM   39  C22 UNL     1       8.132  20.123  19.575  1.00  0.00     0.025 C 
ENDBRANCH  34  36
ENDBRANCH  33  34
ENDBRANCH  32  33
ENDBRANCH   1  32
TORSDOF 16
ENDMDL
